# generated using pymatgen
data_CaCdH8(C8O5)2
_symmetry_space_group_name_H-M   'P 1'
_cell_length_a   14.20860000
_cell_length_b   15.58830000
_cell_length_c   15.58830000
_cell_angle_alpha   78.01220000
_cell_angle_beta   62.88710000
_cell_angle_gamma   62.88710000
_symmetry_Int_Tables_number   1
_chemical_formula_structural   CaCdH8(C8O5)2
_chemical_formula_sum   'Ca4 Cd4 H32 C64 O40'
_cell_volume   2735.49780808
_cell_formula_units_Z   4
loop_
 _symmetry_equiv_pos_site_id
 _symmetry_equiv_pos_as_xyz
  1  'x, y, z'
loop_
 _atom_site_type_symbol
 _atom_site_label
 _atom_site_symmetry_multiplicity
 _atom_site_fract_x
 _atom_site_fract_y
 _atom_site_fract_z
 _atom_site_occupancy
 _atom_site_charge
  Ca  Ca1  1  0.547460  0.000000  0.405080  1.0  1.6593
  Ca  Ca2  1  0.952540  0.000000  0.594920  1.0  1.6616
  Ca  Ca3  1  0.047460  0.405080  0.000000  1.0  1.6626
  Ca  Ca4  1  0.452540  0.594920  0.000000  1.0  1.6635
  Cd  Cd5  1  0.232240  0.035530  0.500000  1.0  1.0692
  Cd  Cd6  1  0.767760  0.964470  0.500000  1.0  1.0686
  Cd  Cd7  1  0.267770  0.500000  0.964460  1.0  1.0678
  Cd  Cd8  1  0.732230  0.500000  0.035540  1.0  1.0687
  H  H9  1  0.601600  0.345600  0.273200  1.0  0.3885
  H  H10  1  0.446000  0.225200  0.399400  1.0  0.1118
  H  H11  1  0.488100  0.413800  0.182400  1.0  0.1246
  H  H12  1  0.278600  0.285300  0.229700  1.0  0.1076
  H  H13  1  0.220400  0.654400  0.726800  1.0  0.3899
  H  H14  1  0.070600  0.774800  0.600600  1.0  0.1106
  H  H15  1  0.084300  0.586200  0.817600  1.0  0.1256
  H  H16  1  0.793600  0.714700  0.770300  1.0  0.1083
  H  H17  1  0.125200  0.273200  0.654400  1.0  0.3885
  H  H18  1  0.154600  0.399400  0.774800  1.0  0.111
  H  H19  1  0.329500  0.182400  0.586200  1.0  0.1262
  H  H20  1  0.491700  0.229700  0.714700  1.0  0.1061
  H  H21  1  0.052800  0.726800  0.345600  1.0  0.3883
  H  H22  1  0.328800  0.600600  0.225200  1.0  0.111
  H  H23  1  0.098100  0.817600  0.413800  1.0  0.1249
  H  H24  1  0.436100  0.770300  0.285300  1.0  0.1061
  H  H25  1  0.720400  0.726800  0.654400  1.0  0.3878
  H  H26  1  0.570600  0.600600  0.774800  1.0  0.1113
  H  H27  1  0.584300  0.817600  0.586200  1.0  0.125
  H  H28  1  0.293600  0.770300  0.714700  1.0  0.1065
  H  H29  1  0.101600  0.273200  0.345600  1.0  0.39
  H  H30  1  0.946000  0.399400  0.225200  1.0  0.1108
  H  H31  1  0.988100  0.182400  0.413800  1.0  0.1256
  H  H32  1  0.778600  0.229700  0.285300  1.0  0.1067
  H  H33  1  0.552800  0.345600  0.726800  1.0  0.3888
  H  H34  1  0.828800  0.225200  0.600600  1.0  0.1117
  H  H35  1  0.598100  0.413800  0.817600  1.0  0.1248
  H  H36  1  0.936100  0.285300  0.770300  1.0  0.1073
  H  H37  1  0.625200  0.654400  0.273200  1.0  0.3891
  H  H38  1  0.654600  0.774800  0.399400  1.0  0.1105
  H  H39  1  0.829500  0.586200  0.182400  1.0  0.1259
  H  H40  1  0.991700  0.714700  0.229700  1.0  0.1066
  C  C41  1  0.304200  0.174300  0.380900  1.0  0.7168
  C  C42  1  0.353400  0.413390  0.109610  1.0  0.7545
  C  C43  1  0.354600  0.244050  0.322550  1.0  -0.1412
  C  C44  1  0.430000  0.258000  0.347200  1.0  -0.1977
  C  C45  1  0.480500  0.320600  0.294000  1.0  0.3281
  C  C46  1  0.455300  0.370780  0.217220  1.0  -0.1771
  C  C47  1  0.380700  0.356770  0.192030  1.0  -0.1131
  C  C48  1  0.329500  0.293800  0.245600  1.0  -0.0425
  C  C49  1  0.859400  0.825700  0.619100  1.0  0.7185
  C  C50  1  0.876400  0.586610  0.890390  1.0  0.7515
  C  C51  1  0.921200  0.755950  0.677450  1.0  -0.1417
  C  C52  1  0.035200  0.742000  0.652800  1.0  -0.1951
  C  C53  1  0.095100  0.679400  0.706000  1.0  0.3283
  C  C54  1  0.043300  0.629220  0.782780  1.0  -0.1786
  C  C55  1  0.929500  0.643230  0.807970  1.0  -0.1132
  C  C56  1  0.868900  0.706200  0.754400  1.0  -0.0435
  C  C57  1  0.314900  0.380900  0.825700  1.0  0.7198
  C  C58  1  0.536990  0.109610  0.586610  1.0  0.7516
  C  C59  1  0.322850  0.322550  0.755950  1.0  -0.142
  C  C60  1  0.222800  0.347200  0.742000  1.0  -0.1983
  C  C61  1  0.225500  0.294000  0.679400  1.0  0.329
  C  C62  1  0.327480  0.217220  0.629220  1.0  -0.1797
  C  C63  1  0.427270  0.192030  0.643230  1.0  -0.1121
  C  C64  1  0.424900  0.245600  0.706200  1.0  -0.0411
  C  C65  1  0.521500  0.619100  0.174300  1.0  0.7168
  C  C66  1  0.233210  0.890390  0.413390  1.0  0.7527
  C  C67  1  0.401350  0.677450  0.244050  1.0  -0.1419
  C  C68  1  0.312000  0.652800  0.258000  1.0  -0.1947
  C  C69  1  0.198900  0.706000  0.320600  1.0  0.3293
  C  C70  1  0.173920  0.782780  0.370780  1.0  -0.179
  C  C71  1  0.262530  0.807970  0.356770  1.0  -0.1139
  C  C72  1  0.376700  0.754400  0.293800  1.0  -0.0429
  C  C73  1  0.359400  0.619100  0.825700  1.0  0.7167
  C  C74  1  0.376400  0.890390  0.586610  1.0  0.7522
  C  C75  1  0.421200  0.677450  0.755950  1.0  -0.1415
  C  C76  1  0.535200  0.652800  0.742000  1.0  -0.195
  C  C77  1  0.595100  0.706000  0.679400  1.0  0.3288
  C  C78  1  0.543300  0.782780  0.629220  1.0  -0.1788
  C  C79  1  0.429500  0.807970  0.643230  1.0  -0.1138
  C  C80  1  0.368900  0.754400  0.706200  1.0  -0.0422
  C  C81  1  0.804200  0.380900  0.174300  1.0  0.7201
  C  C82  1  0.853400  0.109610  0.413390  1.0  0.752
  C  C83  1  0.854600  0.322550  0.244050  1.0  -0.1414
  C  C84  1  0.930000  0.347200  0.258000  1.0  -0.1974
  C  C85  1  0.980500  0.294000  0.320600  1.0  0.3287
  C  C86  1  0.955300  0.217220  0.370780  1.0  -0.1786
  C  C87  1  0.880700  0.192030  0.356770  1.0  -0.1125
  C  C88  1  0.829500  0.245600  0.293800  1.0  -0.0415
  C  C89  1  0.021500  0.174300  0.619100  1.0  0.7154
  C  C90  1  0.733210  0.413390  0.890390  1.0  0.7555
  C  C91  1  0.901350  0.244050  0.677450  1.0  -0.1402
  C  C92  1  0.812000  0.258000  0.652800  1.0  -0.1983
  C  C93  1  0.698900  0.320600  0.706000  1.0  0.3299
  C  C94  1  0.673920  0.370780  0.782780  1.0  -0.178
  C  C95  1  0.762530  0.356770  0.807970  1.0  -0.1133
  C  C96  1  0.876700  0.293800  0.754400  1.0  -0.0423
  C  C97  1  0.814900  0.825700  0.380900  1.0  0.7181
  C  C98  1  0.036990  0.586610  0.109610  1.0  0.7518
  C  C99  1  0.822850  0.755950  0.322550  1.0  -0.1427
  C  C100  1  0.722800  0.742000  0.347200  1.0  -0.1975
  C  C101  1  0.725500  0.679400  0.294000  1.0  0.3289
  C  C102  1  0.827480  0.629220  0.217220  1.0  -0.1794
  C  C103  1  0.927270  0.643230  0.192030  1.0  -0.113
  C  C104  1  0.924900  0.706200  0.245600  1.0  -0.0413
  O  O105  1  0.356110  0.111250  0.428930  1.0  -0.7751
  O  O106  1  0.214560  0.176310  0.381970  1.0  -0.5727
  O  O107  1  0.304540  0.386860  0.075860  1.0  -0.6148
  O  O108  1  0.381580  0.481600  0.075840  1.0  -0.7559
  O  O109  1  0.555000  0.329300  0.320100  1.0  -0.5039
  O  O110  1  0.896290  0.888750  0.571070  1.0  -0.775
  O  O111  1  0.772840  0.823690  0.618030  1.0  -0.5746
  O  O112  1  0.767260  0.613140  0.924140  1.0  -0.6145
  O  O113  1  0.939020  0.518400  0.924160  1.0  -0.7584
  O  O114  1  0.204400  0.670700  0.679900  1.0  -0.5071
  O  O115  1  0.214960  0.428930  0.888750  1.0  -0.7749
  O  O116  1  0.403470  0.381970  0.823690  1.0  -0.5696
  O  O117  1  0.619600  0.075860  0.613140  1.0  -0.6173
  O  O118  1  0.542580  0.075840  0.518400  1.0  -0.7566
  O  O119  1  0.124900  0.320100  0.670700  1.0  -0.5082
  O  O120  1  0.532640  0.571070  0.111250  1.0  -0.7706
  O  O121  1  0.609130  0.618030  0.176310  1.0  -0.5716
  O  O122  1  0.308600  0.924140  0.386860  1.0  -0.6148
  O  O123  1  0.136820  0.924160  0.481600  1.0  -0.7562
  O  O124  1  0.115700  0.679900  0.329300  1.0  -0.508
  O  O125  1  0.396290  0.571070  0.888750  1.0  -0.7731
  O  O126  1  0.272840  0.618030  0.823690  1.0  -0.5734
  O  O127  1  0.267260  0.924140  0.613140  1.0  -0.6137
  O  O128  1  0.439020  0.924160  0.518400  1.0  -0.7554
  O  O129  1  0.704400  0.679900  0.670700  1.0  -0.5073
  O  O130  1  0.856110  0.428930  0.111250  1.0  -0.7731
  O  O131  1  0.714560  0.381970  0.176310  1.0  -0.5715
  O  O132  1  0.804540  0.075860  0.386860  1.0  -0.6164
  O  O133  1  0.881580  0.075840  0.481600  1.0  -0.7574
  O  O134  1  0.055000  0.320100  0.329300  1.0  -0.507
  O  O135  1  0.032640  0.111250  0.571070  1.0  -0.7728
  O  O136  1  0.109130  0.176310  0.618030  1.0  -0.5706
  O  O137  1  0.808600  0.386860  0.924140  1.0  -0.6161
  O  O138  1  0.636820  0.481600  0.924160  1.0  -0.7565
  O  O139  1  0.615700  0.329300  0.679900  1.0  -0.5032
  O  O140  1  0.714960  0.888750  0.428930  1.0  -0.7761
  O  O141  1  0.903470  0.823690  0.381970  1.0  -0.5723
  O  O142  1  0.119600  0.613140  0.075860  1.0  -0.6146
  O  O143  1  0.042580  0.518400  0.075840  1.0  -0.758
  O  O144  1  0.624900  0.670700  0.320100  1.0  -0.5073
