# generated using pymatgen
data_CaCdH8(C2O)8
_symmetry_space_group_name_H-M   'P 1'
_cell_length_a   19.13100000
_cell_length_b   19.22600000
_cell_length_c   7.18990000
_cell_angle_alpha   90.00000000
_cell_angle_beta   90.00000000
_cell_angle_gamma   90.00000000
_symmetry_Int_Tables_number   1
_chemical_formula_structural   CaCdH8(C2O)8
_chemical_formula_sum   'Ca4 Cd4 H32 C64 O32'
_cell_volume   2644.53585588
_cell_formula_units_Z   4
loop_
 _symmetry_equiv_pos_site_id
 _symmetry_equiv_pos_as_xyz
  1  'x, y, z'
loop_
 _atom_site_type_symbol
 _atom_site_label
 _atom_site_symmetry_multiplicity
 _atom_site_fract_x
 _atom_site_fract_y
 _atom_site_fract_z
 _atom_site_occupancy
 _atom_site_charge
  Ca  Ca1  1  0.232360  0.359770  0.130470  1.0  1.597
  Ca  Ca2  1  0.767640  0.640230  0.630470  1.0  1.599
  Ca  Ca3  1  0.732360  0.140230  0.130470  1.0  1.5984
  Ca  Ca4  1  0.267640  0.859770  0.630470  1.0  1.5981
  Cd  Cd5  1  0.245580  0.300700  0.663300  1.0  1.09
  Cd  Cd6  1  0.754420  0.699300  0.163300  1.0  1.09
  Cd  Cd7  1  0.745580  0.199300  0.663300  1.0  1.0896
  Cd  Cd8  1  0.254420  0.800700  0.163300  1.0  1.0896
  H  H9  1  0.104200  0.234900  0.206100  1.0  0.1046
  H  H10  1  0.005400  0.198600  0.361400  1.0  0.1101
  H  H11  1  0.903700  0.177400  0.199500  1.0  0.103
  H  H12  1  0.000200  0.226200  0.723600  1.0  0.1151
  H  H13  1  0.297100  0.211700  0.027200  1.0  0.0946
  H  H14  1  0.320900  0.125700  0.813900  1.0  0.1235
  H  H15  1  0.313900  0.010200  0.903200  1.0  0.1107
  H  H16  1  0.270900  0.069000  0.426000  1.0  0.1085
  H  H17  1  0.895800  0.765100  0.706100  1.0  0.104
  H  H18  1  0.994600  0.801400  0.861400  1.0  0.1103
  H  H19  1  0.096300  0.822600  0.699500  1.0  0.1034
  H  H20  1  0.999800  0.773800  0.223600  1.0  0.1148
  H  H21  1  0.702900  0.788300  0.527200  1.0  0.0946
  H  H22  1  0.679100  0.874300  0.313900  1.0  0.1234
  H  H23  1  0.686100  0.989800  0.403200  1.0  0.1109
  H  H24  1  0.729100  0.931000  0.926000  1.0  0.1083
  H  H25  1  0.604200  0.265100  0.206100  1.0  0.1048
  H  H26  1  0.505400  0.301400  0.361400  1.0  0.11
  H  H27  1  0.403700  0.322600  0.199500  1.0  0.1031
  H  H28  1  0.500200  0.273800  0.723600  1.0  0.115
  H  H29  1  0.797100  0.288300  0.027200  1.0  0.0946
  H  H30  1  0.820900  0.374300  0.813900  1.0  0.1231
  H  H31  1  0.813900  0.489800  0.903200  1.0  0.1109
  H  H32  1  0.770900  0.431000  0.426000  1.0  0.1083
  H  H33  1  0.395800  0.734900  0.706100  1.0  0.104
  H  H34  1  0.494600  0.698600  0.861400  1.0  0.1104
  H  H35  1  0.596300  0.677400  0.699500  1.0  0.1036
  H  H36  1  0.499800  0.726200  0.223600  1.0  0.1149
  H  H37  1  0.202900  0.711700  0.527200  1.0  0.0946
  H  H38  1  0.179100  0.625700  0.313900  1.0  0.1236
  H  H39  1  0.186100  0.510200  0.403200  1.0  0.1106
  H  H40  1  0.229100  0.569000  0.926000  1.0  0.1085
  C  C41  1  0.124500  0.261410  0.846000  1.0  0.6906
  C  C42  1  0.875700  0.187190  0.835300  1.0  0.6991
  C  C43  1  0.062030  0.235790  0.948800  1.0  -0.1885
  C  C44  1  0.063260  0.226390  0.140100  1.0  -0.05
  C  C45  1  0.004200  0.204500  0.233100  1.0  -0.0998
  C  C46  1  0.943600  0.191580  0.135900  1.0  -0.0614
  C  C47  1  0.941300  0.199480  0.944100  1.0  -0.1926
  C  C48  1  0.001050  0.221230  0.852300  1.0  0.0337
  C  C49  1  0.266900  0.206350  0.386900  1.0  0.713
  C  C50  1  0.286300  0.953000  0.231700  1.0  0.7659
  C  C51  1  0.281200  0.150490  0.248800  1.0  -0.1614
  C  C52  1  0.296100  0.165500  0.065100  1.0  -0.0249
  C  C53  1  0.309600  0.114110  0.935800  1.0  -0.1132
  C  C54  1  0.306100  0.045270  0.990000  1.0  -0.0643
  C  C55  1  0.290990  0.027880  0.174700  1.0  -0.1673
  C  C56  1  0.279700  0.080340  0.302500  1.0  0.0309
  C  C57  1  0.875500  0.738590  0.346000  1.0  0.6894
  C  C58  1  0.124300  0.812810  0.335300  1.0  0.6978
  C  C59  1  0.937970  0.764210  0.448800  1.0  -0.1892
  C  C60  1  0.936740  0.773610  0.640100  1.0  -0.0495
  C  C61  1  0.995800  0.795500  0.733100  1.0  -0.1003
  C  C62  1  0.056400  0.808420  0.635900  1.0  -0.0604
  C  C63  1  0.058700  0.800520  0.444100  1.0  -0.1919
  C  C64  1  0.998950  0.778770  0.352300  1.0  0.0336
  C  C65  1  0.733100  0.793650  0.886900  1.0  0.7135
  C  C66  1  0.713700  0.047000  0.731700  1.0  0.7666
  C  C67  1  0.718800  0.849510  0.748800  1.0  -0.1609
  C  C68  1  0.703900  0.834500  0.565100  1.0  -0.0239
  C  C69  1  0.690400  0.885890  0.435800  1.0  -0.1138
  C  C70  1  0.693900  0.954730  0.490000  1.0  -0.0643
  C  C71  1  0.709010  0.972120  0.674700  1.0  -0.1667
  C  C72  1  0.720300  0.919660  0.802500  1.0  0.031
  C  C73  1  0.624500  0.238590  0.846000  1.0  0.6904
  C  C74  1  0.375700  0.312810  0.835300  1.0  0.6995
  C  C75  1  0.562030  0.264210  0.948800  1.0  -0.1885
  C  C76  1  0.563260  0.273610  0.140100  1.0  -0.0496
  C  C77  1  0.504200  0.295500  0.233100  1.0  -0.1
  C  C78  1  0.443600  0.308420  0.135900  1.0  -0.0615
  C  C79  1  0.441300  0.300520  0.944100  1.0  -0.1919
  C  C80  1  0.501050  0.278770  0.852300  1.0  0.0334
  C  C81  1  0.766900  0.293650  0.386900  1.0  0.7132
  C  C82  1  0.786300  0.547000  0.231700  1.0  0.7664
  C  C83  1  0.781200  0.349510  0.248800  1.0  -0.161
  C  C84  1  0.796100  0.334500  0.065100  1.0  -0.0243
  C  C85  1  0.809600  0.385890  0.935800  1.0  -0.1133
  C  C86  1  0.806100  0.454730  0.990000  1.0  -0.0644
  C  C87  1  0.790990  0.472120  0.174700  1.0  -0.1671
  C  C88  1  0.779700  0.419660  0.302500  1.0  0.0304
  C  C89  1  0.375500  0.761410  0.346000  1.0  0.6895
  C  C90  1  0.624300  0.687190  0.335300  1.0  0.6975
  C  C91  1  0.437970  0.735790  0.448800  1.0  -0.189
  C  C92  1  0.436740  0.726390  0.640100  1.0  -0.0499
  C  C93  1  0.495800  0.704500  0.733100  1.0  -0.1001
  C  C94  1  0.556400  0.691580  0.635900  1.0  -0.0611
  C  C95  1  0.558700  0.699480  0.444100  1.0  -0.1921
  C  C96  1  0.498950  0.721230  0.352300  1.0  0.0338
  C  C97  1  0.233100  0.706350  0.886900  1.0  0.7134
  C  C98  1  0.213700  0.453000  0.731700  1.0  0.7661
  C  C99  1  0.218800  0.650490  0.748800  1.0  -0.1613
  C  C100  1  0.203900  0.665500  0.565100  1.0  -0.0246
  C  C101  1  0.190400  0.614110  0.435800  1.0  -0.1136
  C  C102  1  0.193900  0.545270  0.490000  1.0  -0.0639
  C  C103  1  0.209010  0.527880  0.674700  1.0  -0.1672
  C  C104  1  0.220300  0.580340  0.802500  1.0  0.0313
  O  O105  1  0.178400  0.277320  0.937000  1.0  -0.6667
  O  O106  1  0.123090  0.265480  0.671800  1.0  -0.666
  O  O107  1  0.875600  0.192250  0.664200  1.0  -0.6797
  O  O108  1  0.819980  0.174530  0.924400  1.0  -0.6865
  O  O109  1  0.257260  0.268420  0.333400  1.0  -0.7696
  O  O110  1  0.265080  0.190690  0.554800  1.0  -0.5626
  O  O111  1  0.278790  0.909440  0.101600  1.0  -0.5788
  O  O112  1  0.289720  0.938790  0.399000  1.0  -0.7595
  O  O113  1  0.821600  0.722680  0.437000  1.0  -0.6653
  O  O114  1  0.876910  0.734520  0.171800  1.0  -0.6664
  O  O115  1  0.124400  0.807750  0.164200  1.0  -0.6798
  O  O116  1  0.180020  0.825470  0.424400  1.0  -0.686
  O  O117  1  0.742740  0.731580  0.833400  1.0  -0.7678
  O  O118  1  0.734920  0.809310  0.054800  1.0  -0.5632
  O  O119  1  0.721210  0.090560  0.601600  1.0  -0.5793
  O  O120  1  0.710280  0.061210  0.899000  1.0  -0.7598
  O  O121  1  0.678400  0.222680  0.937000  1.0  -0.666
  O  O122  1  0.623090  0.234520  0.671800  1.0  -0.6664
  O  O123  1  0.375600  0.307750  0.664200  1.0  -0.6801
  O  O124  1  0.319980  0.325470  0.924400  1.0  -0.6852
  O  O125  1  0.757260  0.231580  0.333400  1.0  -0.7676
  O  O126  1  0.765080  0.309310  0.554800  1.0  -0.5633
  O  O127  1  0.778790  0.590560  0.101600  1.0  -0.5799
  O  O128  1  0.789720  0.561210  0.399000  1.0  -0.7592
  O  O129  1  0.321600  0.777320  0.437000  1.0  -0.6657
  O  O130  1  0.376910  0.765480  0.171800  1.0  -0.6661
  O  O131  1  0.624400  0.692250  0.164200  1.0  -0.6793
  O  O132  1  0.680020  0.674530  0.424400  1.0  -0.6861
  O  O133  1  0.242740  0.768420  0.833400  1.0  -0.7697
  O  O134  1  0.234920  0.690690  0.054800  1.0  -0.5626
  O  O135  1  0.221210  0.409440  0.601600  1.0  -0.5784
  O  O136  1  0.210280  0.438790  0.899000  1.0  -0.7601
