# generated using pymatgen
data_Cd5H30C52S2(N2O11)2
_symmetry_space_group_name_H-M   'P 1'
_cell_length_a   7.62330000
_cell_length_b   13.02660000
_cell_length_c   29.19100000
_cell_angle_alpha   90.00000000
_cell_angle_beta   90.00000000
_cell_angle_gamma   102.99800000
_symmetry_Int_Tables_number   1
_chemical_formula_structural   Cd5H30C52S2(N2O11)2
_chemical_formula_sum   'Cd10 H60 C104 S4 N8 O44'
_cell_volume   2824.55798028
_cell_formula_units_Z   2
loop_
 _symmetry_equiv_pos_site_id
 _symmetry_equiv_pos_as_xyz
  1  'x, y, z'
loop_
 _atom_site_type_symbol
 _atom_site_label
 _atom_site_symmetry_multiplicity
 _atom_site_fract_x
 _atom_site_fract_y
 _atom_site_fract_z
 _atom_site_occupancy
 _atom_site_charge
  Cd  Cd1  1  0.886700  0.180180  0.009870  1.0  1.0553
  Cd  Cd2  1  0.552520  0.189430  0.105040  1.0  1.0153
  Cd  Cd3  1  0.613300  0.319820  0.509870  1.0  1.0558
  Cd  Cd4  1  0.947480  0.310570  0.605040  1.0  1.0151
  Cd  Cd5  1  0.113300  0.819820  0.990130  1.0  1.0546
  Cd  Cd6  1  0.447480  0.810570  0.894960  1.0  1.0131
  Cd  Cd7  1  0.386700  0.680180  0.490130  1.0  1.0552
  Cd  Cd8  1  0.052520  0.689430  0.394960  1.0  1.0127
  Cd  Cd9  1  0.500000  0.000000  0.000000  1.0  1.1409
  Cd  Cd10  1  0.000000  0.500000  0.500000  1.0  1.1409
  H  H11  1  0.914100  0.492800  0.149300  1.0  0.115
  H  H12  1  0.523000  0.546700  0.119700  1.0  0.1123
  H  H13  1  0.420300  0.655900  0.170300  1.0  0.1224
  H  H14  1  0.239700  0.842900  0.143600  1.0  0.1147
  H  H15  1  0.627300  0.798200  0.120200  1.0  0.1055
  H  H16  1  0.732600  0.690400  0.171100  1.0  0.1208
  H  H17  1  0.424800  0.003300  0.178200  1.0  0.0734
  H  H18  1  0.515100  0.901600  0.233200  1.0  0.1188
  H  H19  1  0.022800  0.045300  0.205900  1.0  0.1195
  H  H20  1  0.919400  0.141900  0.150900  1.0  0.0902
  H  H21  1  0.606600  0.799500  0.278400  1.0  0.1198
  H  H22  1  0.711200  0.705400  0.333100  1.0  0.0898
  H  H23  1  0.204500  0.855700  0.311200  1.0  0.0769
  H  H24  1  0.111700  0.960400  0.257600  1.0  0.1234
  H  H25  1  0.570000  0.194000  0.018900  1.0  0.4889
  H  H26  1  0.585900  0.007200  0.649300  1.0  0.1154
  H  H27  1  0.977000  0.953300  0.619700  1.0  0.1128
  H  H28  1  0.079700  0.844100  0.670300  1.0  0.1222
  H  H29  1  0.260300  0.657100  0.643600  1.0  0.1151
  H  H30  1  0.872700  0.701800  0.620200  1.0  0.105
  H  H31  1  0.767400  0.809600  0.671100  1.0  0.1207
  H  H32  1  0.075200  0.496700  0.678200  1.0  0.073
  H  H33  1  0.984900  0.598400  0.733200  1.0  0.1211
  H  H34  1  0.477200  0.454700  0.705900  1.0  0.1186
  H  H35  1  0.580600  0.358100  0.650900  1.0  0.0898
  H  H36  1  0.893400  0.700500  0.778400  1.0  0.1202
  H  H37  1  0.788800  0.794600  0.833100  1.0  0.0898
  H  H38  1  0.295500  0.644300  0.811200  1.0  0.0773
  H  H39  1  0.388300  0.539600  0.757600  1.0  0.1209
  H  H40  1  0.930000  0.306000  0.518900  1.0  0.4857
  H  H41  1  0.085900  0.507200  0.850700  1.0  0.1155
  H  H42  1  0.477000  0.453300  0.880300  1.0  0.1131
  H  H43  1  0.579700  0.344100  0.829700  1.0  0.1224
  H  H44  1  0.760300  0.157100  0.856400  1.0  0.1164
  H  H45  1  0.372700  0.201800  0.879800  1.0  0.1048
  H  H46  1  0.267400  0.309600  0.828900  1.0  0.1211
  H  H47  1  0.575200  0.996700  0.821800  1.0  0.0731
  H  H48  1  0.484900  0.098400  0.766800  1.0  0.1216
  H  H49  1  0.977200  0.954700  0.794100  1.0  0.1188
  H  H50  1  0.080600  0.858100  0.849100  1.0  0.0902
  H  H51  1  0.393400  0.200500  0.721600  1.0  0.1203
  H  H52  1  0.288800  0.294600  0.666900  1.0  0.0895
  H  H53  1  0.795500  0.144300  0.688800  1.0  0.0772
  H  H54  1  0.888300  0.039600  0.742400  1.0  0.1228
  H  H55  1  0.430000  0.806000  0.981100  1.0  0.487
  H  H56  1  0.414100  0.992800  0.350700  1.0  0.1152
  H  H57  1  0.023000  0.046700  0.380300  1.0  0.1127
  H  H58  1  0.920300  0.155900  0.329700  1.0  0.1229
  H  H59  1  0.739700  0.342900  0.356400  1.0  0.1156
  H  H60  1  0.127300  0.298200  0.379800  1.0  0.1058
  H  H61  1  0.232600  0.190400  0.328900  1.0  0.1207
  H  H62  1  0.924800  0.503300  0.321800  1.0  0.073
  H  H63  1  0.015100  0.401600  0.266800  1.0  0.119
  H  H64  1  0.522800  0.545300  0.294100  1.0  0.1195
  H  H65  1  0.419400  0.641900  0.349100  1.0  0.0901
  H  H66  1  0.106600  0.299500  0.221600  1.0  0.1214
  H  H67  1  0.211200  0.205400  0.166900  1.0  0.0892
  H  H68  1  0.704500  0.355700  0.188800  1.0  0.0769
  H  H69  1  0.611700  0.460400  0.242400  1.0  0.1238
  H  H70  1  0.070000  0.694000  0.481100  1.0  0.4895
  C  C71  1  0.157200  0.584700  0.164160  1.0  -0.1835
  C  C72  1  0.036600  0.502800  0.143390  1.0  -0.0096
  C  C73  1  0.098100  0.435300  0.113670  1.0  -0.1094
  C  C74  1  0.283200  0.452700  0.104610  1.0  -0.0517
  C  C75  1  0.400400  0.535300  0.125820  1.0  -0.05
  C  C76  1  0.339800  0.601300  0.155860  1.0  -0.0449
  C  C77  1  0.961800  0.347600  0.091150  1.0  0.7167
  C  C78  1  0.363300  0.384900  0.071560  1.0  0.7267
  C  C79  1  0.996200  0.757200  0.162150  1.0  -0.1801
  C  C80  1  0.116700  0.834700  0.138800  1.0  -0.0535
  C  C81  1  0.054900  0.900600  0.108190  1.0  -0.0458
  C  C82  1  0.869000  0.887900  0.101550  1.0  -0.1329
  C  C83  1  0.750600  0.808000  0.125060  1.0  0.0089
  C  C84  1  0.812900  0.743000  0.155430  1.0  -0.0558
  C  C85  1  0.196500  0.981200  0.083510  1.0  0.7042
  C  C86  1  0.792200  0.960300  0.071030  1.0  0.7228
  C  C87  1  0.547500  0.011500  0.183470  1.0  0.1903
  C  C88  1  0.600900  0.949900  0.216870  1.0  -0.2014
  C  C89  1  0.781800  0.959800  0.226090  1.0  0.0734
  C  C90  1  0.899600  0.034300  0.200660  1.0  -0.1709
  C  C91  1  0.836300  0.092800  0.167570  1.0  0.1759
  C  C92  1  0.845800  0.893100  0.260990  1.0  0.0844
  C  C93  1  0.729200  0.813900  0.284740  1.0  -0.1813
  C  C94  1  0.793600  0.757000  0.317470  1.0  0.1818
  C  C95  1  0.082100  0.845400  0.305070  1.0  0.1908
  C  C96  1  0.027100  0.908100  0.272190  1.0  -0.1753
  C  C97  1  0.342800  0.915300  0.664160  1.0  -0.183
  C  C98  1  0.463400  0.997200  0.643390  1.0  -0.0136
  C  C99  1  0.401900  0.064700  0.613670  1.0  -0.1092
  C  C100  1  0.216800  0.047300  0.604610  1.0  -0.0511
  C  C101  1  0.099600  0.964700  0.625820  1.0  -0.0523
  C  C102  1  0.160200  0.898700  0.655860  1.0  -0.0515
  C  C103  1  0.538200  0.152400  0.591150  1.0  0.7158
  C  C104  1  0.136700  0.115100  0.571560  1.0  0.7298
  C  C105  1  0.503800  0.742800  0.662150  1.0  -0.1806
  C  C106  1  0.383300  0.665300  0.638800  1.0  -0.056
  C  C107  1  0.445100  0.599400  0.608190  1.0  -0.0462
  C  C108  1  0.631000  0.612100  0.601550  1.0  -0.1375
  C  C109  1  0.749400  0.692000  0.625060  1.0  0.0086
  C  C110  1  0.687100  0.757000  0.655430  1.0  -0.053
  C  C111  1  0.303500  0.518800  0.583510  1.0  0.705
  C  C112  1  0.707800  0.539700  0.571030  1.0  0.7223
  C  C113  1  0.952500  0.488500  0.683470  1.0  0.1908
  C  C114  1  0.899100  0.550100  0.716870  1.0  -0.2014
  C  C115  1  0.718200  0.540200  0.726090  1.0  0.0735
  C  C116  1  0.600400  0.465700  0.700660  1.0  -0.1706
  C  C117  1  0.663700  0.407200  0.667570  1.0  0.1747
  C  C118  1  0.654200  0.606900  0.760990  1.0  0.0848
  C  C119  1  0.770800  0.686100  0.784740  1.0  -0.1811
  C  C120  1  0.706400  0.743000  0.817470  1.0  0.1807
  C  C121  1  0.417900  0.654600  0.805070  1.0  0.1917
  C  C122  1  0.472900  0.591900  0.772190  1.0  -0.175
  C  C123  1  0.842800  0.415300  0.835840  1.0  -0.1845
  C  C124  1  0.963400  0.497200  0.856610  1.0  -0.0144
  C  C125  1  0.901900  0.564700  0.886330  1.0  -0.1028
  C  C126  1  0.716800  0.547300  0.895390  1.0  -0.0482
  C  C127  1  0.599600  0.464700  0.874180  1.0  -0.051
  C  C128  1  0.660200  0.398700  0.844140  1.0  -0.0516
  C  C129  1  0.038200  0.652400  0.908850  1.0  0.7161
  C  C130  1  0.636700  0.615100  0.928440  1.0  0.7252
  C  C131  1  0.003800  0.242800  0.837850  1.0  -0.1816
  C  C132  1  0.883300  0.165300  0.861200  1.0  -0.0561
  C  C133  1  0.945100  0.099400  0.891810  1.0  -0.0449
  C  C134  1  0.131000  0.112100  0.898450  1.0  -0.1366
  C  C135  1  0.249400  0.192000  0.874940  1.0  0.0088
  C  C136  1  0.187100  0.257000  0.844570  1.0  -0.0499
  C  C137  1  0.803500  0.018800  0.916490  1.0  0.7039
  C  C138  1  0.207800  0.039700  0.928970  1.0  0.718
  C  C139  1  0.452500  0.988500  0.816530  1.0  0.1907
  C  C140  1  0.399100  0.050100  0.783130  1.0  -0.2013
  C  C141  1  0.218200  0.040200  0.773910  1.0  0.0734
  C  C142  1  0.100400  0.965700  0.799340  1.0  -0.1705
  C  C143  1  0.163700  0.907200  0.832430  1.0  0.1761
  C  C144  1  0.154200  0.106900  0.739010  1.0  0.0845
  C  C145  1  0.270800  0.186100  0.715260  1.0  -0.1815
  C  C146  1  0.206400  0.243000  0.682530  1.0  0.181
  C  C147  1  0.917900  0.154600  0.694930  1.0  0.1914
  C  C148  1  0.972900  0.091900  0.727810  1.0  -0.1752
  C  C149  1  0.657200  0.084700  0.335840  1.0  -0.1841
  C  C150  1  0.536600  0.002800  0.356610  1.0  -0.0101
  C  C151  1  0.598100  0.935300  0.386330  1.0  -0.1008
  C  C152  1  0.783200  0.952700  0.395390  1.0  -0.0476
  C  C153  1  0.900400  0.035300  0.374180  1.0  -0.0484
  C  C154  1  0.839800  0.101300  0.344140  1.0  -0.0459
  C  C155  1  0.461800  0.847600  0.408850  1.0  0.7139
  C  C156  1  0.863300  0.884900  0.428440  1.0  0.7251
  C  C157  1  0.496200  0.257200  0.337850  1.0  -0.1814
  C  C158  1  0.616700  0.334700  0.361200  1.0  -0.054
  C  C159  1  0.554900  0.400600  0.391810  1.0  -0.0453
  C  C160  1  0.369000  0.387900  0.398450  1.0  -0.1352
  C  C161  1  0.250600  0.308000  0.374940  1.0  0.0094
  C  C162  1  0.312900  0.243000  0.344570  1.0  -0.0512
  C  C163  1  0.696500  0.481200  0.416490  1.0  0.7032
  C  C164  1  0.292200  0.460300  0.428970  1.0  0.7206
  C  C165  1  0.047500  0.511500  0.316530  1.0  0.1901
  C  C166  1  0.100900  0.449900  0.283130  1.0  -0.2016
  C  C167  1  0.281800  0.459800  0.273910  1.0  0.0736
  C  C168  1  0.399600  0.534300  0.299340  1.0  -0.1707
  C  C169  1  0.336300  0.592800  0.332430  1.0  0.1763
  C  C170  1  0.345800  0.393100  0.239010  1.0  0.0843
  C  C171  1  0.229200  0.313900  0.215260  1.0  -0.1816
  C  C172  1  0.293600  0.257000  0.182530  1.0  0.1819
  C  C173  1  0.582100  0.345400  0.194930  1.0  0.1903
  C  C174  1  0.527100  0.408100  0.227810  1.0  -0.1756
  S  S175  1  0.076980  0.672770  0.200470  1.0  1.0951
  S  S176  1  0.423020  0.827230  0.700470  1.0  1.0951
  S  S177  1  0.923020  0.327230  0.799530  1.0  1.0935
  S  S178  1  0.576980  0.172770  0.299530  1.0  1.094
  N  N179  1  0.661100  0.082100  0.158290  1.0  -0.3532
  N  N180  1  0.967700  0.770900  0.328330  1.0  -0.3486
  N  N181  1  0.838900  0.417900  0.658290  1.0  -0.3553
  N  N182  1  0.532300  0.729100  0.828330  1.0  -0.3509
  N  N183  1  0.338900  0.917900  0.841710  1.0  -0.3512
  N  N184  1  0.032300  0.229100  0.671670  1.0  -0.3511
  N  N185  1  0.161100  0.582100  0.341710  1.0  -0.3541
  N  N186  1  0.467700  0.270900  0.171670  1.0  -0.3503
  O  O187  1  0.827900  0.306900  0.113680  1.0  -0.6216
  O  O188  1  0.996800  0.327100  0.050790  1.0  -0.6101
  O  O189  1  0.344300  0.290900  0.079190  1.0  -0.6674
  O  O190  1  0.440500  0.432700  0.038100  1.0  -0.5161
  O  O191  1  0.223400  0.963420  0.041060  1.0  -0.7147
  O  O192  1  0.285600  0.054700  0.106410  1.0  -0.6577
  O  O193  1  0.897400  0.044400  0.059620  1.0  -0.6851
  O  O194  1  0.629900  0.931000  0.059860  1.0  -0.5921
  O  O195  1  0.229900  0.733600  0.224640  1.0  -0.551
  O  O196  1  0.924100  0.614700  0.225550  1.0  -0.5799
  O  O197  1  0.599700  0.158600  0.031640  1.0  -0.9523
  O  O198  1  0.672100  0.193100  0.613680  1.0  -0.6184
  O  O199  1  0.503200  0.172900  0.550790  1.0  -0.6086
  O  O200  1  0.155700  0.209100  0.579190  1.0  -0.6683
  O  O201  1  0.059500  0.067300  0.538100  1.0  -0.5165
  O  O202  1  0.276600  0.536580  0.541060  1.0  -0.7144
  O  O203  1  0.214400  0.445300  0.606410  1.0  -0.6592
  O  O204  1  0.602600  0.455600  0.559620  1.0  -0.685
  O  O205  1  0.870100  0.569000  0.559860  1.0  -0.592
  O  O206  1  0.270100  0.766400  0.724640  1.0  -0.5504
  O  O207  1  0.575900  0.885300  0.725550  1.0  -0.5809
  O  O208  1  0.900300  0.341400  0.531640  1.0  -0.9522
  O  O209  1  0.172100  0.693100  0.886320  1.0  -0.6187
  O  O210  1  0.003200  0.672900  0.949210  1.0  -0.6115
  O  O211  1  0.655700  0.709100  0.920810  1.0  -0.668
  O  O212  1  0.559500  0.567300  0.961900  1.0  -0.5146
  O  O213  1  0.776600  0.036580  0.958940  1.0  -0.7138
  O  O214  1  0.714400  0.945300  0.893590  1.0  -0.6587
  O  O215  1  0.102600  0.955600  0.940380  1.0  -0.6851
  O  O216  1  0.370100  0.069000  0.940140  1.0  -0.5925
  O  O217  1  0.770100  0.266400  0.775360  1.0  -0.5506
  O  O218  1  0.075900  0.385300  0.774450  1.0  -0.5807
  O  O219  1  0.400300  0.841400  0.968360  1.0  -0.9537
  O  O220  1  0.327900  0.806900  0.386320  1.0  -0.6215
  O  O221  1  0.496800  0.827100  0.449210  1.0  -0.6129
  O  O222  1  0.844300  0.790900  0.420810  1.0  -0.6672
  O  O223  1  0.940500  0.932700  0.461900  1.0  -0.5135
  O  O224  1  0.723400  0.463420  0.458940  1.0  -0.7133
  O  O225  1  0.785600  0.554700  0.393590  1.0  -0.6574
  O  O226  1  0.397400  0.544400  0.440380  1.0  -0.6849
  O  O227  1  0.129900  0.431000  0.440140  1.0  -0.5916
  O  O228  1  0.729900  0.233600  0.275360  1.0  -0.5508
  O  O229  1  0.424100  0.114700  0.274450  1.0  -0.5797
  O  O230  1  0.099700  0.658600  0.468360  1.0  -0.9547
