# generated using pymatgen
data_CuH32(C5N3)4
_symmetry_space_group_name_H-M   'P 1'
_cell_length_a   12.48100000
_cell_length_b   12.86200000
_cell_length_c   13.33200000
_cell_angle_alpha   100.00100000
_cell_angle_beta   105.25300000
_cell_angle_gamma   111.73600000
_symmetry_Int_Tables_number   1
_chemical_formula_structural   CuH32(C5N3)4
_chemical_formula_sum   'Cu2 H64 C40 N24'
_cell_volume   1828.13712906
_cell_formula_units_Z   2
loop_
 _symmetry_equiv_pos_site_id
 _symmetry_equiv_pos_as_xyz
  1  'x, y, z'
loop_
 _atom_site_type_symbol
 _atom_site_label
 _atom_site_symmetry_multiplicity
 _atom_site_fract_x
 _atom_site_fract_y
 _atom_site_fract_z
 _atom_site_occupancy
 _atom_site_charge
  Cu  Cu1  1  0.500000  0.500000  0.000000  1.0  0.3795
  Cu  Cu2  1  0.000000  0.000000  0.500000  1.0  0.2268
  H  H3  1  0.552300  0.044600  0.136700  1.0  0.0399
  H  H4  1  0.522200  0.076400  0.240800  1.0  0.0464
  H  H5  1  0.359700  0.905800  0.044500  1.0  0.0481
  H  H6  1  0.327300  0.909200  0.150700  1.0  0.0548
  H  H7  1  0.332800  0.329600  0.105700  1.0  0.0823
  H  H8  1  0.545800  0.881400  0.166700  1.0  0.0636
  H  H9  1  0.515200  0.912700  0.270700  1.0  0.056
  H  H10  1  0.956400  0.142100  0.328700  1.0  0.0717
  H  H11  1  0.020700  0.613800  0.555900  1.0  0.0544
  H  H12  1  0.112200  0.588900  0.505500  1.0  0.0548
  H  H13  1  0.276500  0.693600  0.696900  1.0  0.0787
  H  H14  1  0.181000  0.705800  0.749100  1.0  0.0743
  H  H15  1  0.304400  0.268900  0.804100  1.0  0.0557
  H  H16  1  0.709200  0.912500  0.399700  1.0  0.0768
  H  H17  1  0.386400  0.096800  0.067400  1.0  0.04
  H  H18  1  0.343500  0.092300  0.167400  1.0  0.0588
  H  H19  1  0.029700  0.688800  0.061100  1.0  0.0517
  H  H20  1  0.925000  0.607200  0.094800  1.0  0.0513
  H  H21  1  0.331700  0.623000  0.055300  1.0  0.0609
  H  H22  1  0.072100  0.057100  0.975100  1.0  0.0681
  H  H23  1  0.166900  0.129400  0.093700  1.0  0.0671
  H  H24  1  0.122700  0.557300  0.074900  1.0  0.059
  H  H25  1  0.011200  0.474000  0.099700  1.0  0.0505
  H  H26  1  0.081400  0.036500  0.294000  1.0  0.0574
  H  H27  1  0.008200  0.759900  0.389800  1.0  0.074
  H  H28  1  0.193700  0.962400  0.949500  1.0  0.062
  H  H29  1  0.149000  0.939600  0.046400  1.0  0.0602
  H  H30  1  0.384700  0.559000  0.783500  1.0  0.0766
  H  H31  1  0.056300  0.503700  0.676600  1.0  0.0589
  H  H32  1  0.153400  0.487500  0.629100  1.0  0.0508
  H  H33  1  0.074600  0.640600  0.262100  1.0  0.0694
  H  H34  1  0.176500  0.725700  0.228600  1.0  0.0797
  H  H35  1  0.447700  0.955400  0.863300  1.0  0.0395
  H  H36  1  0.477800  0.923600  0.759200  1.0  0.0459
  H  H37  1  0.640300  0.094200  0.955500  1.0  0.0484
  H  H38  1  0.672700  0.090800  0.849300  1.0  0.0541
  H  H39  1  0.667200  0.670400  0.894300  1.0  0.0821
  H  H40  1  0.454200  0.118600  0.833300  1.0  0.0637
  H  H41  1  0.484800  0.087300  0.729300  1.0  0.0555
  H  H42  1  0.043600  0.857900  0.671300  1.0  0.0708
  H  H43  1  0.979300  0.386200  0.444100  1.0  0.0538
  H  H44  1  0.887800  0.411100  0.494500  1.0  0.0544
  H  H45  1  0.723500  0.306400  0.303100  1.0  0.08
  H  H46  1  0.819000  0.294200  0.250900  1.0  0.0742
  H  H47  1  0.695600  0.731100  0.195900  1.0  0.0549
  H  H48  1  0.290800  0.087500  0.600300  1.0  0.0761
  H  H49  1  0.613600  0.903200  0.932600  1.0  0.0423
  H  H50  1  0.656500  0.907700  0.832600  1.0  0.0584
  H  H51  1  0.970300  0.311200  0.938900  1.0  0.0522
  H  H52  1  0.075000  0.392800  0.905200  1.0  0.0499
  H  H53  1  0.668300  0.377000  0.944700  1.0  0.0627
  H  H54  1  0.927900  0.942900  0.024900  1.0  0.0672
  H  H55  1  0.833100  0.870600  0.906300  1.0  0.0667
  H  H56  1  0.877300  0.442700  0.925100  1.0  0.0596
  H  H57  1  0.988800  0.526000  0.900300  1.0  0.0492
  H  H58  1  0.918600  0.963500  0.706000  1.0  0.0575
  H  H59  1  0.991800  0.240100  0.610200  1.0  0.0736
  H  H60  1  0.806300  0.037600  0.050500  1.0  0.0599
  H  H61  1  0.851000  0.060400  0.953600  1.0  0.0595
  H  H62  1  0.615300  0.441000  0.216500  1.0  0.0787
  H  H63  1  0.943700  0.496300  0.323400  1.0  0.0583
  H  H64  1  0.846600  0.512500  0.370900  1.0  0.0482
  H  H65  1  0.925400  0.359400  0.737900  1.0  0.0709
  H  H66  1  0.823500  0.274300  0.771400  1.0  0.0799
  C  C67  1  0.507400  0.011200  0.181400  1.0  -0.1369
  C  C68  1  0.374300  0.956800  0.114400  1.0  -0.1385
  C  C69  1  0.310300  0.293800  0.031700  1.0  0.1298
  C  C70  1  0.560100  0.946300  0.226100  1.0  0.0178
  C  C71  1  0.880100  0.091700  0.328300  1.0  0.2337
  C  C72  1  0.052700  0.557400  0.539500  1.0  -0.1354
  C  C73  1  0.217300  0.654400  0.728600  1.0  -0.0267
  C  C74  1  0.293300  0.258100  0.868400  1.0  0.2726
  C  C75  1  0.748400  0.967600  0.368600  1.0  0.1022
  C  C76  1  0.333333  0.045400  0.097300  1.0  -0.1313
  C  C77  1  0.011400  0.634500  0.103300  1.0  -0.125
  C  C78  1  0.327200  0.617400  0.983600  1.0  0.2444
  C  C79  1  0.158900  0.092800  0.020400  1.0  -0.0484
  C  C80  1  0.035000  0.530300  0.060400  1.0  -0.1364
  C  C81  1  0.071900  0.962600  0.299000  1.0  0.2474
  C  C82  1  0.031600  0.813800  0.352200  1.0  0.1388
  C  C83  1  0.201700  0.999300  0.022800  1.0  -0.1448
  C  C84  1  0.356800  0.582400  0.837400  1.0  0.1302
  C  C85  1  0.117200  0.540300  0.645400  1.0  -0.1199
  C  C86  1  0.090300  0.696600  0.221300  1.0  -0.0329
  C  C87  1  0.492600  0.988800  0.818600  1.0  -0.1383
  C  C88  1  0.625700  0.043200  0.885600  1.0  -0.1397
  C  C89  1  0.689700  0.706200  0.968300  1.0  0.1282
  C  C90  1  0.439900  0.053700  0.773900  1.0  0.0198
  C  C91  1  0.119900  0.908300  0.671700  1.0  0.2344
  C  C92  1  0.947300  0.442600  0.460500  1.0  -0.1275
  C  C93  1  0.782700  0.345600  0.271400  1.0  -0.0258
  C  C94  1  0.706700  0.741900  0.131600  1.0  0.2734
  C  C95  1  0.251600  0.032400  0.631400  1.0  0.1045
  C  C96  1  0.666667  0.954600  0.902700  1.0  -0.1325
  C  C97  1  0.988600  0.365500  0.896700  1.0  -0.1233
  C  C98  1  0.672800  0.382600  0.016400  1.0  0.2444
  C  C99  1  0.841100  0.907200  0.979600  1.0  -0.0477
  C  C100  1  0.965000  0.469700  0.939600  1.0  -0.1357
  C  C101  1  0.928100  0.037400  0.701000  1.0  0.2471
  C  C102  1  0.968400  0.186200  0.647800  1.0  0.1381
  C  C103  1  0.798300  0.000700  0.977200  1.0  -0.1465
  C  C104  1  0.643200  0.417600  0.162600  1.0  0.1277
  C  C105  1  0.882800  0.459700  0.354600  1.0  -0.1185
  C  C106  1  0.909700  0.303400  0.778700  1.0  -0.0353
  N  N107  1  0.095800  0.891200  0.233100  1.0  -0.4105
  N  N108  1  0.218000  0.159800  0.872800  1.0  -0.3768
  N  N109  1  0.228700  0.184600  0.978200  1.0  0.1448
  N  N110  1  0.692500  0.001500  0.293000  1.0  0.1305
  N  N111  1  0.260800  0.654400  0.919500  1.0  -0.3761
  N  N112  1  0.388300  0.570600  0.937100  1.0  -0.4298
  N  N113  1  0.868700  0.023200  0.394200  1.0  -0.399
  N  N114  1  0.068400  0.796100  0.269900  1.0  0.1522
  N  N115  1  0.776700  0.082000  0.264300  1.0  -0.3852
  N  N116  1  0.355300  0.344700  0.965400  1.0  -0.4106
  N  N117  1  0.280800  0.631500  0.826100  1.0  0.1632
  N  N118  1  0.032100  0.917300  0.374400  1.0  -0.3982
  N  N119  1  0.904200  0.108800  0.766900  1.0  -0.4079
  N  N120  1  0.782000  0.840200  0.127200  1.0  -0.3761
  N  N121  1  0.771300  0.815400  0.021800  1.0  0.1446
  N  N122  1  0.307500  0.998500  0.707000  1.0  0.128
  N  N123  1  0.739200  0.345600  0.080500  1.0  -0.3782
  N  N124  1  0.611700  0.429400  0.062900  1.0  -0.4327
  N  N125  1  0.131300  0.976800  0.605800  1.0  -0.3993
  N  N126  1  0.931600  0.203900  0.730100  1.0  0.1524
  N  N127  1  0.223300  0.918000  0.735700  1.0  -0.3851
  N  N128  1  0.644700  0.655300  0.034600  1.0  -0.4095
  N  N129  1  0.719200  0.368500  0.173900  1.0  0.1631
  N  N130  1  0.967900  0.082700  0.625600  1.0  -0.3991
