# generated using pymatgen
data_Eu2Cu7H28C42I6(NO2)7
_symmetry_space_group_name_H-M   'P 1'
_cell_length_a   7.03280000
_cell_length_b   18.15800000
_cell_length_c   24.66000000
_cell_angle_alpha   90.00000000
_cell_angle_beta   90.00000000
_cell_angle_gamma   99.54000000
_symmetry_Int_Tables_number   1
_chemical_formula_structural   Eu2Cu7H28C42I6(NO2)7
_chemical_formula_sum   'Eu4 Cu14 H56 C84 I12 N14 O28'
_cell_volume   3105.56910725
_cell_formula_units_Z   2
loop_
 _symmetry_equiv_pos_site_id
 _symmetry_equiv_pos_as_xyz
  1  'x, y, z'
loop_
 _atom_site_type_symbol
 _atom_site_label
 _atom_site_symmetry_multiplicity
 _atom_site_fract_x
 _atom_site_fract_y
 _atom_site_fract_z
 _atom_site_occupancy
 _atom_site_charge
  Eu  Eu1  1  0.219290  0.015710  0.401710  1.0  2.1544
  Eu  Eu2  1  0.780710  0.984290  0.901710  1.0  2.1547
  Eu  Eu3  1  0.780710  0.984290  0.598290  1.0  2.1531
  Eu  Eu4  1  0.219290  0.015710  0.098290  1.0  2.1534
  Cu  Cu5  1  0.751600  0.446150  0.315200  1.0  0.1433
  Cu  Cu6  1  0.379000  0.544420  0.492330  1.0  0.1582
  Cu  Cu7  1  0.825600  0.559670  0.419300  1.0  0.1823
  Cu  Cu8  1  0.248400  0.553850  0.815200  1.0  0.1434
  Cu  Cu9  1  0.621000  0.455580  0.992330  1.0  0.1585
  Cu  Cu10  1  0.174400  0.440330  0.919300  1.0  0.1806
  Cu  Cu11  1  0.248400  0.553850  0.684800  1.0  0.1431
  Cu  Cu12  1  0.621000  0.455580  0.507670  1.0  0.1584
  Cu  Cu13  1  0.174400  0.440330  0.580700  1.0  0.1809
  Cu  Cu14  1  0.751600  0.446150  0.184800  1.0  0.1432
  Cu  Cu15  1  0.379000  0.544420  0.007670  1.0  0.1581
  Cu  Cu16  1  0.825600  0.559670  0.080700  1.0  0.1821
  Cu  Cu17  1  0.771200  0.565820  0.250000  1.0  0.1228
  Cu  Cu18  1  0.228800  0.434180  0.750000  1.0  0.1206
  H  H19  1  0.225700  0.280500  0.363100  1.0  0.107
  H  H20  1  0.113200  0.392400  0.346400  1.0  0.0863
  H  H21  1  0.594200  0.281200  0.320400  1.0  0.082
  H  H22  1  0.694700  0.168600  0.338900  1.0  0.1339
  H  H23  1  0.390700  0.761300  0.370600  1.0  0.1178
  H  H24  1  0.421800  0.641800  0.394700  1.0  0.0914
  H  H25  1  0.318400  0.682900  0.548700  1.0  0.094
  H  H26  1  0.291400  0.803000  0.528100  1.0  0.0994
  H  H27  1  0.905500  0.834300  0.378500  1.0  0.1313
  H  H28  1  0.900700  0.708700  0.362200  1.0  0.0798
  H  H29  1  0.801300  0.657600  0.516300  1.0  0.0868
  H  H30  1  0.806700  0.783100  0.537100  1.0  0.1145
  H  H31  1  0.774300  0.719500  0.863100  1.0  0.1074
  H  H32  1  0.886800  0.607600  0.846400  1.0  0.0859
  H  H33  1  0.405800  0.718800  0.820400  1.0  0.0819
  H  H34  1  0.305300  0.831400  0.838900  1.0  0.1335
  H  H35  1  0.609300  0.238700  0.870600  1.0  0.1182
  H  H36  1  0.578200  0.358200  0.894700  1.0  0.0902
  H  H37  1  0.681600  0.317100  0.048700  1.0  0.094
  H  H38  1  0.708600  0.197000  0.028100  1.0  0.0992
  H  H39  1  0.094500  0.165700  0.878500  1.0  0.1312
  H  H40  1  0.099300  0.291300  0.862200  1.0  0.0797
  H  H41  1  0.198700  0.342400  0.016300  1.0  0.0861
  H  H42  1  0.193300  0.216900  0.037100  1.0  0.1149
  H  H43  1  0.774300  0.719500  0.636900  1.0  0.1071
  H  H44  1  0.886800  0.607600  0.653600  1.0  0.086
  H  H45  1  0.405800  0.718800  0.679600  1.0  0.0823
  H  H46  1  0.305300  0.831400  0.661100  1.0  0.1333
  H  H47  1  0.609300  0.238700  0.629400  1.0  0.1178
  H  H48  1  0.578200  0.358200  0.605300  1.0  0.0905
  H  H49  1  0.681600  0.317100  0.451300  1.0  0.0933
  H  H50  1  0.708600  0.197000  0.471900  1.0  0.0991
  H  H51  1  0.094500  0.165700  0.621500  1.0  0.1311
  H  H52  1  0.099300  0.291300  0.637800  1.0  0.0792
  H  H53  1  0.198700  0.342400  0.483700  1.0  0.0864
  H  H54  1  0.193300  0.216900  0.462900  1.0  0.115
  H  H55  1  0.225700  0.280500  0.136900  1.0  0.1069
  H  H56  1  0.113200  0.392400  0.153600  1.0  0.0864
  H  H57  1  0.594200  0.281200  0.179600  1.0  0.0822
  H  H58  1  0.694700  0.168600  0.161100  1.0  0.1338
  H  H59  1  0.390700  0.761300  0.129400  1.0  0.1175
  H  H60  1  0.421800  0.641800  0.105300  1.0  0.0917
  H  H61  1  0.318400  0.682900  0.951300  1.0  0.0941
  H  H62  1  0.291400  0.803000  0.971900  1.0  0.0995
  H  H63  1  0.905500  0.834300  0.121500  1.0  0.1313
  H  H64  1  0.900700  0.708700  0.137800  1.0  0.0792
  H  H65  1  0.801300  0.657600  0.983700  1.0  0.0866
  H  H66  1  0.806700  0.783100  0.962900  1.0  0.115
  H  H67  1  0.222700  0.710600  0.250000  1.0  0.1013
  H  H68  1  0.379400  0.601500  0.250000  1.0  0.1168
  H  H69  1  0.886200  0.738300  0.250000  1.0  0.0886
  H  H70  1  0.743900  0.841200  0.250000  1.0  0.1025
  H  H71  1  0.777300  0.289400  0.750000  1.0  0.1008
  H  H72  1  0.620600  0.398500  0.750000  1.0  0.1165
  H  H73  1  0.113800  0.261700  0.750000  1.0  0.0889
  H  H74  1  0.256100  0.158800  0.750000  1.0  0.1034
  C  C75  1  0.051000  0.143000  0.362700  1.0  0.6959
  C  C76  1  0.976000  0.214600  0.352000  1.0  -0.1016
  C  C77  1  0.094000  0.279400  0.354500  1.0  -0.0976
  C  C78  1  0.025000  0.346700  0.344400  1.0  0.1213
  C  C79  1  0.726000  0.282200  0.329800  1.0  0.1379
  C  C80  1  0.784000  0.214000  0.340100  1.0  -0.1625
  C  C81  1  0.326000  0.876700  0.432900  1.0  0.6665
  C  C82  1  0.345800  0.798000  0.448300  1.0  -0.0458
  C  C83  1  0.379000  0.746300  0.407500  1.0  -0.1395
  C  C84  1  0.394500  0.675600  0.421900  1.0  0.1475
  C  C85  1  0.334900  0.699300  0.512100  1.0  0.1385
  C  C86  1  0.320200  0.770800  0.499900  1.0  -0.1126
  C  C87  1  0.859100  0.903300  0.473600  1.0  0.7451
  C  C88  1  0.857500  0.820700  0.459500  1.0  -0.1364
  C  C89  1  0.884300  0.799100  0.407300  1.0  -0.1521
  C  C90  1  0.879000  0.723800  0.398300  1.0  0.1633
  C  C91  1  0.821800  0.693600  0.488100  1.0  0.1577
  C  C92  1  0.825600  0.768200  0.500800  1.0  -0.1228
  C  C93  1  0.949000  0.857000  0.862700  1.0  0.6969
  C  C94  1  0.024000  0.785400  0.852000  1.0  -0.0994
  C  C95  1  0.906000  0.720600  0.854500  1.0  -0.098
  C  C96  1  0.975000  0.653300  0.844400  1.0  0.1218
  C  C97  1  0.274000  0.717800  0.829800  1.0  0.1388
  C  C98  1  0.216000  0.786000  0.840100  1.0  -0.1619
  C  C99  1  0.674000  0.123300  0.932900  1.0  0.6638
  C  C100  1  0.654200  0.202000  0.948300  1.0  -0.0468
  C  C101  1  0.621000  0.253700  0.907500  1.0  -0.1401
  C  C102  1  0.605500  0.324400  0.921900  1.0  0.1486
  C  C103  1  0.665100  0.300700  0.012100  1.0  0.1379
  C  C104  1  0.679800  0.229200  0.999900  1.0  -0.1117
  C  C105  1  0.140900  0.096700  0.973600  1.0  0.7443
  C  C106  1  0.142500  0.179300  0.959500  1.0  -0.1358
  C  C107  1  0.115700  0.200900  0.907300  1.0  -0.1524
  C  C108  1  0.121000  0.276200  0.898300  1.0  0.1637
  C  C109  1  0.178200  0.306400  0.988100  1.0  0.1584
  C  C110  1  0.174400  0.231800  0.000800  1.0  -0.1213
  C  C111  1  0.949000  0.857000  0.637300  1.0  0.6949
  C  C112  1  0.024000  0.785400  0.648000  1.0  -0.1013
  C  C113  1  0.906000  0.720600  0.645500  1.0  -0.0976
  C  C114  1  0.975000  0.653300  0.655600  1.0  0.1222
  C  C115  1  0.274000  0.717800  0.670200  1.0  0.139
  C  C116  1  0.216000  0.786000  0.659900  1.0  -0.162
  C  C117  1  0.674000  0.123300  0.567100  1.0  0.6643
  C  C118  1  0.654200  0.202000  0.551700  1.0  -0.0467
  C  C119  1  0.621000  0.253700  0.592500  1.0  -0.141
  C  C120  1  0.605500  0.324400  0.578100  1.0  0.1482
  C  C121  1  0.665100  0.300700  0.487900  1.0  0.1396
  C  C122  1  0.679800  0.229200  0.500100  1.0  -0.112
  C  C123  1  0.140900  0.096700  0.526400  1.0  0.7434
  C  C124  1  0.142500  0.179300  0.540500  1.0  -0.136
  C  C125  1  0.115700  0.200900  0.592700  1.0  -0.1521
  C  C126  1  0.121000  0.276200  0.601700  1.0  0.1618
  C  C127  1  0.178200  0.306400  0.511900  1.0  0.1585
  C  C128  1  0.174400  0.231800  0.499200  1.0  -0.1205
  C  C129  1  0.051000  0.143000  0.137300  1.0  0.6958
  C  C130  1  0.976000  0.214600  0.148000  1.0  -0.1023
  C  C131  1  0.094000  0.279400  0.145500  1.0  -0.0981
  C  C132  1  0.025000  0.346700  0.155600  1.0  0.1217
  C  C133  1  0.726000  0.282200  0.170200  1.0  0.138
  C  C134  1  0.784000  0.214000  0.159900  1.0  -0.1621
  C  C135  1  0.326000  0.876700  0.067100  1.0  0.6661
  C  C136  1  0.345800  0.798000  0.051700  1.0  -0.0457
  C  C137  1  0.379000  0.746300  0.092500  1.0  -0.1402
  C  C138  1  0.394500  0.675600  0.078100  1.0  0.1475
  C  C139  1  0.334900  0.699300  0.987900  1.0  0.1388
  C  C140  1  0.320200  0.770800  0.000100  1.0  -0.1121
  C  C141  1  0.859100  0.903300  0.026400  1.0  0.7447
  C  C142  1  0.857500  0.820700  0.040500  1.0  -0.1363
  C  C143  1  0.884300  0.799100  0.092700  1.0  -0.1519
  C  C144  1  0.879000  0.723800  0.101700  1.0  0.1625
  C  C145  1  0.821800  0.693600  0.011900  1.0  0.1575
  C  C146  1  0.825600  0.768200  0.999200  1.0  -0.1215
  C  C147  1  0.362000  0.853300  0.250000  1.0  0.6365
  C  C148  1  0.472000  0.790400  0.250000  1.0  -0.1053
  C  C149  1  0.359000  0.716500  0.250000  1.0  -0.0306
  C  C150  1  0.453000  0.650400  0.250000  1.0  0.1471
  C  C151  1  0.749000  0.731800  0.250000  1.0  0.142
  C  C152  1  0.664000  0.793600  0.250000  1.0  -0.1189
  C  C153  1  0.638000  0.146700  0.750000  1.0  0.6393
  C  C154  1  0.528000  0.209600  0.750000  1.0  -0.1041
  C  C155  1  0.641000  0.283500  0.750000  1.0  -0.0294
  C  C156  1  0.547000  0.349600  0.750000  1.0  0.1468
  C  C157  1  0.251000  0.268200  0.750000  1.0  0.1418
  C  C158  1  0.336000  0.206400  0.750000  1.0  -0.1201
  I  I159  1  0.024270  0.556900  0.329780  1.0  -0.2457
  I  I160  1  0.489600  0.470470  0.409830  1.0  -0.1974
  I  I161  1  0.975730  0.443100  0.829780  1.0  -0.2467
  I  I162  1  0.510400  0.529530  0.909830  1.0  -0.1974
  I  I163  1  0.975730  0.443100  0.670220  1.0  -0.2469
  I  I164  1  0.510400  0.529530  0.590170  1.0  -0.1961
  I  I165  1  0.024270  0.556900  0.170220  1.0  -0.2459
  I  I166  1  0.489600  0.470470  0.090170  1.0  -0.1963
  I  I167  1  0.467890  0.441530  0.250000  1.0  -0.2218
  I  I168  1  0.532110  0.558470  0.750000  1.0  -0.2221
  I  I169  1  0.000000  0.500000  0.500000  1.0  -0.2766
  I  I170  1  0.000000  0.500000  0.000000  1.0  -0.2766
  N  N171  1  0.837700  0.348800  0.332000  1.0  -0.2981
  N  N172  1  0.372000  0.651200  0.474200  1.0  -0.2649
  N  N173  1  0.846600  0.670000  0.436300  1.0  -0.2947
  N  N174  1  0.162300  0.651200  0.832000  1.0  -0.2979
  N  N175  1  0.628000  0.348800  0.974200  1.0  -0.2636
  N  N176  1  0.153400  0.330000  0.936300  1.0  -0.2939
  N  N177  1  0.162300  0.651200  0.668000  1.0  -0.2974
  N  N178  1  0.628000  0.348800  0.525800  1.0  -0.2637
  N  N179  1  0.153400  0.330000  0.563700  1.0  -0.2941
  N  N180  1  0.837700  0.348800  0.168000  1.0  -0.2982
  N  N181  1  0.372000  0.651200  0.025800  1.0  -0.2643
  N  N182  1  0.846600  0.670000  0.063700  1.0  -0.2944
  N  N183  1  0.650000  0.661500  0.250000  1.0  -0.2857
  N  N184  1  0.350000  0.338500  0.750000  1.0  -0.2854
  O  O185  1  0.232100  0.146900  0.364300  1.0  -0.6571
  O  O186  1  0.938000  0.084400  0.371500  1.0  -0.6176
  O  O187  1  0.331300  0.896400  0.384500  1.0  -0.6639
  O  O188  1  0.303100  0.923000  0.470300  1.0  -0.6922
  O  O189  1  0.926000  0.950200  0.437100  1.0  -0.7555
  O  O190  1  0.792100  0.916800  0.518300  1.0  -0.7165
  O  O191  1  0.767900  0.853100  0.864300  1.0  -0.6574
  O  O192  1  0.062000  0.915600  0.871500  1.0  -0.6163
  O  O193  1  0.668700  0.103600  0.884500  1.0  -0.6626
  O  O194  1  0.696900  0.077000  0.970300  1.0  -0.691
  O  O195  1  0.074000  0.049800  0.937100  1.0  -0.7563
  O  O196  1  0.207900  0.083200  0.018300  1.0  -0.7158
  O  O197  1  0.767900  0.853100  0.635700  1.0  -0.659
  O  O198  1  0.062000  0.915600  0.628500  1.0  -0.6174
  O  O199  1  0.668700  0.103600  0.615500  1.0  -0.6638
  O  O200  1  0.696900  0.077000  0.529700  1.0  -0.6909
  O  O201  1  0.074000  0.049800  0.562900  1.0  -0.7548
  O  O202  1  0.207900  0.083200  0.481700  1.0  -0.7166
  O  O203  1  0.232100  0.146900  0.135700  1.0  -0.6561
  O  O204  1  0.938000  0.084400  0.128500  1.0  -0.6181
  O  O205  1  0.331300  0.896400  0.115500  1.0  -0.6624
  O  O206  1  0.303100  0.923000  0.029700  1.0  -0.6909
  O  O207  1  0.926000  0.950200  0.062900  1.0  -0.7556
  O  O208  1  0.792100  0.916800  0.981700  1.0  -0.7159
  O  O209  1  0.473000  0.919500  0.250000  1.0  -0.6021
  O  O210  1  0.186900  0.847400  0.250000  1.0  -0.5436
  O  O211  1  0.527000  0.080500  0.750000  1.0  -0.6085
  O  O212  1  0.813100  0.152600  0.750000  1.0  -0.5374
