# generated using pymatgen
data_La2Cu7H32C42I6N7O16
_symmetry_space_group_name_H-M   'P 1'
_cell_length_a   7.12090000
_cell_length_b   18.30230000
_cell_length_c   24.98330000
_cell_angle_alpha   90.00000000
_cell_angle_beta   90.00000000
_cell_angle_gamma   99.60600000
_symmetry_Int_Tables_number   1
_chemical_formula_structural   La2Cu7H32C42I6N7O16
_chemical_formula_sum   'La4 Cu14 H64 C84 I12 N14 O32'
_cell_volume   3210.39029946
_cell_formula_units_Z   2
loop_
 _symmetry_equiv_pos_site_id
 _symmetry_equiv_pos_as_xyz
  1  'x, y, z'
loop_
 _atom_site_type_symbol
 _atom_site_label
 _atom_site_symmetry_multiplicity
 _atom_site_fract_x
 _atom_site_fract_y
 _atom_site_fract_z
 _atom_site_occupancy
 _atom_site_charge
  La  La1  1  0.277680  0.483560  0.401060  1.0  2.1265
  La  La2  1  0.722320  0.516440  0.901060  1.0  2.1274
  La  La3  1  0.722320  0.516440  0.598940  1.0  2.1296
  La  La4  1  0.277680  0.483560  0.098940  1.0  2.1287
  Cu  Cu5  1  0.878000  0.044120  0.507580  1.0  0.1496
  Cu  Cu6  1  0.326500  0.060860  0.580080  1.0  0.1636
  Cu  Cu7  1  0.247900  0.946310  0.682980  1.0  0.1441
  Cu  Cu8  1  0.122000  0.955880  0.007580  1.0  0.149
  Cu  Cu9  1  0.673500  0.939140  0.080080  1.0  0.1643
  Cu  Cu10  1  0.752100  0.053690  0.182980  1.0  0.1433
  Cu  Cu11  1  0.122000  0.955880  0.492420  1.0  0.1493
  Cu  Cu12  1  0.673500  0.939140  0.419920  1.0  0.1642
  Cu  Cu13  1  0.752100  0.053690  0.317020  1.0  0.1434
  Cu  Cu14  1  0.878000  0.044120  0.992420  1.0  0.1501
  Cu  Cu15  1  0.326500  0.060860  0.919920  1.0  0.1637
  Cu  Cu16  1  0.247900  0.946310  0.817020  1.0  0.144
  Cu  Cu17  1  0.268200  0.065310  0.750000  1.0  0.1093
  Cu  Cu18  1  0.731800  0.934690  0.250000  1.0  0.1078
  H  H19  1  0.883200  0.436300  0.459400  1.0  0.3855
  H  H20  1  0.884000  0.441800  0.397500  1.0  0.3993
  H  H21  1  0.087600  0.858300  0.395700  1.0  0.0706
  H  H22  1  0.110600  0.739200  0.372700  1.0  0.1159
  H  H23  1  0.197700  0.696500  0.527100  1.0  0.1152
  H  H24  1  0.171800  0.817800  0.545600  1.0  0.0638
  H  H25  1  0.308300  0.160800  0.485800  1.0  0.0616
  H  H26  1  0.300800  0.280300  0.465700  1.0  0.1145
  H  H27  1  0.399000  0.331000  0.620600  1.0  0.1249
  H  H28  1  0.392600  0.206400  0.636300  1.0  0.0661
  H  H29  1  0.602000  0.893700  0.655200  1.0  0.0597
  H  H30  1  0.722100  0.789200  0.638100  1.0  0.1163
  H  H31  1  0.202500  0.674500  0.658800  1.0  0.1051
  H  H32  1  0.094800  0.782800  0.673900  1.0  0.0756
  H  H33  1  0.116800  0.563700  0.959400  1.0  0.3861
  H  H34  1  0.116000  0.558200  0.897500  1.0  0.3991
  H  H35  1  0.912400  0.141700  0.895700  1.0  0.0714
  H  H36  1  0.889400  0.260800  0.872700  1.0  0.1157
  H  H37  1  0.802300  0.303500  0.027100  1.0  0.1149
  H  H38  1  0.828200  0.182200  0.045600  1.0  0.0638
  H  H39  1  0.691700  0.839200  0.985800  1.0  0.0608
  H  H40  1  0.699200  0.719700  0.965700  1.0  0.1145
  H  H41  1  0.601000  0.669000  0.120600  1.0  0.1252
  H  H42  1  0.607400  0.793600  0.136300  1.0  0.0655
  H  H43  1  0.398000  0.106300  0.155200  1.0  0.0598
  H  H44  1  0.277900  0.210800  0.138100  1.0  0.1172
  H  H45  1  0.797500  0.325500  0.158800  1.0  0.1048
  H  H46  1  0.905200  0.217200  0.173900  1.0  0.0762
  H  H47  1  0.116800  0.563700  0.540600  1.0  0.3844
  H  H48  1  0.116000  0.558200  0.602500  1.0  0.3989
  H  H49  1  0.912400  0.141700  0.604300  1.0  0.0716
  H  H50  1  0.889400  0.260800  0.627300  1.0  0.1153
  H  H51  1  0.802300  0.303500  0.472900  1.0  0.1149
  H  H52  1  0.828200  0.182200  0.454400  1.0  0.0647
  H  H53  1  0.691700  0.839200  0.514200  1.0  0.0611
  H  H54  1  0.699200  0.719700  0.534300  1.0  0.1138
  H  H55  1  0.601000  0.669000  0.379400  1.0  0.1254
  H  H56  1  0.607400  0.793600  0.363700  1.0  0.0662
  H  H57  1  0.398000  0.106300  0.344800  1.0  0.0599
  H  H58  1  0.277900  0.210800  0.361900  1.0  0.1179
  H  H59  1  0.797500  0.325500  0.341200  1.0  0.105
  H  H60  1  0.905200  0.217200  0.326100  1.0  0.076
  H  H61  1  0.883200  0.436300  0.040600  1.0  0.3844
  H  H62  1  0.884000  0.441800  0.102500  1.0  0.3986
  H  H63  1  0.087600  0.858300  0.104300  1.0  0.0707
  H  H64  1  0.110600  0.739200  0.127300  1.0  0.1153
  H  H65  1  0.197700  0.696500  0.972900  1.0  0.1148
  H  H66  1  0.171800  0.817800  0.954400  1.0  0.0646
  H  H67  1  0.308300  0.160800  0.014200  1.0  0.062
  H  H68  1  0.300800  0.280300  0.034300  1.0  0.1137
  H  H69  1  0.399000  0.331000  0.879400  1.0  0.1255
  H  H70  1  0.392600  0.206400  0.863700  1.0  0.0667
  H  H71  1  0.602000  0.893700  0.844800  1.0  0.0597
  H  H72  1  0.722100  0.789200  0.861900  1.0  0.1164
  H  H73  1  0.202500  0.674500  0.841200  1.0  0.1046
  H  H74  1  0.094800  0.782800  0.826100  1.0  0.0759
  H  H75  1  0.381400  0.230300  0.750000  1.0  0.0788
  H  H76  1  0.245000  0.336700  0.750000  1.0  0.113
  H  H77  1  0.730700  0.207900  0.750000  1.0  0.1207
  H  H78  1  0.884700  0.107600  0.750000  1.0  0.0526
  H  H79  1  0.618600  0.769700  0.250000  1.0  0.08
  H  H80  1  0.755000  0.663300  0.250000  1.0  0.1128
  H  H81  1  0.269300  0.792100  0.250000  1.0  0.1204
  H  H82  1  0.115300  0.892400  0.250000  1.0  0.0499
  C  C83  1  0.109800  0.825500  0.422500  1.0  0.1469
  C  C84  1  0.122800  0.753800  0.408400  1.0  -0.1294
  C  C85  1  0.154100  0.703500  0.447400  1.0  -0.0246
  C  C86  1  0.174400  0.728200  0.499700  1.0  -0.1529
  C  C87  1  0.159200  0.801500  0.510300  1.0  0.1526
  C  C88  1  0.171100  0.624800  0.433400  1.0  0.6748
  C  C89  1  0.323800  0.195300  0.513500  1.0  0.1447
  C  C90  1  0.321900  0.267100  0.500800  1.0  -0.14
  C  C91  1  0.351400  0.320900  0.540400  1.0  -0.0388
  C  C92  1  0.378600  0.297200  0.592500  1.0  -0.144
  C  C93  1  0.374600  0.221800  0.601500  1.0  0.1493
  C  C94  1  0.354600  0.401600  0.528600  1.0  0.7336
  C  C95  1  0.519700  0.848500  0.655900  1.0  0.1542
  C  C96  1  0.593700  0.785900  0.646400  1.0  -0.1786
  C  C97  1  0.478900  0.717800  0.649200  1.0  -0.0453
  C  C98  1  0.288000  0.718800  0.658400  1.0  -0.1612
  C  C99  1  0.224000  0.784300  0.667100  1.0  0.1329
  C  C100  1  0.553300  0.647000  0.637800  1.0  0.6938
  C  C101  1  0.890200  0.174500  0.922500  1.0  0.1471
  C  C102  1  0.877200  0.246200  0.908400  1.0  -0.1289
  C  C103  1  0.845900  0.296500  0.947400  1.0  -0.0251
  C  C104  1  0.825600  0.271800  0.999700  1.0  -0.154
  C  C105  1  0.840800  0.198500  0.010300  1.0  0.1525
  C  C106  1  0.828900  0.375200  0.933400  1.0  0.6763
  C  C107  1  0.676200  0.804700  0.013500  1.0  0.145
  C  C108  1  0.678100  0.732900  0.000800  1.0  -0.1403
  C  C109  1  0.648600  0.679100  0.040400  1.0  -0.0391
  C  C110  1  0.621400  0.702800  0.092500  1.0  -0.1436
  C  C111  1  0.625400  0.778200  0.101500  1.0  0.1479
  C  C112  1  0.645400  0.598400  0.028600  1.0  0.7311
  C  C113  1  0.480300  0.151500  0.155900  1.0  0.1537
  C  C114  1  0.406300  0.214100  0.146400  1.0  -0.1791
  C  C115  1  0.521100  0.282200  0.149200  1.0  -0.0472
  C  C116  1  0.712000  0.281200  0.158400  1.0  -0.1621
  C  C117  1  0.776000  0.215700  0.167100  1.0  0.133
  C  C118  1  0.446700  0.353000  0.137800  1.0  0.6909
  C  C119  1  0.890200  0.174500  0.577500  1.0  0.1479
  C  C120  1  0.877200  0.246200  0.591600  1.0  -0.1302
  C  C121  1  0.845900  0.296500  0.552600  1.0  -0.0246
  C  C122  1  0.825600  0.271800  0.500300  1.0  -0.1537
  C  C123  1  0.840800  0.198500  0.489700  1.0  0.1536
  C  C124  1  0.828900  0.375200  0.566600  1.0  0.6761
  C  C125  1  0.676200  0.804700  0.486500  1.0  0.1448
  C  C126  1  0.678100  0.732900  0.499200  1.0  -0.1391
  C  C127  1  0.648600  0.679100  0.459600  1.0  -0.0389
  C  C128  1  0.621400  0.702800  0.407500  1.0  -0.1441
  C  C129  1  0.625400  0.778200  0.398500  1.0  0.1493
  C  C130  1  0.645400  0.598400  0.471400  1.0  0.731
  C  C131  1  0.480300  0.151500  0.344100  1.0  0.1532
  C  C132  1  0.406300  0.214100  0.353600  1.0  -0.179
  C  C133  1  0.521100  0.282200  0.350800  1.0  -0.0473
  C  C134  1  0.712000  0.281200  0.341600  1.0  -0.1614
  C  C135  1  0.776000  0.215700  0.332900  1.0  0.133
  C  C136  1  0.446700  0.353000  0.362200  1.0  0.6936
  C  C137  1  0.109800  0.825500  0.077500  1.0  0.1466
  C  C138  1  0.122800  0.753800  0.091600  1.0  -0.1308
  C  C139  1  0.154100  0.703500  0.052600  1.0  -0.0239
  C  C140  1  0.174400  0.728200  0.000300  1.0  -0.1527
  C  C141  1  0.159200  0.801500  0.989700  1.0  0.1531
  C  C142  1  0.171100  0.624800  0.066600  1.0  0.6757
  C  C143  1  0.323800  0.195300  0.986500  1.0  0.1446
  C  C144  1  0.321900  0.267100  0.999200  1.0  -0.1398
  C  C145  1  0.351400  0.320900  0.959600  1.0  -0.0384
  C  C146  1  0.378600  0.297200  0.907500  1.0  -0.1443
  C  C147  1  0.374600  0.221800  0.898500  1.0  0.1503
  C  C148  1  0.354600  0.401600  0.971400  1.0  0.7335
  C  C149  1  0.519700  0.848500  0.844100  1.0  0.1535
  C  C150  1  0.593700  0.785900  0.853600  1.0  -0.1782
  C  C151  1  0.478900  0.717800  0.850800  1.0  -0.0468
  C  C152  1  0.288000  0.718800  0.841600  1.0  -0.1604
  C  C153  1  0.224000  0.784300  0.832900  1.0  0.1327
  C  C154  1  0.553300  0.647000  0.862200  1.0  0.6936
  C  C155  1  0.249000  0.225800  0.750000  1.0  0.151
  C  C156  1  0.167000  0.290400  0.750000  1.0  -0.0999
  C  C157  1  0.970000  0.285400  0.750000  1.0  -0.0457
  C  C158  1  0.863000  0.214700  0.750000  1.0  -0.1812
  C  C159  1  0.958000  0.154600  0.750000  1.0  0.1548
  C  C160  1  0.870000  0.354000  0.750000  1.0  0.6787
  C  C161  1  0.751000  0.774200  0.250000  1.0  0.1486
  C  C162  1  0.833000  0.709600  0.250000  1.0  -0.0986
  C  C163  1  0.030000  0.714600  0.250000  1.0  -0.0463
  C  C164  1  0.137000  0.785300  0.250000  1.0  -0.18
  C  C165  1  0.042000  0.845400  0.250000  1.0  0.1543
  C  C166  1  0.130000  0.646000  0.250000  1.0  0.6819
  I  I167  1  0.990620  0.970500  0.589170  1.0  -0.2205
  I  I168  1  0.517000  0.056850  0.670210  1.0  -0.2344
  I  I169  1  0.009380  0.029500  0.089170  1.0  -0.2204
  I  I170  1  0.483000  0.943150  0.170210  1.0  -0.2337
  I  I171  1  0.009380  0.029500  0.410830  1.0  -0.2206
  I  I172  1  0.483000  0.943150  0.329790  1.0  -0.2334
  I  I173  1  0.990620  0.970500  0.910830  1.0  -0.2208
  I  I174  1  0.517000  0.056850  0.829790  1.0  -0.2342
  I  I175  1  0.974380  0.941370  0.750000  1.0  -0.242
  I  I176  1  0.025620  0.058630  0.250000  1.0  -0.2419
  I  I177  1  0.500000  0.000000  0.500000  1.0  -0.2538
  I  I178  1  0.500000  0.000000  0.000000  1.0  -0.2538
  N  N179  1  0.127700  0.849900  0.472800  1.0  -0.2283
  N  N180  1  0.346600  0.170200  0.563300  1.0  -0.2546
  N  N181  1  0.335600  0.849000  0.666300  1.0  -0.2492
  N  N182  1  0.872300  0.150100  0.972800  1.0  -0.2258
  N  N183  1  0.653400  0.829800  0.063300  1.0  -0.2571
  N  N184  1  0.664400  0.151000  0.166300  1.0  -0.2471
  N  N185  1  0.872300  0.150100  0.527200  1.0  -0.2256
  N  N186  1  0.653400  0.829800  0.436700  1.0  -0.2579
  N  N187  1  0.664400  0.151000  0.333700  1.0  -0.2474
  N  N188  1  0.127700  0.849900  0.027200  1.0  -0.2291
  N  N189  1  0.346600  0.170200  0.936700  1.0  -0.2553
  N  N190  1  0.335600  0.849000  0.833700  1.0  -0.2491
  N  N191  1  0.145600  0.158800  0.750000  1.0  -0.2437
  N  N192  1  0.854400  0.841200  0.250000  1.0  -0.2437
  O  O193  1  0.164800  0.607400  0.384800  1.0  -0.6339
  O  O194  1  0.200000  0.580800  0.470000  1.0  -0.6344
  O  O195  1  0.290600  0.416600  0.483400  1.0  -0.7347
  O  O196  1  0.418700  0.448800  0.564200  1.0  -0.7225
  O  O197  1  0.732400  0.651000  0.636100  1.0  -0.664
  O  O198  1  0.439300  0.587500  0.630700  1.0  -0.6376
  O  O199  1  0.933500  0.441300  0.428500  1.0  -0.8393
  O  O200  1  0.835200  0.392600  0.884800  1.0  -0.6333
  O  O201  1  0.800000  0.419200  0.970000  1.0  -0.6355
  O  O202  1  0.709400  0.583400  0.983400  1.0  -0.7344
  O  O203  1  0.581300  0.551200  0.064200  1.0  -0.7217
  O  O204  1  0.267600  0.349000  0.136100  1.0  -0.6636
  O  O205  1  0.560700  0.412500  0.130700  1.0  -0.6363
  O  O206  1  0.066500  0.558700  0.928500  1.0  -0.8412
  O  O207  1  0.835200  0.392600  0.615200  1.0  -0.6334
  O  O208  1  0.800000  0.419200  0.530000  1.0  -0.636
  O  O209  1  0.709400  0.583400  0.516600  1.0  -0.7347
  O  O210  1  0.581300  0.551200  0.435800  1.0  -0.7231
  O  O211  1  0.267600  0.349000  0.363900  1.0  -0.6636
  O  O212  1  0.560700  0.412500  0.369300  1.0  -0.6375
  O  O213  1  0.066500  0.558700  0.571500  1.0  -0.8424
  O  O214  1  0.164800  0.607400  0.115200  1.0  -0.6351
  O  O215  1  0.200000  0.580800  0.030000  1.0  -0.6352
  O  O216  1  0.290600  0.416600  0.016600  1.0  -0.7357
  O  O217  1  0.418700  0.448800  0.935800  1.0  -0.7224
  O  O218  1  0.732400  0.651000  0.863900  1.0  -0.6644
  O  O219  1  0.439300  0.587500  0.869300  1.0  -0.6384
  O  O220  1  0.933500  0.441300  0.071500  1.0  -0.8399
  O  O221  1  0.975900  0.415600  0.750000  1.0  -0.5817
  O  O222  1  0.692900  0.342200  0.750000  1.0  -0.5505
  O  O223  1  0.024100  0.584400  0.250000  1.0  -0.5838
  O  O224  1  0.307100  0.657800  0.250000  1.0  -0.5452
