# generated using pymatgen
data_La2Cu7H28C42I6(NO2)7
_symmetry_space_group_name_H-M   'P 1'
_cell_length_a   7.06140000
_cell_length_b   18.20800000
_cell_length_c   24.72900000
_cell_angle_alpha   90.00000000
_cell_angle_beta   90.00000000
_cell_angle_gamma   100.32000000
_symmetry_Int_Tables_number   1
_chemical_formula_structural   La2Cu7H28C42I6(NO2)7
_chemical_formula_sum   'La4 Cu14 H56 C84 I12 N14 O28'
_cell_volume   3128.06948407
_cell_formula_units_Z   2
loop_
 _symmetry_equiv_pos_site_id
 _symmetry_equiv_pos_as_xyz
  1  'x, y, z'
loop_
 _atom_site_type_symbol
 _atom_site_label
 _atom_site_symmetry_multiplicity
 _atom_site_fract_x
 _atom_site_fract_y
 _atom_site_fract_z
 _atom_site_occupancy
 _atom_site_charge
  La  La1  1  0.224710  0.016020  0.399720  1.0  2.1697
  La  La2  1  0.775290  0.983980  0.899720  1.0  2.1703
  La  La3  1  0.775290  0.983980  0.600280  1.0  2.1712
  La  La4  1  0.224710  0.016020  0.100280  1.0  2.171
  Cu  Cu5  1  0.750000  0.445990  0.315700  1.0  0.1336
  Cu  Cu6  1  0.378810  0.543200  0.492740  1.0  0.1377
  Cu  Cu7  1  0.828270  0.560120  0.419650  1.0  0.1657
  Cu  Cu8  1  0.250000  0.554010  0.815700  1.0  0.1333
  Cu  Cu9  1  0.621190  0.456800  0.992740  1.0  0.1378
  Cu  Cu10  1  0.171730  0.439880  0.919650  1.0  0.1654
  Cu  Cu11  1  0.250000  0.554010  0.684300  1.0  0.1331
  Cu  Cu12  1  0.621190  0.456800  0.507260  1.0  0.1376
  Cu  Cu13  1  0.171730  0.439880  0.580350  1.0  0.1656
  Cu  Cu14  1  0.750000  0.445990  0.184300  1.0  0.1335
  Cu  Cu15  1  0.378810  0.543200  0.007260  1.0  0.1375
  Cu  Cu16  1  0.828270  0.560120  0.080350  1.0  0.1657
  Cu  Cu17  1  0.771560  0.564140  0.250000  1.0  0.1166
  Cu  Cu18  1  0.228440  0.435860  0.750000  1.0  0.1143
  H  H19  1  0.222800  0.286700  0.361900  1.0  0.1043
  H  H20  1  0.103700  0.395300  0.348900  1.0  0.0654
  H  H21  1  0.592900  0.281400  0.319000  1.0  0.0735
  H  H22  1  0.695800  0.170800  0.334900  1.0  0.1214
  H  H23  1  0.396000  0.761700  0.372100  1.0  0.1241
  H  H24  1  0.421700  0.641900  0.395800  1.0  0.0734
  H  H25  1  0.321500  0.681400  0.547400  1.0  0.0685
  H  H26  1  0.299800  0.802100  0.528100  1.0  0.1189
  H  H27  1  0.904000  0.830500  0.378700  1.0  0.1254
  H  H28  1  0.892800  0.706400  0.362500  1.0  0.0778
  H  H29  1  0.809000  0.658500  0.515500  1.0  0.0684
  H  H30  1  0.808100  0.781200  0.535500  1.0  0.1131
  H  H31  1  0.777200  0.713300  0.861900  1.0  0.1053
  H  H32  1  0.896300  0.604700  0.848900  1.0  0.066
  H  H33  1  0.407100  0.718600  0.819000  1.0  0.073
  H  H34  1  0.304200  0.829200  0.834900  1.0  0.1217
  H  H35  1  0.604000  0.238300  0.872100  1.0  0.1242
  H  H36  1  0.578300  0.358100  0.895800  1.0  0.0726
  H  H37  1  0.678500  0.318600  0.047400  1.0  0.0683
  H  H38  1  0.700200  0.197900  0.028100  1.0  0.1184
  H  H39  1  0.096000  0.169500  0.878700  1.0  0.1255
  H  H40  1  0.107200  0.293600  0.862500  1.0  0.0778
  H  H41  1  0.191000  0.341500  0.015500  1.0  0.068
  H  H42  1  0.191900  0.218800  0.035500  1.0  0.1134
  H  H43  1  0.777200  0.713300  0.638100  1.0  0.1048
  H  H44  1  0.896300  0.604700  0.651100  1.0  0.0659
  H  H45  1  0.407100  0.718600  0.681000  1.0  0.0734
  H  H46  1  0.304200  0.829200  0.665100  1.0  0.1219
  H  H47  1  0.604000  0.238300  0.627900  1.0  0.1237
  H  H48  1  0.578300  0.358100  0.604200  1.0  0.073
  H  H49  1  0.678500  0.318600  0.452600  1.0  0.0688
  H  H50  1  0.700200  0.197900  0.471900  1.0  0.1188
  H  H51  1  0.096000  0.169500  0.621300  1.0  0.1252
  H  H52  1  0.107200  0.293600  0.637500  1.0  0.077
  H  H53  1  0.191000  0.341500  0.484500  1.0  0.0682
  H  H54  1  0.191900  0.218800  0.464500  1.0  0.1134
  H  H55  1  0.222800  0.286700  0.138100  1.0  0.1044
  H  H56  1  0.103700  0.395300  0.151100  1.0  0.0653
  H  H57  1  0.592900  0.281400  0.181000  1.0  0.0735
  H  H58  1  0.695800  0.170800  0.165100  1.0  0.1217
  H  H59  1  0.396000  0.761700  0.127900  1.0  0.1234
  H  H60  1  0.421700  0.641900  0.104200  1.0  0.0737
  H  H61  1  0.321500  0.681400  0.952600  1.0  0.0694
  H  H62  1  0.299800  0.802100  0.971900  1.0  0.1193
  H  H63  1  0.904000  0.830500  0.121300  1.0  0.1247
  H  H64  1  0.892800  0.706400  0.137500  1.0  0.0772
  H  H65  1  0.809000  0.658500  0.984500  1.0  0.0685
  H  H66  1  0.808100  0.781200  0.964500  1.0  0.1136
  H  H67  1  0.233800  0.705900  0.250000  1.0  0.1093
  H  H68  1  0.383400  0.604100  0.250000  1.0  0.0666
  H  H69  1  0.886300  0.732400  0.250000  1.0  0.0726
  H  H70  1  0.749300  0.837500  0.250000  1.0  0.1233
  H  H71  1  0.766200  0.294100  0.750000  1.0  0.1104
  H  H72  1  0.616600  0.395900  0.750000  1.0  0.0657
  H  H73  1  0.113700  0.267600  0.750000  1.0  0.0721
  H  H74  1  0.250700  0.162500  0.750000  1.0  0.1236
  C  C75  1  0.050100  0.145400  0.359200  1.0  0.6776
  C  C76  1  0.972700  0.216300  0.349700  1.0  -0.1111
  C  C77  1  0.093300  0.284400  0.353600  1.0  -0.1132
  C  C78  1  0.021000  0.349700  0.345300  1.0  0.149
  C  C79  1  0.721100  0.282800  0.328300  1.0  0.1322
  C  C80  1  0.782200  0.215700  0.337200  1.0  -0.1356
  C  C81  1  0.328900  0.874300  0.432200  1.0  0.6891
  C  C82  1  0.347300  0.795800  0.447500  1.0  -0.046
  C  C83  1  0.382200  0.746600  0.408000  1.0  -0.1265
  C  C84  1  0.396400  0.674700  0.422600  1.0  0.1186
  C  C85  1  0.338300  0.698000  0.511900  1.0  0.1494
  C  C86  1  0.324400  0.770200  0.500600  1.0  -0.115
  C  C87  1  0.854100  0.902100  0.472100  1.0  0.776
  C  C88  1  0.854000  0.820300  0.459500  1.0  -0.0667
  C  C89  1  0.882100  0.796300  0.407000  1.0  -0.1218
  C  C90  1  0.877200  0.722000  0.397800  1.0  0.1481
  C  C91  1  0.826600  0.693500  0.487700  1.0  0.141
  C  C92  1  0.826600  0.767200  0.500000  1.0  -0.1249
  C  C93  1  0.949900  0.854600  0.859200  1.0  0.6782
  C  C94  1  0.027300  0.783700  0.849700  1.0  -0.111
  C  C95  1  0.906700  0.715600  0.853600  1.0  -0.1151
  C  C96  1  0.979000  0.650300  0.845300  1.0  0.149
  C  C97  1  0.278900  0.717200  0.828300  1.0  0.1331
  C  C98  1  0.217800  0.784300  0.837200  1.0  -0.1339
  C  C99  1  0.671100  0.125700  0.932200  1.0  0.6861
  C  C100  1  0.652700  0.204200  0.947500  1.0  -0.0452
  C  C101  1  0.617800  0.253400  0.908000  1.0  -0.1264
  C  C102  1  0.603600  0.325300  0.922600  1.0  0.1189
  C  C103  1  0.661700  0.302000  0.011900  1.0  0.15
  C  C104  1  0.675600  0.229800  0.000600  1.0  -0.1145
  C  C105  1  0.145900  0.097900  0.972100  1.0  0.7752
  C  C106  1  0.146000  0.179700  0.959500  1.0  -0.069
  C  C107  1  0.117900  0.203700  0.907000  1.0  -0.1218
  C  C108  1  0.122800  0.278000  0.897800  1.0  0.1475
  C  C109  1  0.173400  0.306500  0.987700  1.0  0.1427
  C  C110  1  0.173400  0.232800  0.000000  1.0  -0.1237
  C  C111  1  0.949900  0.854600  0.640800  1.0  0.6768
  C  C112  1  0.027300  0.783700  0.650300  1.0  -0.1112
  C  C113  1  0.906700  0.715600  0.646400  1.0  -0.1152
  C  C114  1  0.979000  0.650300  0.654700  1.0  0.1494
  C  C115  1  0.278900  0.717200  0.671700  1.0  0.1331
  C  C116  1  0.217800  0.784300  0.662800  1.0  -0.1338
  C  C117  1  0.671100  0.125700  0.567800  1.0  0.6868
  C  C118  1  0.652700  0.204200  0.552500  1.0  -0.0451
  C  C119  1  0.617800  0.253400  0.592000  1.0  -0.1268
  C  C120  1  0.603600  0.325300  0.577400  1.0  0.1185
  C  C121  1  0.661700  0.302000  0.488100  1.0  0.1495
  C  C122  1  0.675600  0.229800  0.499400  1.0  -0.1148
  C  C123  1  0.145900  0.097900  0.527900  1.0  0.7747
  C  C124  1  0.146000  0.179700  0.540500  1.0  -0.069
  C  C125  1  0.117900  0.203700  0.593000  1.0  -0.1217
  C  C126  1  0.122800  0.278000  0.602200  1.0  0.1464
  C  C127  1  0.173400  0.306500  0.512300  1.0  0.143
  C  C128  1  0.173400  0.232800  0.500000  1.0  -0.1247
  C  C129  1  0.050100  0.145400  0.140800  1.0  0.6781
  C  C130  1  0.972700  0.216300  0.150300  1.0  -0.1113
  C  C131  1  0.093300  0.284400  0.146400  1.0  -0.1137
  C  C132  1  0.021000  0.349700  0.154700  1.0  0.1496
  C  C133  1  0.721100  0.282800  0.171700  1.0  0.1323
  C  C134  1  0.782200  0.215700  0.162800  1.0  -0.1353
  C  C135  1  0.328900  0.874300  0.067800  1.0  0.6893
  C  C136  1  0.347300  0.795800  0.052500  1.0  -0.046
  C  C137  1  0.382200  0.746600  0.092000  1.0  -0.1265
  C  C138  1  0.396400  0.674700  0.077400  1.0  0.1191
  C  C139  1  0.338300  0.698000  0.988100  1.0  0.1494
  C  C140  1  0.324400  0.770200  0.999400  1.0  -0.1141
  C  C141  1  0.854100  0.902100  0.027900  1.0  0.7757
  C  C142  1  0.854000  0.820300  0.040500  1.0  -0.0667
  C  C143  1  0.882100  0.796300  0.093000  1.0  -0.1217
  C  C144  1  0.877200  0.722000  0.102200  1.0  0.1476
  C  C145  1  0.826600  0.693500  0.012300  1.0  0.1408
  C  C146  1  0.826600  0.767200  0.000000  1.0  -0.1253
  C  C147  1  0.373600  0.851100  0.250000  1.0  0.6693
  C  C148  1  0.474200  0.784000  0.250000  1.0  -0.0447
  C  C149  1  0.367500  0.712800  0.250000  1.0  -0.149
  C  C150  1  0.458500  0.651600  0.250000  1.0  0.1412
  C  C151  1  0.752700  0.726600  0.250000  1.0  0.1624
  C  C152  1  0.671200  0.790600  0.250000  1.0  -0.1596
  C  C153  1  0.626400  0.148900  0.750000  1.0  0.6679
  C  C154  1  0.525800  0.216000  0.750000  1.0  -0.0464
  C  C155  1  0.632500  0.287200  0.750000  1.0  -0.1473
  C  C156  1  0.541500  0.348400  0.750000  1.0  0.14
  C  C157  1  0.247300  0.273400  0.750000  1.0  0.1598
  C  C158  1  0.328800  0.209400  0.750000  1.0  -0.158
  I  I159  1  0.022950  0.557010  0.329890  1.0  -0.2585
  I  I160  1  0.489460  0.471060  0.410050  1.0  -0.1915
  I  I161  1  0.977050  0.442990  0.829890  1.0  -0.2594
  I  I162  1  0.510540  0.528940  0.910050  1.0  -0.1914
  I  I163  1  0.977050  0.442990  0.670110  1.0  -0.2597
  I  I164  1  0.510540  0.528940  0.589950  1.0  -0.1908
  I  I165  1  0.022950  0.557010  0.170110  1.0  -0.2587
  I  I166  1  0.489460  0.471060  0.089950  1.0  -0.1911
  I  I167  1  0.469560  0.440390  0.250000  1.0  -0.2419
  I  I168  1  0.530440  0.559610  0.750000  1.0  -0.2421
  I  I169  1  0.000000  0.500000  0.500000  1.0  -0.2771
  I  I170  1  0.000000  0.500000  0.000000  1.0  -0.2771
  N  N171  1  0.835600  0.349400  0.332130  1.0  -0.2327
  N  N172  1  0.375100  0.650100  0.473800  1.0  -0.2437
  N  N173  1  0.851000  0.670200  0.437190  1.0  -0.2703
  N  N174  1  0.164400  0.650600  0.832130  1.0  -0.2292
  N  N175  1  0.624900  0.349900  0.973800  1.0  -0.2458
  N  N176  1  0.149000  0.329800  0.937190  1.0  -0.2755
  N  N177  1  0.164400  0.650600  0.667870  1.0  -0.229
  N  N178  1  0.624900  0.349900  0.526200  1.0  -0.2461
  N  N179  1  0.149000  0.329800  0.562810  1.0  -0.2746
  N  N180  1  0.835600  0.349400  0.167870  1.0  -0.2318
  N  N181  1  0.375100  0.650100  0.026200  1.0  -0.2433
  N  N182  1  0.851000  0.670200  0.062810  1.0  -0.2702
  N  N183  1  0.652000  0.658000  0.250000  1.0  -0.2562
  N  N184  1  0.348000  0.342000  0.750000  1.0  -0.255
  O  O185  1  0.230900  0.149600  0.360670  1.0  -0.6886
  O  O186  1  0.936100  0.084800  0.365760  1.0  -0.6232
  O  O187  1  0.338600  0.892000  0.383830  1.0  -0.6495
  O  O188  1  0.297100  0.918900  0.469230  1.0  -0.6667
  O  O189  1  0.916400  0.949000  0.436380  1.0  -0.7222
  O  O190  1  0.787000  0.915300  0.517240  1.0  -0.7368
  O  O191  1  0.769100  0.850400  0.860670  1.0  -0.6917
  O  O192  1  0.063900  0.915200  0.865760  1.0  -0.6226
  O  O193  1  0.661400  0.108000  0.883830  1.0  -0.6493
  O  O194  1  0.702900  0.081100  0.969230  1.0  -0.6656
  O  O195  1  0.083600  0.051000  0.936380  1.0  -0.7224
  O  O196  1  0.213000  0.084700  0.017240  1.0  -0.7362
  O  O197  1  0.769100  0.850400  0.639330  1.0  -0.6929
  O  O198  1  0.063900  0.915200  0.634240  1.0  -0.6238
  O  O199  1  0.661400  0.108000  0.616170  1.0  -0.6536
  O  O200  1  0.702900  0.081100  0.530770  1.0  -0.6646
  O  O201  1  0.083600  0.051000  0.563620  1.0  -0.7198
  O  O202  1  0.213000  0.084700  0.482760  1.0  -0.7376
  O  O203  1  0.230900  0.149600  0.139330  1.0  -0.6903
  O  O204  1  0.936100  0.084800  0.134240  1.0  -0.6237
  O  O205  1  0.338600  0.892000  0.116170  1.0  -0.6512
  O  O206  1  0.297100  0.918900  0.030770  1.0  -0.665
  O  O207  1  0.916400  0.949000  0.063620  1.0  -0.7207
  O  O208  1  0.787000  0.915300  0.982760  1.0  -0.7365
  O  O209  1  0.480600  0.915000  0.250000  1.0  -0.6783
  O  O210  1  0.193400  0.840400  0.250000  1.0  -0.6032
  O  O211  1  0.519400  0.085000  0.750000  1.0  -0.6777
  O  O212  1  0.806600  0.159600  0.750000  1.0  -0.5965
