# generated using pymatgen
data_YH7C15O7
_symmetry_space_group_name_H-M   'P 1'
_cell_length_a   9.35300000
_cell_length_b   9.79700000
_cell_length_c   11.38800000
_cell_angle_alpha   94.34000000
_cell_angle_beta   99.40700000
_cell_angle_gamma   111.45500000
_symmetry_Int_Tables_number   1
_chemical_formula_structural   YH7C15O7
_chemical_formula_sum   'Y2 H14 C30 O14'
_cell_volume   947.64434486
_cell_formula_units_Z   2
loop_
 _symmetry_equiv_pos_site_id
 _symmetry_equiv_pos_as_xyz
  1  'x, y, z'
loop_
 _atom_site_type_symbol
 _atom_site_label
 _atom_site_symmetry_multiplicity
 _atom_site_fract_x
 _atom_site_fract_y
 _atom_site_fract_z
 _atom_site_occupancy
 _atom_site_charge
  Y  Y1  1  0.276540  0.545100  0.488550  1.0  2.0607
  Y  Y2  1  0.723460  0.454900  0.511450  1.0  2.0608
  H  H3  1  0.273800  0.233100  0.121000  1.0  0.0988
  H  H4  1  0.176600  0.101800  0.936200  1.0  0.1216
  H  H5  1  0.845100  0.269900  0.884500  1.0  0.1365
  H  H6  1  0.936800  0.397100  0.078100  1.0  0.0978
  H  H7  1  0.199700  0.292400  0.722800  1.0  0.1227
  H  H8  1  0.322100  0.002500  0.540100  1.0  0.1122
  H  H9  1  0.920500  0.859500  0.660900  1.0  0.1189
  H  H10  1  0.726200  0.766900  0.879000  1.0  0.0977
  H  H11  1  0.823400  0.898200  0.063800  1.0  0.122
  H  H12  1  0.154900  0.730100  0.115500  1.0  0.1366
  H  H13  1  0.063200  0.602900  0.921900  1.0  0.0983
  H  H14  1  0.800300  0.707600  0.277200  1.0  0.1226
  H  H15  1  0.677900  0.997500  0.459900  1.0  0.1125
  H  H16  1  0.079500  0.140500  0.339100  1.0  0.1196
  C  C17  1  0.175100  0.412700  0.245200  1.0  0.6695
  C  C18  1  0.115900  0.327700  0.123400  1.0  -0.1947
  C  C19  1  0.185700  0.239600  0.074500  1.0  0.0123
  C  C20  1  0.131000  0.164600  0.963800  1.0  -0.2194
  C  C21  1  0.005600  0.179500  0.888900  1.0  0.2924
  C  C22  1  0.932000  0.263400  0.932900  1.0  -0.2119
  C  C23  1  0.986300  0.338800  0.049100  1.0  -0.0008
  C  C24  1  0.048000  0.077500  0.707600  1.0  0.2397
  C  C25  1  0.180300  0.195600  0.691000  1.0  -0.1661
  C  C26  1  0.281100  0.165800  0.626700  1.0  -0.1004
  C  C27  1  0.250900  0.022500  0.579600  1.0  -0.0151
  C  C28  1  0.114100  0.906300  0.590400  1.0  -0.1542
  C  C29  1  0.012600  0.935600  0.654200  1.0  -0.1324
  C  C30  1  0.419500  0.291000  0.603100  1.0  0.7464
  C  C31  1  0.081500  0.753300  0.533200  1.0  0.775
  C  C32  1  0.824900  0.587300  0.754800  1.0  0.6691
  C  C33  1  0.884100  0.672300  0.876600  1.0  -0.1966
  C  C34  1  0.814300  0.760400  0.925500  1.0  0.0048
  C  C35  1  0.869000  0.835400  0.036200  1.0  -0.2198
  C  C36  1  0.994400  0.820500  0.111100  1.0  0.3028
  C  C37  1  0.068000  0.736600  0.067100  1.0  -0.2066
  C  C38  1  0.013700  0.661200  0.950900  1.0  -0.0075
  C  C39  1  0.952000  0.922500  0.292400  1.0  0.2313
  C  C40  1  0.819700  0.804400  0.309000  1.0  -0.1642
  C  C41  1  0.718900  0.834200  0.373300  1.0  -0.1025
  C  C42  1  0.749100  0.977500  0.420400  1.0  -0.0149
  C  C43  1  0.885900  0.093700  0.409600  1.0  -0.1529
  C  C44  1  0.987400  0.064400  0.345800  1.0  -0.1332
  C  C45  1  0.580500  0.709000  0.396900  1.0  0.7461
  C  C46  1  0.918500  0.246700  0.466800  1.0  0.7744
  O  O47  1  0.122200  0.504500  0.282800  1.0  -0.6261
  O  O48  1  0.281500  0.389300  0.316900  1.0  -0.659
  O  O49  1  0.546600  0.275100  0.605800  1.0  -0.6343
  O  O50  1  0.402300  0.407700  0.577800  1.0  -0.7654
  O  O51  1  0.189100  0.730700  0.491700  1.0  -0.7143
  O  O52  1  0.949600  0.655300  0.528500  1.0  -0.755
  O  O53  1  0.945200  0.105000  0.772600  1.0  -0.2531
  O  O54  1  0.877800  0.495500  0.717200  1.0  -0.626
  O  O55  1  0.718500  0.610700  0.683100  1.0  -0.6596
  O  O56  1  0.453400  0.724900  0.394200  1.0  -0.6358
  O  O57  1  0.597700  0.592300  0.422200  1.0  -0.7655
  O  O58  1  0.810900  0.269300  0.508300  1.0  -0.7069
  O  O59  1  0.050400  0.344700  0.471500  1.0  -0.7574
  O  O60  1  0.054800  0.895000  0.227400  1.0  -0.2519
