# generated using pymatgen
data_CeH7C15O7
_symmetry_space_group_name_H-M   'P 1'
_cell_length_a   9.42300000
_cell_length_b   9.94700000
_cell_length_c   11.41900000
_cell_angle_alpha   93.63300000
_cell_angle_beta   98.09200000
_cell_angle_gamma   110.64900000
_symmetry_Int_Tables_number   1
_chemical_formula_structural   CeH7C15O7
_chemical_formula_sum   'Ce2 H14 C30 O14'
_cell_volume   984.17471534
_cell_formula_units_Z   2
loop_
 _symmetry_equiv_pos_site_id
 _symmetry_equiv_pos_as_xyz
  1  'x, y, z'
loop_
 _atom_site_type_symbol
 _atom_site_label
 _atom_site_symmetry_multiplicity
 _atom_site_fract_x
 _atom_site_fract_y
 _atom_site_fract_z
 _atom_site_occupancy
 _atom_site_charge
  Ce  Ce1  1  0.284190  0.045920  0.984790  1.0  2.2165
  Ce  Ce2  1  0.715810  0.954080  0.015210  1.0  2.2188
  H  H3  1  0.683200  0.506500  0.963200  1.0  0.1172
  H  H4  1  0.081000  0.635700  0.836300  1.0  0.1257
  H  H5  1  0.803000  0.215100  0.781100  1.0  0.1254
  H  H6  1  0.826600  0.402600  0.569600  1.0  0.1318
  H  H7  1  0.736100  0.278500  0.382400  1.0  0.0994
  H  H8  1  0.060900  0.104500  0.427000  1.0  0.0942
  H  H9  1  0.152200  0.227400  0.616400  1.0  0.1439
  H  H10  1  0.316800  0.493500  0.036800  1.0  0.1173
  H  H11  1  0.919000  0.364300  0.163700  1.0  0.1257
  H  H12  1  0.197000  0.784900  0.218900  1.0  0.1253
  H  H13  1  0.173400  0.597400  0.430400  1.0  0.1315
  H  H14  1  0.263900  0.721500  0.617600  1.0  0.1006
  H  H15  1  0.939100  0.895500  0.573000  1.0  0.0945
  H  H16  1  0.847800  0.772600  0.383600  1.0  0.1426
  C  C17  1  0.579300  0.226000  0.896400  1.0  0.7538
  C  C18  1  0.721800  0.342700  0.875400  1.0  -0.0969
  C  C19  1  0.753200  0.484700  0.923100  1.0  -0.0303
  C  C20  1  0.888200  0.592600  0.910800  1.0  -0.1319
  C  C21  1  0.989900  0.563000  0.844800  1.0  -0.1284
  C  C22  1  0.951600  0.422400  0.792500  1.0  0.2506
  C  C23  1  0.822100  0.310200  0.811100  1.0  -0.1627
  C  C24  1  0.925300  0.744300  0.968300  1.0  0.8002
  C  C25  1  0.872000  0.340800  0.541300  1.0  -0.2682
  C  C26  1  0.818700  0.266700  0.429500  1.0  0.0197
  C  C27  1  0.884200  0.174200  0.384100  1.0  -0.2044
  C  C28  1  0.012300  0.162900  0.456300  1.0  0.0033
  C  C29  1  0.067500  0.236300  0.569700  1.0  -0.2477
  C  C30  1  0.995700  0.322600  0.612700  1.0  0.2965
  C  C31  1  0.824600  0.090200  0.265600  1.0  0.6895
  C  C32  1  0.420700  0.774000  0.103600  1.0  0.7519
  C  C33  1  0.278200  0.657300  0.124600  1.0  -0.0968
  C  C34  1  0.246800  0.515300  0.076900  1.0  -0.0297
  C  C35  1  0.111800  0.407400  0.089200  1.0  -0.1321
  C  C36  1  0.010100  0.437000  0.155200  1.0  -0.127
  C  C37  1  0.048400  0.577600  0.207500  1.0  0.2511
  C  C38  1  0.177900  0.689800  0.188900  1.0  -0.1635
  C  C39  1  0.074700  0.255700  0.031700  1.0  0.797
  C  C40  1  0.128000  0.659200  0.458700  1.0  -0.2668
  C  C41  1  0.181300  0.733300  0.570500  1.0  0.0181
  C  C42  1  0.115800  0.825800  0.615900  1.0  -0.2021
  C  C43  1  0.987700  0.837100  0.543700  1.0  0.0042
  C  C44  1  0.932500  0.763700  0.430300  1.0  -0.2454
  C  C45  1  0.004300  0.677400  0.387300  1.0  0.2958
  C  C46  1  0.175400  0.909800  0.734400  1.0  0.6894
  O  O47  1  0.456200  0.251100  0.887400  1.0  -0.6398
  O  O48  1  0.584800  0.107500  0.924900  1.0  -0.832
  O  O49  1  0.822300  0.769000  0.013500  1.0  -0.7454
  O  O50  1  0.055500  0.836200  0.968300  1.0  -0.7766
  O  O51  1  0.714000  0.110300  0.199700  1.0  -0.7056
  O  O52  1  0.879200  0.000000  0.228400  1.0  -0.6458
  O  O53  1  0.054500  0.395000  0.726400  1.0  -0.2519
  O  O54  1  0.543800  0.748900  0.112600  1.0  -0.6414
  O  O55  1  0.415200  0.892500  0.075100  1.0  -0.8305
  O  O56  1  0.177700  0.231000  0.986500  1.0  -0.7456
  O  O57  1  0.944500  0.163800  0.031700  1.0  -0.7763
  O  O58  1  0.286000  0.889700  0.800300  1.0  -0.7059
  O  O59  1  0.120800  0.000000  0.771600  1.0  -0.6485
  O  O60  1  0.945500  0.605000  0.273600  1.0  -0.2524
