# generated using pymatgen
data_NdH7C15O7
_symmetry_space_group_name_H-M   'P 1'
_cell_length_a   9.37000000
_cell_length_b   9.90200000
_cell_length_c   11.42900000
_cell_angle_alpha   93.94200000
_cell_angle_beta   98.07500000
_cell_angle_gamma   110.69200000
_symmetry_Int_Tables_number   1
_chemical_formula_structural   NdH7C15O7
_chemical_formula_sum   'Nd2 H14 C30 O14'
_cell_volume   974.10874565
_cell_formula_units_Z   2
loop_
 _symmetry_equiv_pos_site_id
 _symmetry_equiv_pos_as_xyz
  1  'x, y, z'
loop_
 _atom_site_type_symbol
 _atom_site_label
 _atom_site_symmetry_multiplicity
 _atom_site_fract_x
 _atom_site_fract_y
 _atom_site_fract_z
 _atom_site_occupancy
 _atom_site_charge
  Nd  Nd1  1  0.716050  0.454120  0.015590  1.0  2.2572
  Nd  Nd2  1  0.283950  0.545880  0.984410  1.0  2.2561
  H  H3  1  0.062600  0.603500  0.424600  1.0  0.0957
  H  H4  1  0.081500  0.136900  0.835000  1.0  0.1274
  H  H5  1  0.826600  0.902200  0.569500  1.0  0.1364
  H  H6  1  0.734500  0.776700  0.382500  1.0  0.0988
  H  H7  1  0.803800  0.714300  0.779200  1.0  0.1264
  H  H8  1  0.681800  0.004700  0.962200  1.0  0.1103
  H  H9  1  0.153500  0.727000  0.615500  1.0  0.1453
  H  H10  1  0.937400  0.396500  0.575400  1.0  0.0961
  H  H11  1  0.918500  0.863100  0.165000  1.0  0.1274
  H  H12  1  0.173400  0.097800  0.430500  1.0  0.1358
  H  H13  1  0.265500  0.223300  0.617500  1.0  0.0999
  H  H14  1  0.196200  0.285700  0.220800  1.0  0.126
  H  H15  1  0.318200  0.995300  0.037800  1.0  0.1106
  H  H16  1  0.846500  0.273000  0.384500  1.0  0.1448
  C  C17  1  0.013400  0.661800  0.454200  1.0  0.0069
  C  C18  1  0.996100  0.821500  0.611400  1.0  0.3017
  C  C19  1  0.990500  0.063400  0.844100  1.0  -0.1407
  C  C20  1  0.953800  0.922800  0.792300  1.0  0.2518
  C  C21  1  0.925600  0.245400  0.967800  1.0  0.8005
  C  C22  1  0.872000  0.840000  0.540800  1.0  -0.2733
  C  C23  1  0.888700  0.093600  0.910600  1.0  -0.1394
  C  C24  1  0.818400  0.765600  0.429100  1.0  0.0206
  C  C25  1  0.885100  0.673300  0.382200  1.0  -0.2021
  C  C26  1  0.823100  0.809600  0.810300  1.0  -0.1585
  C  C27  1  0.752700  0.983300  0.922400  1.0  -0.0273
  C  C28  1  0.721900  0.840900  0.875200  1.0  -0.0989
  C  C29  1  0.578800  0.723600  0.897000  1.0  0.7535
  C  C30  1  0.068400  0.735800  0.568600  1.0  -0.2433
  C  C31  1  0.823400  0.589000  0.262800  1.0  0.6914
  C  C32  1  0.986600  0.338200  0.545800  1.0  0.0078
  C  C33  1  0.003900  0.178500  0.388600  1.0  0.3008
  C  C34  1  0.009500  0.936600  0.155900  1.0  -0.1398
  C  C35  1  0.046200  0.077200  0.207700  1.0  0.2519
  C  C36  1  0.074400  0.754600  0.032200  1.0  0.7974
  C  C37  1  0.128000  0.160000  0.459200  1.0  -0.2717
  C  C38  1  0.111300  0.906400  0.089400  1.0  -0.1406
  C  C39  1  0.181600  0.234400  0.570900  1.0  0.0199
  C  C40  1  0.114900  0.326700  0.617800  1.0  -0.2004
  C  C41  1  0.176900  0.190400  0.189700  1.0  -0.1597
  C  C42  1  0.247300  0.016700  0.077600  1.0  -0.0265
  C  C43  1  0.278100  0.159100  0.124800  1.0  -0.0999
  C  C44  1  0.421200  0.276400  0.103000  1.0  0.7513
  C  C45  1  0.931600  0.264200  0.431400  1.0  -0.243
  C  C46  1  0.176600  0.411000  0.737200  1.0  0.6909
  O  O47  1  0.713100  0.609200  0.196400  1.0  -0.7047
  O  O48  1  0.055700  0.893800  0.725900  1.0  -0.2552
  O  O49  1  0.821000  0.270200  0.012900  1.0  -0.753
  O  O50  1  0.056300  0.338300  0.967300  1.0  -0.7789
  O  O51  1  0.878000  0.497800  0.225200  1.0  -0.6639
  O  O52  1  0.585300  0.604500  0.925600  1.0  -0.8451
  O  O53  1  0.454500  0.745900  0.887700  1.0  -0.6354
  O  O54  1  0.286900  0.390800  0.803600  1.0  -0.7052
  O  O55  1  0.944300  0.106200  0.274100  1.0  -0.256
  O  O56  1  0.179000  0.729800  0.987100  1.0  -0.7524
  O  O57  1  0.943700  0.661700  0.032700  1.0  -0.7802
  O  O58  1  0.122000  0.502200  0.774800  1.0  -0.6649
  O  O59  1  0.414700  0.395500  0.074400  1.0  -0.8439
  O  O60  1  0.545500  0.254100  0.112300  1.0  -0.6369
