# generated using pymatgen
data_SmH7C15O7
_symmetry_space_group_name_H-M   'P 1'
_cell_length_a   9.34100000
_cell_length_b   9.86500000
_cell_length_c   11.41500000
_cell_angle_alpha   94.03300000
_cell_angle_beta   98.33200000
_cell_angle_gamma   110.80900000
_symmetry_Int_Tables_number   1
_chemical_formula_structural   SmH7C15O7
_chemical_formula_sum   'Sm2 H14 C30 O14'
_cell_volume   964.41347597
_cell_formula_units_Z   2
loop_
 _symmetry_equiv_pos_site_id
 _symmetry_equiv_pos_as_xyz
  1  'x, y, z'
loop_
 _atom_site_type_symbol
 _atom_site_label
 _atom_site_symmetry_multiplicity
 _atom_site_fract_x
 _atom_site_fract_y
 _atom_site_fract_z
 _atom_site_occupancy
 _atom_site_charge
  Sm  Sm1  1  0.782610  0.545650  0.484970  1.0  2.2651
  Sm  Sm2  1  0.217390  0.454350  0.515030  1.0  2.2651
  H  H3  1  0.434500  0.394500  0.077100  1.0  0.096
  H  H4  1  0.346300  0.273400  0.884300  1.0  0.1449
  H  H5  1  0.676500  0.101700  0.931100  1.0  0.1269
  H  H6  1  0.767300  0.224400  0.119500  1.0  0.1019
  H  H7  1  0.695700  0.286400  0.721300  1.0  0.1245
  H  H8  1  0.818100  0.997400  0.535800  1.0  0.117
  H  H9  1  0.419500  0.862100  0.664900  1.0  0.1288
  H  H10  1  0.565500  0.605500  0.922900  1.0  0.0962
  H  H11  1  0.653700  0.726600  0.115700  1.0  0.1449
  H  H12  1  0.323500  0.898300  0.068900  1.0  0.1274
  H  H13  1  0.232700  0.775600  0.880500  1.0  0.1008
  H  H14  1  0.304300  0.713600  0.278700  1.0  0.125
  H  H15  1  0.181900  0.002600  0.464200  1.0  0.1179
  H  H16  1  0.580500  0.137900  0.335100  1.0  0.1285
  C  C17  1  0.676700  0.412000  0.239100  1.0  0.6919
  C  C18  1  0.616500  0.328000  0.119500  1.0  -0.1789
  C  C19  1  0.485300  0.337800  0.047100  1.0  -0.0112
  C  C20  1  0.431100  0.264100  0.931900  1.0  -0.2438
  C  C21  1  0.503300  0.177900  0.889200  1.0  0.3038
  C  C22  1  0.629400  0.162400  0.960300  1.0  -0.2597
  C  C23  1  0.683300  0.236000  0.072600  1.0  0.0176
  C  C24  1  0.547300  0.077900  0.707900  1.0  0.2564
  C  C25  1  0.676800  0.190700  0.690100  1.0  -0.1653
  C  C26  1  0.777600  0.160900  0.626000  1.0  -0.089
  C  C27  1  0.747700  0.018100  0.576900  1.0  -0.0283
  C  C28  1  0.611400  0.906700  0.590100  1.0  -0.1407
  C  C29  1  0.510700  0.936300  0.655800  1.0  -0.141
  C  C30  1  0.919800  0.280200  0.602600  1.0  0.7429
  C  C31  1  0.576400  0.753800  0.532500  1.0  0.7903
  C  C32  1  0.323300  0.588000  0.760900  1.0  0.6922
  C  C33  1  0.383500  0.672000  0.880500  1.0  -0.1803
  C  C34  1  0.514700  0.662200  0.952900  1.0  -0.0121
  C  C35  1  0.568900  0.735900  0.068100  1.0  -0.241
  C  C36  1  0.496700  0.822100  0.110800  1.0  0.3044
  C  C37  1  0.370600  0.837600  0.039700  1.0  -0.2596
  C  C38  1  0.316700  0.764000  0.927400  1.0  0.0178
  C  C39  1  0.452700  0.922100  0.292100  1.0  0.2561
  C  C40  1  0.323200  0.809300  0.309900  1.0  -0.1643
  C  C41  1  0.222400  0.839100  0.374000  1.0  -0.0895
  C  C42  1  0.252300  0.981900  0.423100  1.0  -0.0284
  C  C43  1  0.388600  0.093300  0.409900  1.0  -0.1403
  C  C44  1  0.489300  0.063700  0.344200  1.0  -0.1412
  C  C45  1  0.080200  0.719800  0.397400  1.0  0.7432
  C  C46  1  0.423600  0.246200  0.467500  1.0  0.795
  O  O47  1  0.784800  0.390200  0.306400  1.0  -0.7083
  O  O48  1  0.622000  0.503400  0.276300  1.0  -0.6623
  O  O49  1  0.047300  0.258900  0.611500  1.0  -0.6543
  O  O50  1  0.911400  0.398100  0.574300  1.0  -0.8324
  O  O51  1  0.681800  0.729800  0.488900  1.0  -0.7569
  O  O52  1  0.444700  0.659700  0.532500  1.0  -0.7883
  O  O53  1  0.442700  0.104800  0.774100  1.0  -0.2514
  O  O54  1  0.215200  0.609800  0.693600  1.0  -0.707
  O  O55  1  0.378000  0.496600  0.723700  1.0  -0.6642
  O  O56  1  0.952700  0.741100  0.388500  1.0  -0.6537
  O  O57  1  0.088600  0.601900  0.425700  1.0  -0.8337
  O  O58  1  0.318200  0.270200  0.511100  1.0  -0.7572
  O  O59  1  0.555300  0.340300  0.467500  1.0  -0.7891
  O  O60  1  0.557300  0.895200  0.225900  1.0  -0.249
