# generated using pymatgen
data_EuH7C15O7
_symmetry_space_group_name_H-M   'P 1'
_cell_length_a   9.34100000
_cell_length_b   9.84900000
_cell_length_c   11.42200000
_cell_angle_alpha   94.07600000
_cell_angle_beta   98.57700000
_cell_angle_gamma   110.92700000
_symmetry_Int_Tables_number   1
_chemical_formula_structural   EuH7C15O7
_chemical_formula_sum   'Eu2 H14 C30 O14'
_cell_volume   961.68914895
_cell_formula_units_Z   2
loop_
 _symmetry_equiv_pos_site_id
 _symmetry_equiv_pos_as_xyz
  1  'x, y, z'
loop_
 _atom_site_type_symbol
 _atom_site_label
 _atom_site_symmetry_multiplicity
 _atom_site_fract_x
 _atom_site_fract_y
 _atom_site_fract_z
 _atom_site_occupancy
 _atom_site_charge
  Eu  Eu1  1  0.718010  0.454640  0.014710  1.0  2.139
  Eu  Eu2  1  0.281990  0.545360  0.985290  1.0  2.139
  H  H3  1  0.065500  0.604200  0.422900  1.0  0.102
  H  H4  1  0.154400  0.728500  0.615900  1.0  0.1388
  H  H5  1  0.822900  0.897800  0.568600  1.0  0.1336
  H  H6  1  0.731300  0.773100  0.380300  1.0  0.1023
  H  H7  1  0.079600  0.139000  0.835400  1.0  0.1264
  H  H8  1  0.679500  0.003000  0.961900  1.0  0.1199
  H  H9  1  0.804100  0.711900  0.779300  1.0  0.1264
  H  H10  1  0.934500  0.395800  0.577100  1.0  0.102
  H  H11  1  0.845600  0.271500  0.384100  1.0  0.139
  H  H12  1  0.177100  0.102200  0.431400  1.0  0.1335
  H  H13  1  0.268700  0.226900  0.619700  1.0  0.1031
  H  H14  1  0.920400  0.861000  0.164600  1.0  0.1264
  H  H15  1  0.320500  0.997000  0.038100  1.0  0.1198
  H  H16  1  0.195900  0.288100  0.220700  1.0  0.1266
  C  C17  1  0.824300  0.588300  0.260000  1.0  0.6869
  C  C18  1  0.885900  0.672600  0.380400  1.0  -0.1926
  C  C19  1  0.015100  0.661600  0.452400  1.0  -0.0126
  C  C20  1  0.068800  0.736600  0.568100  1.0  -0.2088
  C  C21  1  0.996500  0.821200  0.611200  1.0  0.2979
  C  C22  1  0.870000  0.837100  0.539600  1.0  -0.2536
  C  C23  1  0.816400  0.763200  0.427300  1.0  0.0064
  C  C24  1  0.952900  0.921300  0.792100  1.0  0.2553
  C  C25  1  0.988800  0.064100  0.844400  1.0  -0.1325
  C  C26  1  0.888000  0.093300  0.909900  1.0  -0.1369
  C  C27  1  0.750400  0.981700  0.922100  1.0  -0.0193
  C  C28  1  0.720200  0.838000  0.874200  1.0  -0.0988
  C  C29  1  0.822900  0.807900  0.810000  1.0  -0.1536
  C  C30  1  0.922400  0.247000  0.967300  1.0  0.7856
  C  C31  1  0.579900  0.718000  0.897600  1.0  0.7583
  C  C32  1  0.175700  0.411700  0.740000  1.0  0.6858
  C  C33  1  0.114100  0.327400  0.619600  1.0  -0.192
  C  C34  1  0.984900  0.338400  0.547600  1.0  -0.0112
  C  C35  1  0.931200  0.263400  0.431900  1.0  -0.2088
  C  C36  1  0.003500  0.178800  0.388800  1.0  0.2968
  C  C37  1  0.130000  0.162900  0.460400  1.0  -0.253
  C  C38  1  0.183600  0.236800  0.572700  1.0  0.007
  C  C39  1  0.047100  0.078700  0.207900  1.0  0.2565
  C  C40  1  0.011200  0.935900  0.155600  1.0  -0.1309
  C  C41  1  0.112000  0.906700  0.090100  1.0  -0.1366
  C  C42  1  0.249600  0.018300  0.077900  1.0  -0.0192
  C  C43  1  0.279800  0.162000  0.125800  1.0  -0.0985
  C  C44  1  0.177100  0.192100  0.190000  1.0  -0.1556
  C  C45  1  0.077600  0.753000  0.032700  1.0  0.7804
  C  C46  1  0.420100  0.282000  0.102400  1.0  0.7577
  O  O47  1  0.715200  0.610200  0.192000  1.0  -0.6679
  O  O48  1  0.879400  0.497000  0.222600  1.0  -0.6626
  O  O49  1  0.817400  0.270700  0.010700  1.0  -0.7503
  O  O50  1  0.055000  0.341000  0.968200  1.0  -0.7825
  O  O51  1  0.452900  0.738100  0.888800  1.0  -0.6457
  O  O52  1  0.589900  0.600500  0.925500  1.0  -0.81
  O  O53  1  0.056300  0.894900  0.726200  1.0  -0.2507
  O  O54  1  0.284800  0.389800  0.808000  1.0  -0.6683
  O  O55  1  0.120600  0.503000  0.777400  1.0  -0.6629
  O  O56  1  0.182600  0.729300  0.989300  1.0  -0.7478
  O  O57  1  0.945000  0.659000  0.031800  1.0  -0.7811
  O  O58  1  0.547100  0.261900  0.111200  1.0  -0.6464
  O  O59  1  0.410100  0.399500  0.074500  1.0  -0.8097
  O  O60  1  0.943700  0.105100  0.273800  1.0  -0.2518
