# generated using pymatgen
data_PrH7C15O7
_symmetry_space_group_name_H-M   'P 1'
_cell_length_a   9.39800000
_cell_length_b   9.91100000
_cell_length_c   11.42200000
_cell_angle_alpha   93.96500000
_cell_angle_beta   98.13100000
_cell_angle_gamma   110.78200000
_symmetry_Int_Tables_number   1
_chemical_formula_structural   PrH7C15O7
_chemical_formula_sum   'Pr2 H14 C30 O14'
_cell_volume   976.44895123
_cell_formula_units_Z   2
loop_
 _symmetry_equiv_pos_site_id
 _symmetry_equiv_pos_as_xyz
  1  'x, y, z'
loop_
 _atom_site_type_symbol
 _atom_site_label
 _atom_site_symmetry_multiplicity
 _atom_site_fract_x
 _atom_site_fract_y
 _atom_site_fract_z
 _atom_site_occupancy
 _atom_site_charge
  Pr  Pr1  1  0.284280  0.545600  0.485120  1.0  2.1698
  Pr  Pr2  1  0.715720  0.454400  0.514880  1.0  2.1735
  H  H3  1  0.940200  0.397800  0.074000  1.0  0.0975
  H  H4  1  0.849800  0.273700  0.882500  1.0  0.14
  H  H5  1  0.170100  0.095700  0.931400  1.0  0.1294
  H  H6  1  0.263300  0.221900  0.117300  1.0  0.1028
  H  H7  1  0.919700  0.866100  0.663700  1.0  0.1257
  H  H8  1  0.319400  0.995100  0.538200  1.0  0.1185
  H  H9  1  0.198600  0.286400  0.719100  1.0  0.1295
  H  H10  1  0.059800  0.602200  0.926000  1.0  0.097
  H  H11  1  0.150200  0.726300  0.117500  1.0  0.1409
  H  H12  1  0.829900  0.904300  0.068600  1.0  0.13
  H  H13  1  0.736700  0.778100  0.882700  1.0  0.1012
  H  H14  1  0.080300  0.133900  0.336300  1.0  0.1257
  H  H15  1  0.680600  0.004900  0.461800  1.0  0.1183
  H  H16  1  0.801400  0.713600  0.280900  1.0  0.13
  C  C17  1  0.176600  0.410500  0.236500  1.0  0.6945
  C  C18  1  0.116500  0.326500  0.116600  1.0  -0.1681
  C  C19  1  0.988700  0.339000  0.044600  1.0  -0.0014
  C  C20  1  0.934100  0.264400  0.929800  1.0  -0.2284
  C  C21  1  0.004500  0.177800  0.887000  1.0  0.3088
  C  C22  1  0.125900  0.159200  0.959200  1.0  -0.2627
  C  C23  1  0.180200  0.233800  0.070600  1.0  0.0136
  C  C24  1  0.048800  0.078600  0.706200  1.0  0.2602
  C  C25  1  0.011400  0.938700  0.654900  1.0  -0.14
  C  C26  1  0.111500  0.906400  0.589800  1.0  -0.1425
  C  C27  1  0.075400  0.755400  0.532900  1.0  0.7926
  C  C28  1  0.248600  0.016800  0.577600  1.0  -0.0404
  C  C29  1  0.278400  0.157500  0.624100  1.0  -0.0843
  C  C30  1  0.178700  0.190800  0.688500  1.0  -0.16
  C  C31  1  0.420300  0.274600  0.602400  1.0  0.7324
  C  C32  1  0.823400  0.589500  0.763500  1.0  0.6953
  C  C33  1  0.883500  0.673500  0.883400  1.0  -0.1707
  C  C34  1  0.011300  0.661000  0.955400  1.0  -0.0022
  C  C35  1  0.065900  0.735600  0.070200  1.0  -0.2265
  C  C36  1  0.995500  0.822200  0.113000  1.0  0.3096
  C  C37  1  0.874100  0.840800  0.040800  1.0  -0.2629
  C  C38  1  0.819800  0.766200  0.929400  1.0  0.0129
  C  C39  1  0.951200  0.921400  0.293800  1.0  0.2616
  C  C40  1  0.988600  0.061300  0.345100  1.0  -0.1389
  C  C41  1  0.888500  0.093600  0.410200  1.0  -0.1402
  C  C42  1  0.924600  0.244600  0.467100  1.0  0.7951
  C  C43  1  0.751400  0.983200  0.422400  1.0  -0.0411
  C  C44  1  0.721600  0.842500  0.375900  1.0  -0.0856
  C  C45  1  0.821300  0.809200  0.311500  1.0  -0.1606
  C  C46  1  0.579700  0.725400  0.397600  1.0  0.7335
  O  O47  1  0.284900  0.389400  0.302300  1.0  -0.6966
  O  O48  1  0.122400  0.500300  0.273700  1.0  -0.65
  O  O49  1  0.944800  0.662200  0.531600  1.0  -0.7711
  O  O50  1  0.178700  0.730200  0.488000  1.0  -0.741
  O  O51  1  0.414700  0.394100  0.574400  1.0  -0.8308
  O  O52  1  0.546200  0.251800  0.611300  1.0  -0.6422
  O  O53  1  0.944400  0.106200  0.772900  1.0  -0.2612
  O  O54  1  0.715100  0.610600  0.697700  1.0  -0.6955
  O  O55  1  0.877600  0.499700  0.726300  1.0  -0.6512
  O  O56  1  0.055200  0.337800  0.468400  1.0  -0.7707
  O  O57  1  0.821300  0.269800  0.512000  1.0  -0.7378
  O  O58  1  0.585300  0.605900  0.425600  1.0  -0.8317
  O  O59  1  0.453800  0.748200  0.388700  1.0  -0.6428
  O  O60  1  0.055600  0.893800  0.227100  1.0  -0.2613
