# generated using pymatgen
data_GdH7C15O7
_symmetry_space_group_name_H-M   'P 1'
_cell_length_a   9.33100000
_cell_length_b   9.84100000
_cell_length_c   11.42300000
_cell_angle_alpha   94.22400000
_cell_angle_beta   98.51000000
_cell_angle_gamma   110.95200000
_symmetry_Int_Tables_number   1
_chemical_formula_structural   GdH7C15O7
_chemical_formula_sum   'Gd2 H14 C30 O14'
_cell_volume   959.65206135
_cell_formula_units_Z   2
loop_
 _symmetry_equiv_pos_site_id
 _symmetry_equiv_pos_as_xyz
  1  'x, y, z'
loop_
 _atom_site_type_symbol
 _atom_site_label
 _atom_site_symmetry_multiplicity
 _atom_site_fract_x
 _atom_site_fract_y
 _atom_site_fract_z
 _atom_site_occupancy
 _atom_site_charge
  Gd  Gd1  1  0.281150  0.545610  0.985400  1.0  2.1789
  Gd  Gd2  1  0.718850  0.454390  0.014600  1.0  2.1787
  H  H3  1  0.681400  0.002300  0.962200  1.0  0.1114
  H  H4  1  0.805000  0.712400  0.778900  1.0  0.1229
  H  H5  1  0.081100  0.139300  0.836800  1.0  0.1207
  H  H6  1  0.823500  0.899100  0.568200  1.0  0.1304
  H  H7  1  0.730300  0.773100  0.381100  1.0  0.1021
  H  H8  1  0.063000  0.602200  0.421700  1.0  0.0959
  H  H9  1  0.155500  0.725800  0.615400  1.0  0.1431
  H  H10  1  0.318600  0.997700  0.037800  1.0  0.1111
  H  H11  1  0.195000  0.287600  0.221100  1.0  0.1234
  H  H12  1  0.918900  0.860700  0.163200  1.0  0.1209
  H  H13  1  0.176500  0.100900  0.431800  1.0  0.13
  H  H14  1  0.269700  0.226900  0.618900  1.0  0.103
  H  H15  1  0.937000  0.397800  0.578300  1.0  0.0963
  H  H16  1  0.844500  0.274200  0.384600  1.0  0.1429
  C  C17  1  0.923600  0.247500  0.966700  1.0  0.7948
  C  C18  1  0.888500  0.093700  0.910500  1.0  -0.1392
  C  C19  1  0.752700  0.981600  0.922200  1.0  -0.0238
  C  C20  1  0.722700  0.838200  0.874400  1.0  -0.0971
  C  C21  1  0.824200  0.808600  0.809900  1.0  -0.1572
  C  C22  1  0.954000  0.921500  0.791300  1.0  0.2472
  C  C23  1  0.989700  0.064200  0.845000  1.0  -0.1302
  C  C24  1  0.580900  0.717100  0.896900  1.0  0.7569
  C  C25  1  0.997100  0.821800  0.611300  1.0  0.2797
  C  C26  1  0.870200  0.837700  0.539200  1.0  -0.2553
  C  C27  1  0.816100  0.763400  0.427300  1.0  0.02
  C  C28  1  0.884300  0.672600  0.378500  1.0  -0.2015
  C  C29  1  0.013900  0.660700  0.451600  1.0  0.0056
  C  C30  1  0.070200  0.735000  0.568100  1.0  -0.2376
  C  C31  1  0.823500  0.586900  0.259200  1.0  0.6855
  C  C32  1  0.076400  0.752500  0.033300  1.0  0.7897
  C  C33  1  0.111500  0.906300  0.089500  1.0  -0.1399
  C  C34  1  0.247300  0.018400  0.077800  1.0  -0.0213
  C  C35  1  0.277300  0.161800  0.125600  1.0  -0.0948
  C  C36  1  0.175800  0.191400  0.190100  1.0  -0.1585
  C  C37  1  0.046000  0.078500  0.208700  1.0  0.2481
  C  C38  1  0.010300  0.935800  0.155000  1.0  -0.1298
  C  C39  1  0.419100  0.282900  0.103100  1.0  0.7562
  C  C40  1  0.002900  0.178200  0.388700  1.0  0.2806
  C  C41  1  0.129800  0.162300  0.460800  1.0  -0.2559
  C  C42  1  0.183900  0.236600  0.572700  1.0  0.0201
  C  C43  1  0.115700  0.327400  0.621500  1.0  -0.1998
  C  C44  1  0.986100  0.339300  0.548400  1.0  0.0064
  C  C45  1  0.929800  0.265000  0.431900  1.0  -0.2357
  C  C46  1  0.176500  0.413100  0.740800  1.0  0.6848
  O  O47  1  0.054200  0.342300  0.968100  1.0  -0.77
  O  O48  1  0.818000  0.270800  0.011300  1.0  -0.7311
  O  O49  1  0.452900  0.736200  0.890000  1.0  -0.6493
  O  O50  1  0.593700  0.600100  0.926000  1.0  -0.824
  O  O51  1  0.715400  0.609600  0.191600  1.0  -0.6819
  O  O52  1  0.876700  0.494400  0.221700  1.0  -0.6525
  O  O53  1  0.057300  0.895000  0.725700  1.0  -0.2464
  O  O54  1  0.945800  0.657700  0.031900  1.0  -0.7686
  O  O55  1  0.182000  0.729200  0.988700  1.0  -0.7306
  O  O56  1  0.547100  0.263800  0.110000  1.0  -0.6511
  O  O57  1  0.406300  0.399900  0.074000  1.0  -0.8225
  O  O58  1  0.284600  0.390400  0.808400  1.0  -0.6822
  O  O59  1  0.123300  0.505600  0.778300  1.0  -0.6537
  O  O60  1  0.942700  0.105000  0.274300  1.0  -0.2462
