# generated using pymatgen
data_DyH7C15O7
_symmetry_space_group_name_H-M   'P 1'
_cell_length_a   9.34100000
_cell_length_b   9.81300000
_cell_length_c   11.39500000
_cell_angle_alpha   94.24700000
_cell_angle_beta   99.08700000
_cell_angle_gamma   111.25900000
_symmetry_Int_Tables_number   1
_chemical_formula_structural   DyH7C15O7
_chemical_formula_sum   'Dy2 H14 C30 O14'
_cell_volume   951.37122793
_cell_formula_units_Z   2
loop_
 _symmetry_equiv_pos_site_id
 _symmetry_equiv_pos_as_xyz
  1  'x, y, z'
loop_
 _atom_site_type_symbol
 _atom_site_label
 _atom_site_symmetry_multiplicity
 _atom_site_fract_x
 _atom_site_fract_y
 _atom_site_fract_z
 _atom_site_occupancy
 _atom_site_charge
  Dy  Dy1  1  0.221850  0.454830  0.012710  1.0  2.2692
  Dy  Dy2  1  0.778150  0.545170  0.987290  1.0  2.2708
  H  H3  1  0.567500  0.607200  0.421500  1.0  0.0936
  H  H4  1  0.654200  0.727200  0.617600  1.0  0.1426
  H  H5  1  0.320600  0.896900  0.566700  1.0  0.1254
  H  H6  1  0.230800  0.773100  0.377200  1.0  0.0984
  H  H7  1  0.303000  0.709800  0.776500  1.0  0.1244
  H  H8  1  0.177600  0.998800  0.960600  1.0  0.11
  H  H9  1  0.580200  0.140500  0.837200  1.0  0.1232
  H  H10  1  0.432500  0.392800  0.578500  1.0  0.0932
  H  H11  1  0.345800  0.272800  0.382400  1.0  0.1425
  H  H12  1  0.679400  0.103100  0.433300  1.0  0.1248
  H  H13  1  0.769200  0.226900  0.622800  1.0  0.0995
  H  H14  1  0.697000  0.290200  0.223500  1.0  0.1244
  H  H15  1  0.822400  0.001200  0.039400  1.0  0.1096
  H  H16  1  0.419800  0.859500  0.162800  1.0  0.1235
  C  C17  1  0.324300  0.588300  0.255800  1.0  0.6714
  C  C18  1  0.384400  0.671500  0.376600  1.0  -0.1906
  C  C19  1  0.515600  0.662900  0.451300  1.0  -0.02
  C  C20  1  0.569300  0.736100  0.568800  1.0  -0.2411
  C  C21  1  0.495200  0.821200  0.611300  1.0  0.3052
  C  C22  1  0.368300  0.836600  0.537900  1.0  -0.2797
  C  C23  1  0.315800  0.762900  0.424900  1.0  0.0194
  C  C24  1  0.451300  0.921800  0.792700  1.0  0.254
  C  C25  1  0.322000  0.806100  0.808700  1.0  -0.1613
  C  C26  1  0.220400  0.835400  0.873700  1.0  -0.102
  C  C27  1  0.249300  0.978900  0.921200  1.0  -0.0235
  C  C28  1  0.384800  0.093100  0.910100  1.0  -0.1434
  C  C29  1  0.488600  0.064900  0.845000  1.0  -0.14
  C  C30  1  0.080400  0.711400  0.897000  1.0  0.7591
  C  C31  1  0.421200  0.247300  0.968400  1.0  0.801
  C  C32  1  0.675700  0.411700  0.744200  1.0  0.671
  C  C33  1  0.615600  0.328500  0.623400  1.0  -0.1911
  C  C34  1  0.484400  0.337100  0.548700  1.0  -0.0195
  C  C35  1  0.430700  0.263900  0.431200  1.0  -0.2412
  C  C36  1  0.504800  0.178800  0.388700  1.0  0.3052
  C  C37  1  0.631700  0.163400  0.462100  1.0  -0.2784
  C  C38  1  0.684200  0.237100  0.575100  1.0  0.0183
  C  C39  1  0.548700  0.078200  0.207300  1.0  0.2542
  C  C40  1  0.678000  0.193900  0.191300  1.0  -0.1632
  C  C41  1  0.779600  0.164600  0.126300  1.0  -0.1009
  C  C42  1  0.750700  0.021100  0.078800  1.0  -0.0216
  C  C43  1  0.615200  0.906900  0.089900  1.0  -0.1441
  C  C44  1  0.511400  0.935100  0.155000  1.0  -0.1391
  C  C45  1  0.919600  0.288600  0.103000  1.0  0.7584
  C  C46  1  0.578800  0.752700  0.031600  1.0  0.7972
  O  O47  1  0.378700  0.495200  0.219000  1.0  -0.6668
  O  O48  1  0.218400  0.610100  0.185500  1.0  -0.6687
  O  O49  1  0.096400  0.595400  0.924300  1.0  -0.8286
  O  O50  1  0.953200  0.729400  0.892100  1.0  -0.6591
  O  O51  1  0.552100  0.344500  0.969700  1.0  -0.7791
  O  O52  1  0.313000  0.269000  0.009800  1.0  -0.743
  O  O53  1  0.555800  0.894900  0.726500  1.0  -0.2492
  O  O54  1  0.621300  0.504800  0.781000  1.0  -0.6668
  O  O55  1  0.781600  0.389900  0.814500  1.0  -0.6677
  O  O56  1  0.903600  0.404600  0.075700  1.0  -0.8282
  O  O57  1  0.046800  0.270600  0.107900  1.0  -0.6587
  O  O58  1  0.447900  0.655500  0.030300  1.0  -0.7775
  O  O59  1  0.687000  0.731000  0.990200  1.0  -0.7454
  O  O60  1  0.444200  0.105100  0.273500  1.0  -0.2502
