# generated using pymatgen
data_TmH7C15O7
_symmetry_space_group_name_H-M   'P 1'
_cell_length_a   9.35600000
_cell_length_b   9.79600000
_cell_length_c   11.41500000
_cell_angle_alpha   94.79900000
_cell_angle_beta   99.61400000
_cell_angle_gamma   111.73800000
_symmetry_Int_Tables_number   1
_chemical_formula_structural   TmH7C15O7
_chemical_formula_sum   'Tm2 H14 C30 O14'
_cell_volume   945.98190735
_cell_formula_units_Z   2
loop_
 _symmetry_equiv_pos_site_id
 _symmetry_equiv_pos_as_xyz
  1  'x, y, z'
loop_
 _atom_site_type_symbol
 _atom_site_label
 _atom_site_symmetry_multiplicity
 _atom_site_fract_x
 _atom_site_fract_y
 _atom_site_fract_z
 _atom_site_occupancy
 _atom_site_charge
  Tm  Tm1  1  0.725150  0.455160  0.010240  1.0  2.1522
  Tm  Tm2  1  0.274850  0.544840  0.989760  1.0  2.1516
  H  H3  1  0.064900  0.605000  0.420700  1.0  0.0972
  H  H4  1  0.148200  0.722500  0.618800  1.0  0.1416
  H  H5  1  0.820000  0.896000  0.565800  1.0  0.128
  H  H6  1  0.728600  0.771100  0.374500  1.0  0.1011
  H  H7  1  0.800700  0.705000  0.774900  1.0  0.127
  H  H8  1  0.676000  0.994400  0.961000  1.0  0.1117
  H  H9  1  0.075200  0.142500  0.835800  1.0  0.1275
  H  H10  1  0.935100  0.395000  0.579300  1.0  0.0967
  H  H11  1  0.851800  0.277500  0.381200  1.0  0.1404
  H  H12  1  0.180000  0.104000  0.434200  1.0  0.128
  H  H13  1  0.271400  0.228900  0.625500  1.0  0.1015
  H  H14  1  0.199300  0.295000  0.225100  1.0  0.1272
  H  H15  1  0.324000  0.005600  0.039000  1.0  0.1118
  H  H16  1  0.924800  0.857500  0.164200  1.0  0.1271
  C  C17  1  0.826500  0.589200  0.251800  1.0  0.6749
  C  C18  1  0.883900  0.671300  0.373700  1.0  -0.1822
  C  C19  1  0.013300  0.660900  0.450100  1.0  -0.0115
  C  C20  1  0.065000  0.732900  0.568600  1.0  -0.2257
  C  C21  1  0.992400  0.819200  0.610700  1.0  0.2891
  C  C22  1  0.866900  0.835300  0.536800  1.0  -0.2676
  C  C23  1  0.814000  0.761700  0.422500  1.0  0.0173
  C  C24  1  0.949000  0.919300  0.792800  1.0  0.2297
  C  C25  1  0.820000  0.801800  0.807800  1.0  -0.1552
  C  C26  1  0.718200  0.830700  0.873600  1.0  -0.1037
  C  C27  1  0.747400  0.975400  0.921400  1.0  -0.0174
  C  C28  1  0.881300  0.091200  0.911000  1.0  -0.1437
  C  C29  1  0.985100  0.064800  0.844700  1.0  -0.1364
  C  C30  1  0.581600  0.704800  0.898000  1.0  0.766
  C  C31  1  0.917300  0.246900  0.967300  1.0  0.7911
  C  C32  1  0.173500  0.410800  0.748200  1.0  0.6753
  C  C33  1  0.116100  0.328700  0.626300  1.0  -0.1826
  C  C34  1  0.986700  0.339100  0.549900  1.0  -0.0106
  C  C35  1  0.935000  0.267100  0.431400  1.0  -0.2255
  C  C36  1  0.007600  0.180800  0.389300  1.0  0.2879
  C  C37  1  0.133100  0.164700  0.463200  1.0  -0.2669
  C  C38  1  0.186000  0.238300  0.577500  1.0  0.0159
  C  C39  1  0.051000  0.080700  0.207200  1.0  0.2285
  C  C40  1  0.180000  0.198200  0.192200  1.0  -0.1558
  C  C41  1  0.281800  0.169300  0.126400  1.0  -0.1022
  C  C42  1  0.252600  0.024600  0.078600  1.0  -0.0169
  C  C43  1  0.118700  0.908800  0.089000  1.0  -0.1447
  C  C44  1  0.014900  0.935200  0.155300  1.0  -0.1356
  C  C45  1  0.418400  0.295200  0.102000  1.0  0.7657
  C  C46  1  0.082700  0.753100  0.032700  1.0  0.7876
  O  O47  1  0.879300  0.496200  0.215200  1.0  -0.6422
  O  O48  1  0.721000  0.612900  0.180000  1.0  -0.6551
  O  O49  1  0.601700  0.589700  0.921600  1.0  -0.804
  O  O50  1  0.453200  0.720000  0.896600  1.0  -0.6651
  O  O51  1  0.807300  0.267900  0.006100  1.0  -0.737
  O  O52  1  0.049500  0.345800  0.971400  1.0  -0.7557
  O  O53  1  0.054300  0.894200  0.728500  1.0  -0.248
  O  O54  1  0.120700  0.503800  0.784800  1.0  -0.6419
  O  O55  1  0.279000  0.387100  0.820000  1.0  -0.6549
  O  O56  1  0.398300  0.410300  0.078400  1.0  -0.8025
  O  O57  1  0.546800  0.280000  0.103400  1.0  -0.6649
  O  O58  1  0.192700  0.732100  0.993900  1.0  -0.7385
  O  O59  1  0.950500  0.654200  0.028600  1.0  -0.7554
  O  O60  1  0.945700  0.105800  0.271500  1.0  -0.2504
