# generated using pymatgen
data_ErH7C15O7
_symmetry_space_group_name_H-M   'P 1'
_cell_length_a   9.34900000
_cell_length_b   9.80000000
_cell_length_c   11.37900000
_cell_angle_alpha   94.44100000
_cell_angle_beta   99.30500000
_cell_angle_gamma   111.52700000
_symmetry_Int_Tables_number   1
_chemical_formula_structural   ErH7C15O7
_chemical_formula_sum   'Er2 H14 C30 O14'
_cell_volume   946.38147476
_cell_formula_units_Z   2
loop_
 _symmetry_equiv_pos_site_id
 _symmetry_equiv_pos_as_xyz
  1  'x, y, z'
loop_
 _atom_site_type_symbol
 _atom_site_label
 _atom_site_symmetry_multiplicity
 _atom_site_fract_x
 _atom_site_fract_y
 _atom_site_fract_z
 _atom_site_occupancy
 _atom_site_charge
  Er  Er1  1  0.724190  0.454900  0.011310  1.0  1.5371
  Er  Er2  1  0.275810  0.545100  0.988690  1.0  1.5382
  H  H3  1  0.729400  0.772300  0.375800  1.0  0.116
  H  H4  1  0.823200  0.898400  0.565500  1.0  0.1431
  H  H5  1  0.153000  0.725600  0.616800  1.0  0.1579
  H  H6  1  0.066400  0.606400  0.420800  1.0  0.1081
  H  H7  1  0.076800  0.140500  0.837300  1.0  0.1324
  H  H8  1  0.678100  0.996400  0.960900  1.0  0.1267
  H  H9  1  0.802900  0.707600  0.776900  1.0  0.1408
  H  H10  1  0.270600  0.227700  0.624200  1.0  0.1164
  H  H11  1  0.176800  0.101600  0.434500  1.0  0.1422
  H  H12  1  0.847000  0.274400  0.383200  1.0  0.1577
  H  H13  1  0.933600  0.393600  0.579200  1.0  0.1075
  H  H14  1  0.923200  0.859500  0.162700  1.0  0.1324
  H  H15  1  0.321900  0.003600  0.039100  1.0  0.1265
  H  H16  1  0.197100  0.292400  0.223100  1.0  0.141
  C  C17  1  0.823900  0.587000  0.253000  1.0  0.6625
  C  C18  1  0.883000  0.669800  0.374100  1.0  -0.1417
  C  C19  1  0.814900  0.762400  0.423300  1.0  0.0213
  C  C20  1  0.869400  0.836900  0.536700  1.0  -0.2506
  C  C21  1  0.995300  0.821000  0.610200  1.0  0.3067
  C  C22  1  0.068400  0.734900  0.567600  1.0  -0.2142
  C  C23  1  0.014600  0.662200  0.450400  1.0  -0.0009
  C  C24  1  0.950700  0.922200  0.793500  1.0  0.2592
  C  C25  1  0.985700  0.064000  0.845600  1.0  -0.1334
  C  C26  1  0.884400  0.092900  0.910600  1.0  -0.1244
  C  C27  1  0.749500  0.976900  0.921100  1.0  0.0031
  C  C28  1  0.718900  0.832000  0.873200  1.0  -0.0792
  C  C29  1  0.821000  0.804100  0.809100  1.0  -0.1501
  C  C30  1  0.918500  0.245800  0.966400  1.0  0.7454
  C  C31  1  0.583100  0.708500  0.896800  1.0  0.7231
  C  C32  1  0.176100  0.413000  0.747000  1.0  0.6638
  C  C33  1  0.117000  0.330200  0.625900  1.0  -0.1408
  C  C34  1  0.185100  0.237600  0.576700  1.0  0.0202
  C  C35  1  0.130600  0.163100  0.463300  1.0  -0.2502
  C  C36  1  0.004700  0.179000  0.389800  1.0  0.3059
  C  C37  1  0.931600  0.265100  0.432400  1.0  -0.2154
  C  C38  1  0.985400  0.337800  0.549600  1.0  0.0006
  C  C39  1  0.049300  0.077800  0.206500  1.0  0.2583
  C  C40  1  0.014300  0.936000  0.154400  1.0  -0.1334
  C  C41  1  0.115600  0.907100  0.089400  1.0  -0.1247
  C  C42  1  0.250500  0.023100  0.078900  1.0  0.0041
  C  C43  1  0.281100  0.168000  0.126800  1.0  -0.0781
  C  C44  1  0.179000  0.195900  0.190900  1.0  -0.1502
  C  C45  1  0.081500  0.754200  0.033600  1.0  0.7429
  C  C46  1  0.416900  0.291500  0.103200  1.0  0.7234
  O  O47  1  0.877800  0.494800  0.216700  1.0  -0.5463
  O  O48  1  0.719800  0.611500  0.182600  1.0  -0.5872
  O  O49  1  0.452400  0.722600  0.893900  1.0  -0.6345
  O  O50  1  0.600200  0.590600  0.921900  1.0  -0.7083
  O  O51  1  0.810200  0.268700  0.009000  1.0  -0.6572
  O  O52  1  0.050300  0.344700  0.970700  1.0  -0.7263
  O  O53  1  0.056500  0.895600  0.727300  1.0  -0.2339
  O  O54  1  0.122200  0.505200  0.783300  1.0  -0.5445
  O  O55  1  0.280200  0.388500  0.817400  1.0  -0.5865
  O  O56  1  0.547600  0.277400  0.106100  1.0  -0.6273
  O  O57  1  0.399800  0.409400  0.078100  1.0  -0.7097
  O  O58  1  0.189800  0.731300  0.991000  1.0  -0.6556
  O  O59  1  0.949700  0.655300  0.029300  1.0  -0.72
  O  O60  1  0.943500  0.104400  0.272700  1.0  -0.2399
