# generated using pymatgen
data_Zn2P3H7C3NClO9
_symmetry_space_group_name_H-M   'P 1'
_cell_length_a   8.13000000
_cell_length_b   22.35800000
_cell_length_c   10.53800000
_cell_angle_alpha   90.00000000
_cell_angle_beta   112.35700000
_cell_angle_gamma   90.00000000
_symmetry_Int_Tables_number   1
_chemical_formula_structural   Zn2P3H7C3NClO9
_chemical_formula_sum   'Zn8 P12 H28 C12 N4 Cl4 O36'
_cell_volume   1771.51334722
_cell_formula_units_Z   4
loop_
 _symmetry_equiv_pos_site_id
 _symmetry_equiv_pos_as_xyz
  1  'x, y, z'
loop_
 _atom_site_type_symbol
 _atom_site_label
 _atom_site_symmetry_multiplicity
 _atom_site_fract_x
 _atom_site_fract_y
 _atom_site_fract_z
 _atom_site_occupancy
 _atom_site_charge
  Zn  Zn1  1  0.842230  0.193930  0.413810  1.0  0.9211
  Zn  Zn2  1  0.283530  0.031940  0.332210  1.0  0.9572
  Zn  Zn3  1  0.657770  0.693930  0.086190  1.0  0.9184
  Zn  Zn4  1  0.216470  0.531940  0.167790  1.0  0.9587
  Zn  Zn5  1  0.157770  0.806070  0.586190  1.0  0.9166
  Zn  Zn6  1  0.716470  0.968060  0.667790  1.0  0.9581
  Zn  Zn7  1  0.342230  0.306070  0.913810  1.0  0.9202
  Zn  Zn8  1  0.783530  0.468060  0.832210  1.0  0.9566
  P  P9  1  0.003500  0.147880  0.208620  1.0  1.6167
  P  P10  1  0.696870  0.072160  0.466790  1.0  1.6291
  P  P11  1  0.487560  0.229740  0.191980  1.0  1.6021
  P  P12  1  0.496500  0.647880  0.291380  1.0  1.6157
  P  P13  1  0.803130  0.572160  0.033210  1.0  1.628
  P  P14  1  0.012440  0.729740  0.308020  1.0  1.602
  P  P15  1  0.996500  0.852120  0.791380  1.0  1.6158
  P  P16  1  0.303130  0.927840  0.533210  1.0  1.6282
  P  P17  1  0.512440  0.770260  0.808020  1.0  1.6008
  P  P18  1  0.503500  0.352120  0.708620  1.0  1.6168
  P  P19  1  0.196870  0.427840  0.966790  1.0  1.6288
  P  P20  1  0.987560  0.270260  0.691980  1.0  1.6021
  H  H21  1  0.234900  0.220600  0.164100  1.0  0.4429
  H  H22  1  0.706700  0.166700  0.069500  1.0  0.1823
  H  H23  1  0.742100  0.097500  0.077900  1.0  0.1625
  H  H24  1  0.835600  0.054200  0.313200  1.0  0.1641
  H  H25  1  0.630900  0.041100  0.241400  1.0  0.1608
  H  H26  1  0.439900  0.134600  0.093000  1.0  0.1695
  H  H27  1  0.442000  0.130900  0.242500  1.0  0.1676
  H  H28  1  0.265100  0.720600  0.335900  1.0  0.4428
  H  H29  1  0.793300  0.666667  0.430500  1.0  0.1833
  H  H30  1  0.757900  0.597500  0.422100  1.0  0.164
  H  H31  1  0.664400  0.554200  0.186800  1.0  0.1657
  H  H32  1  0.869100  0.541100  0.258600  1.0  0.1617
  H  H33  1  0.060100  0.634600  0.407000  1.0  0.1705
  H  H34  1  0.058000  0.630900  0.257500  1.0  0.1669
  H  H35  1  0.765100  0.779400  0.835900  1.0  0.443
  H  H36  1  0.293300  0.833300  0.930500  1.0  0.184
  H  H37  1  0.257900  0.902500  0.922100  1.0  0.1636
  H  H38  1  0.164400  0.945800  0.686800  1.0  0.1649
  H  H39  1  0.369100  0.958900  0.758600  1.0  0.1612
  H  H40  1  0.560100  0.865400  0.907000  1.0  0.1703
  H  H41  1  0.558000  0.869100  0.757500  1.0  0.1664
  H  H42  1  0.734900  0.279400  0.664100  1.0  0.4431
  H  H43  1  0.206700  0.333333  0.569500  1.0  0.1821
  H  H44  1  0.242100  0.402500  0.577900  1.0  0.1634
  H  H45  1  0.335600  0.445800  0.813200  1.0  0.1645
  H  H46  1  0.130900  0.458900  0.741400  1.0  0.1609
  H  H47  1  0.939900  0.365400  0.593000  1.0  0.1691
  H  H48  1  0.942000  0.369100  0.742500  1.0  0.1666
  C  C49  1  0.764600  0.134100  0.131100  1.0  -0.3811
  C  C50  1  0.718200  0.068700  0.301300  1.0  -0.3884
  C  C51  1  0.500600  0.148400  0.186500  1.0  -0.4088
  C  C52  1  0.735400  0.634100  0.368900  1.0  -0.3824
  C  C53  1  0.781800  0.568700  0.198700  1.0  -0.3881
  C  C54  1  0.999400  0.648400  0.313500  1.0  -0.4078
  C  C55  1  0.235400  0.865900  0.868900  1.0  -0.3788
  C  C56  1  0.281800  0.931300  0.698700  1.0  -0.3891
  C  C57  1  0.499400  0.851600  0.813500  1.0  -0.4075
  C  C58  1  0.264600  0.365900  0.631100  1.0  -0.3838
  C  C59  1  0.218200  0.431300  0.801300  1.0  -0.3878
  C  C60  1  0.000600  0.351600  0.686500  1.0  -0.4069
  N  N61  1  0.690300  0.128990  0.238600  1.0  -0.0386
  N  N62  1  0.809700  0.628990  0.261400  1.0  -0.0398
  N  N63  1  0.309700  0.871010  0.761400  1.0  -0.04
  N  N64  1  0.190300  0.371010  0.738600  1.0  -0.0396
  Cl  Cl65  1  0.303580  0.975350  0.156150  1.0  -0.4318
  Cl  Cl66  1  0.196420  0.475350  0.343850  1.0  -0.4324
  Cl  Cl67  1  0.696420  0.024650  0.843850  1.0  -0.4318
  Cl  Cl68  1  0.803580  0.524650  0.656150  1.0  -0.4316
  O  O69  1  0.100300  0.089900  0.249600  1.0  -0.8098
  O  O70  1  0.048200  0.181200  0.098900  1.0  -0.7456
  O  O71  1  0.029500  0.187580  0.332700  1.0  -0.7127
  O  O72  1  0.787200  0.017040  0.546700  1.0  -0.7218
  O  O73  1  0.790900  0.130180  0.531400  1.0  -0.71
  O  O74  1  0.499300  0.076340  0.444100  1.0  -0.7314
  O  O75  1  0.310100  0.245800  0.204500  1.0  -0.655
  O  O76  1  0.635400  0.249190  0.325400  1.0  -0.7025
  O  O77  1  0.501600  0.255260  0.065500  1.0  -0.7369
  O  O78  1  0.399700  0.589900  0.250400  1.0  -0.8096
  O  O79  1  0.451800  0.681200  0.401100  1.0  -0.7466
  O  O80  1  0.470500  0.687580  0.167300  1.0  -0.7121
  O  O81  1  0.712800  0.517040  0.953300  1.0  -0.7233
  O  O82  1  0.709100  0.630180  0.968600  1.0  -0.7119
  O  O83  1  0.000700  0.576340  0.055900  1.0  -0.7323
  O  O84  1  0.189900  0.745800  0.295500  1.0  -0.6539
  O  O85  1  0.864600  0.749190  0.174600  1.0  -0.702
  O  O86  1  0.998400  0.755260  0.434500  1.0  -0.7355
  O  O87  1  0.899700  0.910100  0.750400  1.0  -0.8117
  O  O88  1  0.951800  0.818800  0.901100  1.0  -0.747
  O  O89  1  0.970500  0.812420  0.667300  1.0  -0.7125
  O  O90  1  0.212800  0.982960  0.453300  1.0  -0.7228
  O  O91  1  0.209100  0.869820  0.468600  1.0  -0.7127
  O  O92  1  0.500700  0.923660  0.555900  1.0  -0.7323
  O  O93  1  0.689900  0.754200  0.795500  1.0  -0.6516
  O  O94  1  0.364600  0.750810  0.674600  1.0  -0.7009
  O  O95  1  0.498400  0.744740  0.934500  1.0  -0.7362
  O  O96  1  0.600300  0.410100  0.749600  1.0  -0.8118
  O  O97  1  0.548200  0.318800  0.598900  1.0  -0.746
  O  O98  1  0.529500  0.312420  0.832700  1.0  -0.7122
  O  O99  1  0.287200  0.482960  0.046700  1.0  -0.722
  O  O100  1  0.290900  0.369820  0.031400  1.0  -0.7103
  O  O101  1  0.999300  0.423660  0.944100  1.0  -0.7314
  O  O102  1  0.810100  0.254200  0.704500  1.0  -0.6532
  O  O103  1  0.135400  0.250810  0.825400  1.0  -0.7009
  O  O104  1  0.001600  0.244740  0.565500  1.0  -0.7363
