# generated using pymatgen
data_CaH20C8(ClO4)2
_symmetry_space_group_name_H-M   'P 1'
_cell_length_a   9.62630000
_cell_length_b   9.62630000
_cell_length_c   12.57190000
_cell_angle_alpha   106.22000000
_cell_angle_beta   106.22000000
_cell_angle_gamma   105.68900000
_symmetry_Int_Tables_number   1
_chemical_formula_structural   CaH20C8(ClO4)2
_chemical_formula_sum   'Ca2 H40 C16 Cl4 O16'
_cell_volume   994.42886584
_cell_formula_units_Z   2
loop_
 _symmetry_equiv_pos_site_id
 _symmetry_equiv_pos_as_xyz
  1  'x, y, z'
loop_
 _atom_site_type_symbol
 _atom_site_label
 _atom_site_symmetry_multiplicity
 _atom_site_fract_x
 _atom_site_fract_y
 _atom_site_fract_z
 _atom_site_occupancy
 _atom_site_charge
  Ca  Ca1  1  0.625000  0.875000  0.750000  1.0  1.2691
  Ca  Ca2  1  0.375000  0.125000  0.250000  1.0  1.2691
  H  H3  1  0.107200  0.004600  0.940800  1.0  0.0781
  H  H4  1  0.050200  0.239000  0.990400  1.0  0.0688
  H  H5  1  0.008000  0.153800  0.852400  1.0  0.0726
  H  H6  1  0.917800  0.800200  0.826000  1.0  0.2852
  H  H7  1  0.811800  0.204200  0.908000  1.0  0.3302
  H  H8  1  0.333600  0.936200  0.940800  1.0  0.0745
  H  H9  1  0.440200  0.751400  0.990400  1.0  0.0694
  H  H10  1  0.344400  0.698600  0.852400  1.0  0.0722
  H  H11  1  0.408200  0.025800  0.826000  1.0  0.2852
  H  H12  1  0.596200  0.703800  0.908000  1.0  0.3338
  H  H13  1  0.495400  0.392800  0.559200  1.0  0.079
  H  H14  1  0.261000  0.449800  0.509600  1.0  0.068
  H  H15  1  0.346200  0.492000  0.647600  1.0  0.0725
  H  H16  1  0.699800  0.582200  0.674000  1.0  0.2889
  H  H17  1  0.295800  0.688200  0.592000  1.0  0.3271
  H  H18  1  0.563800  0.166400  0.559200  1.0  0.0787
  H  H19  1  0.748600  0.059800  0.509600  1.0  0.0699
  H  H20  1  0.801400  0.155600  0.647600  1.0  0.0705
  H  H21  1  0.474200  0.091800  0.674000  1.0  0.2867
  H  H22  1  0.796200  0.903800  0.592000  1.0  0.3284
  H  H23  1  0.892800  0.995400  0.059200  1.0  0.0741
  H  H24  1  0.949800  0.761000  0.009600  1.0  0.0664
  H  H25  1  0.992000  0.846200  0.147600  1.0  0.0719
  H  H26  1  0.082200  0.199800  0.174000  1.0  0.2866
  H  H27  1  0.188200  0.795800  0.092000  1.0  0.3329
  H  H28  1  0.666400  0.063800  0.059200  1.0  0.0779
  H  H29  1  0.559800  0.248600  0.009600  1.0  0.0685
  H  H30  1  0.655600  0.301400  0.147600  1.0  0.0704
  H  H31  1  0.591800  0.974200  0.174000  1.0  0.2875
  H  H32  1  0.403800  0.296200  0.092000  1.0  0.3319
  H  H33  1  0.504600  0.607200  0.440800  1.0  0.0781
  H  H34  1  0.739000  0.550200  0.490400  1.0  0.0688
  H  H35  1  0.653800  0.508000  0.352400  1.0  0.0726
  H  H36  1  0.300200  0.417800  0.326000  1.0  0.2873
  H  H37  1  0.704200  0.311800  0.408000  1.0  0.3277
  H  H38  1  0.436200  0.833600  0.440800  1.0  0.0788
  H  H39  1  0.251400  0.940200  0.490400  1.0  0.0711
  H  H40  1  0.198600  0.844400  0.352400  1.0  0.0759
  H  H41  1  0.525800  0.908200  0.326000  1.0  0.284
  H  H42  1  0.203800  0.096200  0.408000  1.0  0.3287
  C  C43  1  0.005600  0.004200  0.941400  1.0  0.1539
  C  C44  1  0.982730  0.144530  0.920260  1.0  0.0822
  C  C45  1  0.435800  0.937200  0.941400  1.0  0.1516
  C  C46  1  0.437530  0.775730  0.920260  1.0  0.0835
  C  C47  1  0.495800  0.494400  0.558600  1.0  0.1538
  C  C48  1  0.355470  0.517270  0.579740  1.0  0.0776
  C  C49  1  0.562800  0.064200  0.558600  1.0  0.153
  C  C50  1  0.724270  0.062470  0.579740  1.0  0.0822
  C  C51  1  0.994400  0.995800  0.058600  1.0  0.1542
  C  C52  1  0.017270  0.855470  0.079740  1.0  0.0822
  C  C53  1  0.564200  0.062800  0.058600  1.0  0.1505
  C  C54  1  0.562470  0.224270  0.079740  1.0  0.0837
  C  C55  1  0.504200  0.505600  0.441400  1.0  0.151
  C  C56  1  0.644530  0.482730  0.420260  1.0  0.079
  C  C57  1  0.437200  0.935800  0.441400  1.0  0.1534
  C  C58  1  0.275730  0.937530  0.420260  1.0  0.081
  Cl  Cl59  1  0.936290  0.563710  0.750000  1.0  -0.5217
  Cl  Cl60  1  0.313710  0.186290  0.750000  1.0  -0.5244
  Cl  Cl61  1  0.063710  0.436290  0.250000  1.0  -0.522
  Cl  Cl62  1  0.686290  0.813710  0.250000  1.0  -0.5217
  O  O63  1  0.883220  0.869660  0.842680  1.0  -0.5727
  O  O64  1  0.822970  0.122670  0.896640  1.0  -0.5571
  O  O65  1  0.459460  0.973020  0.842680  1.0  -0.5705
  O  O66  1  0.573670  0.773970  0.896640  1.0  -0.5571
  O  O67  1  0.630340  0.616780  0.657320  1.0  -0.57
  O  O68  1  0.377330  0.677030  0.603360  1.0  -0.5511
  O  O69  1  0.526980  0.040540  0.657320  1.0  -0.5719
  O  O70  1  0.726030  0.926330  0.603360  1.0  -0.5515
  O  O71  1  0.116780  0.130340  0.157320  1.0  -0.5725
  O  O72  1  0.177030  0.877330  0.103360  1.0  -0.5511
  O  O73  1  0.540540  0.026980  0.157320  1.0  -0.5705
  O  O74  1  0.426330  0.226030  0.103360  1.0  -0.5593
  O  O75  1  0.369660  0.383220  0.342680  1.0  -0.5723
  O  O76  1  0.622670  0.322970  0.396640  1.0  -0.5487
  O  O77  1  0.473020  0.959460  0.342680  1.0  -0.5724
  O  O78  1  0.273970  0.073670  0.396640  1.0  -0.5535
