# generated using pymatgen
data_VCo2H20W12C24(N4O17)2
_symmetry_space_group_name_H-M   'P 1'
_cell_length_a   26.86700000
_cell_length_b   20.08400000
_cell_length_c   13.09900000
_cell_angle_alpha   90.00000000
_cell_angle_beta   90.00000000
_cell_angle_gamma   90.00000000
_symmetry_Int_Tables_number   1
_chemical_formula_structural   VCo2H20W12C24(N4O17)2
_chemical_formula_sum   'V4 Co8 H80 W48 C96 N32 O136'
_cell_volume   7068.17884997
_cell_formula_units_Z   4
loop_
 _symmetry_equiv_pos_site_id
 _symmetry_equiv_pos_as_xyz
  1  'x, y, z'
loop_
 _atom_site_type_symbol
 _atom_site_label
 _atom_site_symmetry_multiplicity
 _atom_site_fract_x
 _atom_site_fract_y
 _atom_site_fract_z
 _atom_site_occupancy
 _atom_site_charge
  V  V1  1  0.763580  0.250000  0.603400  1.0  1.5462
  V  V2  1  0.736420  0.750000  0.103400  1.0  1.5464
  V  V3  1  0.236420  0.750000  0.396600  1.0  1.5463
  V  V4  1  0.263580  0.250000  0.896600  1.0  1.546
  Co  Co5  1  0.740250  0.890450  0.606900  1.0  0.8998
  Co  Co6  1  0.759750  0.109550  0.106900  1.0  0.8969
  Co  Co7  1  0.259750  0.390450  0.393100  1.0  0.8968
  Co  Co8  1  0.240250  0.609550  0.893100  1.0  0.9001
  Co  Co9  1  0.259750  0.109550  0.393100  1.0  0.8967
  Co  Co10  1  0.240250  0.890450  0.893100  1.0  0.9001
  Co  Co11  1  0.740250  0.609550  0.606900  1.0  0.9002
  Co  Co12  1  0.759750  0.390450  0.106900  1.0  0.8967
  H  H13  1  0.052700  0.826800  0.750600  1.0  0.1107
  H  H14  1  0.067200  0.994500  0.980400  1.0  0.101
  H  H15  1  0.920500  0.822700  0.526600  1.0  0.1119
  H  H16  1  0.834400  0.822500  0.483400  1.0  0.0912
  H  H17  1  0.844400  0.929300  0.731600  1.0  0.0765
  H  H18  1  0.973100  0.807100  0.682200  1.0  0.0685
  H  H19  1  0.928800  0.990400  0.747500  1.0  0.1098
  H  H20  1  0.154600  0.986200  0.016300  1.0  0.0819
  H  H21  1  0.002000  0.006000  0.839600  1.0  0.0869
  H  H22  1  0.131600  0.873300  0.776100  1.0  0.0836
  H  H23  1  0.447300  0.173200  0.250600  1.0  0.1111
  H  H24  1  0.432800  0.005500  0.480400  1.0  0.1017
  H  H25  1  0.579500  0.177300  0.026600  1.0  0.1116
  H  H26  1  0.665600  0.177500  0.983400  1.0  0.091
  H  H27  1  0.655600  0.070700  0.231600  1.0  0.0769
  H  H28  1  0.526900  0.192900  0.182200  1.0  0.0685
  H  H29  1  0.571200  0.009600  0.247500  1.0  0.1098
  H  H30  1  0.345400  0.013800  0.516300  1.0  0.0817
  H  H31  1  0.498000  0.994000  0.339600  1.0  0.087
  H  H32  1  0.368400  0.126700  0.276100  1.0  0.0834
  H  H33  1  0.947300  0.326800  0.249400  1.0  0.1106
  H  H34  1  0.932800  0.494500  0.019600  1.0  0.1018
  H  H35  1  0.079500  0.322700  0.473400  1.0  0.1122
  H  H36  1  0.165600  0.322500  0.516600  1.0  0.0917
  H  H37  1  0.155600  0.429300  0.268400  1.0  0.0769
  H  H38  1  0.026900  0.307100  0.317800  1.0  0.0683
  H  H39  1  0.071200  0.490400  0.252500  1.0  0.1095
  H  H40  1  0.845400  0.486200  0.983700  1.0  0.0822
  H  H41  1  0.998000  0.506000  0.160400  1.0  0.0869
  H  H42  1  0.868400  0.373300  0.223900  1.0  0.0839
  H  H43  1  0.552700  0.673200  0.749400  1.0  0.1111
  H  H44  1  0.567200  0.505500  0.519600  1.0  0.1016
  H  H45  1  0.420500  0.677300  0.973400  1.0  0.112
  H  H46  1  0.334400  0.677500  0.016600  1.0  0.0914
  H  H47  1  0.344400  0.570700  0.768400  1.0  0.0766
  H  H48  1  0.473100  0.692900  0.817800  1.0  0.0681
  H  H49  1  0.428800  0.509600  0.752500  1.0  0.1094
  H  H50  1  0.654600  0.513800  0.483700  1.0  0.0819
  H  H51  1  0.502000  0.494000  0.660400  1.0  0.0875
  H  H52  1  0.631600  0.626700  0.723900  1.0  0.0835
  H  H53  1  0.947300  0.173200  0.249400  1.0  0.1112
  H  H54  1  0.932800  0.005500  0.019600  1.0  0.1018
  H  H55  1  0.079500  0.177300  0.473400  1.0  0.1121
  H  H56  1  0.165600  0.177500  0.516600  1.0  0.0914
  H  H57  1  0.155600  0.070700  0.268400  1.0  0.0767
  H  H58  1  0.026900  0.192900  0.317800  1.0  0.0681
  H  H59  1  0.071200  0.009600  0.252500  1.0  0.1098
  H  H60  1  0.845400  0.013800  0.983700  1.0  0.0816
  H  H61  1  0.998000  0.994000  0.160400  1.0  0.0873
  H  H62  1  0.868400  0.126700  0.223900  1.0  0.0835
  H  H63  1  0.552700  0.826800  0.749400  1.0  0.1109
  H  H64  1  0.567200  0.994500  0.519600  1.0  0.1018
  H  H65  1  0.420500  0.822700  0.973400  1.0  0.1121
  H  H66  1  0.334400  0.822500  0.016600  1.0  0.0916
  H  H67  1  0.344400  0.929300  0.768400  1.0  0.0768
  H  H68  1  0.473100  0.807100  0.817800  1.0  0.0682
  H  H69  1  0.428800  0.990400  0.752500  1.0  0.1098
  H  H70  1  0.654600  0.986200  0.483700  1.0  0.0823
  H  H71  1  0.502000  0.006000  0.660400  1.0  0.087
  H  H72  1  0.631600  0.873300  0.723900  1.0  0.0838
  H  H73  1  0.052700  0.673200  0.750600  1.0  0.111
  H  H74  1  0.067200  0.505500  0.980400  1.0  0.1015
  H  H75  1  0.920500  0.677300  0.526600  1.0  0.1117
  H  H76  1  0.834400  0.677500  0.483400  1.0  0.0909
  H  H77  1  0.844400  0.570700  0.731600  1.0  0.0768
  H  H78  1  0.973100  0.692900  0.682200  1.0  0.0684
  H  H79  1  0.928800  0.509600  0.747500  1.0  0.1092
  H  H80  1  0.154600  0.513800  0.016300  1.0  0.0819
  H  H81  1  0.002000  0.494000  0.839600  1.0  0.0872
  H  H82  1  0.131600  0.626700  0.776100  1.0  0.0834
  H  H83  1  0.447300  0.326800  0.250600  1.0  0.1105
  H  H84  1  0.432800  0.494500  0.480400  1.0  0.1012
  H  H85  1  0.579500  0.322700  0.026600  1.0  0.1116
  H  H86  1  0.665600  0.322500  0.983400  1.0  0.0913
  H  H87  1  0.655600  0.429300  0.231600  1.0  0.0767
  H  H88  1  0.526900  0.307100  0.182200  1.0  0.0685
  H  H89  1  0.571200  0.490400  0.247500  1.0  0.1096
  H  H90  1  0.345400  0.486200  0.516300  1.0  0.0819
  H  H91  1  0.498000  0.506000  0.339600  1.0  0.0868
  H  H92  1  0.368400  0.373300  0.276100  1.0  0.0836
  W  W93  1  0.653630  0.166220  0.528740  1.0  1.3059
  W  W94  1  0.766240  0.166670  0.368220  1.0  2.3654
  W  W95  1  0.868640  0.342160  0.685140  1.0  1.3453
  W  W96  1  0.765890  0.074930  0.611450  1.0  2.4078
  W  W97  1  0.766700  0.158370  0.832990  1.0  2.3925
  W  W98  1  0.846370  0.833780  0.028740  1.0  1.3096
  W  W99  1  0.733760  0.833330  0.868220  1.0  2.3653
  W  W100  1  0.631360  0.657840  0.185140  1.0  1.3431
  W  W101  1  0.734110  0.925070  0.111450  1.0  2.409
  W  W102  1  0.733300  0.841630  0.332990  1.0  2.3912
  W  W103  1  0.346370  0.666220  0.471260  1.0  1.3067
  W  W104  1  0.233760  0.666667  0.631780  1.0  2.3676
  W  W105  1  0.131360  0.842160  0.314860  1.0  1.3439
  W  W106  1  0.234110  0.574930  0.388550  1.0  2.4087
  W  W107  1  0.233300  0.658370  0.167010  1.0  2.3913
  W  W108  1  0.153630  0.333780  0.971260  1.0  1.3084
  W  W109  1  0.266240  0.333333  0.131780  1.0  2.3659
  W  W110  1  0.368640  0.157840  0.814860  1.0  1.3443
  W  W111  1  0.265890  0.425070  0.888550  1.0  2.4078
  W  W112  1  0.266700  0.341630  0.667010  1.0  2.3907
  W  W113  1  0.346370  0.833780  0.471260  1.0  1.3098
  W  W114  1  0.233760  0.833330  0.631780  1.0  2.3656
  W  W115  1  0.131360  0.657840  0.314860  1.0  1.3429
  W  W116  1  0.234110  0.925070  0.388550  1.0  2.4105
  W  W117  1  0.233300  0.841630  0.167010  1.0  2.3906
  W  W118  1  0.153630  0.166220  0.971260  1.0  1.3074
  W  W119  1  0.266240  0.166670  0.131780  1.0  2.3663
  W  W120  1  0.368640  0.342160  0.814860  1.0  1.346
  W  W121  1  0.265890  0.074930  0.888550  1.0  2.4096
  W  W122  1  0.266700  0.158370  0.667010  1.0  2.3916
  W  W123  1  0.653630  0.333780  0.528740  1.0  1.3082
  W  W124  1  0.766240  0.333333  0.368220  1.0  2.3654
  W  W125  1  0.868640  0.157840  0.685140  1.0  1.3442
  W  W126  1  0.765890  0.425070  0.611450  1.0  2.4102
  W  W127  1  0.766700  0.341630  0.832990  1.0  2.3917
  W  W128  1  0.846370  0.666220  0.028740  1.0  1.3056
  W  W129  1  0.733760  0.666667  0.868220  1.0  2.3669
  W  W130  1  0.631360  0.842160  0.185140  1.0  1.3438
  W  W131  1  0.734110  0.574930  0.111450  1.0  2.4104
  W  W132  1  0.733300  0.658370  0.332990  1.0  2.3919
  W  W133  1  0.653800  0.250000  0.751340  1.0  1.2949
  W  W134  1  0.868420  0.250000  0.441100  1.0  1.3288
  W  W135  1  0.846200  0.750000  0.251340  1.0  1.2976
  W  W136  1  0.631580  0.750000  0.941100  1.0  1.3275
  W  W137  1  0.346200  0.750000  0.248660  1.0  1.2989
  W  W138  1  0.131580  0.750000  0.558900  1.0  1.3263
  W  W139  1  0.153800  0.250000  0.748660  1.0  1.2953
  W  W140  1  0.368420  0.250000  0.058900  1.0  1.3277
  C  C141  1  0.027600  0.858500  0.756000  1.0  -0.1975
  C  C142  1  0.090100  0.968900  0.944000  1.0  -0.0537
  C  C143  1  0.035200  0.917400  0.809800  1.0  0.1874
  C  C144  1  0.944600  0.895300  0.707300  1.0  0.1751
  C  C145  1  0.895100  0.843900  0.562400  1.0  -0.1434
  C  C146  1  0.847700  0.843500  0.540500  1.0  0.0547
  C  C147  1  0.852800  0.902300  0.676000  1.0  0.1579
  C  C148  1  0.980000  0.848500  0.711000  1.0  -0.1741
  C  C149  1  0.952400  0.956600  0.752300  1.0  -0.2118
  C  C150  1  0.138100  0.963300  0.964700  1.0  -0.005
  C  C151  1  0.997100  0.966000  0.806000  1.0  -0.1311
  C  C152  1  0.126400  0.900600  0.832300  1.0  0.0766
  C  C153  1  0.472400  0.141500  0.256000  1.0  -0.198
  C  C154  1  0.409900  0.031100  0.444000  1.0  -0.0529
  C  C155  1  0.464800  0.082600  0.309800  1.0  0.1869
  C  C156  1  0.555400  0.104700  0.207300  1.0  0.1745
  C  C157  1  0.604900  0.156100  0.062400  1.0  -0.1439
  C  C158  1  0.652300  0.156500  0.040500  1.0  0.0555
  C  C159  1  0.647200  0.097700  0.176000  1.0  0.1593
  C  C160  1  0.520000  0.151500  0.211000  1.0  -0.1744
  C  C161  1  0.547600  0.043400  0.252300  1.0  -0.2113
  C  C162  1  0.361900  0.036700  0.464700  1.0  -0.006
  C  C163  1  0.502900  0.034000  0.306000  1.0  -0.1321
  C  C164  1  0.373600  0.099400  0.332300  1.0  0.0761
  C  C165  1  0.972400  0.358500  0.244000  1.0  -0.1969
  C  C166  1  0.909900  0.468900  0.056000  1.0  -0.0527
  C  C167  1  0.964800  0.417400  0.190200  1.0  0.1876
  C  C168  1  0.055400  0.395300  0.292700  1.0  0.1744
  C  C169  1  0.104900  0.343900  0.437600  1.0  -0.145
  C  C170  1  0.152300  0.343500  0.459500  1.0  0.056
  C  C171  1  0.147200  0.402300  0.324000  1.0  0.1582
  C  C172  1  0.020000  0.348500  0.289000  1.0  -0.1728
  C  C173  1  0.047600  0.456600  0.247700  1.0  -0.2122
  C  C174  1  0.861900  0.463300  0.035300  1.0  -0.0049
  C  C175  1  0.002900  0.466000  0.194000  1.0  -0.1314
  C  C176  1  0.873600  0.400600  0.167700  1.0  0.0767
  C  C177  1  0.527600  0.641500  0.744000  1.0  -0.1986
  C  C178  1  0.590100  0.531100  0.556000  1.0  -0.0541
  C  C179  1  0.535200  0.582600  0.690200  1.0  0.1875
  C  C180  1  0.444600  0.604700  0.792700  1.0  0.1751
  C  C181  1  0.395100  0.656100  0.937600  1.0  -0.1417
  C  C182  1  0.347700  0.656500  0.959500  1.0  0.0542
  C  C183  1  0.352800  0.597700  0.824000  1.0  0.1587
  C  C184  1  0.480000  0.651500  0.789000  1.0  -0.1757
  C  C185  1  0.452400  0.543400  0.747700  1.0  -0.2111
  C  C186  1  0.638100  0.536700  0.535300  1.0  -0.004
  C  C187  1  0.497100  0.534000  0.694000  1.0  -0.1315
  C  C188  1  0.626400  0.599400  0.667700  1.0  0.076
  C  C189  1  0.972400  0.141500  0.244000  1.0  -0.1981
  C  C190  1  0.909900  0.031100  0.056000  1.0  -0.0533
  C  C191  1  0.964800  0.082600  0.190200  1.0  0.1873
  C  C192  1  0.055400  0.104700  0.292700  1.0  0.1746
  C  C193  1  0.104900  0.156100  0.437600  1.0  -0.144
  C  C194  1  0.152300  0.156500  0.459500  1.0  0.0562
  C  C195  1  0.147200  0.097700  0.324000  1.0  0.1589
  C  C196  1  0.020000  0.151500  0.289000  1.0  -0.1744
  C  C197  1  0.047600  0.043400  0.247700  1.0  -0.2117
  C  C198  1  0.861900  0.036700  0.035300  1.0  -0.0045
  C  C199  1  0.002900  0.034000  0.194000  1.0  -0.1316
  C  C200  1  0.873600  0.099400  0.167700  1.0  0.0757
  C  C201  1  0.527600  0.858500  0.744000  1.0  -0.1976
  C  C202  1  0.590100  0.968900  0.556000  1.0  -0.0537
  C  C203  1  0.535200  0.917400  0.690200  1.0  0.1877
  C  C204  1  0.444600  0.895300  0.792700  1.0  0.175
  C  C205  1  0.395100  0.843900  0.937600  1.0  -0.1427
  C  C206  1  0.347700  0.843500  0.959500  1.0  0.0542
  C  C207  1  0.352800  0.902300  0.824000  1.0  0.1581
  C  C208  1  0.480000  0.848500  0.789000  1.0  -0.1739
  C  C209  1  0.452400  0.956600  0.747700  1.0  -0.2123
  C  C210  1  0.638100  0.963300  0.535300  1.0  -0.0044
  C  C211  1  0.497100  0.966000  0.694000  1.0  -0.1306
  C  C212  1  0.626400  0.900600  0.667700  1.0  0.0767
  C  C213  1  0.027600  0.641500  0.756000  1.0  -0.1985
  C  C214  1  0.090100  0.531100  0.944000  1.0  -0.0541
  C  C215  1  0.035200  0.582600  0.809800  1.0  0.1871
  C  C216  1  0.944600  0.604700  0.707300  1.0  0.1752
  C  C217  1  0.895100  0.656100  0.562400  1.0  -0.1428
  C  C218  1  0.847700  0.656500  0.540500  1.0  0.0543
  C  C219  1  0.852800  0.597700  0.676000  1.0  0.1588
  C  C220  1  0.980000  0.651500  0.711000  1.0  -0.1756
  C  C221  1  0.952400  0.543400  0.752300  1.0  -0.2107
  C  C222  1  0.138100  0.536700  0.964700  1.0  -0.0051
  C  C223  1  0.997100  0.534000  0.806000  1.0  -0.1322
  C  C224  1  0.126400  0.599400  0.832300  1.0  0.0761
  C  C225  1  0.472400  0.358500  0.256000  1.0  -0.1968
  C  C226  1  0.409900  0.468900  0.444000  1.0  -0.0522
  C  C227  1  0.464800  0.417400  0.309800  1.0  0.1872
  C  C228  1  0.555400  0.395300  0.207300  1.0  0.1743
  C  C229  1  0.604900  0.343900  0.062400  1.0  -0.1446
  C  C230  1  0.652300  0.343500  0.040500  1.0  0.0557
  C  C231  1  0.647200  0.402300  0.176000  1.0  0.1583
  C  C232  1  0.520000  0.348500  0.211000  1.0  -0.1731
  C  C233  1  0.547600  0.456600  0.252300  1.0  -0.2119
  C  C234  1  0.361900  0.463300  0.464700  1.0  -0.0059
  C  C235  1  0.502900  0.466000  0.306000  1.0  -0.1318
  C  C236  1  0.373600  0.400600  0.332300  1.0  0.077
  N  N237  1  0.819700  0.877600  0.611400  1.0  -0.4038
  N  N238  1  0.900300  0.884100  0.653800  1.0  -0.1957
  N  N239  1  0.080100  0.929600  0.859800  1.0  -0.0694
  N  N240  1  0.160700  0.918000  0.897800  1.0  -0.3643
  N  N241  1  0.680300  0.122400  0.111400  1.0  -0.4054
  N  N242  1  0.599700  0.115900  0.153800  1.0  -0.1962
  N  N243  1  0.419900  0.070400  0.359800  1.0  -0.0673
  N  N244  1  0.339300  0.082000  0.397800  1.0  -0.3629
  N  N245  1  0.180300  0.377600  0.388600  1.0  -0.4055
  N  N246  1  0.099700  0.384100  0.346200  1.0  -0.1955
  N  N247  1  0.919900  0.429600  0.140200  1.0  -0.0679
  N  N248  1  0.839300  0.418000  0.102200  1.0  -0.3622
  N  N249  1  0.319700  0.622400  0.888600  1.0  -0.4034
  N  N250  1  0.400300  0.615900  0.846200  1.0  -0.1951
  N  N251  1  0.580100  0.570400  0.640200  1.0  -0.0697
  N  N252  1  0.660700  0.582000  0.602200  1.0  -0.3656
  N  N253  1  0.180300  0.122400  0.388600  1.0  -0.4053
  N  N254  1  0.099700  0.115900  0.346200  1.0  -0.1957
  N  N255  1  0.919900  0.070400  0.140200  1.0  -0.0678
  N  N256  1  0.839300  0.082000  0.102200  1.0  -0.3624
  N  N257  1  0.319700  0.877600  0.888600  1.0  -0.4037
  N  N258  1  0.400300  0.884100  0.846200  1.0  -0.1951
  N  N259  1  0.580100  0.929600  0.640200  1.0  -0.0698
  N  N260  1  0.660700  0.918000  0.602200  1.0  -0.3642
  N  N261  1  0.819700  0.622400  0.611400  1.0  -0.4035
  N  N262  1  0.900300  0.615900  0.653800  1.0  -0.1956
  N  N263  1  0.080100  0.570400  0.859800  1.0  -0.0693
  N  N264  1  0.160700  0.582000  0.897800  1.0  -0.3656
  N  N265  1  0.680300  0.377600  0.111400  1.0  -0.4056
  N  N266  1  0.599700  0.384100  0.153800  1.0  -0.1963
  N  N267  1  0.419900  0.429600  0.359800  1.0  -0.0675
  N  N268  1  0.339300  0.418000  0.397800  1.0  -0.3629
  O  O269  1  0.837200  0.183700  0.359500  1.0  -0.7279
  O  O270  1  0.626900  0.182800  0.663200  1.0  -0.7019
  O  O271  1  0.701000  0.185000  0.799200  1.0  -0.7297
  O  O272  1  0.755700  0.078000  0.756800  1.0  -0.6973
  O  O273  1  0.876200  0.317400  0.543800  1.0  -0.7221
  O  O274  1  0.759400  0.113200  0.267600  1.0  -0.7647
  O  O275  1  0.699200  0.106000  0.595300  1.0  -0.738
  O  O276  1  0.778400  0.106000  0.477200  1.0  -0.7574
  O  O277  1  0.783300  0.315800  0.662000  1.0  -0.7675
  O  O278  1  0.837100  0.354900  0.814600  1.0  -0.7013
  O  O279  1  0.699400  0.170600  0.419600  1.0  -0.6825
  O  O280  1  0.836400  0.421800  0.638400  1.0  -0.6769
  O  O281  1  0.757900  0.991200  0.593300  1.0  -0.8129
  O  O282  1  0.759000  0.128100  0.953900  1.0  -0.7795
  O  O283  1  0.662800  0.816300  0.859500  1.0  -0.7258
  O  O284  1  0.873100  0.817200  0.163200  1.0  -0.7037
  O  O285  1  0.799000  0.815000  0.299200  1.0  -0.7274
  O  O286  1  0.744300  0.922000  0.256800  1.0  -0.6941
  O  O287  1  0.623800  0.682600  0.043800  1.0  -0.7264
  O  O288  1  0.740600  0.886800  0.767600  1.0  -0.7653
  O  O289  1  0.800800  0.894000  0.095300  1.0  -0.7371
  O  O290  1  0.721600  0.894000  0.977200  1.0  -0.7611
  O  O291  1  0.716700  0.684200  0.162000  1.0  -0.7674
  O  O292  1  0.662900  0.645100  0.314600  1.0  -0.6992
  O  O293  1  0.800600  0.829400  0.919600  1.0  -0.6787
  O  O294  1  0.663600  0.578200  0.138400  1.0  -0.678
  O  O295  1  0.742100  0.008800  0.093300  1.0  -0.8119
  O  O296  1  0.741000  0.871900  0.453900  1.0  -0.7792
  O  O297  1  0.162800  0.683700  0.640500  1.0  -0.7247
  O  O298  1  0.373100  0.682800  0.336800  1.0  -0.7045
  O  O299  1  0.299000  0.685000  0.200800  1.0  -0.7284
  O  O300  1  0.244300  0.578000  0.243200  1.0  -0.6961
  O  O301  1  0.123800  0.817400  0.456200  1.0  -0.7256
  O  O302  1  0.240600  0.613200  0.732400  1.0  -0.7644
  O  O303  1  0.300800  0.606000  0.404700  1.0  -0.7349
  O  O304  1  0.221600  0.606000  0.522800  1.0  -0.7588
  O  O305  1  0.216700  0.815800  0.338000  1.0  -0.7667
  O  O306  1  0.162900  0.854900  0.185400  1.0  -0.7
  O  O307  1  0.300600  0.670600  0.580400  1.0  -0.6789
  O  O308  1  0.163600  0.921800  0.361600  1.0  -0.6776
  O  O309  1  0.242100  0.491200  0.406700  1.0  -0.8127
  O  O310  1  0.241000  0.628100  0.046100  1.0  -0.7804
  O  O311  1  0.337200  0.316300  0.140500  1.0  -0.7245
  O  O312  1  0.126900  0.317200  0.836800  1.0  -0.7021
  O  O313  1  0.201000  0.315000  0.700800  1.0  -0.7292
  O  O314  1  0.255700  0.422000  0.743200  1.0  -0.6964
  O  O315  1  0.376200  0.182600  0.956200  1.0  -0.7231
  O  O316  1  0.259400  0.386800  0.232400  1.0  -0.7649
  O  O317  1  0.199200  0.394000  0.904700  1.0  -0.7386
  O  O318  1  0.278400  0.394000  0.022800  1.0  -0.759
  O  O319  1  0.283300  0.184200  0.838000  1.0  -0.7682
  O  O320  1  0.337100  0.145100  0.685400  1.0  -0.7012
  O  O321  1  0.199400  0.329400  0.080400  1.0  -0.6817
  O  O322  1  0.336400  0.078200  0.861600  1.0  -0.6774
  O  O323  1  0.257900  0.508800  0.906700  1.0  -0.8122
  O  O324  1  0.259000  0.371900  0.546100  1.0  -0.7797
  O  O325  1  0.162800  0.816300  0.640500  1.0  -0.7236
  O  O326  1  0.373100  0.817200  0.336800  1.0  -0.7036
  O  O327  1  0.299000  0.815000  0.200800  1.0  -0.7257
  O  O328  1  0.244300  0.922000  0.243200  1.0  -0.6959
  O  O329  1  0.123800  0.682600  0.456200  1.0  -0.726
  O  O330  1  0.240600  0.886800  0.732400  1.0  -0.7649
  O  O331  1  0.300800  0.894000  0.404700  1.0  -0.7362
  O  O332  1  0.221600  0.894000  0.522800  1.0  -0.7602
  O  O333  1  0.216700  0.684200  0.338000  1.0  -0.7675
  O  O334  1  0.162900  0.645100  0.185400  1.0  -0.7004
  O  O335  1  0.300600  0.829400  0.580400  1.0  -0.6788
  O  O336  1  0.163600  0.578200  0.361600  1.0  -0.6783
  O  O337  1  0.242100  0.008800  0.406700  1.0  -0.8119
  O  O338  1  0.241000  0.871900  0.046100  1.0  -0.7801
  O  O339  1  0.337200  0.183700  0.140500  1.0  -0.7252
  O  O340  1  0.126900  0.182800  0.836800  1.0  -0.7028
  O  O341  1  0.201000  0.185000  0.700800  1.0  -0.7284
  O  O342  1  0.255700  0.078000  0.743200  1.0  -0.6963
  O  O343  1  0.376200  0.317400  0.956200  1.0  -0.7223
  O  O344  1  0.259400  0.113200  0.232400  1.0  -0.7644
  O  O345  1  0.199200  0.106000  0.904700  1.0  -0.7374
  O  O346  1  0.278400  0.106000  0.022800  1.0  -0.7586
  O  O347  1  0.283300  0.315800  0.838000  1.0  -0.7673
  O  O348  1  0.337100  0.354900  0.685400  1.0  -0.7009
  O  O349  1  0.199400  0.170600  0.080400  1.0  -0.6821
  O  O350  1  0.336400  0.421800  0.861600  1.0  -0.6772
  O  O351  1  0.257900  0.991200  0.906700  1.0  -0.813
  O  O352  1  0.259000  0.128100  0.546100  1.0  -0.7799
  O  O353  1  0.837200  0.316300  0.359500  1.0  -0.7271
  O  O354  1  0.626900  0.317200  0.663200  1.0  -0.7016
  O  O355  1  0.701000  0.315000  0.799200  1.0  -0.7266
  O  O356  1  0.755700  0.422000  0.756800  1.0  -0.6949
  O  O357  1  0.876200  0.182600  0.543800  1.0  -0.7228
  O  O358  1  0.759400  0.386800  0.267600  1.0  -0.7652
  O  O359  1  0.699200  0.394000  0.595300  1.0  -0.7393
  O  O360  1  0.778400  0.394000  0.477200  1.0  -0.7597
  O  O361  1  0.783300  0.184200  0.662000  1.0  -0.7681
  O  O362  1  0.837100  0.145100  0.814600  1.0  -0.7014
  O  O363  1  0.699400  0.329400  0.419600  1.0  -0.6824
  O  O364  1  0.836400  0.078200  0.638400  1.0  -0.6768
  O  O365  1  0.757900  0.508800  0.593300  1.0  -0.8121
  O  O366  1  0.759000  0.371900  0.953900  1.0  -0.779
  O  O367  1  0.662800  0.683700  0.859500  1.0  -0.7272
  O  O368  1  0.873100  0.682800  0.163200  1.0  -0.7041
  O  O369  1  0.799000  0.685000  0.299200  1.0  -0.7269
  O  O370  1  0.744300  0.578000  0.256800  1.0  -0.6969
  O  O371  1  0.623800  0.817400  0.043800  1.0  -0.726
  O  O372  1  0.740600  0.613200  0.767600  1.0  -0.7648
  O  O373  1  0.800800  0.606000  0.095300  1.0  -0.7355
  O  O374  1  0.721600  0.606000  0.977200  1.0  -0.7577
  O  O375  1  0.716700  0.815800  0.162000  1.0  -0.7669
  O  O376  1  0.662900  0.854900  0.314600  1.0  -0.6993
  O  O377  1  0.800600  0.670600  0.919600  1.0  -0.6786
  O  O378  1  0.663600  0.921800  0.138400  1.0  -0.6775
  O  O379  1  0.742100  0.491200  0.093300  1.0  -0.8126
  O  O380  1  0.741000  0.628100  0.453900  1.0  -0.7797
  O  O381  1  0.876100  0.250000  0.719300  1.0  -0.7141
  O  O382  1  0.755200  0.250000  0.298100  1.0  -0.6876
  O  O383  1  0.702100  0.250000  0.603000  1.0  -0.7526
  O  O384  1  0.626100  0.250000  0.488000  1.0  -0.6839
  O  O385  1  0.778900  0.250000  0.858200  1.0  -0.7455
  O  O386  1  0.784600  0.250000  0.486600  1.0  -0.7579
  O  O387  1  0.623900  0.750000  0.219300  1.0  -0.716
  O  O388  1  0.744800  0.750000  0.798100  1.0  -0.6873
  O  O389  1  0.797900  0.750000  0.103000  1.0  -0.753
  O  O390  1  0.873900  0.750000  0.988000  1.0  -0.6869
  O  O391  1  0.721100  0.750000  0.358200  1.0  -0.7472
  O  O392  1  0.715400  0.750000  0.986600  1.0  -0.7566
  O  O393  1  0.123900  0.750000  0.280700  1.0  -0.7165
  O  O394  1  0.244800  0.750000  0.701900  1.0  -0.6881
  O  O395  1  0.297900  0.750000  0.397000  1.0  -0.7532
  O  O396  1  0.373900  0.750000  0.512000  1.0  -0.6866
  O  O397  1  0.221100  0.750000  0.141800  1.0  -0.7478
  O  O398  1  0.215400  0.750000  0.513400  1.0  -0.7556
  O  O399  1  0.376100  0.250000  0.780700  1.0  -0.7128
  O  O400  1  0.255200  0.250000  0.201900  1.0  -0.6879
  O  O401  1  0.202100  0.250000  0.897000  1.0  -0.7526
  O  O402  1  0.126100  0.250000  0.012000  1.0  -0.683
  O  O403  1  0.278900  0.250000  0.641800  1.0  -0.7461
  O  O404  1  0.284600  0.250000  0.013400  1.0  -0.7571
