# generated using pymatgen
data_CdH20C28(NO2)2
_symmetry_space_group_name_H-M   'P 1'
_cell_length_a   11.46070000
_cell_length_b   18.79560000
_cell_length_c   22.72130000
_cell_angle_alpha   90.00000000
_cell_angle_beta   96.86300000
_cell_angle_gamma   90.00000000
_symmetry_Int_Tables_number   1
_chemical_formula_structural   CdH20C28(NO2)2
_chemical_formula_sum   'Cd6 H120 C168 N12 O24'
_cell_volume   4859.34203427
_cell_formula_units_Z   6
loop_
 _symmetry_equiv_pos_site_id
 _symmetry_equiv_pos_as_xyz
  1  'x, y, z'
loop_
 _atom_site_type_symbol
 _atom_site_label
 _atom_site_symmetry_multiplicity
 _atom_site_fract_x
 _atom_site_fract_y
 _atom_site_fract_z
 _atom_site_occupancy
 _atom_site_charge
  Cd  Cd1  1  0.646780  0.024440  0.056960  1.0  1.0059
  Cd  Cd2  1  0.353220  0.024440  0.443040  1.0  1.0054
  Cd  Cd3  1  0.353220  0.975560  0.943040  1.0  1.0053
  Cd  Cd4  1  0.646780  0.975560  0.556960  1.0  1.0057
  Cd  Cd5  1  0.000000  0.500000  0.000000  1.0  0.9242
  Cd  Cd6  1  0.000000  0.500000  0.500000  1.0  0.9242
  H  H7  1  0.692400  0.173600  0.991900  1.0  0.073
  H  H8  1  0.815200  0.230200  0.935000  1.0  0.1202
  H  H9  1  0.984000  0.047900  0.921700  1.0  0.1101
  H  H10  1  0.856200  0.995400  0.976900  1.0  0.0765
  H  H11  1  0.058000  0.148700  0.873900  1.0  0.0955
  H  H12  1  0.939900  0.272700  0.878000  1.0  0.0924
  H  H13  1  0.034300  0.374700  0.843700  1.0  0.0956
  H  H14  1  0.159000  0.429400  0.786000  1.0  0.107
  H  H15  1  0.277000  0.362800  0.732200  1.0  0.1215
  H  H16  1  0.153300  0.186800  0.800500  1.0  0.0946
  H  H17  1  0.359500  0.253800  0.708400  1.0  0.1047
  H  H18  1  0.248000  0.132900  0.733300  1.0  0.0995
  H  H19  1  0.297600  0.026100  0.683400  1.0  0.1177
  H  H20  1  0.415500  0.964000  0.629000  1.0  0.0671
  H  H21  1  0.609800  0.128500  0.612600  1.0  0.067
  H  H22  1  0.496600  0.196000  0.667100  1.0  0.1218
  H  H23  1  0.075500  0.661800  0.968100  1.0  0.0846
  H  H24  1  0.202100  0.722700  0.906000  1.0  0.1158
  H  H25  1  0.296300  0.539400  0.849200  1.0  0.1066
  H  H26  1  0.183300  0.485400  0.909100  1.0  0.0554
  H  H27  1  0.388200  0.644100  0.811400  1.0  0.0907
  H  H28  1  0.301400  0.765800  0.840500  1.0  0.086
  H  H29  1  0.381800  0.868700  0.806600  1.0  0.1105
  H  H30  1  0.138100  0.282400  0.973100  1.0  0.0903
  H  H31  1  0.220300  0.169700  0.969800  1.0  0.0925
  H  H32  1  0.488400  0.233300  0.084100  1.0  0.0739
  H  H33  1  0.404500  0.343700  0.089900  1.0  0.1108
  H  H34  1  0.935400  0.930400  0.208400  1.0  0.0779
  H  H35  1  0.929600  0.138000  0.208600  1.0  0.1074
  H  H36  1  0.307600  0.173600  0.508100  1.0  0.0733
  H  H37  1  0.184800  0.230200  0.565000  1.0  0.1206
  H  H38  1  0.016000  0.047900  0.578300  1.0  0.1101
  H  H39  1  0.143800  0.995400  0.523100  1.0  0.0765
  H  H40  1  0.942000  0.148700  0.626100  1.0  0.0946
  H  H41  1  0.060100  0.272700  0.622000  1.0  0.0925
  H  H42  1  0.965700  0.374700  0.656300  1.0  0.0952
  H  H43  1  0.841000  0.429400  0.714000  1.0  0.1061
  H  H44  1  0.723000  0.362800  0.767800  1.0  0.1218
  H  H45  1  0.846700  0.186800  0.699500  1.0  0.0946
  H  H46  1  0.640500  0.253800  0.791600  1.0  0.1052
  H  H47  1  0.752000  0.132900  0.766700  1.0  0.0994
  H  H48  1  0.702400  0.026100  0.816600  1.0  0.1182
  H  H49  1  0.584500  0.964000  0.871000  1.0  0.0665
  H  H50  1  0.390200  0.128500  0.887400  1.0  0.0669
  H  H51  1  0.503400  0.196000  0.832900  1.0  0.122
  H  H52  1  0.924500  0.661800  0.531900  1.0  0.0851
  H  H53  1  0.797900  0.722700  0.594000  1.0  0.1158
  H  H54  1  0.703700  0.539400  0.650800  1.0  0.1069
  H  H55  1  0.816700  0.485400  0.590900  1.0  0.0546
  H  H56  1  0.611800  0.644100  0.688600  1.0  0.0913
  H  H57  1  0.698600  0.765800  0.659500  1.0  0.0868
  H  H58  1  0.618200  0.868700  0.693400  1.0  0.1106
  H  H59  1  0.861900  0.282400  0.526900  1.0  0.0902
  H  H60  1  0.779700  0.169700  0.530200  1.0  0.0929
  H  H61  1  0.511600  0.233300  0.415900  1.0  0.0739
  H  H62  1  0.595500  0.343700  0.410100  1.0  0.1114
  H  H63  1  0.064600  0.930400  0.291600  1.0  0.078
  H  H64  1  0.070400  0.138000  0.291400  1.0  0.1073
  H  H65  1  0.307600  0.826400  0.008100  1.0  0.0735
  H  H66  1  0.184800  0.769800  0.065000  1.0  0.1214
  H  H67  1  0.016000  0.952100  0.078300  1.0  0.1103
  H  H68  1  0.143800  0.004600  0.023100  1.0  0.0758
  H  H69  1  0.942000  0.851300  0.126100  1.0  0.0952
  H  H70  1  0.060100  0.727300  0.122000  1.0  0.0921
  H  H71  1  0.965700  0.625300  0.156300  1.0  0.0962
  H  H72  1  0.841000  0.570600  0.214000  1.0  0.1058
  H  H73  1  0.723000  0.637200  0.267800  1.0  0.1212
  H  H74  1  0.846700  0.813200  0.199500  1.0  0.0948
  H  H75  1  0.640500  0.746200  0.291600  1.0  0.1045
  H  H76  1  0.752000  0.867100  0.266700  1.0  0.1
  H  H77  1  0.702400  0.973900  0.316600  1.0  0.1183
  H  H78  1  0.584500  0.036000  0.371000  1.0  0.0658
  H  H79  1  0.390200  0.871500  0.387400  1.0  0.0672
  H  H80  1  0.503400  0.804000  0.332900  1.0  0.1223
  H  H81  1  0.924500  0.338200  0.031900  1.0  0.0852
  H  H82  1  0.797900  0.277300  0.094000  1.0  0.116
  H  H83  1  0.703700  0.460600  0.150800  1.0  0.1071
  H  H84  1  0.816700  0.514600  0.090900  1.0  0.0552
  H  H85  1  0.611800  0.355900  0.188600  1.0  0.0923
  H  H86  1  0.698600  0.234200  0.159500  1.0  0.0866
  H  H87  1  0.618200  0.131300  0.193400  1.0  0.1106
  H  H88  1  0.861900  0.717600  0.026900  1.0  0.0902
  H  H89  1  0.779700  0.830300  0.030200  1.0  0.0919
  H  H90  1  0.511600  0.766700  0.915900  1.0  0.0739
  H  H91  1  0.595500  0.656300  0.910100  1.0  0.1108
  H  H92  1  0.064600  0.069600  0.791600  1.0  0.0775
  H  H93  1  0.070400  0.862000  0.791400  1.0  0.107
  H  H94  1  0.692400  0.826400  0.491900  1.0  0.0734
  H  H95  1  0.815200  0.769800  0.435000  1.0  0.121
  H  H96  1  0.984000  0.952100  0.421700  1.0  0.1103
  H  H97  1  0.856200  0.004600  0.476900  1.0  0.0759
  H  H98  1  0.058000  0.851300  0.373900  1.0  0.0951
  H  H99  1  0.939900  0.727300  0.378000  1.0  0.0922
  H  H100  1  0.034300  0.625300  0.343700  1.0  0.0963
  H  H101  1  0.159000  0.570600  0.286000  1.0  0.1066
  H  H102  1  0.277000  0.637200  0.232200  1.0  0.1209
  H  H103  1  0.153300  0.813200  0.300500  1.0  0.0945
  H  H104  1  0.359500  0.746200  0.208400  1.0  0.1038
  H  H105  1  0.248000  0.867100  0.233300  1.0  0.1
  H  H106  1  0.297600  0.973900  0.183400  1.0  0.1178
  H  H107  1  0.415500  0.036000  0.129000  1.0  0.0663
  H  H108  1  0.609800  0.871500  0.112600  1.0  0.067
  H  H109  1  0.496600  0.804000  0.167100  1.0  0.1221
  H  H110  1  0.075500  0.338200  0.468100  1.0  0.0849
  H  H111  1  0.202100  0.277300  0.406000  1.0  0.1156
  H  H112  1  0.296300  0.460600  0.349200  1.0  0.107
  H  H113  1  0.183300  0.514600  0.409100  1.0  0.0551
  H  H114  1  0.388200  0.355900  0.311400  1.0  0.0919
  H  H115  1  0.301400  0.234200  0.340500  1.0  0.0865
  H  H116  1  0.381800  0.131300  0.306600  1.0  0.1108
  H  H117  1  0.138100  0.717600  0.473100  1.0  0.0901
  H  H118  1  0.220300  0.830300  0.469800  1.0  0.0922
  H  H119  1  0.488400  0.766700  0.584100  1.0  0.0741
  H  H120  1  0.404500  0.656300  0.589900  1.0  0.111
  H  H121  1  0.935400  0.069600  0.708400  1.0  0.0776
  H  H122  1  0.929600  0.862000  0.708600  1.0  0.1069
  H  H123  1  0.500000  0.683900  0.750000  1.0  0.0911
  H  H124  1  0.500000  0.927000  0.750000  1.0  0.09
  H  H125  1  0.500000  0.316100  0.250000  1.0  0.0904
  H  H126  1  0.500000  0.073000  0.250000  1.0  0.0889
  C  C127  1  0.751900  0.147600  0.977600  1.0  0.1848
  C  C128  1  0.825500  0.182000  0.943200  1.0  -0.2053
  C  C129  1  0.914800  0.144800  0.921000  1.0  0.1092
  C  C130  1  0.924600  0.075000  0.935100  1.0  -0.2292
  C  C131  1  0.847900  0.043800  0.968900  1.0  0.1776
  C  C132  1  0.998500  0.177800  0.884700  1.0  -0.1045
  C  C133  1  0.997900  0.243100  0.866300  1.0  -0.1011
  C  C134  1  0.080400  0.274800  0.828700  1.0  0.0163
  C  C135  1  0.083400  0.347000  0.823200  1.0  -0.1045
  C  C136  1  0.157400  0.380000  0.788200  1.0  -0.0892
  C  C137  1  0.228500  0.340500  0.756600  1.0  -0.0465
  C  C138  1  0.227800  0.268500  0.761000  1.0  0.0455
  C  C139  1  0.153300  0.236100  0.797400  1.0  -0.136
  C  C140  1  0.304100  0.227700  0.725900  1.0  -0.0949
  C  C141  1  0.303900  0.159200  0.716300  1.0  -0.0902
  C  C142  1  0.381500  0.119300  0.682000  1.0  0.147
  C  C143  1  0.360800  0.048900  0.669400  1.0  -0.2362
  C  C144  1  0.432200  0.011800  0.636300  1.0  0.1784
  C  C145  1  0.545300  0.107300  0.626700  1.0  0.1845
  C  C146  1  0.477400  0.148400  0.659800  1.0  -0.2148
  C  C147  1  0.120500  0.635900  0.944300  1.0  0.1261
  C  C148  1  0.198200  0.673300  0.905600  1.0  -0.1427
  C  C149  1  0.261700  0.636500  0.870600  1.0  0.0246
  C  C150  1  0.253400  0.567100  0.872900  1.0  -0.196
  C  C151  1  0.183600  0.534900  0.909100  1.0  0.1935
  C  C152  1  0.340600  0.673800  0.831000  1.0  -0.0753
  C  C153  1  0.349800  0.735800  0.821700  1.0  -0.0887
  C  C154  1  0.427100  0.769900  0.784600  1.0  0.059
  C  C155  1  0.429300  0.843000  0.783800  1.0  -0.2046
  C  C156  1  0.205600  0.396100  0.033600  1.0  0.7178
  C  C157  1  0.261600  0.323300  0.032200  1.0  -0.1349
  C  C158  1  0.208600  0.272300  0.996300  1.0  -0.0072
  C  C159  1  0.258400  0.204900  0.993600  1.0  -0.0568
  C  C160  1  0.364100  0.191100  0.026500  1.0  -0.124
  C  C161  1  0.416700  0.242800  0.061700  1.0  -0.0371
  C  C162  1  0.367000  0.309000  0.065300  1.0  -0.0828
  C  C163  1  0.420900  0.119000  0.024300  1.0  0.6833
  C  C164  1  0.824200  0.032700  0.147900  1.0  0.6891
  C  C165  1  0.915000  0.032800  0.200900  1.0  -0.0656
  C  C166  1  0.959700  0.973800  0.225400  1.0  -0.1245
  C  C167  1  0.957300  0.095100  0.225100  1.0  -0.0662
  C  C168  1  0.248100  0.147600  0.522400  1.0  0.185
  C  C169  1  0.174500  0.182000  0.556800  1.0  -0.2052
  C  C170  1  0.085200  0.144800  0.579000  1.0  0.1098
  C  C171  1  0.075400  0.075000  0.564900  1.0  -0.2283
  C  C172  1  0.152100  0.043800  0.531100  1.0  0.1764
  C  C173  1  0.001500  0.177800  0.615300  1.0  -0.104
  C  C174  1  0.002100  0.243100  0.633700  1.0  -0.1012
  C  C175  1  0.919600  0.274800  0.671300  1.0  0.0152
  C  C176  1  0.916600  0.347000  0.676800  1.0  -0.1049
  C  C177  1  0.842600  0.380000  0.711800  1.0  -0.0887
  C  C178  1  0.771500  0.340500  0.743400  1.0  -0.0454
  C  C179  1  0.772200  0.268500  0.739000  1.0  0.0465
  C  C180  1  0.846700  0.236100  0.702600  1.0  -0.1363
  C  C181  1  0.695900  0.227700  0.774100  1.0  -0.0947
  C  C182  1  0.696100  0.159200  0.783700  1.0  -0.0912
  C  C183  1  0.618500  0.119300  0.818000  1.0  0.1463
  C  C184  1  0.639200  0.048900  0.830600  1.0  -0.2358
  C  C185  1  0.567800  0.011800  0.863700  1.0  0.1782
  C  C186  1  0.454700  0.107300  0.873300  1.0  0.1844
  C  C187  1  0.522600  0.148400  0.840200  1.0  -0.2162
  C  C188  1  0.879500  0.635900  0.555700  1.0  0.126
  C  C189  1  0.801800  0.673300  0.594400  1.0  -0.1441
  C  C190  1  0.738300  0.636500  0.629400  1.0  0.0238
  C  C191  1  0.746600  0.567100  0.627100  1.0  -0.1952
  C  C192  1  0.816400  0.534900  0.590900  1.0  0.1936
  C  C193  1  0.659400  0.673800  0.669000  1.0  -0.0763
  C  C194  1  0.650200  0.735800  0.678300  1.0  -0.0881
  C  C195  1  0.572900  0.769900  0.715400  1.0  0.0584
  C  C196  1  0.570700  0.843000  0.716200  1.0  -0.2052
  C  C197  1  0.794400  0.396100  0.466400  1.0  0.7194
  C  C198  1  0.738400  0.323300  0.467800  1.0  -0.1348
  C  C199  1  0.791400  0.272300  0.503700  1.0  -0.0068
  C  C200  1  0.741600  0.204900  0.506400  1.0  -0.0568
  C  C201  1  0.635900  0.191100  0.473500  1.0  -0.1238
  C  C202  1  0.583300  0.242800  0.438300  1.0  -0.0367
  C  C203  1  0.633000  0.309000  0.434700  1.0  -0.0828
  C  C204  1  0.579100  0.119000  0.475700  1.0  0.6844
  C  C205  1  0.175800  0.032700  0.352100  1.0  0.6878
  C  C206  1  0.085000  0.032800  0.299100  1.0  -0.0629
  C  C207  1  0.040300  0.973800  0.274600  1.0  -0.1236
  C  C208  1  0.042700  0.095100  0.274900  1.0  -0.0656
  C  C209  1  0.248100  0.852400  0.022400  1.0  0.1843
  C  C210  1  0.174500  0.818000  0.056800  1.0  -0.2038
  C  C211  1  0.085200  0.855200  0.079000  1.0  0.1096
  C  C212  1  0.075400  0.925000  0.064900  1.0  -0.2301
  C  C213  1  0.152100  0.956200  0.031100  1.0  0.1761
  C  C214  1  0.001500  0.822200  0.115300  1.0  -0.1041
  C  C215  1  0.002100  0.756900  0.133700  1.0  -0.1021
  C  C216  1  0.919600  0.725200  0.171300  1.0  0.0141
  C  C217  1  0.916600  0.653000  0.176800  1.0  -0.1063
  C  C218  1  0.842600  0.620000  0.211800  1.0  -0.0897
  C  C219  1  0.771500  0.659500  0.243400  1.0  -0.0445
  C  C220  1  0.772200  0.731500  0.239000  1.0  0.0467
  C  C221  1  0.846700  0.763900  0.202600  1.0  -0.1358
  C  C222  1  0.695900  0.772300  0.274100  1.0  -0.0941
  C  C223  1  0.696100  0.840800  0.283700  1.0  -0.0908
  C  C224  1  0.618500  0.880700  0.318000  1.0  0.1462
  C  C225  1  0.639200  0.951100  0.330600  1.0  -0.2366
  C  C226  1  0.567800  0.988200  0.363700  1.0  0.1769
  C  C227  1  0.454700  0.892700  0.373300  1.0  0.1843
  C  C228  1  0.522600  0.851600  0.340200  1.0  -0.2149
  C  C229  1  0.879500  0.364100  0.055700  1.0  0.1262
  C  C230  1  0.801800  0.326700  0.094400  1.0  -0.1416
  C  C231  1  0.738300  0.363500  0.129400  1.0  0.0249
  C  C232  1  0.746600  0.432900  0.127100  1.0  -0.1993
  C  C233  1  0.816400  0.465100  0.090900  1.0  0.1923
  C  C234  1  0.659400  0.326200  0.169000  1.0  -0.0764
  C  C235  1  0.650200  0.264200  0.178300  1.0  -0.0881
  C  C236  1  0.572900  0.230100  0.215400  1.0  0.0588
  C  C237  1  0.570700  0.157000  0.216200  1.0  -0.2038
  C  C238  1  0.794400  0.603900  0.966400  1.0  0.7168
  C  C239  1  0.738400  0.676700  0.967800  1.0  -0.1335
  C  C240  1  0.791400  0.727700  0.003700  1.0  -0.0064
  C  C241  1  0.741600  0.795100  0.006400  1.0  -0.0567
  C  C242  1  0.635900  0.808900  0.973500  1.0  -0.124
  C  C243  1  0.583300  0.757200  0.938300  1.0  -0.0362
  C  C244  1  0.633000  0.691000  0.934700  1.0  -0.083
  C  C245  1  0.579100  0.881000  0.975700  1.0  0.6843
  C  C246  1  0.175800  0.967300  0.852100  1.0  0.6882
  C  C247  1  0.085000  0.967200  0.799100  1.0  -0.0632
  C  C248  1  0.040300  0.026200  0.774600  1.0  -0.1236
  C  C249  1  0.042700  0.904900  0.774900  1.0  -0.0675
  C  C250  1  0.751900  0.852400  0.477600  1.0  0.1848
  C  C251  1  0.825500  0.818000  0.443200  1.0  -0.2032
  C  C252  1  0.914800  0.855200  0.421000  1.0  0.1091
  C  C253  1  0.924600  0.925000  0.435100  1.0  -0.2301
  C  C254  1  0.847900  0.956200  0.468900  1.0  0.1765
  C  C255  1  0.998500  0.822200  0.384700  1.0  -0.1039
  C  C256  1  0.997900  0.756900  0.366300  1.0  -0.1013
  C  C257  1  0.080400  0.725200  0.328700  1.0  0.015
  C  C258  1  0.083400  0.653000  0.323200  1.0  -0.1045
  C  C259  1  0.157400  0.620000  0.288200  1.0  -0.0892
  C  C260  1  0.228500  0.659500  0.256600  1.0  -0.0461
  C  C261  1  0.227800  0.731500  0.261000  1.0  0.0461
  C  C262  1  0.153300  0.763900  0.297400  1.0  -0.136
  C  C263  1  0.304100  0.772300  0.225900  1.0  -0.0951
  C  C264  1  0.303900  0.840800  0.216300  1.0  -0.0904
  C  C265  1  0.381500  0.880700  0.182000  1.0  0.1469
  C  C266  1  0.360800  0.951100  0.169400  1.0  -0.238
  C  C267  1  0.432200  0.988200  0.136300  1.0  0.1766
  C  C268  1  0.545300  0.892700  0.126700  1.0  0.1841
  C  C269  1  0.477400  0.851600  0.159800  1.0  -0.2138
  C  C270  1  0.120500  0.364100  0.444300  1.0  0.1263
  C  C271  1  0.198200  0.326700  0.405600  1.0  -0.1414
  C  C272  1  0.261700  0.363500  0.370600  1.0  0.0252
  C  C273  1  0.253400  0.432900  0.372900  1.0  -0.1972
  C  C274  1  0.183600  0.465100  0.409100  1.0  0.1924
  C  C275  1  0.340600  0.326200  0.331000  1.0  -0.0744
  C  C276  1  0.349800  0.264200  0.321700  1.0  -0.0881
  C  C277  1  0.427100  0.230100  0.284600  1.0  0.0596
  C  C278  1  0.429300  0.157000  0.283800  1.0  -0.2057
  C  C279  1  0.205600  0.603900  0.533600  1.0  0.718
  C  C280  1  0.261600  0.676700  0.532200  1.0  -0.1339
  C  C281  1  0.208600  0.727700  0.496300  1.0  -0.0067
  C  C282  1  0.258400  0.795100  0.493600  1.0  -0.0565
  C  C283  1  0.364100  0.808900  0.526500  1.0  -0.1247
  C  C284  1  0.416700  0.757200  0.561700  1.0  -0.0369
  C  C285  1  0.367000  0.691000  0.565300  1.0  -0.083
  C  C286  1  0.420900  0.881000  0.524300  1.0  0.6836
  C  C287  1  0.824200  0.967300  0.647900  1.0  0.6893
  C  C288  1  0.915000  0.967200  0.700900  1.0  -0.0654
  C  C289  1  0.959700  0.026200  0.725400  1.0  -0.1235
  C  C290  1  0.957300  0.904900  0.725100  1.0  -0.0664
  C  C291  1  0.500000  0.733400  0.750000  1.0  -0.0925
  C  C292  1  0.500000  0.877600  0.750000  1.0  -0.0815
  C  C293  1  0.500000  0.266600  0.250000  1.0  -0.0959
  C  C294  1  0.500000  0.122400  0.250000  1.0  -0.081
  N  N295  1  0.761700  0.078800  0.991110  1.0  -0.3602
  N  N296  1  0.524200  0.039600  0.613940  1.0  -0.3375
  N  N297  1  0.116600  0.566300  0.944000  1.0  -0.3742
  N  N298  1  0.238300  0.078800  0.508890  1.0  -0.3637
  N  N299  1  0.475800  0.039600  0.886060  1.0  -0.337
  N  N300  1  0.883400  0.566300  0.556000  1.0  -0.3717
  N  N301  1  0.238300  0.921200  0.008890  1.0  -0.3625
  N  N302  1  0.475800  0.960400  0.386060  1.0  -0.3379
  N  N303  1  0.883400  0.433700  0.056000  1.0  -0.3706
  N  N304  1  0.761700  0.921200  0.491110  1.0  -0.3606
  N  N305  1  0.524200  0.960400  0.113940  1.0  -0.337
  N  N306  1  0.116600  0.433700  0.444000  1.0  -0.3736
  O  O307  1  0.248900  0.438600  0.071700  1.0  -0.5183
  O  O308  1  0.116100  0.406100  0.998500  1.0  -0.5893
  O  O309  1  0.358500  0.069030  0.003170  1.0  -0.6655
  O  O310  1  0.525400  0.115640  0.045690  1.0  -0.6145
  O  O311  1  0.807600  0.976200  0.119370  1.0  -0.6227
  O  O312  1  0.765600  0.086200  0.134250  1.0  -0.6341
  O  O313  1  0.751100  0.438600  0.428300  1.0  -0.5164
  O  O314  1  0.883900  0.406100  0.501500  1.0  -0.5896
  O  O315  1  0.641500  0.069030  0.496830  1.0  -0.6645
  O  O316  1  0.474600  0.115640  0.454310  1.0  -0.6146
  O  O317  1  0.192400  0.976200  0.380630  1.0  -0.6236
  O  O318  1  0.234400  0.086200  0.365750  1.0  -0.6352
  O  O319  1  0.751100  0.561400  0.928300  1.0  -0.5171
  O  O320  1  0.883900  0.593900  0.001500  1.0  -0.5892
  O  O321  1  0.641500  0.930970  0.996830  1.0  -0.6641
  O  O322  1  0.474600  0.884360  0.954310  1.0  -0.6144
  O  O323  1  0.192400  0.023800  0.880630  1.0  -0.6231
  O  O324  1  0.234400  0.913800  0.865750  1.0  -0.6337
  O  O325  1  0.248900  0.561400  0.571700  1.0  -0.5176
  O  O326  1  0.116100  0.593900  0.498500  1.0  -0.5896
  O  O327  1  0.358500  0.930970  0.503170  1.0  -0.6651
  O  O328  1  0.525400  0.884360  0.545690  1.0  -0.6143
  O  O329  1  0.807600  0.023800  0.619370  1.0  -0.6234
  O  O330  1  0.765600  0.913800  0.634250  1.0  -0.6345
