# generated using pymatgen
data_Sr2H16C10N2O9
_symmetry_space_group_name_H-M   'P 1'
_cell_length_a   17.75800000
_cell_length_b   8.28100000
_cell_length_c   13.99300000
_cell_angle_alpha   90.00000000
_cell_angle_beta   107.21000000
_cell_angle_gamma   90.00000000
_symmetry_Int_Tables_number   1
_chemical_formula_structural   Sr2H16C10N2O9
_chemical_formula_sum   'Sr8 H64 C40 N8 O36'
_cell_volume   1965.59545959
_cell_formula_units_Z   4
loop_
 _symmetry_equiv_pos_site_id
 _symmetry_equiv_pos_as_xyz
  1  'x, y, z'
loop_
 _atom_site_type_symbol
 _atom_site_label
 _atom_site_symmetry_multiplicity
 _atom_site_fract_x
 _atom_site_fract_y
 _atom_site_fract_z
 _atom_site_occupancy
 _atom_site_charge
  Sr  Sr1  1  0.066640  0.904970  0.157040  1.0  1.5563
  Sr  Sr2  1  0.566640  0.404970  0.157040  1.0  1.5563
  Sr  Sr3  1  0.933360  0.904970  0.342960  1.0  1.5566
  Sr  Sr4  1  0.433360  0.404970  0.342960  1.0  1.5566
  Sr  Sr5  1  0.933360  0.095030  0.842960  1.0  1.5561
  Sr  Sr6  1  0.433360  0.595030  0.842960  1.0  1.5561
  Sr  Sr7  1  0.066640  0.095030  0.657040  1.0  1.5549
  Sr  Sr8  1  0.566640  0.595030  0.657040  1.0  1.5549
  H  H9  1  0.290000  0.373400  0.147700  1.0  0.1161
  H  H10  1  0.160700  0.413700  0.150600  1.0  0.0351
  H  H11  1  0.157500  0.561200  0.079200  1.0  0.0352
  H  H12  1  0.290700  0.648000  0.078400  1.0  0.022
  H  H13  1  0.272800  0.546900  0.979400  1.0  0.0246
  H  H14  1  0.177200  0.333100  0.965500  1.0  0.0275
  H  H15  1  0.196100  0.206100  0.052700  1.0  0.0164
  H  H16  1  0.961600  0.612600  0.241100  1.0  0.418
  H  H17  1  0.790000  0.873400  0.147700  1.0  0.1161
  H  H18  1  0.660700  0.913700  0.150600  1.0  0.0351
  H  H19  1  0.657500  0.061200  0.079200  1.0  0.0352
  H  H20  1  0.790700  0.148000  0.078400  1.0  0.022
  H  H21  1  0.772800  0.046900  0.979400  1.0  0.0246
  H  H22  1  0.677200  0.833100  0.965500  1.0  0.0275
  H  H23  1  0.696100  0.706100  0.052700  1.0  0.0164
  H  H24  1  0.461600  0.112600  0.241100  1.0  0.418
  H  H25  1  0.710000  0.373400  0.352300  1.0  0.1146
  H  H26  1  0.839300  0.413700  0.349400  1.0  0.0337
  H  H27  1  0.842500  0.561200  0.420800  1.0  0.0334
  H  H28  1  0.709300  0.648000  0.421600  1.0  0.0231
  H  H29  1  0.727200  0.546900  0.520600  1.0  0.0246
  H  H30  1  0.822800  0.333100  0.534500  1.0  0.0269
  H  H31  1  0.803900  0.206100  0.447300  1.0  0.0149
  H  H32  1  0.038400  0.612600  0.258900  1.0  0.4175
  H  H33  1  0.210000  0.873400  0.352300  1.0  0.1146
  H  H34  1  0.339300  0.913700  0.349400  1.0  0.0337
  H  H35  1  0.342500  0.061200  0.420800  1.0  0.0334
  H  H36  1  0.209300  0.148000  0.421600  1.0  0.0231
  H  H37  1  0.227200  0.046900  0.520600  1.0  0.0246
  H  H38  1  0.322800  0.833100  0.534500  1.0  0.0269
  H  H39  1  0.303900  0.706100  0.447300  1.0  0.0149
  H  H40  1  0.538400  0.112600  0.258900  1.0  0.4175
  H  H41  1  0.710000  0.626600  0.852300  1.0  0.1157
  H  H42  1  0.839300  0.586300  0.849400  1.0  0.0339
  H  H43  1  0.842500  0.438800  0.920800  1.0  0.0327
  H  H44  1  0.709300  0.352000  0.921600  1.0  0.0232
  H  H45  1  0.727200  0.453100  0.020600  1.0  0.0253
  H  H46  1  0.822800  0.666900  0.034500  1.0  0.0271
  H  H47  1  0.803900  0.793900  0.947300  1.0  0.0161
  H  H48  1  0.038400  0.387400  0.758900  1.0  0.4178
  H  H49  1  0.210000  0.126600  0.852300  1.0  0.1157
  H  H50  1  0.339300  0.086300  0.849400  1.0  0.0339
  H  H51  1  0.342500  0.938800  0.920800  1.0  0.0327
  H  H52  1  0.209300  0.852000  0.921600  1.0  0.0232
  H  H53  1  0.227200  0.953100  0.020600  1.0  0.0253
  H  H54  1  0.322800  0.166900  0.034500  1.0  0.0271
  H  H55  1  0.303900  0.293900  0.947300  1.0  0.0161
  H  H56  1  0.538400  0.887400  0.758900  1.0  0.4178
  H  H57  1  0.290000  0.626600  0.647700  1.0  0.1165
  H  H58  1  0.160700  0.586300  0.650600  1.0  0.0349
  H  H59  1  0.157500  0.438800  0.579200  1.0  0.0341
  H  H60  1  0.290700  0.352000  0.578400  1.0  0.0245
  H  H61  1  0.272800  0.453100  0.479400  1.0  0.0247
  H  H62  1  0.177200  0.666900  0.465500  1.0  0.0272
  H  H63  1  0.196100  0.793900  0.552700  1.0  0.0153
  H  H64  1  0.961600  0.387400  0.741100  1.0  0.4185
  H  H65  1  0.790000  0.126600  0.647700  1.0  0.1165
  H  H66  1  0.660700  0.086300  0.650600  1.0  0.0349
  H  H67  1  0.657500  0.938800  0.579200  1.0  0.0341
  H  H68  1  0.790700  0.852000  0.578400  1.0  0.0245
  H  H69  1  0.772800  0.953100  0.479400  1.0  0.0247
  H  H70  1  0.677200  0.166900  0.465500  1.0  0.0272
  H  H71  1  0.696100  0.293900  0.552700  1.0  0.0153
  H  H72  1  0.461600  0.887400  0.741100  1.0  0.4185
  C  C73  1  0.192160  0.497300  0.132300  1.0  -0.1553
  C  C74  1  0.227690  0.605500  0.222900  1.0  0.6881
  C  C75  1  0.296620  0.542500  0.051300  1.0  -0.1585
  C  C76  1  0.383720  0.504800  0.073700  1.0  0.6649
  C  C77  1  0.219020  0.288300  0.020400  1.0  -0.1365
  C  C78  1  0.692160  0.997300  0.132300  1.0  -0.1553
  C  C79  1  0.727690  0.105500  0.222900  1.0  0.6881
  C  C80  1  0.796620  0.042500  0.051300  1.0  -0.1585
  C  C81  1  0.883720  0.004800  0.073700  1.0  0.6649
  C  C82  1  0.719020  0.788300  0.020400  1.0  -0.1365
  C  C83  1  0.807840  0.497300  0.367700  1.0  -0.1546
  C  C84  1  0.772310  0.605500  0.277100  1.0  0.6897
  C  C85  1  0.703380  0.542500  0.448700  1.0  -0.1608
  C  C86  1  0.616280  0.504800  0.426300  1.0  0.6679
  C  C87  1  0.780980  0.288300  0.479600  1.0  -0.1367
  C  C88  1  0.307840  0.997300  0.367700  1.0  -0.1546
  C  C89  1  0.272310  0.105500  0.277100  1.0  0.6897
  C  C90  1  0.203380  0.042500  0.448700  1.0  -0.1608
  C  C91  1  0.116280  0.004800  0.426300  1.0  0.6679
  C  C92  1  0.280980  0.788300  0.479600  1.0  -0.1367
  C  C93  1  0.807840  0.502700  0.867700  1.0  -0.155
  C  C94  1  0.772310  0.394500  0.777100  1.0  0.6893
  C  C95  1  0.703380  0.457500  0.948700  1.0  -0.1618
  C  C96  1  0.616280  0.495200  0.926300  1.0  0.6658
  C  C97  1  0.780980  0.711700  0.979600  1.0  -0.136
  C  C98  1  0.307840  0.002700  0.867700  1.0  -0.155
  C  C99  1  0.272310  0.894500  0.777100  1.0  0.6893
  C  C100  1  0.203380  0.957500  0.948700  1.0  -0.1618
  C  C101  1  0.116280  0.995200  0.926300  1.0  0.6658
  C  C102  1  0.280980  0.211700  0.979600  1.0  -0.136
  C  C103  1  0.192160  0.502700  0.632300  1.0  -0.1531
  C  C104  1  0.227690  0.394500  0.722900  1.0  0.6879
  C  C105  1  0.296620  0.457500  0.551300  1.0  -0.1599
  C  C106  1  0.383720  0.495200  0.573700  1.0  0.6649
  C  C107  1  0.219020  0.711700  0.520400  1.0  -0.136
  C  C108  1  0.692160  0.002700  0.632300  1.0  -0.1531
  C  C109  1  0.727690  0.894500  0.722900  1.0  0.6879
  C  C110  1  0.796620  0.957500  0.551300  1.0  -0.1599
  C  C111  1  0.883720  0.995200  0.573700  1.0  0.6649
  C  C112  1  0.719020  0.211700  0.520400  1.0  -0.136
  N  N113  1  0.254120  0.420000  0.094580  1.0  0.0858
  N  N114  1  0.754120  0.920000  0.094580  1.0  0.0858
  N  N115  1  0.745880  0.420000  0.405420  1.0  0.0902
  N  N116  1  0.245880  0.920000  0.405420  1.0  0.0902
  N  N117  1  0.745880  0.580000  0.905420  1.0  0.0908
  N  N118  1  0.245880  0.080000  0.905420  1.0  0.0908
  N  N119  1  0.254120  0.580000  0.594580  1.0  0.0871
  N  N120  1  0.754120  0.080000  0.594580  1.0  0.0871
  O  O121  1  0.182510  0.714600  0.236330  1.0  -0.6504
  O  O122  1  0.296090  0.577900  0.276200  1.0  -0.681
  O  O123  1  0.417520  0.444900  0.158270  1.0  -0.7239
  O  O124  1  0.416210  0.537000  0.009320  1.0  -0.7342
  O  O125  1  0.682510  0.214600  0.236330  1.0  -0.6504
  O  O126  1  0.796090  0.077900  0.276200  1.0  -0.681
  O  O127  1  0.917520  0.944900  0.158270  1.0  -0.7239
  O  O128  1  0.916210  0.037000  0.009320  1.0  -0.7342
  O  O129  1  0.817490  0.714600  0.263670  1.0  -0.6495
  O  O130  1  0.703910  0.577900  0.223800  1.0  -0.6791
  O  O131  1  0.582480  0.444900  0.341730  1.0  -0.7263
  O  O132  1  0.583790  0.537000  0.490680  1.0  -0.7325
  O  O133  1  0.317490  0.214600  0.263670  1.0  -0.6494
  O  O134  1  0.203910  0.077900  0.223800  1.0  -0.6791
  O  O135  1  0.082480  0.944900  0.341730  1.0  -0.7263
  O  O136  1  0.083790  0.037000  0.490680  1.0  -0.7325
  O  O137  1  0.817490  0.285400  0.763670  1.0  -0.649
  O  O138  1  0.703910  0.422100  0.723800  1.0  -0.6802
  O  O139  1  0.582480  0.555100  0.841730  1.0  -0.7257
  O  O140  1  0.583790  0.463000  0.990680  1.0  -0.7319
  O  O141  1  0.317490  0.785400  0.763670  1.0  -0.649
  O  O142  1  0.203910  0.922100  0.723800  1.0  -0.6802
  O  O143  1  0.082480  0.055100  0.841730  1.0  -0.7257
  O  O144  1  0.083790  0.963000  0.990680  1.0  -0.7319
  O  O145  1  0.182510  0.285400  0.736330  1.0  -0.6507
  O  O146  1  0.296090  0.422100  0.776200  1.0  -0.6807
  O  O147  1  0.417520  0.555100  0.658270  1.0  -0.7231
  O  O148  1  0.416210  0.463000  0.509320  1.0  -0.735
  O  O149  1  0.682510  0.785400  0.736330  1.0  -0.6506
  O  O150  1  0.796090  0.922100  0.776200  1.0  -0.6807
  O  O151  1  0.917520  0.055100  0.658270  1.0  -0.7231
  O  O152  1  0.916210  0.963000  0.509320  1.0  -0.735
  O  O153  1  0.000000  0.677900  0.250000  1.0  -0.9045
  O  O154  1  0.500000  0.177900  0.250000  1.0  -0.9045
  O  O155  1  0.000000  0.322100  0.750000  1.0  -0.9054
  O  O156  1  0.500000  0.822100  0.750000  1.0  -0.9054
