# generated using pymatgen
data_P4H12Pb3C12(NO6)2
_symmetry_space_group_name_H-M   'P 1'
_cell_length_a   10.35150000
_cell_length_b   21.37760000
_cell_length_c   21.37760000
_cell_angle_alpha   62.55340000
_cell_angle_beta   80.71140000
_cell_angle_gamma   99.28860000
_symmetry_Int_Tables_number   1
_chemical_formula_structural   P4H12Pb3C12(NO6)2
_chemical_formula_sum   'P24 H72 Pb18 C72 N12 O72'
_cell_volume   3990.13267700
_cell_formula_units_Z   6
loop_
 _symmetry_equiv_pos_site_id
 _symmetry_equiv_pos_as_xyz
  1  'x, y, z'
loop_
 _atom_site_type_symbol
 _atom_site_label
 _atom_site_symmetry_multiplicity
 _atom_site_fract_x
 _atom_site_fract_y
 _atom_site_fract_z
 _atom_site_occupancy
 _atom_site_charge
  P  P1  1  0.469190  0.598210  0.943140  1.0  1.5815
  P  P2  1  0.498980  0.781940  0.724600  1.0  1.6579
  P  P3  1  0.031730  0.434480  0.964090  1.0  1.5958
  P  P4  1  0.303170  0.545440  0.722730  1.0  1.449
  P  P5  1  0.412330  0.943140  0.458650  1.0  1.5825
  P  P6  1  0.223580  0.724600  0.493460  1.0  1.6585
  P  P7  1  0.995820  0.964090  0.601430  1.0  1.5938
  P  P8  1  0.025900  0.722730  0.731830  1.0  1.4474
  P  P9  1  0.870980  0.458650  0.598210  1.0  1.5818
  P  P10  1  0.717040  0.493460  0.781940  1.0  1.6549
  P  P11  1  0.597250  0.601430  0.434480  1.0  1.593
  P  P12  1  0.757730  0.731830  0.545440  1.0  1.4494
  P  P13  1  0.530810  0.401790  0.056860  1.0  1.5803
  P  P14  1  0.501020  0.218060  0.275400  1.0  1.6578
  P  P15  1  0.968270  0.565520  0.035910  1.0  1.5961
  P  P16  1  0.696830  0.454560  0.277270  1.0  1.4491
  P  P17  1  0.587670  0.056860  0.541350  1.0  1.5824
  P  P18  1  0.776420  0.275400  0.506540  1.0  1.6549
  P  P19  1  0.004180  0.035910  0.398570  1.0  1.5935
  P  P20  1  0.974100  0.277270  0.268170  1.0  1.4464
  P  P21  1  0.129020  0.541350  0.401790  1.0  1.5829
  P  P22  1  0.282960  0.506540  0.218060  1.0  1.6561
  P  P23  1  0.402750  0.398570  0.565520  1.0  1.5934
  P  P24  1  0.242270  0.268170  0.454560  1.0  1.45
  H  H25  1  0.493300  0.830600  0.802000  1.0  0.183
  H  H26  1  0.347600  0.811000  0.793200  1.0  0.1927
  H  H27  1  0.535900  0.716600  0.924400  1.0  0.1685
  H  H28  1  0.577300  0.718300  0.849900  1.0  0.1723
  H  H29  1  0.223800  0.739700  0.928000  1.0  0.1803
  H  H30  1  0.302000  0.693700  0.981000  1.0  0.1786
  H  H31  1  0.038400  0.334000  0.948900  1.0  0.1995
  H  H32  1  0.957600  0.381400  0.898200  1.0  0.1831
  H  H33  1  0.082000  0.499300  0.805500  1.0  0.1893
  H  H34  1  0.092300  0.455700  0.763700  1.0  0.1672
  H  H35  1  0.263900  0.381500  0.790600  1.0  0.1712
  H  H36  1  0.221100  0.323600  0.874000  1.0  0.1659
  H  H37  1  0.295300  0.802000  0.367400  1.0  0.1842
  H  H38  1  0.140800  0.793200  0.395800  1.0  0.1899
  H  H39  1  0.460300  0.924400  0.359000  1.0  0.1693
  H  H40  1  0.427200  0.849900  0.431800  1.0  0.1726
  H  H41  1  0.151800  0.928000  0.332300  1.0  0.1824
  H  H42  1  0.283000  0.981000  0.325300  1.0  0.1777
  H  H43  1  0.987300  0.948900  0.717100  1.0  0.1974
  H  H44  1  0.855800  0.898200  0.720400  1.0  0.1824
  H  H45  1  0.887500  0.805500  0.695200  1.0  0.188
  H  H46  1  0.856000  0.763700  0.780600  1.0  0.1679
  H  H47  1  0.054500  0.790600  0.827900  1.0  0.172
  H  H48  1  0.095100  0.874000  0.802400  1.0  0.1647
  H  H49  1  0.662700  0.367400  0.830600  1.0  0.185
  H  H50  1  0.536600  0.395800  0.811000  1.0  0.1957
  H  H51  1  0.819300  0.359000  0.716600  1.0  0.1709
  H  H52  1  0.859000  0.431800  0.718300  1.0  0.1721
  H  H53  1  0.484100  0.332300  0.739700  1.0  0.1834
  H  H54  1  0.608300  0.325300  0.693700  1.0  0.1791
  H  H55  1  0.704400  0.717100  0.334000  1.0  0.197
  H  H56  1  0.576200  0.720400  0.381400  1.0  0.1852
  H  H57  1  0.582700  0.695200  0.499300  1.0  0.19
  H  H58  1  0.636600  0.780600  0.455700  1.0  0.1676
  H  H59  1  0.882400  0.827900  0.381500  1.0  0.1738
  H  H60  1  0.897500  0.802400  0.323600  1.0  0.1649
  H  H61  1  0.506700  0.169400  0.198000  1.0  0.1832
  H  H62  1  0.652400  0.189000  0.206800  1.0  0.1937
  H  H63  1  0.464100  0.283400  0.075600  1.0  0.1696
  H  H64  1  0.422700  0.281700  0.150100  1.0  0.1735
  H  H65  1  0.776200  0.260300  0.072000  1.0  0.1768
  H  H66  1  0.698000  0.306300  0.019000  1.0  0.1804
  H  H67  1  0.961600  0.666000  0.051100  1.0  0.1997
  H  H68  1  0.042400  0.618600  0.101800  1.0  0.1832
  H  H69  1  0.918000  0.500700  0.194500  1.0  0.189
  H  H70  1  0.907700  0.544300  0.236300  1.0  0.1662
  H  H71  1  0.736100  0.618500  0.209400  1.0  0.1709
  H  H72  1  0.778900  0.676400  0.126000  1.0  0.1657
  H  H73  1  0.704700  0.198000  0.632600  1.0  0.1838
  H  H74  1  0.859200  0.206800  0.604200  1.0  0.1925
  H  H75  1  0.539700  0.075600  0.641000  1.0  0.1695
  H  H76  1  0.572800  0.150100  0.568200  1.0  0.1735
  H  H77  1  0.848200  0.072000  0.667700  1.0  0.1824
  H  H78  1  0.717000  0.019000  0.674700  1.0  0.1782
  H  H79  1  0.012700  0.051100  0.282900  1.0  0.1967
  H  H80  1  0.144200  0.101800  0.279600  1.0  0.1793
  H  H81  1  0.112500  0.194500  0.304800  1.0  0.1883
  H  H82  1  0.144000  0.236300  0.219400  1.0  0.1671
  H  H83  1  0.945500  0.209400  0.172100  1.0  0.1721
  H  H84  1  0.904900  0.126000  0.197600  1.0  0.1658
  H  H85  1  0.337300  0.632600  0.169400  1.0  0.1851
  H  H86  1  0.463400  0.604200  0.189000  1.0  0.1963
  H  H87  1  0.180700  0.641000  0.283400  1.0  0.1715
  H  H88  1  0.141000  0.568200  0.281700  1.0  0.1724
  H  H89  1  0.515900  0.667700  0.260300  1.0  0.1815
  H  H90  1  0.391700  0.674700  0.306300  1.0  0.1798
  H  H91  1  0.295600  0.282900  0.666000  1.0  0.197
  H  H92  1  0.423800  0.279600  0.618600  1.0  0.1817
  H  H93  1  0.417300  0.304800  0.500700  1.0  0.1884
  H  H94  1  0.363400  0.219400  0.544300  1.0  0.1671
  H  H95  1  0.117600  0.172100  0.618500  1.0  0.1728
  H  H96  1  0.102500  0.197600  0.676400  1.0  0.1675
  Pb  Pb97  1  0.385810  0.458590  0.900480  1.0  1.1116
  Pb  Pb98  1  0.789010  0.544960  0.910890  1.0  1.0517
  Pb  Pb99  1  0.201110  0.618600  0.864020  1.0  1.0178
  Pb  Pb100  1  0.286290  0.900480  0.640930  1.0  1.1122
  Pb  Pb101  1  0.699900  0.910890  0.544150  1.0  1.0497
  Pb  Pb102  1  0.065130  0.864020  0.517380  1.0  1.0161
  Pb  Pb103  1  0.927220  0.640930  0.458590  1.0  1.112
  Pb  Pb104  1  0.244050  0.544150  0.544960  1.0  1.0501
  Pb  Pb105  1  0.582510  0.517380  0.618600  1.0  1.0149
  Pb  Pb106  1  0.614190  0.541410  0.099520  1.0  1.1115
  Pb  Pb107  1  0.210990  0.455040  0.089110  1.0  1.0516
  Pb  Pb108  1  0.798890  0.381400  0.135980  1.0  1.0183
  Pb  Pb109  1  0.713710  0.099520  0.359070  1.0  1.1116
  Pb  Pb110  1  0.300100  0.089110  0.455850  1.0  1.0508
  Pb  Pb111  1  0.934870  0.135980  0.482620  1.0  1.0144
  Pb  Pb112  1  0.072780  0.359070  0.541410  1.0  1.1122
  Pb  Pb113  1  0.755950  0.455850  0.455040  1.0  1.0491
  Pb  Pb114  1  0.417490  0.482620  0.381400  1.0  1.0148
  C  C115  1  0.427000  0.793300  0.801300  1.0  -0.4009
  C  C116  1  0.504500  0.698500  0.894000  1.0  -0.4545
  C  C117  1  0.313900  0.737100  0.934400  1.0  -0.1717
  C  C118  1  0.374700  0.802200  0.940100  1.0  0.3552
  C  C119  1  0.301600  0.853200  0.913400  1.0  -0.0008
  C  C120  1  0.476500  0.810000  0.954500  1.0  0.0718
  C  C121  1  0.038600  0.383800  0.915000  1.0  -0.4385
  C  C122  1  0.139900  0.475000  0.789300  1.0  -0.4118
  C  C123  1  0.189600  0.357400  0.834600  1.0  -0.0762
  C  C124  1  0.075600  0.313300  0.823500  1.0  0.0754
  C  C125  1  0.113600  0.336200  0.744400  1.0  -0.0501
  C  C126  1  0.114900  0.240800  0.852100  1.0  -0.0185
  C  C127  1  0.228300  0.801300  0.405400  1.0  -0.412
  C  C128  1  0.398500  0.894000  0.407500  1.0  -0.4684
  C  C129  1  0.248300  0.934400  0.328500  1.0  -0.1738
  C  C130  1  0.314800  0.940100  0.257700  1.0  0.3568
  C  C131  1  0.215000  0.913400  0.233400  1.0  -0.0091
  C  C132  1  0.431000  0.954500  0.235500  1.0  0.0749
  C  C133  1  0.953600  0.915000  0.701200  1.0  -0.4514
  C  C134  1  0.929200  0.789300  0.735700  1.0  -0.4138
  C  C135  1  0.024200  0.834600  0.808000  1.0  -0.0779
  C  C136  1  0.899100  0.823500  0.863200  1.0  0.0762
  C  C137  1  0.858000  0.744400  0.919400  1.0  -0.0535
  C  C138  1  0.967000  0.852100  0.907100  1.0  -0.0182
  C  C139  1  0.633700  0.405400  0.793300  1.0  -0.3996
  C  C140  1  0.806000  0.407500  0.698500  1.0  -0.4719
  C  C141  1  0.576800  0.328500  0.737100  1.0  -0.1776
  C  C142  1  0.572500  0.257700  0.802200  1.0  0.3507
  C  C143  1  0.448400  0.233400  0.853200  1.0  -0.0061
  C  C144  1  0.666500  0.235500  0.810000  1.0  0.0765
  C  C145  1  0.654800  0.701200  0.383800  1.0  -0.4367
  C  C146  1  0.664900  0.735700  0.475000  1.0  -0.4137
  C  C147  1  0.832200  0.808000  0.357400  1.0  -0.0781
  C  C148  1  0.762300  0.863200  0.313300  1.0  0.0822
  C  C149  1  0.777400  0.919400  0.336200  1.0  -0.0487
  C  C150  1  0.874100  0.907100  0.240800  1.0  -0.0126
  C  C151  1  0.573000  0.206700  0.198700  1.0  -0.4009
  C  C152  1  0.495500  0.301500  0.106000  1.0  -0.4555
  C  C153  1  0.686100  0.262900  0.065600  1.0  -0.1702
  C  C154  1  0.625300  0.197800  0.059900  1.0  0.3561
  C  C155  1  0.698400  0.146800  0.086600  1.0  -0.0022
  C  C156  1  0.523500  0.190000  0.045500  1.0  0.0748
  C  C157  1  0.961400  0.616200  0.085000  1.0  -0.4386
  C  C158  1  0.860100  0.525000  0.210700  1.0  -0.411
  C  C159  1  0.810400  0.642600  0.165400  1.0  -0.0772
  C  C160  1  0.924400  0.686700  0.176500  1.0  0.0781
  C  C161  1  0.886400  0.663800  0.255600  1.0  -0.0555
  C  C162  1  0.885100  0.759200  0.147900  1.0  -0.0165
  C  C163  1  0.771700  0.198700  0.594600  1.0  -0.4114
  C  C164  1  0.601500  0.106000  0.592500  1.0  -0.4664
  C  C165  1  0.751700  0.065600  0.671500  1.0  -0.1752
  C  C166  1  0.685200  0.059900  0.742300  1.0  0.3553
  C  C167  1  0.785000  0.086600  0.766600  1.0  -0.0176
  C  C168  1  0.569000  0.045500  0.764500  1.0  0.0801
  C  C169  1  0.046400  0.085000  0.298800  1.0  -0.4516
  C  C170  1  0.070800  0.210700  0.264300  1.0  -0.4109
  C  C171  1  0.975800  0.165400  0.192000  1.0  -0.0788
  C  C172  1  0.100900  0.176500  0.136800  1.0  0.0909
  C  C173  1  0.142000  0.255600  0.080600  1.0  -0.0499
  C  C174  1  0.033000  0.147900  0.092900  1.0  -0.0145
  C  C175  1  0.366300  0.594600  0.206700  1.0  -0.3991
  C  C176  1  0.194000  0.592500  0.301500  1.0  -0.4723
  C  C177  1  0.423200  0.671500  0.262900  1.0  -0.1793
  C  C178  1  0.427500  0.742300  0.197800  1.0  0.3544
  C  C179  1  0.551600  0.766600  0.146800  1.0  -0.0045
  C  C180  1  0.333500  0.764500  0.190000  1.0  0.0821
  C  C181  1  0.345200  0.298800  0.616200  1.0  -0.4372
  C  C182  1  0.335100  0.264300  0.525000  1.0  -0.4133
  C  C183  1  0.167800  0.192000  0.642600  1.0  -0.08
  C  C184  1  0.237700  0.136800  0.686700  1.0  0.083
  C  C185  1  0.222600  0.080600  0.663800  1.0  -0.0501
  C  C186  1  0.125900  0.092900  0.759200  1.0  -0.0126
  N  N187  1  0.388700  0.725400  0.874100  1.0  -0.1935
  N  N188  1  0.156300  0.414700  0.852900  1.0  -0.1781
  N  N189  1  0.262800  0.874100  0.400500  1.0  -0.1924
  N  N190  1  0.009200  0.852900  0.732400  1.0  -0.179
  N  N191  1  0.663300  0.400500  0.725400  1.0  -0.191
  N  N192  1  0.741600  0.732400  0.414700  1.0  -0.179
  N  N193  1  0.611300  0.274600  0.125900  1.0  -0.1905
  N  N194  1  0.843700  0.585300  0.147100  1.0  -0.1845
  N  N195  1  0.737200  0.125900  0.599500  1.0  -0.1917
  N  N196  1  0.990800  0.147100  0.267600  1.0  -0.1814
  N  N197  1  0.336700  0.599500  0.274600  1.0  -0.1897
  N  N198  1  0.258400  0.267600  0.585300  1.0  -0.1828
  O  O199  1  0.454300  0.575200  0.885600  1.0  -0.8344
  O  O200  1  0.589600  0.580600  0.974100  1.0  -0.8759
  O  O201  1  0.334400  0.569600  0.001200  1.0  -0.8604
  O  O202  1  0.416700  0.708800  0.736900  1.0  -0.7019
  O  O203  1  0.485300  0.844900  0.657000  1.0  -0.8795
  O  O204  1  0.644800  0.782100  0.720800  1.0  -0.6493
  O  O205  1  0.988000  0.503200  0.918900  1.0  -0.9162
  O  O206  1  0.177400  0.459000  0.968600  1.0  -0.9143
  O  O207  1  0.932000  0.381800  0.038100  1.0  -0.8794
  O  O208  1  0.251200  0.613000  0.678000  1.0  -0.5572
  O  O209  1  0.365500  0.514600  0.678000  1.0  -0.8913
  O  O210  1  0.389900  0.555900  0.771200  1.0  -0.7506
  O  O211  1  0.339900  0.885600  0.539200  1.0  -0.8354
  O  O212  1  0.563700  0.974100  0.445300  1.0  -0.8751
  O  O213  1  0.335600  0.001200  0.429200  1.0  -0.8585
  O  O214  1  0.153600  0.736900  0.554300  1.0  -0.6994
  O  O215  1  0.142300  0.657000  0.498100  1.0  -0.8773
  O  O216  1  0.365600  0.720800  0.497100  1.0  -0.6505
  O  O217  1  0.906900  0.918900  0.577900  1.0  -0.9167
  O  O218  1  0.146000  0.968600  0.572400  1.0  -0.9113
  O  O219  1  0.970100  0.038100  0.580100  1.0  -0.8776
  O  O220  1  0.929200  0.678000  0.709000  1.0  -0.5582
  O  O221  1  0.043500  0.678000  0.807400  1.0  -0.8877
  O  O222  1  0.161100  0.771200  0.672900  1.0  -0.749
  O  O223  1  0.879100  0.539200  0.575200  1.0  -0.836
  O  O224  1  0.009000  0.445300  0.580600  1.0  -0.8744
  O  O225  1  0.764800  0.429200  0.569600  1.0  -0.8621
  O  O226  1  0.707900  0.554300  0.708800  1.0  -0.6943
  O  O227  1  0.640400  0.498100  0.844900  1.0  -0.8786
  O  O228  1  0.862700  0.497100  0.782100  1.0  -0.651
  O  O229  1  0.484800  0.577900  0.503200  1.0  -0.9174
  O  O230  1  0.718400  0.572400  0.459000  1.0  -0.9111
  O  O231  1  0.550200  0.580100  0.381800  1.0  -0.8789
  O  O232  1  0.638200  0.709000  0.613000  1.0  -0.5598
  O  O233  1  0.850900  0.807400  0.514600  1.0  -0.8895
  O  O234  1  0.834000  0.672900  0.555900  1.0  -0.7534
  O  O235  1  0.545700  0.424800  0.114400  1.0  -0.8353
  O  O236  1  0.410400  0.419400  0.025900  1.0  -0.8774
  O  O237  1  0.665600  0.430400  0.998800  1.0  -0.8594
  O  O238  1  0.583300  0.291200  0.263100  1.0  -0.7005
  O  O239  1  0.514700  0.155100  0.343000  1.0  -0.879
  O  O240  1  0.355200  0.217900  0.279200  1.0  -0.6496
  O  O241  1  0.012000  0.496800  0.081100  1.0  -0.9135
  O  O242  1  0.822600  0.541000  0.031400  1.0  -0.915
  O  O243  1  0.068000  0.618200  0.961900  1.0  -0.8794
  O  O244  1  0.748800  0.387000  0.322000  1.0  -0.557
  O  O245  1  0.634500  0.485400  0.322000  1.0  -0.8887
  O  O246  1  0.610100  0.444100  0.228800  1.0  -0.7529
  O  O247  1  0.660100  0.114400  0.460800  1.0  -0.8356
  O  O248  1  0.436300  0.025900  0.554700  1.0  -0.8753
  O  O249  1  0.664400  0.998800  0.570800  1.0  -0.8588
  O  O250  1  0.846400  0.263100  0.445700  1.0  -0.6999
  O  O251  1  0.857700  0.343000  0.501900  1.0  -0.8784
  O  O252  1  0.634400  0.279200  0.502900  1.0  -0.6483
  O  O253  1  0.093100  0.081100  0.422100  1.0  -0.9176
  O  O254  1  0.854000  0.031400  0.427600  1.0  -0.9113
  O  O255  1  0.029900  0.961900  0.419900  1.0  -0.8761
  O  O256  1  0.070800  0.322000  0.291000  1.0  -0.5582
  O  O257  1  0.956500  0.322000  0.192600  1.0  -0.8882
  O  O258  1  0.838900  0.228800  0.327100  1.0  -0.7527
  O  O259  1  0.120900  0.460800  0.424800  1.0  -0.8361
  O  O260  1  0.991000  0.554700  0.419400  1.0  -0.8745
  O  O261  1  0.235200  0.570800  0.430400  1.0  -0.8626
  O  O262  1  0.292100  0.445700  0.291200  1.0  -0.6964
  O  O263  1  0.359600  0.501900  0.155100  1.0  -0.8775
  O  O264  1  0.137300  0.502900  0.217900  1.0  -0.6499
  O  O265  1  0.515200  0.422100  0.496800  1.0  -0.9168
  O  O266  1  0.281600  0.427600  0.541000  1.0  -0.9137
  O  O267  1  0.449800  0.419900  0.618200  1.0  -0.8795
  O  O268  1  0.361800  0.291000  0.387000  1.0  -0.5585
  O  O269  1  0.149100  0.192600  0.485400  1.0  -0.8892
  O  O270  1  0.166000  0.327100  0.444100  1.0  -0.7526
