# generated using pymatgen
data_Tb2ZnH12C32(NO4)4
_symmetry_space_group_name_H-M   'P 1'
_cell_length_a   13.36800000
_cell_length_b   23.92200000
_cell_length_c   13.09200000
_cell_angle_alpha   90.00000000
_cell_angle_beta   90.00000000
_cell_angle_gamma   90.00000000
_symmetry_Int_Tables_number   1
_chemical_formula_structural   Tb2ZnH12C32(NO4)4
_chemical_formula_sum   'Tb8 Zn4 H48 C128 N16 O64'
_cell_volume   4186.68146323
_cell_formula_units_Z   4
loop_
 _symmetry_equiv_pos_site_id
 _symmetry_equiv_pos_as_xyz
  1  'x, y, z'
loop_
 _atom_site_type_symbol
 _atom_site_label
 _atom_site_symmetry_multiplicity
 _atom_site_fract_x
 _atom_site_fract_y
 _atom_site_fract_z
 _atom_site_occupancy
 _atom_site_charge
  Tb  Tb1  1  0.057560  0.656500  0.610830  1.0  2.2187
  Tb  Tb2  1  0.557560  0.156500  0.110830  1.0  2.2187
  Tb  Tb3  1  0.942440  0.343500  0.610830  1.0  2.2181
  Tb  Tb4  1  0.442440  0.843500  0.110830  1.0  2.2181
  Tb  Tb5  1  0.557560  0.843500  0.610830  1.0  2.2187
  Tb  Tb6  1  0.057560  0.343500  0.110830  1.0  2.2187
  Tb  Tb7  1  0.442440  0.156500  0.610830  1.0  2.2184
  Tb  Tb8  1  0.942440  0.656500  0.110830  1.0  2.2184
  Zn  Zn9  1  0.000000  0.500000  0.609400  1.0  0.9928
  Zn  Zn10  1  0.500000  0.000000  0.109400  1.0  0.9928
  Zn  Zn11  1  0.500000  0.000000  0.609400  1.0  0.9922
  Zn  Zn12  1  0.000000  0.500000  0.109400  1.0  0.9922
  H  H13  1  0.683700  0.515600  0.572000  1.0  0.106
  H  H14  1  0.747600  0.678700  0.604000  1.0  0.0994
  H  H15  1  0.354900  0.555500  0.749100  1.0  0.1151
  H  H16  1  0.094000  0.491200  0.848500  1.0  0.1026
  H  H17  1  0.462000  0.629100  0.607100  1.0  0.1155
  H  H18  1  0.351300  0.413500  0.914800  1.0  0.1169
  H  H19  1  0.183700  0.015600  0.072000  1.0  0.106
  H  H20  1  0.247600  0.178700  0.104000  1.0  0.0994
  H  H21  1  0.854900  0.055500  0.249100  1.0  0.1151
  H  H22  1  0.594000  0.991200  0.348500  1.0  0.1026
  H  H23  1  0.962000  0.129100  0.107100  1.0  0.1155
  H  H24  1  0.851300  0.913500  0.414800  1.0  0.1169
  H  H25  1  0.316300  0.484400  0.572000  1.0  0.1058
  H  H26  1  0.252400  0.321300  0.604000  1.0  0.0991
  H  H27  1  0.645100  0.444500  0.749100  1.0  0.1113
  H  H28  1  0.906000  0.508800  0.848500  1.0  0.1029
  H  H29  1  0.538000  0.370900  0.607100  1.0  0.1162
  H  H30  1  0.648700  0.586500  0.914800  1.0  0.1164
  H  H31  1  0.816300  0.984400  0.072000  1.0  0.1058
  H  H32  1  0.752400  0.821300  0.104000  1.0  0.0991
  H  H33  1  0.145100  0.944500  0.249100  1.0  0.1113
  H  H34  1  0.406000  0.008800  0.348500  1.0  0.1029
  H  H35  1  0.038000  0.870900  0.107100  1.0  0.1162
  H  H36  1  0.148700  0.086500  0.414800  1.0  0.1164
  H  H37  1  0.183700  0.984400  0.572000  1.0  0.106
  H  H38  1  0.247600  0.821300  0.604000  1.0  0.0996
  H  H39  1  0.854900  0.944500  0.749100  1.0  0.1139
  H  H40  1  0.594000  0.008800  0.848500  1.0  0.1028
  H  H41  1  0.962000  0.870900  0.607100  1.0  0.1155
  H  H42  1  0.851300  0.086500  0.914800  1.0  0.1163
  H  H43  1  0.683700  0.484400  0.072000  1.0  0.106
  H  H44  1  0.747600  0.321300  0.104000  1.0  0.0996
  H  H45  1  0.354900  0.444500  0.249100  1.0  0.1139
  H  H46  1  0.094000  0.508800  0.348500  1.0  0.1028
  H  H47  1  0.462000  0.370900  0.107100  1.0  0.1155
  H  H48  1  0.351300  0.586500  0.414800  1.0  0.1163
  H  H49  1  0.816300  0.015600  0.572000  1.0  0.1056
  H  H50  1  0.752400  0.178700  0.604000  1.0  0.0994
  H  H51  1  0.145100  0.055500  0.749100  1.0  0.1127
  H  H52  1  0.406000  0.991200  0.848500  1.0  0.1028
  H  H53  1  0.038000  0.129100  0.607100  1.0  0.1162
  H  H54  1  0.148700  0.913500  0.914800  1.0  0.1168
  H  H55  1  0.316300  0.515600  0.072000  1.0  0.1056
  H  H56  1  0.252400  0.678700  0.104000  1.0  0.0994
  H  H57  1  0.645100  0.555500  0.249100  1.0  0.1127
  H  H58  1  0.906000  0.491200  0.348500  1.0  0.1028
  H  H59  1  0.538000  0.629100  0.107100  1.0  0.1162
  H  H60  1  0.648700  0.413500  0.414800  1.0  0.1168
  C  C61  1  0.157800  0.410800  0.965000  1.0  0.7207
  C  C62  1  0.573200  0.725000  0.611100  1.0  0.6757
  C  C63  1  0.601500  0.663500  0.601100  1.0  -0.1507
  C  C64  1  0.662800  0.552300  0.582000  1.0  -0.0462
  C  C65  1  0.732000  0.594500  0.593900  1.0  -0.1617
  C  C66  1  0.700300  0.650300  0.600300  1.0  0.0226
  C  C67  1  0.843600  0.583000  0.595600  1.0  0.6995
  C  C68  1  0.560600  0.565200  0.585100  1.0  0.1509
  C  C69  1  0.319800  0.527300  0.782500  1.0  -0.0419
  C  C70  1  0.163400  0.489200  0.845100  1.0  -0.0583
  C  C71  1  0.529500  0.620800  0.599200  1.0  -0.1022
  C  C72  1  0.216200  0.527600  0.784300  1.0  -0.127
  C  C73  1  0.213100  0.448500  0.899900  1.0  -0.1014
  C  C74  1  0.371000  0.483500  0.832100  1.0  0.194
  C  C75  1  0.317700  0.443800  0.886500  1.0  -0.1339
  C  C76  1  0.155900  0.571700  0.726100  1.0  0.6975
  C  C77  1  0.657800  0.910800  0.465000  1.0  0.7207
  C  C78  1  0.073200  0.225000  0.111100  1.0  0.6757
  C  C79  1  0.101500  0.163500  0.101100  1.0  -0.1507
  C  C80  1  0.162800  0.052300  0.082000  1.0  -0.0462
  C  C81  1  0.232000  0.094500  0.093900  1.0  -0.1617
  C  C82  1  0.200300  0.150300  0.100300  1.0  0.0226
  C  C83  1  0.343600  0.083000  0.095600  1.0  0.6995
  C  C84  1  0.060600  0.065200  0.085100  1.0  0.1509
  C  C85  1  0.819800  0.027300  0.282500  1.0  -0.0419
  C  C86  1  0.663400  0.989200  0.345100  1.0  -0.0583
  C  C87  1  0.029500  0.120800  0.099200  1.0  -0.1022
  C  C88  1  0.716200  0.027600  0.284300  1.0  -0.127
  C  C89  1  0.713100  0.948500  0.399900  1.0  -0.1014
  C  C90  1  0.871000  0.983500  0.332100  1.0  0.194
  C  C91  1  0.817700  0.943800  0.386500  1.0  -0.1339
  C  C92  1  0.655900  0.071700  0.226100  1.0  0.6975
  C  C93  1  0.842200  0.589200  0.965000  1.0  0.7207
  C  C94  1  0.426800  0.275000  0.611100  1.0  0.6754
  C  C95  1  0.398500  0.336500  0.601100  1.0  -0.1498
  C  C96  1  0.337200  0.447700  0.582000  1.0  -0.0477
  C  C97  1  0.268000  0.405500  0.593900  1.0  -0.1616
  C  C98  1  0.299700  0.349700  0.600300  1.0  0.0195
  C  C99  1  0.156400  0.417000  0.595600  1.0  0.7
  C  C100  1  0.439400  0.434800  0.585100  1.0  0.1499
  C  C101  1  0.680200  0.472700  0.782500  1.0  -0.0336
  C  C102  1  0.836600  0.510800  0.845100  1.0  -0.0575
  C  C103  1  0.470500  0.379200  0.599200  1.0  -0.0973
  C  C104  1  0.783800  0.472400  0.784300  1.0  -0.1268
  C  C105  1  0.786900  0.551500  0.899900  1.0  -0.1018
  C  C106  1  0.629000  0.516500  0.832100  1.0  0.1947
  C  C107  1  0.682300  0.556200  0.886500  1.0  -0.1342
  C  C108  1  0.844100  0.428300  0.726100  1.0  0.6984
  C  C109  1  0.342200  0.089200  0.465000  1.0  0.7207
  C  C110  1  0.926800  0.775000  0.111100  1.0  0.6754
  C  C111  1  0.898500  0.836500  0.101100  1.0  -0.1498
  C  C112  1  0.837200  0.947700  0.082000  1.0  -0.0477
  C  C113  1  0.768000  0.905500  0.093900  1.0  -0.1616
  C  C114  1  0.799700  0.849700  0.100300  1.0  0.0195
  C  C115  1  0.656400  0.917000  0.095600  1.0  0.7
  C  C116  1  0.939400  0.934800  0.085100  1.0  0.1499
  C  C117  1  0.180200  0.972700  0.282500  1.0  -0.0336
  C  C118  1  0.336600  0.010800  0.345100  1.0  -0.0575
  C  C119  1  0.970500  0.879200  0.099200  1.0  -0.0973
  C  C120  1  0.283800  0.972400  0.284300  1.0  -0.1268
  C  C121  1  0.286900  0.051500  0.399900  1.0  -0.1018
  C  C122  1  0.129000  0.016500  0.332100  1.0  0.1947
  C  C123  1  0.182300  0.056200  0.386500  1.0  -0.1342
  C  C124  1  0.344100  0.928300  0.226100  1.0  0.6984
  C  C125  1  0.657800  0.089200  0.965000  1.0  0.7211
  C  C126  1  0.073200  0.775000  0.611100  1.0  0.6761
  C  C127  1  0.101500  0.836500  0.601100  1.0  -0.1495
  C  C128  1  0.162800  0.947700  0.582000  1.0  -0.047
  C  C129  1  0.232000  0.905500  0.593900  1.0  -0.1613
  C  C130  1  0.200300  0.849700  0.600300  1.0  0.02
  C  C131  1  0.343600  0.917000  0.595600  1.0  0.6996
  C  C132  1  0.060600  0.934800  0.585100  1.0  0.1497
  C  C133  1  0.819800  0.972700  0.782500  1.0  -0.0427
  C  C134  1  0.663400  0.010800  0.845100  1.0  -0.058
  C  C135  1  0.029500  0.879200  0.599200  1.0  -0.1017
  C  C136  1  0.716200  0.972400  0.784300  1.0  -0.1272
  C  C137  1  0.713100  0.051500  0.899900  1.0  -0.1014
  C  C138  1  0.871000  0.016500  0.832100  1.0  0.1941
  C  C139  1  0.817700  0.056200  0.886500  1.0  -0.1329
  C  C140  1  0.655900  0.928300  0.726100  1.0  0.6982
  C  C141  1  0.157800  0.589200  0.465000  1.0  0.7211
  C  C142  1  0.573200  0.275000  0.111100  1.0  0.6761
  C  C143  1  0.601500  0.336500  0.101100  1.0  -0.1495
  C  C144  1  0.662800  0.447700  0.082000  1.0  -0.047
  C  C145  1  0.732000  0.405500  0.093900  1.0  -0.1613
  C  C146  1  0.700300  0.349700  0.100300  1.0  0.02
  C  C147  1  0.843600  0.417000  0.095600  1.0  0.6996
  C  C148  1  0.560600  0.434800  0.085100  1.0  0.1497
  C  C149  1  0.319800  0.472700  0.282500  1.0  -0.0427
  C  C150  1  0.163400  0.510800  0.345100  1.0  -0.058
  C  C151  1  0.529500  0.379200  0.099200  1.0  -0.1017
  C  C152  1  0.216200  0.472400  0.284300  1.0  -0.1272
  C  C153  1  0.213100  0.551500  0.399900  1.0  -0.1014
  C  C154  1  0.371000  0.516500  0.332100  1.0  0.1941
  C  C155  1  0.317700  0.556200  0.386500  1.0  -0.1329
  C  C156  1  0.155900  0.428300  0.226100  1.0  0.6982
  C  C157  1  0.342200  0.910800  0.965000  1.0  0.7204
  C  C158  1  0.926800  0.225000  0.611100  1.0  0.6755
  C  C159  1  0.898500  0.163500  0.601100  1.0  -0.1513
  C  C160  1  0.837200  0.052300  0.582000  1.0  -0.047
  C  C161  1  0.768000  0.094500  0.593900  1.0  -0.1619
  C  C162  1  0.799700  0.150300  0.600300  1.0  0.0222
  C  C163  1  0.656400  0.083000  0.595600  1.0  0.6996
  C  C164  1  0.939400  0.065200  0.585100  1.0  0.1511
  C  C165  1  0.180200  0.027300  0.782500  1.0  -0.0342
  C  C166  1  0.336600  0.989200  0.845100  1.0  -0.0578
  C  C167  1  0.970500  0.120800  0.599200  1.0  -0.0975
  C  C168  1  0.283800  0.027600  0.784300  1.0  -0.1271
  C  C169  1  0.286900  0.948500  0.899900  1.0  -0.1016
  C  C170  1  0.129000  0.983500  0.832100  1.0  0.1945
  C  C171  1  0.182300  0.943800  0.886500  1.0  -0.1343
  C  C172  1  0.344100  0.071700  0.726100  1.0  0.6982
  C  C173  1  0.842200  0.410800  0.465000  1.0  0.7204
  C  C174  1  0.426800  0.725000  0.111100  1.0  0.6755
  C  C175  1  0.398500  0.663500  0.101100  1.0  -0.1513
  C  C176  1  0.337200  0.552300  0.082000  1.0  -0.047
  C  C177  1  0.268000  0.594500  0.093900  1.0  -0.1619
  C  C178  1  0.299700  0.650300  0.100300  1.0  0.0222
  C  C179  1  0.156400  0.583000  0.095600  1.0  0.6996
  C  C180  1  0.439400  0.565200  0.085100  1.0  0.1511
  C  C181  1  0.680200  0.527300  0.282500  1.0  -0.0342
  C  C182  1  0.836600  0.489200  0.345100  1.0  -0.0578
  C  C183  1  0.470500  0.620800  0.099200  1.0  -0.0975
  C  C184  1  0.783800  0.527600  0.284300  1.0  -0.1271
  C  C185  1  0.786900  0.448500  0.399900  1.0  -0.1016
  C  C186  1  0.629000  0.483500  0.332100  1.0  0.1945
  C  C187  1  0.682300  0.443800  0.386500  1.0  -0.1343
  C  C188  1  0.844100  0.571700  0.226100  1.0  0.6982
  N  N189  1  0.476700  0.477800  0.830600  1.0  -0.2071
  N  N190  1  0.483100  0.524000  0.581100  1.0  -0.1973
  N  N191  1  0.976700  0.977800  0.330600  1.0  -0.2071
  N  N192  1  0.983100  0.024000  0.081100  1.0  -0.1973
  N  N193  1  0.523300  0.522200  0.830600  1.0  -0.2078
  N  N194  1  0.516900  0.476000  0.581100  1.0  -0.1973
  N  N195  1  0.023300  0.022200  0.330600  1.0  -0.2078
  N  N196  1  0.016900  0.976000  0.081100  1.0  -0.1973
  N  N197  1  0.976700  0.022200  0.830600  1.0  -0.2079
  N  N198  1  0.983100  0.976000  0.581100  1.0  -0.1975
  N  N199  1  0.476700  0.522200  0.330600  1.0  -0.2079
  N  N200  1  0.483100  0.476000  0.081100  1.0  -0.1975
  N  N201  1  0.023300  0.977800  0.830600  1.0  -0.2071
  N  N202  1  0.016900  0.024000  0.581100  1.0  -0.1977
  N  N203  1  0.523300  0.477800  0.330600  1.0  -0.2071
  N  N204  1  0.516900  0.524000  0.081100  1.0  -0.1977
  O  O205  1  0.070600  0.424700  0.997200  1.0  -0.7504
  O  O206  1  0.196400  0.364300  0.993300  1.0  -0.6314
  O  O207  1  0.869300  0.533400  0.584100  1.0  -0.6022
  O  O208  1  0.645000  0.759500  0.609200  1.0  -0.6097
  O  O209  1  0.483900  0.739900  0.618200  1.0  -0.6435
  O  O210  1  0.065700  0.561700  0.706300  1.0  -0.6781
  O  O211  1  0.195900  0.616000  0.704700  1.0  -0.6029
  O  O212  1  0.899100  0.623900  0.604900  1.0  -0.688
  O  O213  1  0.570600  0.924700  0.497200  1.0  -0.7504
  O  O214  1  0.696400  0.864300  0.493300  1.0  -0.6314
  O  O215  1  0.369300  0.033400  0.084100  1.0  -0.6022
  O  O216  1  0.145000  0.259500  0.109200  1.0  -0.6097
  O  O217  1  0.983900  0.239900  0.118200  1.0  -0.6435
  O  O218  1  0.565700  0.061700  0.206300  1.0  -0.6781
  O  O219  1  0.695900  0.116000  0.204700  1.0  -0.6029
  O  O220  1  0.399100  0.123900  0.104900  1.0  -0.688
  O  O221  1  0.929400  0.575300  0.997200  1.0  -0.7498
  O  O222  1  0.803600  0.635700  0.993300  1.0  -0.6293
  O  O223  1  0.130700  0.466600  0.584100  1.0  -0.6027
  O  O224  1  0.355000  0.240500  0.609200  1.0  -0.611
  O  O225  1  0.516100  0.260100  0.618200  1.0  -0.645
  O  O226  1  0.934300  0.438300  0.706300  1.0  -0.6776
  O  O227  1  0.804100  0.384000  0.704700  1.0  -0.6039
  O  O228  1  0.100900  0.376100  0.604900  1.0  -0.6879
  O  O229  1  0.429400  0.075300  0.497200  1.0  -0.7498
  O  O230  1  0.303600  0.135700  0.493300  1.0  -0.6292
  O  O231  1  0.630700  0.966600  0.084100  1.0  -0.6027
  O  O232  1  0.855000  0.740500  0.109200  1.0  -0.611
  O  O233  1  0.016100  0.760100  0.118200  1.0  -0.645
  O  O234  1  0.434300  0.938300  0.206300  1.0  -0.6776
  O  O235  1  0.304100  0.884000  0.204700  1.0  -0.6039
  O  O236  1  0.600900  0.876100  0.104900  1.0  -0.6879
  O  O237  1  0.570600  0.075300  0.997200  1.0  -0.7504
  O  O238  1  0.696400  0.135700  0.993300  1.0  -0.6299
  O  O239  1  0.369300  0.966600  0.584100  1.0  -0.6022
  O  O240  1  0.145000  0.740500  0.609200  1.0  -0.6107
  O  O241  1  0.983900  0.760100  0.618200  1.0  -0.6422
  O  O242  1  0.565700  0.938300  0.706300  1.0  -0.6775
  O  O243  1  0.695900  0.884000  0.704700  1.0  -0.6047
  O  O244  1  0.399100  0.876100  0.604900  1.0  -0.6867
  O  O245  1  0.070600  0.575300  0.497200  1.0  -0.7504
  O  O246  1  0.196400  0.635700  0.493300  1.0  -0.6299
  O  O247  1  0.869300  0.466600  0.084100  1.0  -0.6022
  O  O248  1  0.645000  0.240500  0.109200  1.0  -0.6107
  O  O249  1  0.483900  0.260100  0.118200  1.0  -0.6422
  O  O250  1  0.065700  0.438300  0.206300  1.0  -0.6775
  O  O251  1  0.195900  0.384000  0.204700  1.0  -0.6047
  O  O252  1  0.899100  0.376100  0.104900  1.0  -0.6867
  O  O253  1  0.429400  0.924700  0.997200  1.0  -0.7512
  O  O254  1  0.303600  0.864300  0.993300  1.0  -0.631
  O  O255  1  0.630700  0.033400  0.584100  1.0  -0.6025
  O  O256  1  0.855000  0.259500  0.609200  1.0  -0.6093
  O  O257  1  0.016100  0.239900  0.618200  1.0  -0.6451
  O  O258  1  0.434300  0.061700  0.706300  1.0  -0.6779
  O  O259  1  0.304100  0.116000  0.704700  1.0  -0.6022
  O  O260  1  0.600900  0.123900  0.604900  1.0  -0.6887
  O  O261  1  0.929400  0.424700  0.497200  1.0  -0.7512
  O  O262  1  0.803600  0.364300  0.493300  1.0  -0.631
  O  O263  1  0.130700  0.533400  0.084100  1.0  -0.6025
  O  O264  1  0.355000  0.759500  0.109200  1.0  -0.6093
  O  O265  1  0.516100  0.739900  0.118200  1.0  -0.6451
  O  O266  1  0.934300  0.561700  0.206300  1.0  -0.6779
  O  O267  1  0.804100  0.616000  0.204700  1.0  -0.6022
  O  O268  1  0.100900  0.623900  0.104900  1.0  -0.6887
