# generated using pymatgen
data_Sm2ZnH12C32(NO4)4
_symmetry_space_group_name_H-M   'P 1'
_cell_length_a   13.39000000
_cell_length_b   24.07400000
_cell_length_c   13.17900000
_cell_angle_alpha   90.00000000
_cell_angle_beta   90.00000000
_cell_angle_gamma   90.00000000
_symmetry_Int_Tables_number   1
_chemical_formula_structural   Sm2ZnH12C32(NO4)4
_chemical_formula_sum   'Sm8 Zn4 H48 C128 N16 O64'
_cell_volume   4248.26198394
_cell_formula_units_Z   4
loop_
 _symmetry_equiv_pos_site_id
 _symmetry_equiv_pos_as_xyz
  1  'x, y, z'
loop_
 _atom_site_type_symbol
 _atom_site_label
 _atom_site_symmetry_multiplicity
 _atom_site_fract_x
 _atom_site_fract_y
 _atom_site_fract_z
 _atom_site_occupancy
 _atom_site_charge
  Sm  Sm1  1  0.441080  0.842980  0.616530  1.0  2.2069
  Sm  Sm2  1  0.941080  0.342980  0.116530  1.0  2.2069
  Sm  Sm3  1  0.558920  0.157020  0.616530  1.0  2.2067
  Sm  Sm4  1  0.058920  0.657020  0.116530  1.0  2.2067
  Sm  Sm5  1  0.941080  0.657020  0.616530  1.0  2.2069
  Sm  Sm6  1  0.441080  0.157020  0.116530  1.0  2.2069
  Sm  Sm7  1  0.058920  0.342980  0.616530  1.0  2.2067
  Sm  Sm8  1  0.558920  0.842980  0.116530  1.0  2.2067
  Zn  Zn9  1  0.000000  0.500000  0.617900  1.0  0.9845
  Zn  Zn10  1  0.500000  0.000000  0.117900  1.0  0.9849
  Zn  Zn11  1  0.500000  0.000000  0.617900  1.0  0.9849
  Zn  Zn12  1  0.000000  0.500000  0.117900  1.0  0.985
  H  H13  1  0.315900  0.515800  0.572900  1.0  0.1043
  H  H14  1  0.251900  0.676200  0.605800  1.0  0.0971
  H  H15  1  0.536600  0.627700  0.607700  1.0  0.1198
  H  H16  1  0.407300  0.991000  0.353300  1.0  0.1305
  H  H17  1  0.145100  0.913800  0.419800  1.0  0.1344
  H  H18  1  0.143700  0.055000  0.256700  1.0  0.1238
  H  H19  1  0.815900  0.015800  0.072900  1.0  0.1043
  H  H20  1  0.751900  0.176200  0.105800  1.0  0.0971
  H  H21  1  0.036600  0.127700  0.107700  1.0  0.1198
  H  H22  1  0.907300  0.491000  0.853300  1.0  0.1305
  H  H23  1  0.645100  0.413800  0.919800  1.0  0.1344
  H  H24  1  0.643700  0.555000  0.756700  1.0  0.1238
  H  H25  1  0.684100  0.484200  0.572900  1.0  0.1049
  H  H26  1  0.748100  0.323800  0.605800  1.0  0.0985
  H  H27  1  0.463400  0.372300  0.607700  1.0  0.1194
  H  H28  1  0.592700  0.009000  0.353300  1.0  0.1305
  H  H29  1  0.854900  0.086200  0.419800  1.0  0.1341
  H  H30  1  0.856300  0.945000  0.256700  1.0  0.1234
  H  H31  1  0.184100  0.984200  0.072900  1.0  0.1049
  H  H32  1  0.248100  0.823800  0.105800  1.0  0.0985
  H  H33  1  0.963400  0.872300  0.107700  1.0  0.1194
  H  H34  1  0.092700  0.509000  0.853300  1.0  0.1305
  H  H35  1  0.354900  0.586200  0.919800  1.0  0.1341
  H  H36  1  0.356300  0.445000  0.756700  1.0  0.1234
  H  H37  1  0.815900  0.984200  0.572900  1.0  0.1048
  H  H38  1  0.751900  0.823800  0.605800  1.0  0.0979
  H  H39  1  0.036600  0.872300  0.607700  1.0  0.1192
  H  H40  1  0.907300  0.509000  0.353300  1.0  0.1306
  H  H41  1  0.645100  0.586200  0.419800  1.0  0.1344
  H  H42  1  0.643700  0.445000  0.256700  1.0  0.1234
  H  H43  1  0.315900  0.484200  0.072900  1.0  0.1048
  H  H44  1  0.251900  0.323800  0.105800  1.0  0.0979
  H  H45  1  0.536600  0.372300  0.107700  1.0  0.1192
  H  H46  1  0.407300  0.009000  0.853300  1.0  0.1306
  H  H47  1  0.145100  0.086200  0.919800  1.0  0.1344
  H  H48  1  0.143700  0.945000  0.756700  1.0  0.1234
  H  H49  1  0.184100  0.015800  0.572900  1.0  0.1045
  H  H50  1  0.248100  0.176200  0.605800  1.0  0.0972
  H  H51  1  0.963400  0.127700  0.607700  1.0  0.1196
  H  H52  1  0.092700  0.491000  0.353300  1.0  0.1304
  H  H53  1  0.354900  0.413800  0.419800  1.0  0.134
  H  H54  1  0.356300  0.555000  0.256700  1.0  0.1237
  H  H55  1  0.684100  0.515800  0.072900  1.0  0.1045
  H  H56  1  0.748100  0.676200  0.105800  1.0  0.0972
  H  H57  1  0.463400  0.627700  0.107700  1.0  0.1196
  H  H58  1  0.592700  0.991000  0.853300  1.0  0.1304
  H  H59  1  0.854900  0.913800  0.919800  1.0  0.134
  H  H60  1  0.856300  0.055000  0.756700  1.0  0.1237
  C  C61  1  0.341300  0.069900  0.231500  1.0  0.7133
  C  C62  1  0.335500  0.552300  0.584500  1.0  -0.0415
  C  C63  1  0.397100  0.661500  0.609800  1.0  -0.1505
  C  C64  1  0.263100  0.593300  0.596600  1.0  -0.1366
  C  C65  1  0.298600  0.647600  0.604300  1.0  0.0009
  C  C66  1  0.156500  0.581600  0.599800  1.0  0.7048
  C  C67  1  0.469000  0.619200  0.603100  1.0  -0.0865
  C  C68  1  0.439200  0.565600  0.589700  1.0  0.1892
  C  C69  1  0.426800  0.723000  0.621500  1.0  0.6402
  C  C70  1  0.340600  0.909500  0.467300  1.0  0.7083
  C  C71  1  0.338100  0.988900  0.348500  1.0  -0.0481
  C  C72  1  0.283400  0.027300  0.289000  1.0  -0.1099
  C  C73  1  0.284300  0.947600  0.400200  1.0  -0.1279
  C  C74  1  0.179200  0.943400  0.390400  1.0  -0.135
  C  C75  1  0.179300  0.026800  0.288700  1.0  -0.0192
  C  C76  1  0.128700  0.982800  0.337700  1.0  0.2219
  C  C77  1  0.841300  0.569900  0.731500  1.0  0.7133
  C  C78  1  0.835500  0.052300  0.084500  1.0  -0.0415
  C  C79  1  0.897100  0.161500  0.109800  1.0  -0.1505
  C  C80  1  0.763100  0.093300  0.096600  1.0  -0.1366
  C  C81  1  0.798600  0.147600  0.104300  1.0  0.0009
  C  C82  1  0.656500  0.081600  0.099800  1.0  0.7048
  C  C83  1  0.969000  0.119200  0.103100  1.0  -0.0865
  C  C84  1  0.939200  0.065600  0.089700  1.0  0.1892
  C  C85  1  0.926800  0.223000  0.121500  1.0  0.6402
  C  C86  1  0.840600  0.409500  0.967300  1.0  0.7083
  C  C87  1  0.838100  0.488900  0.848500  1.0  -0.0481
  C  C88  1  0.783400  0.527300  0.789000  1.0  -0.1099
  C  C89  1  0.784300  0.447600  0.900200  1.0  -0.1279
  C  C90  1  0.679200  0.443400  0.890400  1.0  -0.135
  C  C91  1  0.679300  0.526800  0.788700  1.0  -0.0192
  C  C92  1  0.628700  0.482800  0.837700  1.0  0.2219
  C  C93  1  0.658700  0.930100  0.231500  1.0  0.715
  C  C94  1  0.664500  0.447700  0.584500  1.0  -0.0397
  C  C95  1  0.602900  0.338500  0.609800  1.0  -0.149
  C  C96  1  0.736900  0.406700  0.596600  1.0  -0.1363
  C  C97  1  0.701400  0.352400  0.604300  1.0  -0.0003
  C  C98  1  0.843500  0.418400  0.599800  1.0  0.7049
  C  C99  1  0.531000  0.380800  0.603100  1.0  -0.0875
  C  C100  1  0.560800  0.434400  0.589700  1.0  0.1885
  C  C101  1  0.573200  0.277000  0.621500  1.0  0.6419
  C  C102  1  0.659400  0.090500  0.467300  1.0  0.7085
  C  C103  1  0.661900  0.011100  0.348500  1.0  -0.0486
  C  C104  1  0.716600  0.972700  0.289000  1.0  -0.1096
  C  C105  1  0.715700  0.052400  0.400200  1.0  -0.1277
  C  C106  1  0.820800  0.056600  0.390400  1.0  -0.133
  C  C107  1  0.820700  0.973200  0.288700  1.0  -0.0199
  C  C108  1  0.871300  0.017200  0.337700  1.0  0.2233
  C  C109  1  0.158700  0.430100  0.731500  1.0  0.715
  C  C110  1  0.164500  0.947700  0.084500  1.0  -0.0397
  C  C111  1  0.102900  0.838500  0.109800  1.0  -0.149
  C  C112  1  0.236900  0.906700  0.096600  1.0  -0.1363
  C  C113  1  0.201400  0.852400  0.104300  1.0  -0.0003
  C  C114  1  0.343500  0.918400  0.099800  1.0  0.7049
  C  C115  1  0.031000  0.880800  0.103100  1.0  -0.0875
  C  C116  1  0.060800  0.934400  0.089700  1.0  0.1885
  C  C117  1  0.073200  0.777000  0.121500  1.0  0.6419
  C  C118  1  0.159400  0.590500  0.967300  1.0  0.7085
  C  C119  1  0.161900  0.511100  0.848500  1.0  -0.0486
  C  C120  1  0.216600  0.472700  0.789000  1.0  -0.1096
  C  C121  1  0.215700  0.552400  0.900200  1.0  -0.1277
  C  C122  1  0.320800  0.556600  0.890400  1.0  -0.133
  C  C123  1  0.320700  0.473200  0.788700  1.0  -0.0199
  C  C124  1  0.371300  0.517200  0.837700  1.0  0.2233
  C  C125  1  0.841300  0.430100  0.231500  1.0  0.7152
  C  C126  1  0.835500  0.947700  0.584500  1.0  -0.0408
  C  C127  1  0.897100  0.838500  0.609800  1.0  -0.1494
  C  C128  1  0.763100  0.906700  0.596600  1.0  -0.1376
  C  C129  1  0.798600  0.852400  0.604300  1.0  -0.0005
  C  C130  1  0.656500  0.918400  0.599800  1.0  0.7045
  C  C131  1  0.969000  0.880800  0.603100  1.0  -0.0863
  C  C132  1  0.939200  0.934400  0.589700  1.0  0.1885
  C  C133  1  0.926800  0.777000  0.621500  1.0  0.6418
  C  C134  1  0.840600  0.590500  0.467300  1.0  0.7079
  C  C135  1  0.838100  0.511100  0.348500  1.0  -0.0481
  C  C136  1  0.783400  0.472700  0.289000  1.0  -0.1095
  C  C137  1  0.784300  0.552400  0.400200  1.0  -0.1281
  C  C138  1  0.679200  0.556600  0.390400  1.0  -0.135
  C  C139  1  0.679300  0.473200  0.288700  1.0  -0.0193
  C  C140  1  0.628700  0.517200  0.337700  1.0  0.2228
  C  C141  1  0.341300  0.930100  0.731500  1.0  0.7152
  C  C142  1  0.335500  0.447700  0.084500  1.0  -0.0408
  C  C143  1  0.397100  0.338500  0.109800  1.0  -0.1494
  C  C144  1  0.263100  0.406700  0.096600  1.0  -0.1376
  C  C145  1  0.298600  0.352400  0.104300  1.0  -0.0005
  C  C146  1  0.156500  0.418400  0.099800  1.0  0.7045
  C  C147  1  0.469000  0.380800  0.103100  1.0  -0.0863
  C  C148  1  0.439200  0.434400  0.089700  1.0  0.1885
  C  C149  1  0.426800  0.277000  0.121500  1.0  0.6418
  C  C150  1  0.340600  0.090500  0.967300  1.0  0.7079
  C  C151  1  0.338100  0.011100  0.848500  1.0  -0.0481
  C  C152  1  0.283400  0.972700  0.789000  1.0  -0.1095
  C  C153  1  0.284300  0.052400  0.900200  1.0  -0.1281
  C  C154  1  0.179200  0.056600  0.890400  1.0  -0.135
  C  C155  1  0.179300  0.973200  0.788700  1.0  -0.0193
  C  C156  1  0.128700  0.017200  0.837700  1.0  0.2228
  C  C157  1  0.158700  0.569900  0.231500  1.0  0.7135
  C  C158  1  0.164500  0.052300  0.584500  1.0  -0.0402
  C  C159  1  0.102900  0.161500  0.609800  1.0  -0.1491
  C  C160  1  0.236900  0.093300  0.596600  1.0  -0.136
  C  C161  1  0.201400  0.147600  0.604300  1.0  0.0009
  C  C162  1  0.343500  0.081600  0.599800  1.0  0.7057
  C  C163  1  0.031000  0.119200  0.603100  1.0  -0.088
  C  C164  1  0.060800  0.065600  0.589700  1.0  0.1894
  C  C165  1  0.073200  0.223000  0.621500  1.0  0.6399
  C  C166  1  0.159400  0.409500  0.467300  1.0  0.7082
  C  C167  1  0.161900  0.488900  0.348500  1.0  -0.0486
  C  C168  1  0.216600  0.527300  0.289000  1.0  -0.11
  C  C169  1  0.215700  0.447600  0.400200  1.0  -0.1268
  C  C170  1  0.320800  0.443400  0.390400  1.0  -0.1338
  C  C171  1  0.320700  0.526800  0.288700  1.0  -0.0188
  C  C172  1  0.371300  0.482800  0.337700  1.0  0.2229
  C  C173  1  0.658700  0.069900  0.731500  1.0  0.7135
  C  C174  1  0.664500  0.552300  0.084500  1.0  -0.0402
  C  C175  1  0.602900  0.661500  0.109800  1.0  -0.1491
  C  C176  1  0.736900  0.593300  0.096600  1.0  -0.136
  C  C177  1  0.701400  0.647600  0.104300  1.0  0.0009
  C  C178  1  0.843500  0.581600  0.099800  1.0  0.7057
  C  C179  1  0.531000  0.619200  0.103100  1.0  -0.088
  C  C180  1  0.560800  0.565600  0.089700  1.0  0.1894
  C  C181  1  0.573200  0.723000  0.121500  1.0  0.6399
  C  C182  1  0.659400  0.909500  0.967300  1.0  0.7082
  C  C183  1  0.661900  0.988900  0.848500  1.0  -0.0486
  C  C184  1  0.716600  0.027300  0.789000  1.0  -0.11
  C  C185  1  0.715700  0.947600  0.900200  1.0  -0.1268
  C  C186  1  0.820800  0.943400  0.890400  1.0  -0.1338
  C  C187  1  0.820700  0.026800  0.788700  1.0  -0.0188
  C  C188  1  0.871300  0.982800  0.837700  1.0  0.2229
  N  N189  1  0.515200  0.523900  0.585000  1.0  -0.2079
  N  N190  1  0.024100  0.976900  0.336300  1.0  -0.2824
  N  N191  1  0.015200  0.023900  0.085000  1.0  -0.2079
  N  N192  1  0.524100  0.476900  0.836300  1.0  -0.2824
  N  N193  1  0.484800  0.476100  0.585000  1.0  -0.2079
  N  N194  1  0.975900  0.023100  0.336300  1.0  -0.2823
  N  N195  1  0.984800  0.976100  0.085000  1.0  -0.2079
  N  N196  1  0.475900  0.523100  0.836300  1.0  -0.2823
  N  N197  1  0.015200  0.976100  0.585000  1.0  -0.2078
  N  N198  1  0.524100  0.523100  0.336300  1.0  -0.2828
  N  N199  1  0.515200  0.476100  0.085000  1.0  -0.2078
  N  N200  1  0.024100  0.023100  0.836300  1.0  -0.2828
  N  N201  1  0.984800  0.023900  0.585000  1.0  -0.2075
  N  N202  1  0.475900  0.476900  0.336300  1.0  -0.2817
  N  N203  1  0.484800  0.523900  0.085000  1.0  -0.2075
  N  N204  1  0.975900  0.976900  0.836300  1.0  -0.2817
  O  O205  1  0.298600  0.112400  0.208600  1.0  -0.6067
  O  O206  1  0.432500  0.061200  0.211800  1.0  -0.6726
  O  O207  1  0.513000  0.738800  0.625900  1.0  -0.6368
  O  O208  1  0.353600  0.757400  0.610300  1.0  -0.6548
  O  O209  1  0.131300  0.532300  0.588000  1.0  -0.5748
  O  O210  1  0.099200  0.622100  0.615000  1.0  -0.7473
  O  O211  1  0.302600  0.863600  0.496100  1.0  -0.6343
  O  O212  1  0.428900  0.925500  0.500500  1.0  -0.7183
  O  O213  1  0.798600  0.612400  0.708600  1.0  -0.6067
  O  O214  1  0.932500  0.561200  0.711800  1.0  -0.6726
  O  O215  1  0.013000  0.238800  0.125900  1.0  -0.6368
  O  O216  1  0.853600  0.257400  0.110300  1.0  -0.6548
  O  O217  1  0.631300  0.032300  0.088000  1.0  -0.5748
  O  O218  1  0.599200  0.122100  0.115000  1.0  -0.7473
  O  O219  1  0.802600  0.363600  0.996100  1.0  -0.6343
  O  O220  1  0.928900  0.425500  0.000500  1.0  -0.7183
  O  O221  1  0.701400  0.887600  0.208600  1.0  -0.6088
  O  O222  1  0.567500  0.938800  0.211800  1.0  -0.6712
  O  O223  1  0.487000  0.261200  0.625900  1.0  -0.6361
  O  O224  1  0.646400  0.242600  0.610300  1.0  -0.6541
  O  O225  1  0.868700  0.467700  0.588000  1.0  -0.5747
  O  O226  1  0.900800  0.377900  0.615000  1.0  -0.7473
  O  O227  1  0.697400  0.136400  0.496100  1.0  -0.6348
  O  O228  1  0.571100  0.074500  0.500500  1.0  -0.7206
  O  O229  1  0.201400  0.387600  0.708600  1.0  -0.6088
  O  O230  1  0.067500  0.438800  0.711800  1.0  -0.6712
  O  O231  1  0.987000  0.761200  0.125900  1.0  -0.6361
  O  O232  1  0.146400  0.742600  0.110300  1.0  -0.6541
  O  O233  1  0.368700  0.967700  0.088000  1.0  -0.5747
  O  O234  1  0.400800  0.877900  0.115000  1.0  -0.7473
  O  O235  1  0.197400  0.636400  0.996100  1.0  -0.6348
  O  O236  1  0.071100  0.574500  0.000500  1.0  -0.7206
  O  O237  1  0.798600  0.387600  0.208600  1.0  -0.6085
  O  O238  1  0.932500  0.438800  0.211800  1.0  -0.6719
  O  O239  1  0.013000  0.761200  0.625900  1.0  -0.6364
  O  O240  1  0.853600  0.742600  0.610300  1.0  -0.655
  O  O241  1  0.631300  0.967700  0.588000  1.0  -0.5751
  O  O242  1  0.599200  0.877900  0.615000  1.0  -0.7479
  O  O243  1  0.802600  0.636400  0.496100  1.0  -0.6347
  O  O244  1  0.928900  0.574500  0.500500  1.0  -0.7184
  O  O245  1  0.298600  0.887600  0.708600  1.0  -0.6085
  O  O246  1  0.432500  0.938800  0.711800  1.0  -0.6719
  O  O247  1  0.513000  0.261200  0.125900  1.0  -0.6364
  O  O248  1  0.353600  0.242600  0.110300  1.0  -0.655
  O  O249  1  0.131300  0.467700  0.088000  1.0  -0.5751
  O  O250  1  0.099200  0.377900  0.115000  1.0  -0.7479
  O  O251  1  0.302600  0.136400  0.996100  1.0  -0.6347
  O  O252  1  0.428900  0.074500  0.000500  1.0  -0.7184
  O  O253  1  0.201400  0.612400  0.208600  1.0  -0.6078
  O  O254  1  0.067500  0.561200  0.211800  1.0  -0.6713
  O  O255  1  0.987000  0.238800  0.625900  1.0  -0.6377
  O  O256  1  0.146400  0.257400  0.610300  1.0  -0.6537
  O  O257  1  0.368700  0.032300  0.588000  1.0  -0.5747
  O  O258  1  0.400800  0.122100  0.615000  1.0  -0.7475
  O  O259  1  0.197400  0.363600  0.496100  1.0  -0.6343
  O  O260  1  0.071100  0.425500  0.500500  1.0  -0.7182
  O  O261  1  0.701400  0.112400  0.708600  1.0  -0.6078
  O  O262  1  0.567500  0.061200  0.711800  1.0  -0.6713
  O  O263  1  0.487000  0.738800  0.125900  1.0  -0.6377
  O  O264  1  0.646400  0.757400  0.110300  1.0  -0.6537
  O  O265  1  0.868700  0.532300  0.088000  1.0  -0.5747
  O  O266  1  0.900800  0.622100  0.115000  1.0  -0.7475
  O  O267  1  0.697400  0.863600  0.996100  1.0  -0.6343
  O  O268  1  0.571100  0.925500  0.000500  1.0  -0.7182
