# generated using pymatgen
data_ZnH3(CO2)3
_symmetry_space_group_name_H-M   'P 1'
_cell_length_a   7.30840000
_cell_length_b   7.30840000
_cell_length_c   8.17050000
_cell_angle_alpha   90.00000000
_cell_angle_beta   90.00000000
_cell_angle_gamma   120.00000000
_symmetry_Int_Tables_number   1
_chemical_formula_structural   ZnH3(CO2)3
_chemical_formula_sum   'Zn2 H6 C6 O12'
_cell_volume   377.94089214
_cell_formula_units_Z   2
loop_
 _symmetry_equiv_pos_site_id
 _symmetry_equiv_pos_as_xyz
  1  'x, y, z'
loop_
 _atom_site_type_symbol
 _atom_site_label
 _atom_site_symmetry_multiplicity
 _atom_site_fract_x
 _atom_site_fract_y
 _atom_site_fract_z
 _atom_site_occupancy
 _atom_site_charge
  Zn  Zn1  1  0.333333  0.666667  0.250000  1.0  0.9168
  Zn  Zn2  1  0.666667  0.333333  0.750000  1.0  0.9168
  H  H3  1  0.000000  0.430000  0.500000  1.0  0.0927
  H  H4  1  0.570000  0.570000  0.500000  1.0  0.0924
  H  H5  1  0.430000  0.000000  0.500000  1.0  0.0923
  H  H6  1  0.000000  0.570000  0.000000  1.0  0.0923
  H  H7  1  0.430000  0.430000  0.000000  1.0  0.0924
  H  H8  1  0.570000  0.000000  0.000000  1.0  0.0926
  C  C9  1  0.000000  0.562300  0.500000  1.0  0.722
  C  C10  1  0.437700  0.437700  0.500000  1.0  0.7209
  C  C11  1  0.562300  0.000000  0.500000  1.0  0.7231
  C  C12  1  0.000000  0.437700  0.000000  1.0  0.721
  C  C13  1  0.562300  0.562300  0.000000  1.0  0.7217
  C  C14  1  0.437700  0.000000  0.000000  1.0  0.7237
  O  O15  1  0.110170  0.694450  0.394880  1.0  -0.5615
  O  O16  1  0.305550  0.415720  0.394880  1.0  -0.5607
  O  O17  1  0.584280  0.889830  0.394880  1.0  -0.5597
  O  O18  1  0.889830  0.305550  0.894880  1.0  -0.5594
  O  O19  1  0.694450  0.584280  0.894880  1.0  -0.561
  O  O20  1  0.415720  0.110170  0.894880  1.0  -0.5594
  O  O21  1  0.694450  0.110170  0.605120  1.0  -0.5599
  O  O22  1  0.415720  0.305550  0.605120  1.0  -0.5601
  O  O23  1  0.889830  0.584280  0.605120  1.0  -0.5604
  O  O24  1  0.305550  0.889830  0.105120  1.0  -0.5587
  O  O25  1  0.584280  0.694450  0.105120  1.0  -0.5599
  O  O26  1  0.110170  0.415720  0.105120  1.0  -0.56
