# generated using pymatgen
data_Cd2Ag5(CN)10
_symmetry_space_group_name_H-M   'P 1'
_cell_length_a   16.27980000
_cell_length_b   13.92480000
_cell_length_c   18.04390000
_cell_angle_alpha   90.00000000
_cell_angle_beta   106.08200000
_cell_angle_gamma   90.00000000
_symmetry_Int_Tables_number   1
_chemical_formula_structural   Cd2Ag5(CN)10
_chemical_formula_sum   'Cd8 Ag20 C40 N40'
_cell_volume   3930.35131984
_cell_formula_units_Z   4
loop_
 _symmetry_equiv_pos_site_id
 _symmetry_equiv_pos_as_xyz
  1  'x, y, z'
loop_
 _atom_site_type_symbol
 _atom_site_label
 _atom_site_symmetry_multiplicity
 _atom_site_fract_x
 _atom_site_fract_y
 _atom_site_fract_z
 _atom_site_occupancy
 _atom_site_charge
  Cd  Cd1  1  0.188560  0.298110  0.158350  1.0  1.0088
  Cd  Cd2  1  0.688560  0.798110  0.158350  1.0  1.0088
  Cd  Cd3  1  0.811440  0.298110  0.341650  1.0  1.0095
  Cd  Cd4  1  0.311440  0.798110  0.341650  1.0  1.0095
  Cd  Cd5  1  0.811440  0.701890  0.841650  1.0  1.0099
  Cd  Cd6  1  0.311440  0.201890  0.841650  1.0  1.0099
  Cd  Cd7  1  0.188560  0.701890  0.658350  1.0  1.0092
  Cd  Cd8  1  0.688560  0.201890  0.658350  1.0  1.0092
  Ag  Ag9  1  0.250970  0.491620  0.429730  1.0  0.3542
  Ag  Ag10  1  0.927950  0.525200  0.176950  1.0  0.3604
  Ag  Ag11  1  0.750970  0.991620  0.429730  1.0  0.354
  Ag  Ag12  1  0.427950  0.025200  0.176950  1.0  0.3604
  Ag  Ag13  1  0.749030  0.491620  0.070270  1.0  0.3539
  Ag  Ag14  1  0.072050  0.525200  0.323050  1.0  0.3539
  Ag  Ag15  1  0.249030  0.991620  0.070270  1.0  0.3539
  Ag  Ag16  1  0.572050  0.025200  0.323050  1.0  0.3539
  Ag  Ag17  1  0.749030  0.508380  0.570270  1.0  0.3563
  Ag  Ag18  1  0.072050  0.474800  0.823050  1.0  0.361
  Ag  Ag19  1  0.249030  0.008380  0.570270  1.0  0.356
  Ag  Ag20  1  0.572050  0.974800  0.823050  1.0  0.361
  Ag  Ag21  1  0.250970  0.508380  0.929730  1.0  0.3542
  Ag  Ag22  1  0.927950  0.474800  0.676950  1.0  0.3525
  Ag  Ag23  1  0.750970  0.008380  0.929730  1.0  0.3542
  Ag  Ag24  1  0.427950  0.974800  0.676950  1.0  0.3525
  Ag  Ag25  1  0.000000  0.000000  0.000000  1.0  0.417
  Ag  Ag26  1  0.500000  0.500000  0.000000  1.0  0.417
  Ag  Ag27  1  0.000000  0.000000  0.500000  1.0  0.417
  Ag  Ag28  1  0.500000  0.500000  0.500000  1.0  0.417
  C  C29  1  0.244640  0.408160  0.333500  1.0  -0.0197
  C  C30  1  0.243250  0.570600  0.524390  1.0  0.0142
  C  C31  1  0.075350  0.106360  0.063370  1.0  0.0233
  C  C32  1  0.011420  0.424400  0.155640  1.0  0.0067
  C  C33  1  0.849940  0.636360  0.191950  1.0  -0.0143
  C  C34  1  0.744640  0.908160  0.333500  1.0  -0.0197
  C  C35  1  0.743250  0.070600  0.524390  1.0  0.0143
  C  C36  1  0.575350  0.606360  0.063370  1.0  0.0233
  C  C37  1  0.511420  0.924400  0.155640  1.0  0.0067
  C  C38  1  0.349940  0.136360  0.191950  1.0  -0.0143
  C  C39  1  0.755360  0.408160  0.166500  1.0  -0.0198
  C  C40  1  0.756750  0.570600  0.975610  1.0  0.013
  C  C41  1  0.924650  0.106360  0.436630  1.0  0.0227
  C  C42  1  0.988580  0.424400  0.344360  1.0  0.004
  C  C43  1  0.150060  0.636360  0.308050  1.0  -0.0138
  C  C44  1  0.255360  0.908160  0.166500  1.0  -0.0198
  C  C45  1  0.256750  0.070600  0.975610  1.0  0.0131
  C  C46  1  0.424650  0.606360  0.436630  1.0  0.0227
  C  C47  1  0.488580  0.924400  0.344360  1.0  0.004
  C  C48  1  0.650060  0.136360  0.308050  1.0  -0.0138
  C  C49  1  0.755360  0.591840  0.666500  1.0  -0.0205
  C  C50  1  0.756750  0.429400  0.475610  1.0  0.0123
  C  C51  1  0.924650  0.893640  0.936630  1.0  0.0209
  C  C52  1  0.988580  0.575600  0.844360  1.0  0.0065
  C  C53  1  0.150060  0.363640  0.808050  1.0  -0.0145
  C  C54  1  0.255360  0.091840  0.666500  1.0  -0.0205
  C  C55  1  0.256750  0.929400  0.475610  1.0  0.0123
  C  C56  1  0.424650  0.393640  0.936630  1.0  0.0209
  C  C57  1  0.488580  0.075600  0.844360  1.0  0.0065
  C  C58  1  0.650060  0.863640  0.808050  1.0  -0.0145
  C  C59  1  0.244640  0.591840  0.833500  1.0  -0.0207
  C  C60  1  0.243250  0.429400  0.024390  1.0  0.0123
  C  C61  1  0.075350  0.893640  0.563370  1.0  0.0218
  C  C62  1  0.011420  0.575600  0.655640  1.0  0.0043
  C  C63  1  0.849940  0.363640  0.691950  1.0  -0.0152
  C  C64  1  0.744640  0.091840  0.833500  1.0  -0.0207
  C  C65  1  0.743250  0.929400  0.024390  1.0  0.0123
  C  C66  1  0.575350  0.393640  0.563370  1.0  0.0218
  C  C67  1  0.511420  0.075600  0.655640  1.0  0.0043
  C  C68  1  0.349940  0.863640  0.691950  1.0  -0.0152
  N  N69  1  0.233770  0.367990  0.276500  1.0  -0.3916
  N  N70  1  0.233610  0.615870  0.574120  1.0  -0.3871
  N  N71  1  0.114210  0.167540  0.098090  1.0  -0.3644
  N  N72  1  0.063250  0.372630  0.149240  1.0  -0.3879
  N  N73  1  0.802650  0.695920  0.193220  1.0  -0.4003
  N  N74  1  0.733770  0.867990  0.276500  1.0  -0.392
  N  N75  1  0.733610  0.115870  0.574120  1.0  -0.3871
  N  N76  1  0.614210  0.667540  0.098090  1.0  -0.3675
  N  N77  1  0.563250  0.872630  0.149240  1.0  -0.3879
  N  N78  1  0.302650  0.195920  0.193220  1.0  -0.4003
  N  N79  1  0.766230  0.367990  0.223500  1.0  -0.3922
  N  N80  1  0.766390  0.615870  0.925880  1.0  -0.3862
  N  N81  1  0.885790  0.167540  0.401910  1.0  -0.3635
  N  N82  1  0.936750  0.372630  0.350760  1.0  -0.3896
  N  N83  1  0.197350  0.695920  0.306780  1.0  -0.4
  N  N84  1  0.266230  0.867990  0.223500  1.0  -0.3923
  N  N85  1  0.266390  0.115870  0.925880  1.0  -0.3862
  N  N86  1  0.385790  0.667540  0.401910  1.0  -0.3667
  N  N87  1  0.436750  0.872630  0.350760  1.0  -0.3896
  N  N88  1  0.697350  0.195920  0.306780  1.0  -0.4
  N  N89  1  0.766230  0.632010  0.723500  1.0  -0.3933
  N  N90  1  0.766390  0.384130  0.425880  1.0  -0.3868
  N  N91  1  0.885790  0.832460  0.901910  1.0  -0.3639
  N  N92  1  0.936750  0.627370  0.850760  1.0  -0.3919
  N  N93  1  0.197350  0.304080  0.806780  1.0  -0.3985
  N  N94  1  0.266230  0.132010  0.723500  1.0  -0.3957
  N  N95  1  0.266390  0.884130  0.425880  1.0  -0.3868
  N  N96  1  0.385790  0.332460  0.901910  1.0  -0.3644
  N  N97  1  0.436750  0.127370  0.850760  1.0  -0.3919
  N  N98  1  0.697350  0.804080  0.806780  1.0  -0.3985
  N  N99  1  0.233770  0.632010  0.776500  1.0  -0.3959
  N  N100  1  0.233610  0.384130  0.074120  1.0  -0.388
  N  N101  1  0.114210  0.832460  0.598090  1.0  -0.364
  N  N102  1  0.063250  0.627370  0.649240  1.0  -0.3906
  N  N103  1  0.802650  0.304080  0.693220  1.0  -0.4001
  N  N104  1  0.733770  0.132010  0.776500  1.0  -0.3962
  N  N105  1  0.733610  0.884130  0.074120  1.0  -0.3879
  N  N106  1  0.614210  0.332460  0.598090  1.0  -0.3645
  N  N107  1  0.563250  0.127370  0.649240  1.0  -0.3906
  N  N108  1  0.302650  0.804080  0.693220  1.0  -0.4002
