# generated using pymatgen
data_AgPH36C33(NF)6
_symmetry_space_group_name_H-M   'P 1'
_cell_length_a   19.89310000
_cell_length_b   19.89310000
_cell_length_c   19.89310000
_cell_angle_alpha   90.00000000
_cell_angle_beta   90.00000000
_cell_angle_gamma   90.00000000
_symmetry_Int_Tables_number   1
_chemical_formula_structural   AgPH36C33(NF)6
_chemical_formula_sum   'Ag8 P8 H288 C264 N48 F48'
_cell_volume   7872.40443499
_cell_formula_units_Z   8
loop_
 _symmetry_equiv_pos_site_id
 _symmetry_equiv_pos_as_xyz
  1  'x, y, z'
loop_
 _atom_site_type_symbol
 _atom_site_label
 _atom_site_symmetry_multiplicity
 _atom_site_fract_x
 _atom_site_fract_y
 _atom_site_fract_z
 _atom_site_occupancy
 _atom_site_charge
  Ag  Ag1  1  0.997030  0.997030  0.997030  1.0  0.3001
  Ag  Ag2  1  0.502970  0.002970  0.497030  1.0  0.3012
  Ag  Ag3  1  0.002970  0.497030  0.502970  1.0  0.3009
  Ag  Ag4  1  0.497030  0.502970  0.002970  1.0  0.3007
  Ag  Ag5  1  0.247030  0.747030  0.752970  1.0  0.3004
  Ag  Ag6  1  0.252970  0.252970  0.252970  1.0  0.3014
  Ag  Ag7  1  0.747030  0.752970  0.247030  1.0  0.3006
  Ag  Ag8  1  0.752970  0.247030  0.747030  1.0  0.3005
  P  P9  1  0.526030  0.973970  0.026030  1.0  1.2951
  P  P10  1  0.973970  0.026030  0.526030  1.0  1.295
  P  P11  1  0.473970  0.473970  0.473970  1.0  1.297
  P  P12  1  0.026030  0.526030  0.973970  1.0  1.2953
  P  P13  1  0.223970  0.276030  0.723970  1.0  1.2961
  P  P14  1  0.276030  0.723970  0.223970  1.0  1.2962
  P  P15  1  0.723970  0.223970  0.276030  1.0  1.2962
  P  P16  1  0.776030  0.776030  0.776030  1.0  1.2938
  H  H17  1  0.102800  0.182400  0.837900  1.0  0.1162
  H  H18  1  0.097900  0.181200  0.987600  1.0  0.1387
  H  H19  1  0.021000  0.199300  0.972600  1.0  0.1484
  H  H20  1  0.039300  0.133200  0.014700  1.0  0.1369
  H  H21  1  0.051500  0.067900  0.711000  1.0  0.1329
  H  H22  1  0.112800  0.119300  0.719500  1.0  0.135
  H  H23  1  0.124000  0.040800  0.733100  1.0  0.1287
  H  H24  1  0.981100  0.961200  0.847400  1.0  0.0914
  H  H25  1  0.021700  0.969300  0.778500  1.0  0.0929
  H  H26  1  0.153200  0.983800  0.856800  1.0  0.1126
  H  H27  1  0.924500  0.750900  0.850100  1.0  0.1068
  H  H28  1  0.956600  0.860700  0.828600  1.0  0.119
  H  H29  1  0.397200  0.817600  0.337900  1.0  0.1167
  H  H30  1  0.402100  0.818800  0.487600  1.0  0.1382
  H  H31  1  0.479000  0.800700  0.472600  1.0  0.1488
  H  H32  1  0.460700  0.866800  0.514700  1.0  0.1379
  H  H33  1  0.448500  0.932100  0.211000  1.0  0.1329
  H  H34  1  0.387200  0.880700  0.219500  1.0  0.1341
  H  H35  1  0.376000  0.959200  0.233100  1.0  0.1289
  H  H36  1  0.518900  0.038800  0.347400  1.0  0.0911
  H  H37  1  0.478300  0.030700  0.278500  1.0  0.0925
  H  H38  1  0.346800  0.016200  0.356800  1.0  0.1118
  H  H39  1  0.575500  0.249100  0.350100  1.0  0.1067
  H  H40  1  0.543400  0.139300  0.328600  1.0  0.1188
  H  H41  1  0.897200  0.682400  0.662100  1.0  0.1172
  H  H42  1  0.902100  0.681200  0.512400  1.0  0.1387
  H  H43  1  0.979000  0.699300  0.527400  1.0  0.1478
  H  H44  1  0.960700  0.633200  0.485300  1.0  0.135
  H  H45  1  0.948500  0.567900  0.789000  1.0  0.1333
  H  H46  1  0.887200  0.619300  0.780500  1.0  0.1343
  H  H47  1  0.876000  0.540800  0.766900  1.0  0.1279
  H  H48  1  0.018900  0.461200  0.652600  1.0  0.0906
  H  H49  1  0.978300  0.469300  0.721500  1.0  0.0916
  H  H50  1  0.846800  0.483800  0.643200  1.0  0.113
  H  H51  1  0.075500  0.250900  0.649900  1.0  0.1073
  H  H52  1  0.043400  0.360700  0.671400  1.0  0.1189
  H  H53  1  0.602800  0.317600  0.162100  1.0  0.1161
  H  H54  1  0.597900  0.318800  0.012400  1.0  0.1387
  H  H55  1  0.521000  0.300700  0.027400  1.0  0.1478
  H  H56  1  0.539300  0.366800  0.985300  1.0  0.1361
  H  H57  1  0.551500  0.432100  0.289000  1.0  0.133
  H  H58  1  0.612800  0.380700  0.280500  1.0  0.1339
  H  H59  1  0.624000  0.459200  0.266900  1.0  0.1283
  H  H60  1  0.481100  0.538800  0.152600  1.0  0.0917
  H  H61  1  0.521700  0.530700  0.221500  1.0  0.0916
  H  H62  1  0.653200  0.516200  0.143200  1.0  0.1124
  H  H63  1  0.424500  0.749100  0.149900  1.0  0.1071
  H  H64  1  0.456600  0.639300  0.171400  1.0  0.1188
  H  H65  1  0.837900  0.102800  0.182400  1.0  0.1174
  H  H66  1  0.987600  0.097900  0.181200  1.0  0.1413
  H  H67  1  0.972600  0.021000  0.199300  1.0  0.147
  H  H68  1  0.014700  0.039300  0.133200  1.0  0.1382
  H  H69  1  0.711000  0.051500  0.067900  1.0  0.1332
  H  H70  1  0.719500  0.112800  0.119300  1.0  0.1332
  H  H71  1  0.733100  0.124000  0.040800  1.0  0.1296
  H  H72  1  0.847400  0.981100  0.961200  1.0  0.0913
  H  H73  1  0.778500  0.021700  0.969300  1.0  0.0907
  H  H74  1  0.856800  0.153200  0.983800  1.0  0.1116
  H  H75  1  0.850100  0.924500  0.750900  1.0  0.1082
  H  H76  1  0.828600  0.956600  0.860700  1.0  0.119
  H  H77  1  0.337900  0.397200  0.817600  1.0  0.1172
  H  H78  1  0.487600  0.402100  0.818800  1.0  0.1378
  H  H79  1  0.472600  0.479000  0.800700  1.0  0.1469
  H  H80  1  0.514700  0.460700  0.866800  1.0  0.1391
  H  H81  1  0.211000  0.448500  0.932100  1.0  0.1336
  H  H82  1  0.219500  0.387200  0.880700  1.0  0.1335
  H  H83  1  0.233100  0.376000  0.959200  1.0  0.1291
  H  H84  1  0.347400  0.518900  0.038800  1.0  0.0907
  H  H85  1  0.278500  0.478300  0.030700  1.0  0.0903
  H  H86  1  0.356800  0.346800  0.016200  1.0  0.1119
  H  H87  1  0.350100  0.575500  0.249100  1.0  0.1072
  H  H88  1  0.328600  0.543400  0.139300  1.0  0.1194
  H  H89  1  0.662100  0.897200  0.682400  1.0  0.1185
  H  H90  1  0.512400  0.902100  0.681200  1.0  0.138
  H  H91  1  0.527400  0.979000  0.699300  1.0  0.1471
  H  H92  1  0.485300  0.960700  0.633200  1.0  0.1374
  H  H93  1  0.789000  0.948500  0.567900  1.0  0.1327
  H  H94  1  0.780500  0.887200  0.619300  1.0  0.1342
  H  H95  1  0.766900  0.876000  0.540800  1.0  0.1298
  H  H96  1  0.652600  0.018900  0.461200  1.0  0.0916
  H  H97  1  0.721500  0.978300  0.469300  1.0  0.0919
  H  H98  1  0.643200  0.846800  0.483800  1.0  0.1117
  H  H99  1  0.649900  0.075500  0.250900  1.0  0.1068
  H  H100  1  0.671400  0.043400  0.360700  1.0  0.1195
  H  H101  1  0.162100  0.602800  0.317600  1.0  0.1171
  H  H102  1  0.012400  0.597900  0.318800  1.0  0.1411
  H  H103  1  0.027400  0.521000  0.300700  1.0  0.1466
  H  H104  1  0.985300  0.539300  0.366800  1.0  0.1386
  H  H105  1  0.289000  0.551500  0.432100  1.0  0.1332
  H  H106  1  0.280500  0.612800  0.380700  1.0  0.1337
  H  H107  1  0.266900  0.624000  0.459200  1.0  0.1296
  H  H108  1  0.152600  0.481100  0.538800  1.0  0.0922
  H  H109  1  0.221500  0.521700  0.530700  1.0  0.0919
  H  H110  1  0.143200  0.653200  0.516200  1.0  0.1127
  H  H111  1  0.149900  0.424500  0.749100  1.0  0.1086
  H  H112  1  0.171400  0.456600  0.639300  1.0  0.1182
  H  H113  1  0.182400  0.837900  0.102800  1.0  0.1162
  H  H114  1  0.181200  0.987600  0.097900  1.0  0.1407
  H  H115  1  0.199300  0.972600  0.021000  1.0  0.1474
  H  H116  1  0.133200  0.014700  0.039300  1.0  0.1398
  H  H117  1  0.067900  0.711000  0.051500  1.0  0.1329
  H  H118  1  0.119300  0.719500  0.112800  1.0  0.1349
  H  H119  1  0.040800  0.733100  0.124000  1.0  0.127
  H  H120  1  0.961200  0.847400  0.981100  1.0  0.0919
  H  H121  1  0.969300  0.778500  0.021700  1.0  0.0915
  H  H122  1  0.983800  0.856800  0.153200  1.0  0.1102
  H  H123  1  0.750900  0.850100  0.924500  1.0  0.1101
  H  H124  1  0.860700  0.828600  0.956600  1.0  0.1196
  H  H125  1  0.817600  0.337900  0.397200  1.0  0.1157
  H  H126  1  0.818800  0.487600  0.402100  1.0  0.1402
  H  H127  1  0.800700  0.472600  0.479000  1.0  0.1471
  H  H128  1  0.866800  0.514700  0.460700  1.0  0.1384
  H  H129  1  0.932100  0.211000  0.448500  1.0  0.133
  H  H130  1  0.880700  0.219500  0.387200  1.0  0.1331
  H  H131  1  0.959200  0.233100  0.376000  1.0  0.1263
  H  H132  1  0.038800  0.347400  0.518900  1.0  0.0909
  H  H133  1  0.030700  0.278500  0.478300  1.0  0.0913
  H  H134  1  0.016200  0.356800  0.346800  1.0  0.1098
  H  H135  1  0.249100  0.350100  0.575500  1.0  0.1093
  H  H136  1  0.139300  0.328600  0.543400  1.0  0.1197
  H  H137  1  0.682400  0.662100  0.897200  1.0  0.1149
  H  H138  1  0.681200  0.512400  0.902100  1.0  0.14
  H  H139  1  0.699300  0.527400  0.979000  1.0  0.1472
  H  H140  1  0.633200  0.485300  0.960700  1.0  0.1409
  H  H141  1  0.567900  0.789000  0.948500  1.0  0.1337
  H  H142  1  0.619300  0.780500  0.887200  1.0  0.1344
  H  H143  1  0.540800  0.766900  0.876000  1.0  0.1265
  H  H144  1  0.461200  0.652600  0.018900  1.0  0.0913
  H  H145  1  0.469300  0.721500  0.978300  1.0  0.0904
  H  H146  1  0.483800  0.643200  0.846800  1.0  0.1107
  H  H147  1  0.250900  0.649900  0.075500  1.0  0.1096
  H  H148  1  0.360700  0.671400  0.043400  1.0  0.1194
  H  H149  1  0.317600  0.162100  0.602800  1.0  0.116
  H  H150  1  0.318800  0.012400  0.597900  1.0  0.1403
  H  H151  1  0.300700  0.027400  0.521000  1.0  0.147
  H  H152  1  0.366800  0.985300  0.539300  1.0  0.1398
  H  H153  1  0.432100  0.289000  0.551500  1.0  0.1327
  H  H154  1  0.380700  0.280500  0.612800  1.0  0.1325
  H  H155  1  0.459200  0.266900  0.624000  1.0  0.1272
  H  H156  1  0.538800  0.152600  0.481100  1.0  0.091
  H  H157  1  0.530700  0.221500  0.521700  1.0  0.0902
  H  H158  1  0.516200  0.143200  0.653200  1.0  0.11
  H  H159  1  0.749100  0.149900  0.424500  1.0  0.1097
  H  H160  1  0.639300  0.171400  0.456600  1.0  0.1202
  H  H161  1  0.432400  0.852800  0.912100  1.0  0.1171
  H  H162  1  0.431200  0.847900  0.762400  1.0  0.1411
  H  H163  1  0.449300  0.771000  0.777400  1.0  0.1478
  H  H164  1  0.383200  0.789300  0.735300  1.0  0.1368
  H  H165  1  0.317900  0.801500  0.039000  1.0  0.1322
  H  H166  1  0.369300  0.862800  0.030500  1.0  0.1344
  H  H167  1  0.290800  0.874000  0.016900  1.0  0.1294
  H  H168  1  0.211200  0.731100  0.902600  1.0  0.0918
  H  H169  1  0.219300  0.771700  0.971500  1.0  0.0922
  H  H170  1  0.233800  0.903200  0.893200  1.0  0.1122
  H  H171  1  0.000900  0.674500  0.899900  1.0  0.1088
  H  H172  1  0.110700  0.706600  0.921400  1.0  0.1191
  H  H173  1  0.067600  0.147200  0.412100  1.0  0.1183
  H  H174  1  0.068800  0.152100  0.262400  1.0  0.1379
  H  H175  1  0.050700  0.229000  0.277400  1.0  0.1467
  H  H176  1  0.116800  0.210700  0.235300  1.0  0.1349
  H  H177  1  0.182100  0.198500  0.539000  1.0  0.1323
  H  H178  1  0.130700  0.137200  0.530500  1.0  0.1334
  H  H179  1  0.209200  0.126000  0.516900  1.0  0.1301
  H  H180  1  0.288800  0.268900  0.402600  1.0  0.0907
  H  H181  1  0.280700  0.228300  0.471500  1.0  0.0916
  H  H182  1  0.266200  0.096800  0.393200  1.0  0.1111
  H  H183  1  0.499100  0.325500  0.399900  1.0  0.1072
  H  H184  1  0.389300  0.293400  0.421400  1.0  0.1196
  H  H185  1  0.932400  0.647200  0.087900  1.0  0.1175
  H  H186  1  0.931200  0.652100  0.237600  1.0  0.138
  H  H187  1  0.949300  0.729000  0.222600  1.0  0.148
  H  H188  1  0.883200  0.710700  0.264700  1.0  0.1377
  H  H189  1  0.817900  0.698500  0.961000  1.0  0.1317
  H  H190  1  0.869300  0.637200  0.969500  1.0  0.1353
  H  H191  1  0.790800  0.626000  0.983100  1.0  0.1293
  H  H192  1  0.711200  0.768900  0.097400  1.0  0.0912
  H  H193  1  0.719300  0.728300  0.028500  1.0  0.0927
  H  H194  1  0.733800  0.596800  0.106800  1.0  0.1118
  H  H195  1  0.500900  0.825500  0.100100  1.0  0.1072
  H  H196  1  0.610700  0.793400  0.078600  1.0  0.1195
  H  H197  1  0.567600  0.352800  0.587900  1.0  0.1175
  H  H198  1  0.568800  0.347900  0.737600  1.0  0.1414
  H  H199  1  0.550700  0.271000  0.722600  1.0  0.1478
  H  H200  1  0.616800  0.289300  0.764700  1.0  0.137
  H  H201  1  0.682100  0.301500  0.461000  1.0  0.1317
  H  H202  1  0.630700  0.362800  0.469500  1.0  0.1334
  H  H203  1  0.709200  0.374000  0.483100  1.0  0.1299
  H  H204  1  0.788800  0.231100  0.597400  1.0  0.0916
  H  H205  1  0.780700  0.271700  0.528500  1.0  0.0929
  H  H206  1  0.766200  0.403200  0.606800  1.0  0.1115
  H  H207  1  0.999100  0.174500  0.600100  1.0  0.1084
  H  H208  1  0.889300  0.206600  0.578600  1.0  0.1188
  H  H209  1  0.352800  0.587900  0.567600  1.0  0.1166
  H  H210  1  0.347900  0.737600  0.568800  1.0  0.1392
  H  H211  1  0.271000  0.722600  0.550700  1.0  0.1466
  H  H212  1  0.289300  0.764700  0.616800  1.0  0.1381
  H  H213  1  0.301500  0.461000  0.682100  1.0  0.1322
  H  H214  1  0.362800  0.469500  0.630700  1.0  0.1345
  H  H215  1  0.374000  0.483100  0.709200  1.0  0.1274
  H  H216  1  0.231100  0.597400  0.788800  1.0  0.0913
  H  H217  1  0.271700  0.528500  0.780700  1.0  0.0906
  H  H218  1  0.403200  0.606800  0.766200  1.0  0.1133
  H  H219  1  0.174500  0.600100  0.999100  1.0  0.1082
  H  H220  1  0.206600  0.578600  0.889300  1.0  0.1186
  H  H221  1  0.647200  0.087900  0.932400  1.0  0.1173
  H  H222  1  0.652100  0.237600  0.931200  1.0  0.1389
  H  H223  1  0.729000  0.222600  0.949300  1.0  0.1472
  H  H224  1  0.710700  0.264700  0.883200  1.0  0.1366
  H  H225  1  0.698500  0.961000  0.817900  1.0  0.1322
  H  H226  1  0.637200  0.969500  0.869300  1.0  0.1346
  H  H227  1  0.626000  0.983100  0.790800  1.0  0.1271
  H  H228  1  0.768900  0.097400  0.711200  1.0  0.0904
  H  H229  1  0.728300  0.028500  0.719300  1.0  0.0904
  H  H230  1  0.596800  0.106800  0.733800  1.0  0.113
  H  H231  1  0.825500  0.100100  0.500900  1.0  0.1076
  H  H232  1  0.793400  0.078600  0.610700  1.0  0.1192
  H  H233  1  0.147200  0.412100  0.067600  1.0  0.1166
  H  H234  1  0.152100  0.262400  0.068800  1.0  0.138
  H  H235  1  0.229000  0.277400  0.050700  1.0  0.146
  H  H236  1  0.210700  0.235300  0.116800  1.0  0.1389
  H  H237  1  0.198500  0.539000  0.182100  1.0  0.1326
  H  H238  1  0.137200  0.530500  0.130700  1.0  0.1338
  H  H239  1  0.126000  0.516900  0.209200  1.0  0.1262
  H  H240  1  0.268900  0.402600  0.288800  1.0  0.0907
  H  H241  1  0.228300  0.471500  0.280700  1.0  0.0891
  H  H242  1  0.096800  0.393200  0.266200  1.0  0.113
  H  H243  1  0.325500  0.399900  0.499100  1.0  0.1076
  H  H244  1  0.293400  0.421400  0.389300  1.0  0.1187
  H  H245  1  0.852800  0.912100  0.432400  1.0  0.1165
  H  H246  1  0.847900  0.762400  0.431200  1.0  0.1384
  H  H247  1  0.771000  0.777400  0.449300  1.0  0.1462
  H  H248  1  0.789300  0.735300  0.383200  1.0  0.1388
  H  H249  1  0.801500  0.039000  0.317900  1.0  0.1324
  H  H250  1  0.862800  0.030500  0.369300  1.0  0.134
  H  H251  1  0.874000  0.016900  0.290800  1.0  0.1274
  H  H252  1  0.731100  0.902600  0.211200  1.0  0.0913
  H  H253  1  0.771700  0.971500  0.219300  1.0  0.0894
  H  H254  1  0.903200  0.893200  0.233800  1.0  0.1125
  H  H255  1  0.674500  0.899900  0.000900  1.0  0.1077
  H  H256  1  0.706600  0.921400  0.110700  1.0  0.1193
  H  H257  1  0.087900  0.932400  0.647200  1.0  0.1149
  H  H258  1  0.237600  0.931200  0.652100  1.0  0.1405
  H  H259  1  0.222600  0.949300  0.729000  1.0  0.1473
  H  H260  1  0.264700  0.883200  0.710700  1.0  0.1395
  H  H261  1  0.961000  0.817900  0.698500  1.0  0.1326
  H  H262  1  0.969500  0.869300  0.637200  1.0  0.1345
  H  H263  1  0.983100  0.790800  0.626000  1.0  0.1273
  H  H264  1  0.097400  0.711200  0.768900  1.0  0.091
  H  H265  1  0.028500  0.719300  0.728300  1.0  0.0915
  H  H266  1  0.106800  0.733800  0.596800  1.0  0.1105
  H  H267  1  0.100100  0.500900  0.825500  1.0  0.1098
  H  H268  1  0.078600  0.610700  0.793400  1.0  0.1195
  H  H269  1  0.587900  0.567600  0.352800  1.0  0.1154
  H  H270  1  0.737600  0.568800  0.347900  1.0  0.1402
  H  H271  1  0.722600  0.550700  0.271000  1.0  0.1479
  H  H272  1  0.764700  0.616800  0.289300  1.0  0.1411
  H  H273  1  0.461000  0.682100  0.301500  1.0  0.1324
  H  H274  1  0.469500  0.630700  0.362800  1.0  0.1338
  H  H275  1  0.483100  0.709200  0.374000  1.0  0.1278
  H  H276  1  0.597400  0.788800  0.231100  1.0  0.0913
  H  H277  1  0.528500  0.780700  0.271700  1.0  0.0913
  H  H278  1  0.606800  0.766200  0.403200  1.0  0.1102
  H  H279  1  0.600100  0.999100  0.174500  1.0  0.1101
  H  H280  1  0.578600  0.889300  0.206600  1.0  0.1199
  H  H281  1  0.912100  0.432400  0.852800  1.0  0.1159
  H  H282  1  0.762400  0.431200  0.847900  1.0  0.1408
  H  H283  1  0.777400  0.449300  0.771000  1.0  0.1478
  H  H284  1  0.735300  0.383200  0.789300  1.0  0.1395
  H  H285  1  0.039000  0.317900  0.801500  1.0  0.1327
  H  H286  1  0.030500  0.369300  0.862800  1.0  0.1341
  H  H287  1  0.016900  0.290800  0.874000  1.0  0.1285
  H  H288  1  0.902600  0.211200  0.731100  1.0  0.0919
  H  H289  1  0.971500  0.219300  0.771700  1.0  0.0929
  H  H290  1  0.893200  0.233800  0.903200  1.0  0.1104
  H  H291  1  0.899900  0.000900  0.674500  1.0  0.1099
  H  H292  1  0.921400  0.110700  0.706600  1.0  0.1197
  H  H293  1  0.412100  0.067600  0.147200  1.0  0.1144
  H  H294  1  0.262400  0.068800  0.152100  1.0  0.1405
  H  H295  1  0.277400  0.050700  0.229000  1.0  0.148
  H  H296  1  0.235300  0.116800  0.210700  1.0  0.1406
  H  H297  1  0.539000  0.182100  0.198500  1.0  0.133
  H  H298  1  0.530500  0.130700  0.137200  1.0  0.1339
  H  H299  1  0.516900  0.209200  0.126000  1.0  0.1283
  H  H300  1  0.402600  0.288800  0.268900  1.0  0.0917
  H  H301  1  0.471500  0.280700  0.228300  1.0  0.0925
  H  H302  1  0.393200  0.266200  0.096800  1.0  0.1101
  H  H303  1  0.399900  0.499100  0.325500  1.0  0.1092
  H  H304  1  0.421400  0.389300  0.293400  1.0  0.1194
  C  C305  1  0.056500  0.122600  0.913800  1.0  0.2083
  C  C306  1  0.082700  0.140700  0.849600  1.0  -0.1441
  C  C307  1  0.073800  0.088100  0.809100  1.0  0.1892
  C  C308  1  0.053400  0.162500  0.977700  1.0  -0.3916
  C  C309  1  0.092100  0.078200  0.737000  1.0  -0.3703
  C  C310  1  0.025600  0.972100  0.828100  1.0  -0.0823
  C  C311  1  0.076200  0.920000  0.851800  1.0  0.0522
  C  C312  1  0.140000  0.938400  0.863600  1.0  -0.1024
  C  C313  1  0.055000  0.852400  0.862200  1.0  -0.0396
  C  C314  1  0.968900  0.765100  0.860500  1.0  -0.1129
  C  C315  1  0.988100  0.830100  0.847500  1.0  -0.1304
  C  C316  1  0.443500  0.877400  0.413800  1.0  0.2093
  C  C317  1  0.417300  0.859300  0.349600  1.0  -0.145
  C  C318  1  0.426200  0.911900  0.309100  1.0  0.1886
  C  C319  1  0.446600  0.837500  0.477700  1.0  -0.3915
  C  C320  1  0.407900  0.921800  0.237000  1.0  -0.3697
  C  C321  1  0.474400  0.027900  0.328100  1.0  -0.0858
  C  C322  1  0.423800  0.080000  0.351800  1.0  0.0523
  C  C323  1  0.360000  0.061600  0.363600  1.0  -0.1044
  C  C324  1  0.445000  0.147600  0.362200  1.0  -0.0397
  C  C325  1  0.531100  0.234900  0.360500  1.0  -0.1151
  C  C326  1  0.511900  0.169900  0.347500  1.0  -0.134
  C  C327  1  0.943500  0.622600  0.586200  1.0  0.2076
  C  C328  1  0.917300  0.640700  0.650400  1.0  -0.1449
  C  C329  1  0.926200  0.588100  0.690900  1.0  0.1904
  C  C330  1  0.946600  0.662500  0.522300  1.0  -0.3897
  C  C331  1  0.907900  0.578200  0.763000  1.0  -0.369
  C  C332  1  0.974400  0.472100  0.671900  1.0  -0.0851
  C  C333  1  0.923800  0.420000  0.648200  1.0  0.0519
  C  C334  1  0.860000  0.438400  0.636400  1.0  -0.1042
  C  C335  1  0.945000  0.352400  0.637800  1.0  -0.0397
  C  C336  1  0.031100  0.265100  0.639500  1.0  -0.1158
  C  C337  1  0.011900  0.330100  0.652500  1.0  -0.134
  C  C338  1  0.556500  0.377400  0.086200  1.0  0.2082
  C  C339  1  0.582700  0.359300  0.150400  1.0  -0.1448
  C  C340  1  0.573800  0.411900  0.190900  1.0  0.1894
  C  C341  1  0.553400  0.337500  0.022300  1.0  -0.3902
  C  C342  1  0.592100  0.421800  0.263000  1.0  -0.3676
  C  C343  1  0.525600  0.527900  0.171900  1.0  -0.0821
  C  C344  1  0.576200  0.580000  0.148200  1.0  0.0524
  C  C345  1  0.640000  0.561600  0.136400  1.0  -0.1022
  C  C346  1  0.555000  0.647600  0.137800  1.0  -0.0393
  C  C347  1  0.468900  0.734900  0.139500  1.0  -0.1139
  C  C348  1  0.488100  0.669900  0.152500  1.0  -0.1312
  C  C349  1  0.913800  0.056500  0.122600  1.0  0.2095
  C  C350  1  0.849600  0.082700  0.140700  1.0  -0.14
  C  C351  1  0.809100  0.073800  0.088100  1.0  0.1881
  C  C352  1  0.977700  0.053400  0.162500  1.0  -0.3902
  C  C353  1  0.737000  0.092100  0.078200  1.0  -0.3653
  C  C354  1  0.828100  0.025600  0.972100  1.0  -0.0819
  C  C355  1  0.851800  0.076200  0.920000  1.0  0.0544
  C  C356  1  0.863600  0.140000  0.938400  1.0  -0.1061
  C  C357  1  0.862200  0.055000  0.852400  1.0  -0.0393
  C  C358  1  0.860500  0.968900  0.765100  1.0  -0.109
  C  C359  1  0.847500  0.988100  0.830100  1.0  -0.1319
  C  C360  1  0.413800  0.443500  0.877400  1.0  0.2097
  C  C361  1  0.349600  0.417300  0.859300  1.0  -0.1392
  C  C362  1  0.309100  0.426200  0.911900  1.0  0.1883
  C  C363  1  0.477700  0.446600  0.837500  1.0  -0.3898
  C  C364  1  0.237000  0.407900  0.921800  1.0  -0.3649
  C  C365  1  0.328100  0.474400  0.027900  1.0  -0.0808
  C  C366  1  0.351800  0.423800  0.080000  1.0  0.0528
  C  C367  1  0.363600  0.360000  0.061600  1.0  -0.1067
  C  C368  1  0.362200  0.445000  0.147600  1.0  -0.0395
  C  C369  1  0.360500  0.531100  0.234900  1.0  -0.1083
  C  C370  1  0.347500  0.511900  0.169900  1.0  -0.1311
  C  C371  1  0.586200  0.943500  0.622600  1.0  0.2091
  C  C372  1  0.650400  0.917300  0.640700  1.0  -0.1401
  C  C373  1  0.690900  0.926200  0.588100  1.0  0.1883
  C  C374  1  0.522300  0.946600  0.662500  1.0  -0.3895
  C  C375  1  0.763000  0.907900  0.578200  1.0  -0.3668
  C  C376  1  0.671900  0.974400  0.472100  1.0  -0.0795
  C  C377  1  0.648200  0.923800  0.420000  1.0  0.0541
  C  C378  1  0.636400  0.860000  0.438400  1.0  -0.1057
  C  C379  1  0.637800  0.945000  0.352400  1.0  -0.0395
  C  C380  1  0.639500  0.031100  0.265100  1.0  -0.1077
  C  C381  1  0.652500  0.011900  0.330100  1.0  -0.1324
  C  C382  1  0.086200  0.556500  0.377400  1.0  0.2091
  C  C383  1  0.150400  0.582700  0.359300  1.0  -0.1382
  C  C384  1  0.190900  0.573800  0.411900  1.0  0.1882
  C  C385  1  0.022300  0.553400  0.337500  1.0  -0.3887
  C  C386  1  0.263000  0.592100  0.421800  1.0  -0.3659
  C  C387  1  0.171900  0.525600  0.527900  1.0  -0.0814
  C  C388  1  0.148200  0.576200  0.580000  1.0  0.0538
  C  C389  1  0.136400  0.640000  0.561600  1.0  -0.1082
  C  C390  1  0.137800  0.555000  0.647600  1.0  -0.0395
  C  C391  1  0.139500  0.468900  0.734900  1.0  -0.1093
  C  C392  1  0.152500  0.488100  0.669900  1.0  -0.1321
  C  C393  1  0.122600  0.913800  0.056500  1.0  0.2086
  C  C394  1  0.140700  0.849600  0.082700  1.0  -0.1411
  C  C395  1  0.088100  0.809100  0.073800  1.0  0.1898
  C  C396  1  0.162500  0.977700  0.053400  1.0  -0.3905
  C  C397  1  0.078200  0.737000  0.092100  1.0  -0.3618
  C  C398  1  0.972100  0.828100  0.025600  1.0  -0.0848
  C  C399  1  0.920000  0.851800  0.076200  1.0  0.0535
  C  C400  1  0.938400  0.863600  0.140000  1.0  -0.099
  C  C401  1  0.852400  0.862200  0.055000  1.0  -0.0395
  C  C402  1  0.765100  0.860500  0.968900  1.0  -0.1128
  C  C403  1  0.830100  0.847500  0.988100  1.0  -0.1323
  C  C404  1  0.877400  0.413800  0.443500  1.0  0.2081
  C  C405  1  0.859300  0.349600  0.417300  1.0  -0.1413
  C  C406  1  0.911900  0.309100  0.426200  1.0  0.1866
  C  C407  1  0.837500  0.477700  0.446600  1.0  -0.3891
  C  C408  1  0.921800  0.237000  0.407900  1.0  -0.3615
  C  C409  1  0.027900  0.328100  0.474400  1.0  -0.0852
  C  C410  1  0.080000  0.351800  0.423800  1.0  0.0527
  C  C411  1  0.061600  0.363600  0.360000  1.0  -0.1002
  C  C412  1  0.147600  0.362200  0.445000  1.0  -0.0394
  C  C413  1  0.234900  0.360500  0.531100  1.0  -0.1131
  C  C414  1  0.169900  0.347500  0.511900  1.0  -0.1318
  C  C415  1  0.622600  0.586200  0.943500  1.0  0.2079
  C  C416  1  0.640700  0.650400  0.917300  1.0  -0.1427
  C  C417  1  0.588100  0.690900  0.926200  1.0  0.1876
  C  C418  1  0.662500  0.522300  0.946600  1.0  -0.3908
  C  C419  1  0.578200  0.763000  0.907900  1.0  -0.3629
  C  C420  1  0.472100  0.671900  0.974400  1.0  -0.0861
  C  C421  1  0.420000  0.648200  0.923800  1.0  0.0525
  C  C422  1  0.438400  0.636400  0.860000  1.0  -0.1004
  C  C423  1  0.352400  0.637800  0.945000  1.0  -0.0393
  C  C424  1  0.265100  0.639500  0.031100  1.0  -0.1116
  C  C425  1  0.330100  0.652500  0.011900  1.0  -0.1325
  C  C426  1  0.377400  0.086200  0.556500  1.0  0.2086
  C  C427  1  0.359300  0.150400  0.582700  1.0  -0.1421
  C  C428  1  0.411900  0.190900  0.573800  1.0  0.1887
  C  C429  1  0.337500  0.022300  0.553400  1.0  -0.3896
  C  C430  1  0.421800  0.263000  0.592100  1.0  -0.364
  C  C431  1  0.527900  0.171900  0.525600  1.0  -0.084
  C  C432  1  0.580000  0.148200  0.576200  1.0  0.0529
  C  C433  1  0.561600  0.136400  0.640000  1.0  -0.0984
  C  C434  1  0.647600  0.137800  0.555000  1.0  -0.0397
  C  C435  1  0.734900  0.139500  0.468900  1.0  -0.1145
  C  C436  1  0.669900  0.152500  0.488100  1.0  -0.1312
  C  C437  1  0.372600  0.806500  0.836200  1.0  0.2073
  C  C438  1  0.390700  0.832700  0.900400  1.0  -0.1401
  C  C439  1  0.338100  0.823800  0.940900  1.0  0.189
  C  C440  1  0.412500  0.803400  0.772300  1.0  -0.391
  C  C441  1  0.328200  0.842100  0.013000  1.0  -0.3645
  C  C442  1  0.222100  0.775600  0.921900  1.0  -0.0822
  C  C443  1  0.170000  0.826200  0.898200  1.0  0.0537
  C  C444  1  0.188400  0.890000  0.886400  1.0  -0.1032
  C  C445  1  0.102400  0.805000  0.887800  1.0  -0.0408
  C  C446  1  0.015100  0.718900  0.889500  1.0  -0.1097
  C  C447  1  0.080100  0.738100  0.902500  1.0  -0.1321
  C  C448  1  0.127400  0.193500  0.336200  1.0  0.2063
  C  C449  1  0.109300  0.167300  0.400400  1.0  -0.1408
  C  C450  1  0.161900  0.176200  0.440900  1.0  0.1886
  C  C451  1  0.087500  0.196600  0.272300  1.0  -0.3897
  C  C452  1  0.171800  0.157900  0.513000  1.0  -0.3637
  C  C453  1  0.277900  0.224400  0.421900  1.0  -0.0797
  C  C454  1  0.330000  0.173800  0.398200  1.0  0.0528
  C  C455  1  0.311600  0.110000  0.386400  1.0  -0.1027
  C  C456  1  0.397600  0.195000  0.387800  1.0  -0.041
  C  C457  1  0.484900  0.281100  0.389500  1.0  -0.1101
  C  C458  1  0.419900  0.261900  0.402500  1.0  -0.131
  C  C459  1  0.872600  0.693500  0.163800  1.0  0.2081
  C  C460  1  0.890700  0.667300  0.099600  1.0  -0.142
  C  C461  1  0.838100  0.676200  0.059100  1.0  0.1885
  C  C462  1  0.912500  0.696600  0.227700  1.0  -0.3919
  C  C463  1  0.828200  0.657900  0.987000  1.0  -0.3653
  C  C464  1  0.722100  0.724400  0.078100  1.0  -0.0809
  C  C465  1  0.670000  0.673800  0.101800  1.0  0.0527
  C  C466  1  0.688400  0.610000  0.113600  1.0  -0.1023
  C  C467  1  0.602400  0.695000  0.112200  1.0  -0.041
  C  C468  1  0.515100  0.781100  0.110500  1.0  -0.108
  C  C469  1  0.580100  0.761900  0.097500  1.0  -0.1316
  C  C470  1  0.627400  0.306500  0.663800  1.0  0.2068
  C  C471  1  0.609300  0.332700  0.599600  1.0  -0.1412
  C  C472  1  0.661900  0.323800  0.559100  1.0  0.1871
  C  C473  1  0.587500  0.303400  0.727700  1.0  -0.3916
  C  C474  1  0.671800  0.342100  0.487000  1.0  -0.3651
  C  C475  1  0.777900  0.275600  0.578100  1.0  -0.0819
  C  C476  1  0.830000  0.326200  0.601800  1.0  0.0534
  C  C477  1  0.811600  0.390000  0.613600  1.0  -0.1028
  C  C478  1  0.897600  0.305000  0.612200  1.0  -0.041
  C  C479  1  0.984900  0.218900  0.610500  1.0  -0.111
  C  C480  1  0.919900  0.238100  0.597500  1.0  -0.1309
  C  C481  1  0.306500  0.663800  0.627400  1.0  0.2117
  C  C482  1  0.332700  0.599600  0.609300  1.0  -0.1433
  C  C483  1  0.323800  0.559100  0.661900  1.0  0.1888
  C  C484  1  0.303400  0.727700  0.587500  1.0  -0.3894
  C  C485  1  0.342100  0.487000  0.671800  1.0  -0.3667
  C  C486  1  0.275600  0.578100  0.777900  1.0  -0.0828
  C  C487  1  0.326200  0.601800  0.830000  1.0  0.0537
  C  C488  1  0.390000  0.613600  0.811600  1.0  -0.1023
  C  C489  1  0.305000  0.612200  0.897600  1.0  -0.0412
  C  C490  1  0.218900  0.610500  0.984900  1.0  -0.1137
  C  C491  1  0.238100  0.597500  0.919900  1.0  -0.1302
  C  C492  1  0.693500  0.163800  0.872600  1.0  0.2107
  C  C493  1  0.667300  0.099600  0.890700  1.0  -0.1448
  C  C494  1  0.676200  0.059100  0.838100  1.0  0.1891
  C  C495  1  0.696600  0.227700  0.912500  1.0  -0.3896
  C  C496  1  0.657900  0.987000  0.828200  1.0  -0.3669
  C  C497  1  0.724400  0.078100  0.722100  1.0  -0.0858
  C  C498  1  0.673800  0.101800  0.670000  1.0  0.0539
  C  C499  1  0.610000  0.113600  0.688400  1.0  -0.1029
  C  C500  1  0.695000  0.112200  0.602400  1.0  -0.0413
  C  C501  1  0.781100  0.110500  0.515100  1.0  -0.1157
  C  C502  1  0.761900  0.097500  0.580100  1.0  -0.1336
  C  C503  1  0.193500  0.336200  0.127400  1.0  0.2106
  C  C504  1  0.167300  0.400400  0.109300  1.0  -0.1449
  C  C505  1  0.176200  0.440900  0.161900  1.0  0.1891
  C  C506  1  0.196600  0.272300  0.087500  1.0  -0.3897
  C  C507  1  0.157900  0.513000  0.171800  1.0  -0.3676
  C  C508  1  0.224400  0.421900  0.277900  1.0  -0.0863
  C  C509  1  0.173800  0.398200  0.330000  1.0  0.0528
  C  C510  1  0.110000  0.386400  0.311600  1.0  -0.1048
  C  C511  1  0.195000  0.387800  0.397600  1.0  -0.0415
  C  C512  1  0.281100  0.389500  0.484900  1.0  -0.1158
  C  C513  1  0.261900  0.402500  0.419900  1.0  -0.133
  C  C514  1  0.806500  0.836200  0.372600  1.0  0.2092
  C  C515  1  0.832700  0.900400  0.390700  1.0  -0.1444
  C  C516  1  0.823800  0.940900  0.338100  1.0  0.189
  C  C517  1  0.803400  0.772300  0.412500  1.0  -0.3889
  C  C518  1  0.842100  0.013000  0.328200  1.0  -0.3681
  C  C519  1  0.775600  0.921900  0.222100  1.0  -0.0825
  C  C520  1  0.826200  0.898200  0.170000  1.0  0.054
  C  C521  1  0.890000  0.886400  0.188400  1.0  -0.1017
  C  C522  1  0.805000  0.887800  0.102400  1.0  -0.0413
  C  C523  1  0.718900  0.889500  0.015100  1.0  -0.114
  C  C524  1  0.738100  0.902500  0.080100  1.0  -0.1303
  C  C525  1  0.163800  0.872600  0.693500  1.0  0.2082
  C  C526  1  0.099600  0.890700  0.667300  1.0  -0.1399
  C  C527  1  0.059100  0.838100  0.676200  1.0  0.1875
  C  C528  1  0.227700  0.912500  0.696600  1.0  -0.3902
  C  C529  1  0.987000  0.828200  0.657900  1.0  -0.3652
  C  C530  1  0.078100  0.722100  0.724400  1.0  -0.0855
  C  C531  1  0.101800  0.670000  0.673800  1.0  0.0526
  C  C532  1  0.113600  0.688400  0.610000  1.0  -0.1045
  C  C533  1  0.112200  0.602400  0.695000  1.0  -0.0411
  C  C534  1  0.110500  0.515100  0.781100  1.0  -0.1115
  C  C535  1  0.097500  0.580100  0.761900  1.0  -0.1311
  C  C536  1  0.663800  0.627400  0.306500  1.0  0.2091
  C  C537  1  0.599600  0.609300  0.332700  1.0  -0.1404
  C  C538  1  0.559100  0.661900  0.323800  1.0  0.1897
  C  C539  1  0.727700  0.587500  0.303400  1.0  -0.3897
  C  C540  1  0.487000  0.671800  0.342100  1.0  -0.3652
  C  C541  1  0.578100  0.777900  0.275600  1.0  -0.0837
  C  C542  1  0.601800  0.830000  0.326200  1.0  0.0535
  C  C543  1  0.613600  0.811600  0.390000  1.0  -0.1026
  C  C544  1  0.612200  0.897600  0.305000  1.0  -0.0412
  C  C545  1  0.610500  0.984900  0.218900  1.0  -0.1127
  C  C546  1  0.597500  0.919900  0.238100  1.0  -0.1309
  C  C547  1  0.836200  0.372600  0.806500  1.0  0.2078
  C  C548  1  0.900400  0.390700  0.832700  1.0  -0.1396
  C  C549  1  0.940900  0.338100  0.823800  1.0  0.1888
  C  C550  1  0.772300  0.412500  0.803400  1.0  -0.3889
  C  C551  1  0.013000  0.328200  0.842100  1.0  -0.367
  C  C552  1  0.921900  0.222100  0.775600  1.0  -0.0825
  C  C553  1  0.898200  0.170000  0.826200  1.0  0.0535
  C  C554  1  0.886400  0.188400  0.890000  1.0  -0.1029
  C  C555  1  0.887800  0.102400  0.805000  1.0  -0.0415
  C  C556  1  0.889500  0.015100  0.718900  1.0  -0.113
  C  C557  1  0.902500  0.080100  0.738100  1.0  -0.1315
  C  C558  1  0.336200  0.127400  0.193500  1.0  0.2076
  C  C559  1  0.400400  0.109300  0.167300  1.0  -0.1413
  C  C560  1  0.440900  0.161900  0.176200  1.0  0.1868
  C  C561  1  0.272300  0.087500  0.196600  1.0  -0.389
  C  C562  1  0.513000  0.171800  0.157900  1.0  -0.3661
  C  C563  1  0.421900  0.277900  0.224400  1.0  -0.0845
  C  C564  1  0.398200  0.330000  0.173800  1.0  0.0532
  C  C565  1  0.386400  0.311600  0.110000  1.0  -0.1043
  C  C566  1  0.387800  0.397600  0.195000  1.0  -0.041
  C  C567  1  0.389500  0.484900  0.281100  1.0  -0.1115
  C  C568  1  0.402500  0.419900  0.261900  1.0  -0.1323
  N  N569  1  0.043300  0.040300  0.846400  1.0  0.0702
  N  N570  1  0.033100  0.059800  0.910500  1.0  -0.3295
  N  N571  1  0.456700  0.959700  0.346400  1.0  0.0721
  N  N572  1  0.466900  0.940200  0.410500  1.0  -0.3299
  N  N573  1  0.956700  0.540300  0.653600  1.0  0.0724
  N  N574  1  0.966900  0.559800  0.589500  1.0  -0.3298
  N  N575  1  0.543300  0.459700  0.153600  1.0  0.0721
  N  N576  1  0.533100  0.440200  0.089500  1.0  -0.3285
  N  N577  1  0.846400  0.043300  0.040300  1.0  0.0703
  N  N578  1  0.910500  0.033100  0.059800  1.0  -0.3298
  N  N579  1  0.346400  0.456700  0.959700  1.0  0.0698
  N  N580  1  0.410500  0.466900  0.940200  1.0  -0.3295
  N  N581  1  0.653600  0.956700  0.540300  1.0  0.0716
  N  N582  1  0.589500  0.966900  0.559800  1.0  -0.3311
  N  N583  1  0.153600  0.543300  0.459700  1.0  0.0714
  N  N584  1  0.089500  0.533100  0.440200  1.0  -0.3322
  N  N585  1  0.040300  0.846400  0.043300  1.0  0.074
  N  N586  1  0.059800  0.910500  0.033100  1.0  -0.3306
  N  N587  1  0.959700  0.346400  0.456700  1.0  0.0737
  N  N588  1  0.940200  0.410500  0.466900  1.0  -0.3321
  N  N589  1  0.540300  0.653600  0.956700  1.0  0.0733
  N  N590  1  0.559800  0.589500  0.966900  1.0  -0.3308
  N  N591  1  0.459700  0.153600  0.543300  1.0  0.0747
  N  N592  1  0.440200  0.089500  0.533100  1.0  -0.3294
  N  N593  1  0.290300  0.793300  0.903600  1.0  0.0716
  N  N594  1  0.309800  0.783100  0.839500  1.0  -0.3304
  N  N595  1  0.209700  0.206700  0.403600  1.0  0.0722
  N  N596  1  0.190200  0.216900  0.339500  1.0  -0.3302
  N  N597  1  0.790300  0.706700  0.096400  1.0  0.0705
  N  N598  1  0.809800  0.716900  0.160500  1.0  -0.3299
  N  N599  1  0.709700  0.293300  0.596400  1.0  0.071
  N  N600  1  0.690200  0.283100  0.660500  1.0  -0.3312
  N  N601  1  0.293300  0.596400  0.709700  1.0  0.0704
  N  N602  1  0.283100  0.660500  0.690200  1.0  -0.3314
  N  N603  1  0.706700  0.096400  0.790300  1.0  0.0718
  N  N604  1  0.716900  0.160500  0.809800  1.0  -0.3309
  N  N605  1  0.206700  0.403600  0.209700  1.0  0.0715
  N  N606  1  0.216900  0.339500  0.190200  1.0  -0.3297
  N  N607  1  0.793300  0.903600  0.290300  1.0  0.0712
  N  N608  1  0.783100  0.839500  0.309800  1.0  -0.3288
  N  N609  1  0.096400  0.790300  0.706700  1.0  0.0723
  N  N610  1  0.160500  0.809800  0.716900  1.0  -0.3304
  N  N611  1  0.596400  0.709700  0.293300  1.0  0.0738
  N  N612  1  0.660500  0.690200  0.283100  1.0  -0.3288
  N  N613  1  0.903600  0.290300  0.793300  1.0  0.0748
  N  N614  1  0.839500  0.309800  0.783100  1.0  -0.331
  N  N615  1  0.403600  0.209700  0.206700  1.0  0.0744
  N  N616  1  0.339500  0.190200  0.216900  1.0  -0.331
  F  F617  1  0.544300  0.921900  0.967300  1.0  -0.4273
  F  F618  1  0.478000  0.913300  0.014000  1.0  -0.3882
  F  F619  1  0.467300  0.955700  0.078100  1.0  -0.4273
  F  F620  1  0.514000  0.022000  0.086700  1.0  -0.3892
  F  F621  1  0.578100  0.032700  0.044300  1.0  -0.4224
  F  F622  1  0.586700  0.986000  0.978000  1.0  -0.3831
  F  F623  1  0.955700  0.078100  0.467300  1.0  -0.4279
  F  F624  1  0.022000  0.086700  0.514000  1.0  -0.3885
  F  F625  1  0.032700  0.044300  0.578100  1.0  -0.4239
  F  F626  1  0.986000  0.978000  0.586700  1.0  -0.3892
  F  F627  1  0.921900  0.967300  0.544300  1.0  -0.426
  F  F628  1  0.913300  0.014000  0.478000  1.0  -0.3874
  F  F629  1  0.455700  0.421900  0.532700  1.0  -0.4281
  F  F630  1  0.522000  0.413300  0.486000  1.0  -0.3898
  F  F631  1  0.532700  0.455700  0.421900  1.0  -0.426
  F  F632  1  0.486000  0.522000  0.413300  1.0  -0.3926
  F  F633  1  0.421900  0.532700  0.455700  1.0  -0.4251
  F  F634  1  0.413300  0.486000  0.522000  1.0  -0.3878
  F  F635  1  0.044300  0.578100  0.032700  1.0  -0.4275
  F  F636  1  0.978000  0.586700  0.986000  1.0  -0.3889
  F  F637  1  0.967300  0.544300  0.921900  1.0  -0.4279
  F  F638  1  0.014000  0.478000  0.913300  1.0  -0.3914
  F  F639  1  0.078100  0.467300  0.955700  1.0  -0.4212
  F  F640  1  0.086700  0.514000  0.022000  1.0  -0.3847
  F  F641  1  0.171900  0.294300  0.782700  1.0  -0.4288
  F  F642  1  0.163300  0.228000  0.736000  1.0  -0.3877
  F  F643  1  0.205700  0.217300  0.671900  1.0  -0.4289
  F  F644  1  0.272000  0.264000  0.663300  1.0  -0.3908
  F  F645  1  0.282700  0.328100  0.705700  1.0  -0.4209
  F  F646  1  0.236000  0.336700  0.772000  1.0  -0.3898
  F  F647  1  0.328100  0.705700  0.282700  1.0  -0.4251
  F  F648  1  0.336700  0.772000  0.236000  1.0  -0.3857
  F  F649  1  0.294300  0.782700  0.171900  1.0  -0.4282
  F  F650  1  0.228000  0.736000  0.163300  1.0  -0.391
  F  F651  1  0.217300  0.671900  0.205700  1.0  -0.4251
  F  F652  1  0.264000  0.663300  0.272000  1.0  -0.3885
  F  F653  1  0.671900  0.205700  0.217300  1.0  -0.4288
  F  F654  1  0.663300  0.272000  0.264000  1.0  -0.3885
  F  F655  1  0.705700  0.282700  0.328100  1.0  -0.4274
  F  F656  1  0.772000  0.236000  0.336700  1.0  -0.3894
  F  F657  1  0.782700  0.171900  0.294300  1.0  -0.4219
  F  F658  1  0.736000  0.163300  0.228000  1.0  -0.3888
  F  F659  1  0.828100  0.794300  0.717300  1.0  -0.4237
  F  F660  1  0.836700  0.728000  0.764000  1.0  -0.384
  F  F661  1  0.794300  0.717300  0.828100  1.0  -0.427
  F  F662  1  0.728000  0.764000  0.836700  1.0  -0.3885
  F  F663  1  0.717300  0.828100  0.794300  1.0  -0.4247
  F  F664  1  0.764000  0.836700  0.728000  1.0  -0.3878
