# generated using pymatgen
data_Zn2PH20C24(N2O)4
_symmetry_space_group_name_H-M   'P 1'
_cell_length_a   8.49400000
_cell_length_b   12.98700000
_cell_length_c   15.18700000
_cell_angle_alpha   91.21300000
_cell_angle_beta   94.18500000
_cell_angle_gamma   108.52500000
_symmetry_Int_Tables_number   1
_chemical_formula_structural   Zn2PH20C24(N2O)4
_chemical_formula_sum   'Zn4 P2 H40 C48 N16 O8'
_cell_volume   1582.51715595
_cell_formula_units_Z   2
loop_
 _symmetry_equiv_pos_site_id
 _symmetry_equiv_pos_as_xyz
  1  'x, y, z'
loop_
 _atom_site_type_symbol
 _atom_site_label
 _atom_site_symmetry_multiplicity
 _atom_site_fract_x
 _atom_site_fract_y
 _atom_site_fract_z
 _atom_site_occupancy
 _atom_site_charge
  Zn  Zn1  1  0.596100  0.557760  0.641060  1.0  0.9445
  Zn  Zn2  1  0.994100  0.390410  0.584850  1.0  0.8467
  Zn  Zn3  1  0.403900  0.442240  0.358940  1.0  0.9457
  Zn  Zn4  1  0.005900  0.609590  0.415150  1.0  0.8471
  P  P5  1  0.714100  0.452600  0.483800  1.0  1.8033
  P  P6  1  0.285900  0.547400  0.516200  1.0  1.8057
  H  H7  1  0.971000  0.686100  0.597800  1.0  0.0931
  H  H8  1  0.709100  0.765400  0.774500  1.0  0.0929
  H  H9  1  0.972700  0.915300  0.776700  1.0  0.1308
  H  H10  1  0.153400  0.026800  0.677800  1.0  0.091
  H  H11  1  0.434200  0.136000  0.672900  1.0  0.1099
  H  H12  1  0.542600  0.871400  0.598800  1.0  0.1069
  H  H13  1  0.265400  0.765700  0.620000  1.0  0.0781
  H  H14  1  0.662300  0.231100  0.615800  1.0  0.0666
  H  H15  1  0.041500  0.143800  0.566800  1.0  0.1135
  H  H16  1  0.810700  0.981800  0.607200  1.0  0.1063
  H  H17  1  0.492000  0.581100  0.841500  1.0  0.0885
  H  H18  1  0.405200  0.318600  0.692600  1.0  0.085
  H  H19  1  0.248000  0.267100  0.822800  1.0  0.1232
  H  H20  1  0.178700  0.277800  0.958300  1.0  0.1121
  H  H21  1  0.056900  0.293800  0.085600  1.0  0.0939
  H  H22  1  0.243500  0.618300  0.084200  1.0  0.1215
  H  H23  1  0.374400  0.599000  0.958300  1.0  0.0911
  H  H24  1  0.206900  0.599600  0.244000  1.0  0.0919
  H  H25  1  0.770700  0.404900  0.302000  1.0  0.0942
  H  H26  1  0.836100  0.328800  0.162000  1.0  0.1321
  H  H27  1  0.029000  0.313900  0.402200  1.0  0.0922
  H  H28  1  0.290900  0.234600  0.225500  1.0  0.0935
  H  H29  1  0.027300  0.084700  0.223300  1.0  0.1283
  H  H30  1  0.846600  0.973200  0.322200  1.0  0.0903
  H  H31  1  0.565800  0.864000  0.327100  1.0  0.1101
  H  H32  1  0.457400  0.128600  0.401200  1.0  0.1069
  H  H33  1  0.734600  0.234300  0.380000  1.0  0.0776
  H  H34  1  0.337700  0.768900  0.384200  1.0  0.0661
  H  H35  1  0.958500  0.856200  0.433200  1.0  0.1139
  H  H36  1  0.189300  0.018200  0.392800  1.0  0.1064
  H  H37  1  0.508000  0.418900  0.158500  1.0  0.0883
  H  H38  1  0.594800  0.681400  0.307400  1.0  0.0851
  H  H39  1  0.752000  0.732900  0.177200  1.0  0.1217
  H  H40  1  0.821300  0.722200  0.041700  1.0  0.1122
  H  H41  1  0.943100  0.706200  0.914400  1.0  0.0945
  H  H42  1  0.756500  0.381700  0.915800  1.0  0.1208
  H  H43  1  0.625600  0.401000  0.041700  1.0  0.0917
  H  H44  1  0.793100  0.400400  0.756000  1.0  0.0915
  H  H45  1  0.229300  0.595100  0.698000  1.0  0.0935
  H  H46  1  0.163900  0.671200  0.838000  1.0  0.1352
  C  C47  1  0.938000  0.723700  0.641800  1.0  0.1189
  C  C48  1  0.795000  0.767800  0.739000  1.0  0.0464
  C  C49  1  0.941000  0.851800  0.741000  1.0  -0.1435
  C  C50  1  0.194000  0.885600  0.659700  1.0  0.1865
  C  C51  1  0.235000  0.995000  0.667000  1.0  -0.2089
  C  C52  1  0.401000  0.062000  0.659000  1.0  -0.1799
  C  C53  1  0.511000  0.015300  0.629700  1.0  0.075
  C  C54  1  0.467000  0.904200  0.616600  1.0  -0.1746
  C  C55  1  0.300000  0.840600  0.631100  1.0  -0.1459
  C  C56  1  0.731000  0.188400  0.611400  1.0  0.1759
  C  C57  1  0.940000  0.143000  0.586000  1.0  -0.051
  C  C58  1  0.808000  0.052000  0.603000  1.0  -0.0608
  C  C59  1  0.452000  0.509100  0.820100  1.0  0.1201
  C  C60  1  0.404000  0.366000  0.739100  1.0  0.029
  C  C61  1  0.317000  0.336000  0.811500  1.0  -0.1711
  C  C62  1  0.280000  0.437300  0.943600  1.0  0.0995
  C  C63  1  0.191000  0.346200  0.983000  1.0  -0.157
  C  C64  1  0.118000  0.356100  0.059100  1.0  -0.1462
  C  C65  1  0.135000  0.454600  0.096300  1.0  0.1069
  C  C66  1  0.231000  0.549900  0.059000  1.0  -0.195
  C  C67  1  0.306000  0.537700  0.983000  1.0  -0.1494
  C  C68  1  0.106000  0.543000  0.240400  1.0  0.1745
  C  C69  1  0.866000  0.434600  0.272700  1.0  0.0197
  C  C70  1  0.900000  0.391900  0.194000  1.0  -0.1015
  C  C71  1  0.062000  0.276300  0.358200  1.0  0.1199
  C  C72  1  0.205000  0.232200  0.261000  1.0  0.0471
  C  C73  1  0.059000  0.148200  0.259000  1.0  -0.1458
  C  C74  1  0.806000  0.114400  0.340300  1.0  0.1863
  C  C75  1  0.765000  0.005000  0.333000  1.0  -0.2075
  C  C76  1  0.599000  0.938000  0.341000  1.0  -0.1813
  C  C77  1  0.489000  0.984700  0.370300  1.0  0.0736
  C  C78  1  0.533000  0.095800  0.383400  1.0  -0.1751
  C  C79  1  0.700000  0.159400  0.368900  1.0  -0.1453
  C  C80  1  0.269000  0.811600  0.388600  1.0  0.1747
  C  C81  1  0.060000  0.857000  0.414000  1.0  -0.0506
  C  C82  1  0.192000  0.948000  0.397000  1.0  -0.0612
  C  C83  1  0.548000  0.490900  0.179900  1.0  0.1208
  C  C84  1  0.596000  0.634000  0.260900  1.0  0.0291
  C  C85  1  0.683000  0.664000  0.188500  1.0  -0.1671
  C  C86  1  0.720000  0.562700  0.056400  1.0  0.0989
  C  C87  1  0.809000  0.653800  0.017000  1.0  -0.153
  C  C88  1  0.882000  0.643900  0.940900  1.0  -0.1455
  C  C89  1  0.865000  0.545400  0.903700  1.0  0.1069
  C  C90  1  0.769000  0.450100  0.941000  1.0  -0.1907
  C  C91  1  0.694000  0.462300  0.017000  1.0  -0.1479
  C  C92  1  0.894000  0.457000  0.759600  1.0  0.1762
  C  C93  1  0.134000  0.565400  0.727300  1.0  0.0191
  C  C94  1  0.100000  0.608100  0.806000  1.0  -0.1009
  N  N95  1  0.790400  0.687600  0.678400  1.0  -0.4599
  N  N96  1  0.030000  0.822000  0.678400  1.0  0.0456
  N  N97  1  0.677900  0.084000  0.613600  1.0  0.0647
  N  N98  1  0.892300  0.229700  0.602500  1.0  -0.4299
  N  N99  1  0.488000  0.475000  0.743800  1.0  -0.4076
  N  N100  1  0.352900  0.427800  0.863500  1.0  0.0396
  N  N101  1  0.053800  0.466400  0.174000  1.0  -0.0365
  N  N102  1  0.993500  0.526500  0.300500  1.0  -0.3992
  N  N103  1  0.209600  0.312400  0.321600  1.0  -0.4578
  N  N104  1  0.970000  0.178000  0.321600  1.0  0.0458
  N  N105  1  0.322100  0.916000  0.386400  1.0  0.0649
  N  N106  1  0.107700  0.770300  0.397500  1.0  -0.4287
  N  N107  1  0.512000  0.525000  0.256200  1.0  -0.408
  N  N108  1  0.647100  0.572200  0.136500  1.0  0.0408
  N  N109  1  0.946200  0.533600  0.826000  1.0  -0.0366
  N  N110  1  0.006500  0.473500  0.699500  1.0  -0.3996
  O  O111  1  0.851700  0.399400  0.482400  1.0  -0.8032
  O  O112  1  0.661400  0.453200  0.577000  1.0  -0.8572
  O  O113  1  0.566500  0.387100  0.418900  1.0  -0.8385
  O  O114  1  0.781700  0.570400  0.452800  1.0  -0.8122
  O  O115  1  0.148300  0.600600  0.517600  1.0  -0.8025
  O  O116  1  0.338600  0.546800  0.423000  1.0  -0.8567
  O  O117  1  0.433500  0.612900  0.581100  1.0  -0.8395
  O  O118  1  0.218300  0.429600  0.547200  1.0  -0.8116
