# generated using pymatgen
data_NiH12C16(NO)4
_symmetry_space_group_name_H-M   'P 1'
_cell_length_a   35.02410000
_cell_length_b   13.33960000
_cell_length_c   9.18340000
_cell_angle_alpha   90.00000000
_cell_angle_beta   104.11600000
_cell_angle_gamma   90.00000000
_symmetry_Int_Tables_number   1
_chemical_formula_structural   NiH12C16(NO)4
_chemical_formula_sum   'Ni8 H96 C128 N32 O32'
_cell_volume   4160.99544108
_cell_formula_units_Z   8
loop_
 _symmetry_equiv_pos_site_id
 _symmetry_equiv_pos_as_xyz
  1  'x, y, z'
loop_
 _atom_site_type_symbol
 _atom_site_label
 _atom_site_symmetry_multiplicity
 _atom_site_fract_x
 _atom_site_fract_y
 _atom_site_fract_z
 _atom_site_occupancy
 _atom_site_charge
  Ni  Ni1  1  0.368430  0.216650  0.047550  1.0  0.6028
  Ni  Ni2  1  0.868430  0.716650  0.047550  1.0  0.6028
  Ni  Ni3  1  0.631570  0.216650  0.452450  1.0  0.5971
  Ni  Ni4  1  0.131570  0.716650  0.452450  1.0  0.5971
  Ni  Ni5  1  0.631570  0.783350  0.952450  1.0  0.5977
  Ni  Ni6  1  0.131570  0.283350  0.952450  1.0  0.5977
  Ni  Ni7  1  0.368430  0.783350  0.547550  1.0  0.6046
  Ni  Ni8  1  0.868430  0.283350  0.547550  1.0  0.6046
  H  H9  1  0.376300  0.186400  0.382500  1.0  0.0977
  H  H10  1  0.308500  0.481000  0.664700  1.0  0.1036
  H  H11  1  0.206100  0.483900  0.861100  1.0  0.1114
  H  H12  1  0.285500  0.259500  0.060100  1.0  0.095
  H  H13  1  0.245900  0.271600  0.224700  1.0  0.1388
  H  H14  1  0.275300  0.426900  0.893800  1.0  0.1065
  H  H15  1  0.340300  0.200900  0.557800  1.0  0.1524
  H  H16  1  0.241100  0.547400  0.640300  1.0  0.1054
  H  H17  1  0.429300  0.526800  0.319300  1.0  0.1413
  H  H18  1  0.383500  0.429800  0.154900  1.0  0.0904
  H  H19  1  0.495500  0.282600  0.430000  1.0  0.1455
  H  H20  1  0.449200  0.193800  0.258500  1.0  0.1005
  H  H21  1  0.876300  0.686400  0.382500  1.0  0.0977
  H  H22  1  0.808500  0.981000  0.664700  1.0  0.1036
  H  H23  1  0.706100  0.983900  0.861100  1.0  0.1114
  H  H24  1  0.785500  0.759500  0.060100  1.0  0.095
  H  H25  1  0.745900  0.771600  0.224700  1.0  0.1388
  H  H26  1  0.775300  0.926900  0.893800  1.0  0.1065
  H  H27  1  0.840300  0.700900  0.557800  1.0  0.1524
  H  H28  1  0.741100  0.047400  0.640300  1.0  0.1054
  H  H29  1  0.929300  0.026800  0.319300  1.0  0.1413
  H  H30  1  0.883500  0.929800  0.154900  1.0  0.0904
  H  H31  1  0.995500  0.782600  0.430000  1.0  0.1455
  H  H32  1  0.949200  0.693800  0.258500  1.0  0.1005
  H  H33  1  0.623700  0.186400  0.117500  1.0  0.0989
  H  H34  1  0.691500  0.481000  0.835300  1.0  0.104
  H  H35  1  0.793900  0.483900  0.638900  1.0  0.1117
  H  H36  1  0.714500  0.259500  0.439900  1.0  0.095
  H  H37  1  0.754100  0.271600  0.275300  1.0  0.1379
  H  H38  1  0.724700  0.426900  0.606200  1.0  0.1074
  H  H39  1  0.659700  0.200900  0.942200  1.0  0.152
  H  H40  1  0.758900  0.547400  0.859700  1.0  0.105
  H  H41  1  0.570700  0.526800  0.180700  1.0  0.1415
  H  H42  1  0.616500  0.429800  0.345100  1.0  0.09
  H  H43  1  0.504500  0.282600  0.070000  1.0  0.1453
  H  H44  1  0.550800  0.193800  0.241500  1.0  0.1008
  H  H45  1  0.123700  0.686400  0.117500  1.0  0.0989
  H  H46  1  0.191500  0.981000  0.835300  1.0  0.104
  H  H47  1  0.293900  0.983900  0.638900  1.0  0.1117
  H  H48  1  0.214500  0.759500  0.439900  1.0  0.095
  H  H49  1  0.254100  0.771600  0.275300  1.0  0.1379
  H  H50  1  0.224700  0.926900  0.606200  1.0  0.1074
  H  H51  1  0.159700  0.700900  0.942200  1.0  0.152
  H  H52  1  0.258900  0.047400  0.859700  1.0  0.105
  H  H53  1  0.070700  0.026800  0.180700  1.0  0.1415
  H  H54  1  0.116500  0.929800  0.345100  1.0  0.09
  H  H55  1  0.004500  0.782600  0.070000  1.0  0.1453
  H  H56  1  0.050800  0.693800  0.241500  1.0  0.1008
  H  H57  1  0.623700  0.813600  0.617500  1.0  0.0987
  H  H58  1  0.691500  0.519000  0.335300  1.0  0.1048
  H  H59  1  0.793900  0.516100  0.138900  1.0  0.1116
  H  H60  1  0.714500  0.740500  0.939900  1.0  0.095
  H  H61  1  0.754100  0.728400  0.775300  1.0  0.138
  H  H62  1  0.724700  0.573100  0.106200  1.0  0.1071
  H  H63  1  0.659700  0.799100  0.442200  1.0  0.152
  H  H64  1  0.758900  0.452600  0.359700  1.0  0.1047
  H  H65  1  0.570700  0.473200  0.680700  1.0  0.1424
  H  H66  1  0.616500  0.570200  0.845100  1.0  0.0903
  H  H67  1  0.504500  0.717400  0.570000  1.0  0.1452
  H  H68  1  0.550800  0.806200  0.741500  1.0  0.0991
  H  H69  1  0.123700  0.313600  0.617500  1.0  0.0987
  H  H70  1  0.191500  0.019000  0.335300  1.0  0.1048
  H  H71  1  0.293900  0.016100  0.138900  1.0  0.1116
  H  H72  1  0.214500  0.240500  0.939900  1.0  0.095
  H  H73  1  0.254100  0.228400  0.775300  1.0  0.138
  H  H74  1  0.224700  0.073100  0.106200  1.0  0.1071
  H  H75  1  0.159700  0.299100  0.442200  1.0  0.152
  H  H76  1  0.258900  0.952600  0.359700  1.0  0.1047
  H  H77  1  0.070700  0.973200  0.680700  1.0  0.1424
  H  H78  1  0.116500  0.070200  0.845100  1.0  0.0903
  H  H79  1  0.004500  0.217400  0.570000  1.0  0.1452
  H  H80  1  0.050800  0.306200  0.741500  1.0  0.0991
  H  H81  1  0.376300  0.813600  0.882500  1.0  0.0976
  H  H82  1  0.308500  0.519000  0.164700  1.0  0.1038
  H  H83  1  0.206100  0.516100  0.361100  1.0  0.1112
  H  H84  1  0.285500  0.740500  0.560100  1.0  0.0948
  H  H85  1  0.245900  0.728400  0.724700  1.0  0.1386
  H  H86  1  0.275300  0.573100  0.393800  1.0  0.1065
  H  H87  1  0.340300  0.799100  0.057800  1.0  0.1522
  H  H88  1  0.241100  0.452600  0.140300  1.0  0.1055
  H  H89  1  0.429300  0.473200  0.819300  1.0  0.1423
  H  H90  1  0.383500  0.570200  0.654900  1.0  0.0902
  H  H91  1  0.495500  0.717400  0.930000  1.0  0.1451
  H  H92  1  0.449200  0.806200  0.758500  1.0  0.0992
  H  H93  1  0.876300  0.313600  0.882500  1.0  0.0976
  H  H94  1  0.808500  0.019000  0.164700  1.0  0.1038
  H  H95  1  0.706100  0.016100  0.361100  1.0  0.1112
  H  H96  1  0.785500  0.240500  0.560100  1.0  0.0948
  H  H97  1  0.745900  0.228400  0.724700  1.0  0.1386
  H  H98  1  0.775300  0.073100  0.393800  1.0  0.1065
  H  H99  1  0.840300  0.299100  0.057800  1.0  0.1522
  H  H100  1  0.741100  0.952600  0.140300  1.0  0.1055
  H  H101  1  0.929300  0.973200  0.819300  1.0  0.1423
  H  H102  1  0.883500  0.070200  0.654900  1.0  0.0902
  H  H103  1  0.995500  0.217400  0.930000  1.0  0.1451
  H  H104  1  0.949200  0.306200  0.758500  1.0  0.0992
  C  C105  1  0.349880  0.204500  0.351100  1.0  0.1908
  C  C106  1  0.306890  0.445800  0.750400  1.0  -0.1584
  C  C107  1  0.207060  0.516600  0.772700  1.0  -0.1813
  C  C108  1  0.296360  0.246900  0.161300  1.0  0.1774
  C  C109  1  0.288840  0.236500  0.410000  1.0  0.2253
  C  C110  1  0.272350  0.254700  0.258800  1.0  -0.1651
  C  C111  1  0.275230  0.456800  0.802300  1.0  -0.0563
  C  C112  1  0.328530  0.212000  0.456800  1.0  -0.2037
  C  C113  1  0.171480  0.571500  0.688800  1.0  0.7284
  C  C114  1  0.340490  0.378800  0.823800  1.0  0.7139
  C  C115  1  0.240210  0.512400  0.726900  1.0  -0.0726
  C  C116  1  0.433800  0.458800  0.309000  1.0  -0.1137
  C  C117  1  0.467400  0.414400  0.390600  1.0  0.053
  C  C118  1  0.406450  0.399700  0.210000  1.0  0.1927
  C  C119  1  0.473050  0.314500  0.373800  1.0  -0.1619
  C  C120  1  0.444950  0.261600  0.271900  1.0  0.1601
  C  C121  1  0.849880  0.704500  0.351100  1.0  0.1908
  C  C122  1  0.806890  0.945800  0.750400  1.0  -0.1584
  C  C123  1  0.707060  0.016600  0.772700  1.0  -0.1813
  C  C124  1  0.796360  0.746900  0.161300  1.0  0.1774
  C  C125  1  0.788840  0.736500  0.410000  1.0  0.2253
  C  C126  1  0.772350  0.754700  0.258800  1.0  -0.1651
  C  C127  1  0.775230  0.956800  0.802300  1.0  -0.0563
  C  C128  1  0.828530  0.712000  0.456800  1.0  -0.2037
  C  C129  1  0.671480  0.071500  0.688800  1.0  0.7284
  C  C130  1  0.840490  0.878800  0.823800  1.0  0.7139
  C  C131  1  0.740210  0.012400  0.726900  1.0  -0.0726
  C  C132  1  0.933800  0.958800  0.309000  1.0  -0.1137
  C  C133  1  0.967400  0.914400  0.390600  1.0  0.053
  C  C134  1  0.906450  0.899700  0.210000  1.0  0.1927
  C  C135  1  0.973050  0.814500  0.373800  1.0  -0.1619
  C  C136  1  0.944950  0.761600  0.271900  1.0  0.1601
  C  C137  1  0.650120  0.204500  0.148900  1.0  0.1908
  C  C138  1  0.693110  0.445800  0.749600  1.0  -0.1564
  C  C139  1  0.792940  0.516600  0.727300  1.0  -0.1828
  C  C140  1  0.703640  0.246900  0.338700  1.0  0.1769
  C  C141  1  0.711160  0.236500  0.090000  1.0  0.2273
  C  C142  1  0.727650  0.254700  0.241200  1.0  -0.1668
  C  C143  1  0.724770  0.456800  0.697700  1.0  -0.0575
  C  C144  1  0.671470  0.212000  0.043200  1.0  -0.2037
  C  C145  1  0.828520  0.571500  0.811200  1.0  0.7278
  C  C146  1  0.659510  0.378800  0.676200  1.0  0.713
  C  C147  1  0.759790  0.512400  0.773100  1.0  -0.0725
  C  C148  1  0.566200  0.458800  0.191000  1.0  -0.1135
  C  C149  1  0.532600  0.414400  0.109400  1.0  0.0539
  C  C150  1  0.593550  0.399700  0.290000  1.0  0.1927
  C  C151  1  0.526950  0.314500  0.126200  1.0  -0.1623
  C  C152  1  0.555050  0.261600  0.228100  1.0  0.16
  C  C153  1  0.150120  0.704500  0.148900  1.0  0.1908
  C  C154  1  0.193110  0.945800  0.749600  1.0  -0.1564
  C  C155  1  0.292940  0.016600  0.727300  1.0  -0.1828
  C  C156  1  0.203640  0.746900  0.338700  1.0  0.1769
  C  C157  1  0.211160  0.736500  0.090000  1.0  0.2273
  C  C158  1  0.227650  0.754700  0.241200  1.0  -0.1668
  C  C159  1  0.224770  0.956800  0.697700  1.0  -0.0575
  C  C160  1  0.171470  0.712000  0.043200  1.0  -0.2037
  C  C161  1  0.328520  0.071500  0.811200  1.0  0.7278
  C  C162  1  0.159510  0.878800  0.676200  1.0  0.713
  C  C163  1  0.259790  0.012400  0.773100  1.0  -0.0725
  C  C164  1  0.066200  0.958800  0.191000  1.0  -0.1135
  C  C165  1  0.032600  0.914400  0.109400  1.0  0.0539
  C  C166  1  0.093550  0.899700  0.290000  1.0  0.1927
  C  C167  1  0.026950  0.814500  0.126200  1.0  -0.1623
  C  C168  1  0.055050  0.761600  0.228100  1.0  0.16
  C  C169  1  0.650120  0.795500  0.648900  1.0  0.1914
  C  C170  1  0.693110  0.554200  0.249600  1.0  -0.1564
  C  C171  1  0.792940  0.483400  0.227300  1.0  -0.183
  C  C172  1  0.703640  0.753100  0.838700  1.0  0.177
  C  C173  1  0.711160  0.763500  0.590000  1.0  0.2273
  C  C174  1  0.727650  0.745300  0.741200  1.0  -0.1666
  C  C175  1  0.724770  0.543200  0.197700  1.0  -0.0575
  C  C176  1  0.671470  0.788000  0.543200  1.0  -0.2036
  C  C177  1  0.828520  0.428500  0.311200  1.0  0.7279
  C  C178  1  0.659510  0.621200  0.176200  1.0  0.7125
  C  C179  1  0.759790  0.487600  0.273100  1.0  -0.0724
  C  C180  1  0.566200  0.541200  0.691000  1.0  -0.1121
  C  C181  1  0.532600  0.585600  0.609400  1.0  0.0538
  C  C182  1  0.593550  0.600300  0.790000  1.0  0.1929
  C  C183  1  0.526950  0.685500  0.626200  1.0  -0.1629
  C  C184  1  0.555050  0.738400  0.728100  1.0  0.1592
  C  C185  1  0.150120  0.295500  0.648900  1.0  0.1914
  C  C186  1  0.193110  0.054200  0.249600  1.0  -0.1564
  C  C187  1  0.292940  0.983400  0.227300  1.0  -0.183
  C  C188  1  0.203640  0.253100  0.838700  1.0  0.177
  C  C189  1  0.211160  0.263500  0.590000  1.0  0.2273
  C  C190  1  0.227650  0.245300  0.741200  1.0  -0.1666
  C  C191  1  0.224770  0.043200  0.197700  1.0  -0.0575
  C  C192  1  0.171470  0.288000  0.543200  1.0  -0.2036
  C  C193  1  0.328520  0.928500  0.311200  1.0  0.7279
  C  C194  1  0.159510  0.121200  0.176200  1.0  0.7125
  C  C195  1  0.259790  0.987600  0.273100  1.0  -0.0724
  C  C196  1  0.066200  0.041200  0.691000  1.0  -0.1121
  C  C197  1  0.032600  0.085600  0.609400  1.0  0.0538
  C  C198  1  0.093550  0.100300  0.790000  1.0  0.1929
  C  C199  1  0.026950  0.185500  0.626200  1.0  -0.1629
  C  C200  1  0.055050  0.238400  0.728100  1.0  0.1592
  C  C201  1  0.349880  0.795500  0.851100  1.0  0.1907
  C  C202  1  0.306890  0.554200  0.250400  1.0  -0.1582
  C  C203  1  0.207060  0.483400  0.272700  1.0  -0.1813
  C  C204  1  0.296360  0.753100  0.661300  1.0  0.1774
  C  C205  1  0.288840  0.763500  0.910000  1.0  0.2257
  C  C206  1  0.272350  0.745300  0.758800  1.0  -0.1648
  C  C207  1  0.275230  0.543200  0.302300  1.0  -0.0566
  C  C208  1  0.328530  0.788000  0.956800  1.0  -0.2038
  C  C209  1  0.171480  0.428500  0.188800  1.0  0.7284
  C  C210  1  0.340490  0.621200  0.323800  1.0  0.7132
  C  C211  1  0.240210  0.487600  0.226900  1.0  -0.0728
  C  C212  1  0.433800  0.541200  0.809000  1.0  -0.1117
  C  C213  1  0.467400  0.585600  0.890600  1.0  0.0535
  C  C214  1  0.406450  0.600300  0.710000  1.0  0.1926
  C  C215  1  0.473050  0.685500  0.873800  1.0  -0.1626
  C  C216  1  0.444950  0.738400  0.771900  1.0  0.1594
  C  C217  1  0.849880  0.295500  0.851100  1.0  0.1907
  C  C218  1  0.806890  0.054200  0.250400  1.0  -0.1582
  C  C219  1  0.707060  0.983400  0.272700  1.0  -0.1813
  C  C220  1  0.796360  0.253100  0.661300  1.0  0.1774
  C  C221  1  0.788840  0.263500  0.910000  1.0  0.2257
  C  C222  1  0.772350  0.245300  0.758800  1.0  -0.1648
  C  C223  1  0.775230  0.043200  0.302300  1.0  -0.0566
  C  C224  1  0.828530  0.288000  0.956800  1.0  -0.2038
  C  C225  1  0.671480  0.928500  0.188800  1.0  0.7284
  C  C226  1  0.840490  0.121200  0.323800  1.0  0.7132
  C  C227  1  0.740210  0.987600  0.226900  1.0  -0.0728
  C  C228  1  0.933800  0.041200  0.809000  1.0  -0.1117
  C  C229  1  0.967400  0.085600  0.890600  1.0  0.0535
  C  C230  1  0.906450  0.100300  0.710000  1.0  0.1926
  C  C231  1  0.973050  0.185500  0.873800  1.0  -0.1626
  C  C232  1  0.944950  0.238400  0.771900  1.0  0.1594
  N  N233  1  0.334810  0.222000  0.204200  1.0  -0.2936
  N  N234  1  0.411530  0.303500  0.190700  1.0  -0.3077
  N  N235  1  0.268050  0.241600  0.525100  1.0  -0.1627
  N  N236  1  0.503800  0.459900  0.514500  1.0  -0.2837
  N  N237  1  0.834810  0.722000  0.204200  1.0  -0.2936
  N  N238  1  0.911530  0.803500  0.190700  1.0  -0.3077
  N  N239  1  0.768050  0.741600  0.525100  1.0  -0.1627
  N  N240  1  0.003800  0.959900  0.514500  1.0  -0.2837
  N  N241  1  0.665190  0.222000  0.295800  1.0  -0.2943
  N  N242  1  0.588470  0.303500  0.309300  1.0  -0.3057
  N  N243  1  0.731950  0.241600  0.974900  1.0  -0.1598
  N  N244  1  0.496200  0.459900  0.985500  1.0  -0.2836
  N  N245  1  0.165190  0.722000  0.295800  1.0  -0.2943
  N  N246  1  0.088470  0.803500  0.309300  1.0  -0.3057
  N  N247  1  0.231950  0.741600  0.974900  1.0  -0.1598
  N  N248  1  0.996200  0.959900  0.985500  1.0  -0.2836
  N  N249  1  0.665190  0.778000  0.795800  1.0  -0.295
  N  N250  1  0.588470  0.696500  0.809300  1.0  -0.3063
  N  N251  1  0.731950  0.758400  0.474900  1.0  -0.1596
  N  N252  1  0.496200  0.540100  0.485500  1.0  -0.2835
  N  N253  1  0.165190  0.278000  0.795800  1.0  -0.295
  N  N254  1  0.088470  0.196500  0.809300  1.0  -0.3063
  N  N255  1  0.231950  0.258400  0.474900  1.0  -0.1596
  N  N256  1  0.996200  0.040100  0.485500  1.0  -0.2835
  N  N257  1  0.334810  0.778000  0.704200  1.0  -0.2938
  N  N258  1  0.411530  0.696500  0.690700  1.0  -0.3057
  N  N259  1  0.268050  0.758400  0.025100  1.0  -0.1627
  N  N260  1  0.503800  0.540100  0.014500  1.0  -0.2851
  N  N261  1  0.834810  0.278000  0.704200  1.0  -0.2938
  N  N262  1  0.911530  0.196500  0.690700  1.0  -0.3057
  N  N263  1  0.768050  0.258400  0.025100  1.0  -0.1627
  N  N264  1  0.003800  0.040100  0.014500  1.0  -0.2851
  O  O265  1  0.367460  0.366300  0.757900  1.0  -0.5716
  O  O266  1  0.175040  0.630600  0.587100  1.0  -0.5832
  O  O267  1  0.338640  0.339500  0.947600  1.0  -0.5758
  O  O268  1  0.139240  0.555100  0.725200  1.0  -0.5444
  O  O269  1  0.867460  0.866300  0.757900  1.0  -0.5716
  O  O270  1  0.675040  0.130600  0.587100  1.0  -0.5832
  O  O271  1  0.838640  0.839500  0.947600  1.0  -0.5758
  O  O272  1  0.639240  0.055100  0.725200  1.0  -0.5444
  O  O273  1  0.632540  0.366300  0.742100  1.0  -0.5676
  O  O274  1  0.824960  0.630600  0.912900  1.0  -0.5816
  O  O275  1  0.661360  0.339500  0.552400  1.0  -0.5755
  O  O276  1  0.860760  0.555100  0.774800  1.0  -0.5433
  O  O277  1  0.132540  0.866300  0.742100  1.0  -0.5676
  O  O278  1  0.324960  0.130600  0.912900  1.0  -0.5816
  O  O279  1  0.161360  0.839500  0.552400  1.0  -0.5755
  O  O280  1  0.360760  0.055100  0.774800  1.0  -0.5433
  O  O281  1  0.632540  0.633700  0.242100  1.0  -0.5676
  O  O282  1  0.824960  0.369400  0.412900  1.0  -0.5817
  O  O283  1  0.661360  0.660500  0.052400  1.0  -0.5755
  O  O284  1  0.860760  0.444900  0.274800  1.0  -0.5434
  O  O285  1  0.132540  0.133700  0.242100  1.0  -0.5676
  O  O286  1  0.324960  0.869400  0.412900  1.0  -0.5817
  O  O287  1  0.161360  0.160500  0.052400  1.0  -0.5755
  O  O288  1  0.360760  0.944900  0.274800  1.0  -0.5434
  O  O289  1  0.367460  0.633700  0.257900  1.0  -0.5703
  O  O290  1  0.175040  0.369400  0.087100  1.0  -0.5832
  O  O291  1  0.338640  0.660500  0.447600  1.0  -0.5754
  O  O292  1  0.139240  0.444900  0.225200  1.0  -0.5445
  O  O293  1  0.867460  0.133700  0.257900  1.0  -0.5703
  O  O294  1  0.675040  0.869400  0.087100  1.0  -0.5832
  O  O295  1  0.838640  0.160500  0.447600  1.0  -0.5754
  O  O296  1  0.639240  0.944900  0.225200  1.0  -0.5445
