# generated using pymatgen
data_NiH14C18(NO2)2
_symmetry_space_group_name_H-M   'P 1'
_cell_length_a   37.06000000
_cell_length_b   13.32800000
_cell_length_c   9.37300000
_cell_angle_alpha   90.00000000
_cell_angle_beta   102.15300000
_cell_angle_gamma   90.00000000
_symmetry_Int_Tables_number   1
_chemical_formula_structural   NiH14C18(NO2)2
_chemical_formula_sum   'Ni8 H112 C144 N16 O32'
_cell_volume   4525.90344971
_cell_formula_units_Z   8
loop_
 _symmetry_equiv_pos_site_id
 _symmetry_equiv_pos_as_xyz
  1  'x, y, z'
loop_
 _atom_site_type_symbol
 _atom_site_label
 _atom_site_symmetry_multiplicity
 _atom_site_fract_x
 _atom_site_fract_y
 _atom_site_fract_z
 _atom_site_occupancy
 _atom_site_charge
  Ni  Ni1  1  0.862120  0.216470  0.165630  1.0  0.5915
  Ni  Ni2  1  0.362120  0.716470  0.165630  1.0  0.5915
  Ni  Ni3  1  0.137880  0.216470  0.334370  1.0  0.5938
  Ni  Ni4  1  0.637880  0.716470  0.334370  1.0  0.5938
  Ni  Ni5  1  0.137880  0.783530  0.834370  1.0  0.5944
  Ni  Ni6  1  0.637880  0.283530  0.834370  1.0  0.5944
  Ni  Ni7  1  0.862120  0.783530  0.665630  1.0  0.5938
  Ni  Ni8  1  0.362120  0.283530  0.665630  1.0  0.5938
  H  H9  1  0.749000  0.270600  0.779600  1.0  0.1303
  H  H10  1  0.784800  0.258700  0.007800  1.0  0.089
  H  H11  1  0.725800  0.927500  0.343200  1.0  0.1001
  H  H12  1  0.695200  0.980300  0.061900  1.0  0.1027
  H  H13  1  0.838200  0.204500  0.620300  1.0  0.1364
  H  H14  1  0.758400  0.047400  0.156100  1.0  0.0972
  H  H15  1  0.789700  0.980600  0.429200  1.0  0.1088
  H  H16  1  0.780800  0.236700  0.444300  1.0  0.0992
  H  H17  1  0.871000  0.190800  0.852700  1.0  0.0923
  H  H18  1  0.988300  0.313700  0.090500  1.0  0.1332
  H  H19  1  0.943500  0.212400  0.151000  1.0  0.0981
  H  H20  1  0.974300  0.572000  0.967500  1.0  0.1015
  H  H21  1  0.914300  0.532000  0.003800  1.0  0.1266
  H  H22  1  0.872200  0.426300  0.065500  1.0  0.0852
  H  H23  1  0.249000  0.770600  0.779600  1.0  0.1303
  H  H24  1  0.284800  0.758700  0.007800  1.0  0.089
  H  H25  1  0.225800  0.427500  0.343200  1.0  0.1001
  H  H26  1  0.195200  0.480300  0.061900  1.0  0.1027
  H  H27  1  0.338200  0.704500  0.620300  1.0  0.1364
  H  H28  1  0.258400  0.547400  0.156100  1.0  0.0972
  H  H29  1  0.289700  0.480600  0.429200  1.0  0.1088
  H  H30  1  0.280800  0.736700  0.444300  1.0  0.0992
  H  H31  1  0.371000  0.690800  0.852700  1.0  0.0923
  H  H32  1  0.488300  0.813700  0.090500  1.0  0.1332
  H  H33  1  0.443500  0.712400  0.151000  1.0  0.0981
  H  H34  1  0.474300  0.072000  0.967500  1.0  0.1015
  H  H35  1  0.414300  0.032000  0.003800  1.0  0.1266
  H  H36  1  0.372200  0.926300  0.065500  1.0  0.0852
  H  H37  1  0.251000  0.270600  0.720400  1.0  0.1301
  H  H38  1  0.215200  0.258700  0.492200  1.0  0.0892
  H  H39  1  0.274200  0.927500  0.156800  1.0  0.1001
  H  H40  1  0.304800  0.980300  0.438100  1.0  0.1023
  H  H41  1  0.161800  0.204500  0.879700  1.0  0.1366
  H  H42  1  0.241600  0.047400  0.343900  1.0  0.0967
  H  H43  1  0.210300  0.980600  0.070800  1.0  0.11
  H  H44  1  0.219200  0.236700  0.055700  1.0  0.0994
  H  H45  1  0.129000  0.190800  0.647300  1.0  0.093
  H  H46  1  0.011700  0.313700  0.409500  1.0  0.1343
  H  H47  1  0.056500  0.212400  0.349000  1.0  0.0971
  H  H48  1  0.025700  0.572000  0.532500  1.0  0.102
  H  H49  1  0.085700  0.532000  0.496200  1.0  0.1262
  H  H50  1  0.127800  0.426300  0.434500  1.0  0.0858
  H  H51  1  0.751000  0.770600  0.720400  1.0  0.1301
  H  H52  1  0.715200  0.758700  0.492200  1.0  0.0892
  H  H53  1  0.774200  0.427500  0.156800  1.0  0.1001
  H  H54  1  0.804800  0.480300  0.438100  1.0  0.1023
  H  H55  1  0.661800  0.704500  0.879700  1.0  0.1366
  H  H56  1  0.741600  0.547400  0.343900  1.0  0.0967
  H  H57  1  0.710300  0.480600  0.070800  1.0  0.11
  H  H58  1  0.719200  0.736700  0.055700  1.0  0.0994
  H  H59  1  0.629000  0.690800  0.647300  1.0  0.093
  H  H60  1  0.511700  0.813700  0.409500  1.0  0.1343
  H  H61  1  0.556500  0.712400  0.349000  1.0  0.0971
  H  H62  1  0.525700  0.072000  0.532500  1.0  0.102
  H  H63  1  0.585700  0.032000  0.496200  1.0  0.1262
  H  H64  1  0.627800  0.926300  0.434500  1.0  0.0858
  H  H65  1  0.251000  0.729400  0.220400  1.0  0.1301
  H  H66  1  0.215200  0.741300  0.992200  1.0  0.0892
  H  H67  1  0.274200  0.072500  0.656800  1.0  0.1002
  H  H68  1  0.304800  0.019700  0.938100  1.0  0.1021
  H  H69  1  0.161800  0.795500  0.379700  1.0  0.1365
  H  H70  1  0.241600  0.952600  0.843900  1.0  0.0967
  H  H71  1  0.210300  0.019400  0.570800  1.0  0.1098
  H  H72  1  0.219200  0.763300  0.555700  1.0  0.0994
  H  H73  1  0.129000  0.809200  0.147300  1.0  0.093
  H  H74  1  0.011700  0.686300  0.909500  1.0  0.1336
  H  H75  1  0.056500  0.787600  0.849000  1.0  0.0969
  H  H76  1  0.025700  0.428000  0.032500  1.0  0.1013
  H  H77  1  0.085700  0.468000  0.996200  1.0  0.127
  H  H78  1  0.127800  0.573700  0.934500  1.0  0.086
  H  H79  1  0.751000  0.229400  0.220400  1.0  0.1301
  H  H80  1  0.715200  0.241300  0.992200  1.0  0.0892
  H  H81  1  0.774200  0.572500  0.656800  1.0  0.1002
  H  H82  1  0.804800  0.519700  0.938100  1.0  0.1021
  H  H83  1  0.661800  0.295500  0.379700  1.0  0.1365
  H  H84  1  0.741600  0.452600  0.843900  1.0  0.0967
  H  H85  1  0.710300  0.519400  0.570800  1.0  0.1098
  H  H86  1  0.719200  0.263300  0.555700  1.0  0.0994
  H  H87  1  0.629000  0.309200  0.147300  1.0  0.093
  H  H88  1  0.511700  0.186300  0.909500  1.0  0.1336
  H  H89  1  0.556500  0.287600  0.849000  1.0  0.0969
  H  H90  1  0.525700  0.928000  0.032500  1.0  0.1013
  H  H91  1  0.585700  0.968000  0.996200  1.0  0.127
  H  H92  1  0.627800  0.073700  0.934500  1.0  0.086
  H  H93  1  0.749000  0.729400  0.279600  1.0  0.1301
  H  H94  1  0.784800  0.741300  0.507800  1.0  0.0888
  H  H95  1  0.725800  0.072500  0.843200  1.0  0.1003
  H  H96  1  0.695200  0.019700  0.561900  1.0  0.1028
  H  H97  1  0.838200  0.795500  0.120300  1.0  0.1365
  H  H98  1  0.758400  0.952600  0.656100  1.0  0.097
  H  H99  1  0.789700  0.019400  0.929200  1.0  0.1093
  H  H100  1  0.780800  0.763300  0.944300  1.0  0.0995
  H  H101  1  0.871000  0.809200  0.352700  1.0  0.0928
  H  H102  1  0.988300  0.686300  0.590500  1.0  0.133
  H  H103  1  0.943500  0.787600  0.651000  1.0  0.0949
  H  H104  1  0.974300  0.428000  0.467500  1.0  0.1003
  H  H105  1  0.914300  0.468000  0.503800  1.0  0.1271
  H  H106  1  0.872200  0.573700  0.565500  1.0  0.0851
  H  H107  1  0.249000  0.229400  0.279600  1.0  0.1301
  H  H108  1  0.284800  0.241300  0.507800  1.0  0.0888
  H  H109  1  0.225800  0.572500  0.843200  1.0  0.1003
  H  H110  1  0.195200  0.519700  0.561900  1.0  0.1028
  H  H111  1  0.338200  0.295500  0.120300  1.0  0.1365
  H  H112  1  0.258400  0.452600  0.656100  1.0  0.097
  H  H113  1  0.289700  0.519400  0.929200  1.0  0.1093
  H  H114  1  0.280800  0.263300  0.944300  1.0  0.0995
  H  H115  1  0.371000  0.309200  0.352700  1.0  0.0928
  H  H116  1  0.488300  0.186300  0.590500  1.0  0.133
  H  H117  1  0.443500  0.287600  0.651000  1.0  0.0949
  H  H118  1  0.474300  0.928000  0.467500  1.0  0.1003
  H  H119  1  0.414300  0.968000  0.503800  1.0  0.1271
  H  H120  1  0.372200  0.073700  0.565500  1.0  0.0851
  C  C121  1  0.773850  0.254500  0.791700  1.0  -0.1736
  C  C122  1  0.795620  0.247100  0.928400  1.0  0.1878
  C  C123  1  0.726160  0.957100  0.253600  1.0  -0.0786
  C  C124  1  0.696540  0.945300  0.148600  1.0  -0.1639
  C  C125  1  0.826500  0.215000  0.697800  1.0  -0.2089
  C  C126  1  0.758880  0.011800  0.241700  1.0  -0.085
  C  C127  1  0.789280  0.015000  0.342600  1.0  -0.177
  C  C128  1  0.767860  0.243300  0.518800  1.0  -0.1363
  C  C129  1  0.789300  0.237800  0.670500  1.0  0.1433
  C  C130  1  0.665240  0.878500  0.162300  1.0  0.7131
  C  C131  1  0.823170  0.070400  0.327200  1.0  0.7288
  C  C132  1  0.846200  0.207900  0.837800  1.0  0.1809
  C  C133  1  0.964600  0.338700  0.085000  1.0  -0.2008
  C  C134  1  0.937390  0.277700  0.120300  1.0  0.1464
  C  C135  1  0.956300  0.437900  0.041200  1.0  0.1057
  C  C136  1  0.983100  0.508700  0.998800  1.0  -0.1036
  C  C137  1  0.921400  0.467200  0.033900  1.0  -0.2202
  C  C138  1  0.896030  0.402600  0.070300  1.0  0.1868
  C  C139  1  0.273850  0.754500  0.791700  1.0  -0.1736
  C  C140  1  0.295620  0.747100  0.928400  1.0  0.1878
  C  C141  1  0.226160  0.457100  0.253600  1.0  -0.0786
  C  C142  1  0.196540  0.445300  0.148600  1.0  -0.1639
  C  C143  1  0.326500  0.715000  0.697800  1.0  -0.2089
  C  C144  1  0.258880  0.511800  0.241700  1.0  -0.085
  C  C145  1  0.289280  0.515000  0.342600  1.0  -0.177
  C  C146  1  0.267860  0.743300  0.518800  1.0  -0.1363
  C  C147  1  0.289300  0.737800  0.670500  1.0  0.1433
  C  C148  1  0.165240  0.378500  0.162300  1.0  0.7131
  C  C149  1  0.323170  0.570400  0.327200  1.0  0.7288
  C  C150  1  0.346200  0.707900  0.837800  1.0  0.1809
  C  C151  1  0.464600  0.838700  0.085000  1.0  -0.2008
  C  C152  1  0.437390  0.777700  0.120300  1.0  0.1464
  C  C153  1  0.456300  0.937900  0.041200  1.0  0.1057
  C  C154  1  0.483100  0.008700  0.998800  1.0  -0.1036
  C  C155  1  0.421400  0.967200  0.033900  1.0  -0.2202
  C  C156  1  0.396030  0.902600  0.070300  1.0  0.1868
  C  C157  1  0.226150  0.254500  0.708300  1.0  -0.1746
  C  C158  1  0.204380  0.247100  0.571600  1.0  0.1882
  C  C159  1  0.273840  0.957100  0.246400  1.0  -0.079
  C  C160  1  0.303460  0.945300  0.351400  1.0  -0.1649
  C  C161  1  0.173500  0.215000  0.802200  1.0  -0.2094
  C  C162  1  0.241120  0.011800  0.258300  1.0  -0.0854
  C  C163  1  0.210720  0.015000  0.157400  1.0  -0.1771
  C  C164  1  0.232140  0.243300  0.981200  1.0  -0.139
  C  C165  1  0.210700  0.237800  0.829500  1.0  0.1421
  C  C166  1  0.334760  0.878500  0.337700  1.0  0.7099
  C  C167  1  0.176830  0.070400  0.172800  1.0  0.727
  C  C168  1  0.153800  0.207900  0.662200  1.0  0.1803
  C  C169  1  0.035400  0.338700  0.415000  1.0  -0.2009
  C  C170  1  0.062610  0.277700  0.379700  1.0  0.1462
  C  C171  1  0.043700  0.437900  0.458800  1.0  0.1051
  C  C172  1  0.016900  0.508700  0.501200  1.0  -0.1034
  C  C173  1  0.078600  0.467200  0.466100  1.0  -0.2215
  C  C174  1  0.103970  0.402600  0.429700  1.0  0.1873
  C  C175  1  0.726150  0.754500  0.708300  1.0  -0.1746
  C  C176  1  0.704380  0.747100  0.571600  1.0  0.1882
  C  C177  1  0.773840  0.457100  0.246400  1.0  -0.079
  C  C178  1  0.803460  0.445300  0.351400  1.0  -0.1649
  C  C179  1  0.673500  0.715000  0.802200  1.0  -0.2094
  C  C180  1  0.741120  0.511800  0.258300  1.0  -0.0854
  C  C181  1  0.710720  0.515000  0.157400  1.0  -0.1771
  C  C182  1  0.732140  0.743300  0.981200  1.0  -0.139
  C  C183  1  0.710700  0.737800  0.829500  1.0  0.1421
  C  C184  1  0.834760  0.378500  0.337700  1.0  0.7099
  C  C185  1  0.676830  0.570400  0.172800  1.0  0.727
  C  C186  1  0.653800  0.707900  0.662200  1.0  0.1803
  C  C187  1  0.535400  0.838700  0.415000  1.0  -0.2009
  C  C188  1  0.562610  0.777700  0.379700  1.0  0.1462
  C  C189  1  0.543700  0.937900  0.458800  1.0  0.1051
  C  C190  1  0.516900  0.008700  0.501200  1.0  -0.1034
  C  C191  1  0.578600  0.967200  0.466100  1.0  -0.2215
  C  C192  1  0.603970  0.902600  0.429700  1.0  0.1873
  C  C193  1  0.226150  0.745500  0.208300  1.0  -0.1745
  C  C194  1  0.204380  0.752900  0.071600  1.0  0.1877
  C  C195  1  0.273840  0.042900  0.746400  1.0  -0.0785
  C  C196  1  0.303460  0.054700  0.851400  1.0  -0.1643
  C  C197  1  0.173500  0.785000  0.302200  1.0  -0.2093
  C  C198  1  0.241120  0.988200  0.758300  1.0  -0.0855
  C  C199  1  0.210720  0.985000  0.657400  1.0  -0.1768
  C  C200  1  0.232140  0.756700  0.481200  1.0  -0.1388
  C  C201  1  0.210700  0.762200  0.329500  1.0  0.1419
  C  C202  1  0.334760  0.121500  0.837700  1.0  0.7087
  C  C203  1  0.176830  0.929600  0.672800  1.0  0.7271
  C  C204  1  0.153800  0.792100  0.162200  1.0  0.1804
  C  C205  1  0.035400  0.661300  0.915000  1.0  -0.2029
  C  C206  1  0.062610  0.722300  0.879700  1.0  0.146
  C  C207  1  0.043700  0.562100  0.958800  1.0  0.1051
  C  C208  1  0.016900  0.491300  0.001200  1.0  -0.1054
  C  C209  1  0.078600  0.532800  0.966100  1.0  -0.2206
  C  C210  1  0.103970  0.597400  0.929700  1.0  0.1876
  C  C211  1  0.726150  0.245500  0.208300  1.0  -0.1745
  C  C212  1  0.704380  0.252900  0.071600  1.0  0.1877
  C  C213  1  0.773840  0.542900  0.746400  1.0  -0.0785
  C  C214  1  0.803460  0.554700  0.851400  1.0  -0.1643
  C  C215  1  0.673500  0.285000  0.302200  1.0  -0.2093
  C  C216  1  0.741120  0.488200  0.758300  1.0  -0.0855
  C  C217  1  0.710720  0.485000  0.657400  1.0  -0.1768
  C  C218  1  0.732140  0.256700  0.481200  1.0  -0.1388
  C  C219  1  0.710700  0.262200  0.329500  1.0  0.1419
  C  C220  1  0.834760  0.621500  0.837700  1.0  0.7087
  C  C221  1  0.676830  0.429600  0.672800  1.0  0.7271
  C  C222  1  0.653800  0.292100  0.162200  1.0  0.1804
  C  C223  1  0.535400  0.161300  0.915000  1.0  -0.2029
  C  C224  1  0.562610  0.222300  0.879700  1.0  0.146
  C  C225  1  0.543700  0.062100  0.958800  1.0  0.1051
  C  C226  1  0.516900  0.991300  0.001200  1.0  -0.1054
  C  C227  1  0.578600  0.032800  0.966100  1.0  -0.2206
  C  C228  1  0.603970  0.097400  0.929700  1.0  0.1876
  C  C229  1  0.773850  0.745500  0.291700  1.0  -0.1734
  C  C230  1  0.795620  0.752900  0.428400  1.0  0.1879
  C  C231  1  0.726160  0.042900  0.753600  1.0  -0.0781
  C  C232  1  0.696540  0.054700  0.648600  1.0  -0.1643
  C  C233  1  0.826500  0.785000  0.197800  1.0  -0.2093
  C  C234  1  0.758880  0.988200  0.741700  1.0  -0.0855
  C  C235  1  0.789280  0.985000  0.842600  1.0  -0.1769
  C  C236  1  0.767860  0.756700  0.018800  1.0  -0.136
  C  C237  1  0.789300  0.762200  0.170500  1.0  0.1428
  C  C238  1  0.665240  0.121500  0.662300  1.0  0.7134
  C  C239  1  0.823170  0.929600  0.827200  1.0  0.7287
  C  C240  1  0.846200  0.792100  0.337800  1.0  0.181
  C  C241  1  0.964600  0.661300  0.585000  1.0  -0.2006
  C  C242  1  0.937390  0.722300  0.620300  1.0  0.1465
  C  C243  1  0.956300  0.562100  0.541200  1.0  0.1057
  C  C244  1  0.983100  0.491300  0.498800  1.0  -0.1066
  C  C245  1  0.921400  0.532800  0.533900  1.0  -0.2196
  C  C246  1  0.896030  0.597400  0.570300  1.0  0.1873
  C  C247  1  0.273850  0.245500  0.291700  1.0  -0.1734
  C  C248  1  0.295620  0.252900  0.428400  1.0  0.1879
  C  C249  1  0.226160  0.542900  0.753600  1.0  -0.0781
  C  C250  1  0.196540  0.554700  0.648600  1.0  -0.1643
  C  C251  1  0.326500  0.285000  0.197800  1.0  -0.2093
  C  C252  1  0.258880  0.488200  0.741700  1.0  -0.0855
  C  C253  1  0.289280  0.485000  0.842600  1.0  -0.1769
  C  C254  1  0.267860  0.256700  0.018800  1.0  -0.136
  C  C255  1  0.289300  0.262200  0.170500  1.0  0.1428
  C  C256  1  0.165240  0.621500  0.662300  1.0  0.7134
  C  C257  1  0.323170  0.429600  0.827200  1.0  0.7287
  C  C258  1  0.346200  0.292100  0.337800  1.0  0.181
  C  C259  1  0.464600  0.161300  0.585000  1.0  -0.2006
  C  C260  1  0.437390  0.222300  0.620300  1.0  0.1465
  C  C261  1  0.456300  0.062100  0.541200  1.0  0.1057
  C  C262  1  0.483100  0.991300  0.498800  1.0  -0.1066
  C  C263  1  0.421400  0.032800  0.533900  1.0  -0.2196
  C  C264  1  0.396030  0.097400  0.570300  1.0  0.1873
  N  N265  1  0.831580  0.224300  0.954900  1.0  -0.3104
  N  N266  1  0.903260  0.308600  0.111900  1.0  -0.317
  N  N267  1  0.331580  0.724300  0.954900  1.0  -0.3104
  N  N268  1  0.403260  0.808600  0.111900  1.0  -0.317
  N  N269  1  0.168420  0.224300  0.545100  1.0  -0.3121
  N  N270  1  0.096740  0.308600  0.388100  1.0  -0.3187
  N  N271  1  0.668420  0.724300  0.545100  1.0  -0.3121
  N  N272  1  0.596740  0.808600  0.388100  1.0  -0.3187
  N  N273  1  0.168420  0.775700  0.045100  1.0  -0.3116
  N  N274  1  0.096740  0.691400  0.888100  1.0  -0.3156
  N  N275  1  0.668420  0.275700  0.045100  1.0  -0.3116
  N  N276  1  0.596740  0.191400  0.888100  1.0  -0.3156
  N  N277  1  0.831580  0.775700  0.454900  1.0  -0.3105
  N  N278  1  0.903260  0.691400  0.611900  1.0  -0.3147
  N  N279  1  0.331580  0.275700  0.454900  1.0  -0.3105
  N  N280  1  0.403260  0.191400  0.611900  1.0  -0.3147
  O  O281  1  0.820720  0.128600  0.219900  1.0  -0.5837
  O  O282  1  0.666510  0.837600  0.284200  1.0  -0.5784
  O  O283  1  0.852030  0.056300  0.424900  1.0  -0.5401
  O  O284  1  0.640460  0.863300  0.050900  1.0  -0.599
  O  O285  1  0.320720  0.628600  0.219900  1.0  -0.5837
  O  O286  1  0.166510  0.337600  0.284200  1.0  -0.5784
  O  O287  1  0.352030  0.556300  0.424900  1.0  -0.5401
  O  O288  1  0.140460  0.363300  0.050900  1.0  -0.599
  O  O289  1  0.179280  0.128600  0.280100  1.0  -0.5837
  O  O290  1  0.333490  0.837600  0.215800  1.0  -0.58
  O  O291  1  0.147970  0.056300  0.075100  1.0  -0.5414
  O  O292  1  0.359540  0.863300  0.449100  1.0  -0.5998
  O  O293  1  0.679280  0.628600  0.280100  1.0  -0.5837
  O  O294  1  0.833490  0.337600  0.215800  1.0  -0.58
  O  O295  1  0.647970  0.556300  0.075100  1.0  -0.5414
  O  O296  1  0.859540  0.363300  0.449100  1.0  -0.5998
  O  O297  1  0.179280  0.871400  0.780100  1.0  -0.5838
  O  O298  1  0.333490  0.162400  0.715800  1.0  -0.5798
  O  O299  1  0.147970  0.943700  0.575100  1.0  -0.5412
  O  O300  1  0.359540  0.136700  0.949100  1.0  -0.6
  O  O301  1  0.679280  0.371400  0.780100  1.0  -0.5838
  O  O302  1  0.833490  0.662400  0.715800  1.0  -0.5798
  O  O303  1  0.647970  0.443700  0.575100  1.0  -0.5412
  O  O304  1  0.859540  0.636700  0.949100  1.0  -0.6
  O  O305  1  0.820720  0.871400  0.719900  1.0  -0.5842
  O  O306  1  0.666510  0.162400  0.784200  1.0  -0.5784
  O  O307  1  0.852030  0.943700  0.924900  1.0  -0.5403
  O  O308  1  0.640460  0.136700  0.550900  1.0  -0.5987
  O  O309  1  0.320720  0.371400  0.719900  1.0  -0.5842
  O  O310  1  0.166510  0.662400  0.784200  1.0  -0.5784
  O  O311  1  0.352030  0.443700  0.924900  1.0  -0.5403
  O  O312  1  0.140460  0.636700  0.550900  1.0  -0.5987
