# generated using pymatgen
data_CdIn2(CO2)12
_symmetry_space_group_name_H-M   'P 1'
_cell_length_a   8.56600000
_cell_length_b   8.56600000
_cell_length_c   37.81100000
_cell_angle_alpha   90.00000000
_cell_angle_beta   90.00000000
_cell_angle_gamma   120.00000000
_symmetry_Int_Tables_number   1
_chemical_formula_structural   CdIn2(CO2)12
_chemical_formula_sum   'Cd3 In6 C36 O72'
_cell_volume   2402.72980266
_cell_formula_units_Z   3
loop_
 _symmetry_equiv_pos_site_id
 _symmetry_equiv_pos_as_xyz
  1  'x, y, z'
loop_
 _atom_site_type_symbol
 _atom_site_label
 _atom_site_symmetry_multiplicity
 _atom_site_fract_x
 _atom_site_fract_y
 _atom_site_fract_z
 _atom_site_occupancy
 _atom_site_charge
  Cd  Cd1  1  0.000000  0.000000  0.666667  1.0  1.0071
  Cd  Cd2  1  0.000000  0.000000  0.333333  1.0  1.0065
  Cd  Cd3  1  0.000000  0.000000  0.000000  1.0  1.0067
  In  In4  1  0.500000  0.500000  0.778040  1.0  1.4335
  In  In5  1  0.000000  0.500000  0.444710  1.0  1.4335
  In  In6  1  0.500000  0.000000  0.111370  1.0  1.4334
  In  In7  1  0.000000  0.500000  0.888630  1.0  1.4333
  In  In8  1  0.500000  0.500000  0.221960  1.0  1.4334
  In  In9  1  0.500000  0.000000  0.555290  1.0  1.4333
  C  C10  1  0.278200  0.177500  0.725420  1.0  0.495
  C  C11  1  0.226100  0.321300  0.717100  1.0  0.5055
  C  C12  1  0.899300  0.721800  0.392090  1.0  0.4943
  C  C13  1  0.095200  0.773900  0.383770  1.0  0.5067
  C  C14  1  0.822500  0.100700  0.058750  1.0  0.4951
  C  C15  1  0.678700  0.904800  0.050430  1.0  0.5038
  C  C16  1  0.721800  0.822500  0.725420  1.0  0.4926
  C  C17  1  0.773900  0.678700  0.717100  1.0  0.5055
  C  C18  1  0.100700  0.278200  0.392090  1.0  0.4951
  C  C19  1  0.904800  0.226100  0.383770  1.0  0.5064
  C  C20  1  0.177500  0.899300  0.058750  1.0  0.4943
  C  C21  1  0.321300  0.095200  0.050430  1.0  0.5034
  C  C22  1  0.100700  0.822500  0.941250  1.0  0.4948
  C  C23  1  0.904800  0.678700  0.949570  1.0  0.5057
  C  C24  1  0.177500  0.278200  0.274580  1.0  0.4937
  C  C25  1  0.321300  0.226100  0.282900  1.0  0.5071
  C  C26  1  0.721800  0.899300  0.607910  1.0  0.4944
  C  C27  1  0.773900  0.095200  0.616230  1.0  0.5035
  C  C28  1  0.899300  0.177500  0.941250  1.0  0.4917
  C  C29  1  0.095200  0.321300  0.949570  1.0  0.5058
  C  C30  1  0.822500  0.721800  0.274580  1.0  0.4952
  C  C31  1  0.678700  0.773900  0.282900  1.0  0.5073
  C  C32  1  0.278200  0.100700  0.607910  1.0  0.4944
  C  C33  1  0.226100  0.904800  0.616230  1.0  0.5046
  C  C34  1  0.704800  0.409600  0.833330  1.0  0.5004
  C  C35  1  0.807200  0.614400  0.833330  1.0  0.5129
  C  C36  1  0.704800  0.295200  0.500000  1.0  0.5022
  C  C37  1  0.807200  0.192800  0.500000  1.0  0.5165
  C  C38  1  0.590400  0.295200  0.166670  1.0  0.5033
  C  C39  1  0.385600  0.192800  0.166670  1.0  0.5149
  C  C40  1  0.295200  0.590400  0.833330  1.0  0.5006
  C  C41  1  0.192800  0.385600  0.833330  1.0  0.515
  C  C42  1  0.295200  0.704800  0.500000  1.0  0.5024
  C  C43  1  0.192800  0.807200  0.500000  1.0  0.5156
  C  C44  1  0.409600  0.704800  0.166670  1.0  0.5004
  C  C45  1  0.614400  0.807200  0.166670  1.0  0.5163
  O  O46  1  0.578500  0.330400  0.811940  1.0  -0.4335
  O  O47  1  0.295100  0.460600  0.736150  1.0  -0.4788
  O  O48  1  0.120500  0.289700  0.692130  1.0  -0.3222
  O  O49  1  0.391600  0.214100  0.749590  1.0  -0.3735
  O  O50  1  0.756200  0.690100  0.811550  1.0  -0.4539
  O  O51  1  0.205200  0.035500  0.707310  1.0  -0.4146
  O  O52  1  0.751900  0.421500  0.478610  1.0  -0.4297
  O  O53  1  0.165500  0.704900  0.402820  1.0  -0.4794
  O  O54  1  0.169200  0.879500  0.358800  1.0  -0.3227
  O  O55  1  0.822500  0.608400  0.416260  1.0  -0.3734
  O  O56  1  0.933900  0.243800  0.478220  1.0  -0.4579
  O  O57  1  0.830300  0.794800  0.373980  1.0  -0.4148
  O  O58  1  0.669600  0.248100  0.145270  1.0  -0.4294
  O  O59  1  0.539400  0.834500  0.069480  1.0  -0.4797
  O  O60  1  0.710300  0.830800  0.025460  1.0  -0.3231
  O  O61  1  0.785900  0.177500  0.082920  1.0  -0.37
  O  O62  1  0.309900  0.066100  0.144880  1.0  -0.4578
  O  O63  1  0.964500  0.169700  0.040640  1.0  -0.4138
  O  O64  1  0.421500  0.669600  0.811940  1.0  -0.4299
  O  O65  1  0.704900  0.539400  0.736150  1.0  -0.4784
  O  O66  1  0.879500  0.710300  0.692130  1.0  -0.3232
  O  O67  1  0.608400  0.785900  0.749590  1.0  -0.3701
  O  O68  1  0.243800  0.309900  0.811550  1.0  -0.4563
  O  O69  1  0.794800  0.964500  0.707310  1.0  -0.4154
  O  O70  1  0.248100  0.578500  0.478610  1.0  -0.4306
  O  O71  1  0.834500  0.295100  0.402820  1.0  -0.4783
  O  O72  1  0.830800  0.120500  0.358800  1.0  -0.3279
  O  O73  1  0.177500  0.391600  0.416260  1.0  -0.3703
  O  O74  1  0.066100  0.756200  0.478220  1.0  -0.4566
  O  O75  1  0.169700  0.205200  0.373980  1.0  -0.4152
  O  O76  1  0.330400  0.751900  0.145270  1.0  -0.432
  O  O77  1  0.460600  0.165500  0.069480  1.0  -0.478
  O  O78  1  0.289700  0.169200  0.025460  1.0  -0.3215
  O  O79  1  0.214100  0.822500  0.082920  1.0  -0.3713
  O  O80  1  0.690100  0.933900  0.144880  1.0  -0.4564
  O  O81  1  0.035500  0.830300  0.040640  1.0  -0.4158
  O  O82  1  0.248100  0.669600  0.854730  1.0  -0.4325
  O  O83  1  0.834500  0.539400  0.930520  1.0  -0.4776
  O  O84  1  0.830800  0.710300  0.974540  1.0  -0.3228
  O  O85  1  0.177500  0.785900  0.917080  1.0  -0.3725
  O  O86  1  0.066100  0.309900  0.855120  1.0  -0.4551
  O  O87  1  0.169700  0.964500  0.959360  1.0  -0.4148
  O  O88  1  0.330400  0.578500  0.188060  1.0  -0.4308
  O  O89  1  0.460600  0.295100  0.263850  1.0  -0.4784
  O  O90  1  0.289700  0.120500  0.307870  1.0  -0.3239
  O  O91  1  0.214100  0.391600  0.250410  1.0  -0.3742
  O  O92  1  0.690100  0.756200  0.188450  1.0  -0.4575
  O  O93  1  0.035500  0.205200  0.292690  1.0  -0.4166
  O  O94  1  0.421500  0.751900  0.521390  1.0  -0.4307
  O  O95  1  0.704900  0.165500  0.597180  1.0  -0.477
  O  O96  1  0.879500  0.169200  0.641200  1.0  -0.3218
  O  O97  1  0.608400  0.822500  0.583740  1.0  -0.373
  O  O98  1  0.243800  0.933900  0.521780  1.0  -0.4565
  O  O99  1  0.794800  0.830300  0.626020  1.0  -0.4167
  O  O100  1  0.751900  0.330400  0.854730  1.0  -0.4347
  O  O101  1  0.165500  0.460600  0.930520  1.0  -0.4767
  O  O102  1  0.169200  0.289700  0.974540  1.0  -0.3204
  O  O103  1  0.822500  0.214100  0.917080  1.0  -0.3724
  O  O104  1  0.933900  0.690100  0.855120  1.0  -0.454
  O  O105  1  0.830300  0.035500  0.959360  1.0  -0.4161
  O  O106  1  0.669600  0.421500  0.188060  1.0  -0.4302
  O  O107  1  0.539400  0.704900  0.263850  1.0  -0.4781
  O  O108  1  0.710300  0.879500  0.307870  1.0  -0.3257
  O  O109  1  0.785900  0.608400  0.250410  1.0  -0.3708
  O  O110  1  0.309900  0.243800  0.188450  1.0  -0.4589
  O  O111  1  0.964500  0.794800  0.292690  1.0  -0.4163
  O  O112  1  0.578500  0.248100  0.521390  1.0  -0.4293
  O  O113  1  0.295100  0.834500  0.597180  1.0  -0.4787
  O  O114  1  0.120500  0.830800  0.641200  1.0  -0.3226
  O  O115  1  0.391600  0.177500  0.583740  1.0  -0.3706
  O  O116  1  0.756200  0.066100  0.521780  1.0  -0.4583
  O  O117  1  0.205200  0.169700  0.626020  1.0  -0.4149
