# generated using pymatgen
data_ZnH10(C2N)4
_symmetry_space_group_name_H-M   'P 1'
_cell_length_a   16.98580000
_cell_length_b   16.98580000
_cell_length_c   16.98580000
_cell_angle_alpha   90.00000000
_cell_angle_beta   90.00000000
_cell_angle_gamma   90.00000000
_symmetry_Int_Tables_number   1
_chemical_formula_structural   ZnH10(C2N)4
_chemical_formula_sum   'Zn12 H120 C96 N48'
_cell_volume   4900.69888078
_cell_formula_units_Z   12
loop_
 _symmetry_equiv_pos_site_id
 _symmetry_equiv_pos_as_xyz
  1  'x, y, z'
loop_
 _atom_site_type_symbol
 _atom_site_label
 _atom_site_symmetry_multiplicity
 _atom_site_fract_x
 _atom_site_fract_y
 _atom_site_fract_z
 _atom_site_occupancy
 _atom_site_charge
  Zn  Zn1  1  0.000000  0.500000  0.250000  1.0  0.7507
  Zn  Zn2  1  0.000000  0.500000  0.750000  1.0  0.7507
  Zn  Zn3  1  0.500000  0.000000  0.250000  1.0  0.7507
  Zn  Zn4  1  0.250000  0.000000  0.500000  1.0  0.7507
  Zn  Zn5  1  0.750000  0.000000  0.500000  1.0  0.7507
  Zn  Zn6  1  0.250000  0.500000  0.000000  1.0  0.7507
  Zn  Zn7  1  0.500000  0.250000  0.000000  1.0  0.7507
  Zn  Zn8  1  0.500000  0.750000  0.000000  1.0  0.7507
  Zn  Zn9  1  0.000000  0.250000  0.500000  1.0  0.7507
  Zn  Zn10  1  0.500000  0.000000  0.750000  1.0  0.7507
  Zn  Zn11  1  0.000000  0.750000  0.500000  1.0  0.7507
  Zn  Zn12  1  0.750000  0.500000  0.000000  1.0  0.7507
  H  H13  1  0.143600  0.389500  0.289000  1.0  0.0931
  H  H14  1  0.895700  0.387200  0.451000  1.0  0.1197
  H  H15  1  0.643600  0.889500  0.789000  1.0  0.0931
  H  H16  1  0.395700  0.887200  0.951000  1.0  0.1197
  H  H17  1  0.856400  0.610500  0.289000  1.0  0.0929
  H  H18  1  0.104300  0.612800  0.451000  1.0  0.1187
  H  H19  1  0.356400  0.110500  0.789000  1.0  0.0929
  H  H20  1  0.604300  0.112800  0.951000  1.0  0.1187
  H  H21  1  0.856400  0.389500  0.711000  1.0  0.0927
  H  H22  1  0.104300  0.387200  0.549000  1.0  0.1202
  H  H23  1  0.356400  0.889500  0.211000  1.0  0.0927
  H  H24  1  0.604300  0.887200  0.049000  1.0  0.1202
  H  H25  1  0.143600  0.610500  0.711000  1.0  0.0927
  H  H26  1  0.895700  0.612800  0.549000  1.0  0.1196
  H  H27  1  0.643600  0.110500  0.211000  1.0  0.0927
  H  H28  1  0.395700  0.112800  0.049000  1.0  0.1196
  H  H29  1  0.289000  0.143600  0.389500  1.0  0.0948
  H  H30  1  0.451000  0.895700  0.387200  1.0  0.1162
  H  H31  1  0.789000  0.643600  0.889500  1.0  0.0948
  H  H32  1  0.951000  0.395700  0.887200  1.0  0.1162
  H  H33  1  0.289000  0.856400  0.610500  1.0  0.0949
  H  H34  1  0.451000  0.104300  0.612800  1.0  0.1159
  H  H35  1  0.789000  0.356400  0.110500  1.0  0.0949
  H  H36  1  0.951000  0.604300  0.112800  1.0  0.1159
  H  H37  1  0.711000  0.856400  0.389500  1.0  0.0947
  H  H38  1  0.549000  0.104300  0.387200  1.0  0.1197
  H  H39  1  0.211000  0.356400  0.889500  1.0  0.0947
  H  H40  1  0.049000  0.604300  0.887200  1.0  0.1197
  H  H41  1  0.711000  0.143600  0.610500  1.0  0.0947
  H  H42  1  0.549000  0.895700  0.612800  1.0  0.1199
  H  H43  1  0.211000  0.643600  0.110500  1.0  0.0947
  H  H44  1  0.049000  0.395700  0.112800  1.0  0.1199
  H  H45  1  0.389500  0.289000  0.143600  1.0  0.0938
  H  H46  1  0.387200  0.451000  0.895700  1.0  0.119
  H  H47  1  0.889500  0.789000  0.643600  1.0  0.0938
  H  H48  1  0.887200  0.951000  0.395700  1.0  0.119
  H  H49  1  0.610500  0.289000  0.856400  1.0  0.094
  H  H50  1  0.612800  0.451000  0.104300  1.0  0.1206
  H  H51  1  0.110500  0.789000  0.356400  1.0  0.094
  H  H52  1  0.112800  0.951000  0.604300  1.0  0.1206
  H  H53  1  0.389500  0.711000  0.856400  1.0  0.0939
  H  H54  1  0.387200  0.549000  0.104300  1.0  0.1176
  H  H55  1  0.889500  0.211000  0.356400  1.0  0.0939
  H  H56  1  0.887200  0.049000  0.604300  1.0  0.1176
  H  H57  1  0.610500  0.711000  0.143600  1.0  0.0935
  H  H58  1  0.612800  0.549000  0.895700  1.0  0.1164
  H  H59  1  0.110500  0.211000  0.643600  1.0  0.0935
  H  H60  1  0.112800  0.049000  0.395700  1.0  0.1164
  H  H61  1  0.389500  0.143600  0.289000  1.0  0.0948
  H  H62  1  0.387200  0.895700  0.451000  1.0  0.1185
  H  H63  1  0.889500  0.643600  0.789000  1.0  0.0948
  H  H64  1  0.887200  0.395700  0.951000  1.0  0.1185
  H  H65  1  0.610500  0.856400  0.289000  1.0  0.0944
  H  H66  1  0.612800  0.104300  0.451000  1.0  0.1188
  H  H67  1  0.110500  0.356400  0.789000  1.0  0.0944
  H  H68  1  0.112800  0.604300  0.951000  1.0  0.1188
  H  H69  1  0.389500  0.856400  0.711000  1.0  0.0946
  H  H70  1  0.387200  0.104300  0.549000  1.0  0.119
  H  H71  1  0.889500  0.356400  0.211000  1.0  0.0946
  H  H72  1  0.887200  0.604300  0.049000  1.0  0.119
  H  H73  1  0.610500  0.143600  0.711000  1.0  0.0943
  H  H74  1  0.612800  0.895700  0.549000  1.0  0.1191
  H  H75  1  0.110500  0.643600  0.211000  1.0  0.0943
  H  H76  1  0.112800  0.395700  0.049000  1.0  0.1191
  H  H77  1  0.143600  0.289000  0.389500  1.0  0.093
  H  H78  1  0.895700  0.451000  0.387200  1.0  0.1207
  H  H79  1  0.643600  0.789000  0.889500  1.0  0.093
  H  H80  1  0.395700  0.951000  0.887200  1.0  0.1207
  H  H81  1  0.856400  0.289000  0.610500  1.0  0.0931
  H  H82  1  0.104300  0.451000  0.612800  1.0  0.1197
  H  H83  1  0.356400  0.789000  0.110500  1.0  0.0931
  H  H84  1  0.604300  0.951000  0.112800  1.0  0.1197
  H  H85  1  0.856400  0.711000  0.389500  1.0  0.0929
  H  H86  1  0.104300  0.549000  0.387200  1.0  0.1178
  H  H87  1  0.356400  0.211000  0.889500  1.0  0.0929
  H  H88  1  0.604300  0.049000  0.887200  1.0  0.1178
  H  H89  1  0.143600  0.711000  0.610500  1.0  0.0932
  H  H90  1  0.895700  0.549000  0.612800  1.0  0.1175
  H  H91  1  0.643600  0.211000  0.110500  1.0  0.0932
  H  H92  1  0.395700  0.049000  0.112800  1.0  0.1175
  H  H93  1  0.289000  0.389500  0.143600  1.0  0.0937
  H  H94  1  0.451000  0.387200  0.895700  1.0  0.1153
  H  H95  1  0.789000  0.889500  0.643600  1.0  0.0937
  H  H96  1  0.951000  0.887200  0.395700  1.0  0.1153
  H  H97  1  0.289000  0.610500  0.856400  1.0  0.094
  H  H98  1  0.451000  0.612800  0.104300  1.0  0.1158
  H  H99  1  0.789000  0.110500  0.356400  1.0  0.094
  H  H100  1  0.951000  0.112800  0.604300  1.0  0.1158
  H  H101  1  0.711000  0.389500  0.856400  1.0  0.094
  H  H102  1  0.549000  0.387200  0.104300  1.0  0.1207
  H  H103  1  0.211000  0.889500  0.356400  1.0  0.094
  H  H104  1  0.049000  0.887200  0.604300  1.0  0.1207
  H  H105  1  0.711000  0.610500  0.143600  1.0  0.0933
  H  H106  1  0.549000  0.612800  0.895700  1.0  0.1182
  H  H107  1  0.211000  0.110500  0.643600  1.0  0.0933
  H  H108  1  0.049000  0.112800  0.395700  1.0  0.1182
  H  H109  1  0.867900  0.365100  0.365100  1.0  0.1013
  H  H110  1  0.367900  0.865100  0.865100  1.0  0.1013
  H  H111  1  0.132100  0.634900  0.365100  1.0  0.103
  H  H112  1  0.632100  0.134900  0.865100  1.0  0.103
  H  H113  1  0.132100  0.365100  0.634900  1.0  0.1012
  H  H114  1  0.632100  0.865100  0.134900  1.0  0.1012
  H  H115  1  0.867900  0.634900  0.634900  1.0  0.1025
  H  H116  1  0.367900  0.134900  0.134900  1.0  0.1025
  H  H117  1  0.365100  0.867900  0.365100  1.0  0.102
  H  H118  1  0.865100  0.367900  0.865100  1.0  0.102
  H  H119  1  0.365100  0.132100  0.634900  1.0  0.1023
  H  H120  1  0.865100  0.632100  0.134900  1.0  0.1023
  H  H121  1  0.634900  0.132100  0.365100  1.0  0.1031
  H  H122  1  0.134900  0.632100  0.865100  1.0  0.1031
  H  H123  1  0.634900  0.867900  0.634900  1.0  0.1025
  H  H124  1  0.134900  0.367900  0.134900  1.0  0.1025
  H  H125  1  0.365100  0.365100  0.867900  1.0  0.1027
  H  H126  1  0.865100  0.865100  0.367900  1.0  0.1027
  H  H127  1  0.634900  0.365100  0.132100  1.0  0.1029
  H  H128  1  0.134900  0.865100  0.632100  1.0  0.1029
  H  H129  1  0.365100  0.634900  0.132100  1.0  0.1027
  H  H130  1  0.865100  0.134900  0.632100  1.0  0.1027
  H  H131  1  0.634900  0.634900  0.867900  1.0  0.103
  H  H132  1  0.134900  0.134900  0.367900  1.0  0.103
  C  C133  1  0.101290  0.376460  0.321200  1.0  -0.0357
  C  C134  1  0.601290  0.876460  0.821200  1.0  -0.0357
  C  C135  1  0.898710  0.623540  0.321200  1.0  -0.037
  C  C136  1  0.398710  0.123540  0.821200  1.0  -0.037
  C  C137  1  0.898710  0.376460  0.678800  1.0  -0.0365
  C  C138  1  0.398710  0.876460  0.178800  1.0  -0.0365
  C  C139  1  0.101290  0.623540  0.678800  1.0  -0.0352
  C  C140  1  0.601290  0.123540  0.178800  1.0  -0.0352
  C  C141  1  0.321200  0.101290  0.376460  1.0  -0.0377
  C  C142  1  0.821200  0.601290  0.876460  1.0  -0.0377
  C  C143  1  0.321200  0.898710  0.623540  1.0  -0.036
  C  C144  1  0.821200  0.398710  0.123540  1.0  -0.036
  C  C145  1  0.678800  0.898710  0.376460  1.0  -0.0369
  C  C146  1  0.178800  0.398710  0.876460  1.0  -0.0369
  C  C147  1  0.678800  0.101290  0.623540  1.0  -0.0362
  C  C148  1  0.178800  0.601290  0.123540  1.0  -0.0362
  C  C149  1  0.376460  0.321200  0.101290  1.0  -0.0353
  C  C150  1  0.876460  0.821200  0.601290  1.0  -0.0353
  C  C151  1  0.623540  0.321200  0.898710  1.0  -0.0352
  C  C152  1  0.123540  0.821200  0.398710  1.0  -0.0352
  C  C153  1  0.376460  0.678800  0.898710  1.0  -0.035
  C  C154  1  0.876460  0.178800  0.398710  1.0  -0.035
  C  C155  1  0.623540  0.678800  0.101290  1.0  -0.0375
  C  C156  1  0.123540  0.178800  0.601290  1.0  -0.0375
  C  C157  1  0.376460  0.101290  0.321200  1.0  -0.0369
  C  C158  1  0.876460  0.601290  0.821200  1.0  -0.0369
  C  C159  1  0.623540  0.898710  0.321200  1.0  -0.0385
  C  C160  1  0.123540  0.398710  0.821200  1.0  -0.0385
  C  C161  1  0.376460  0.898710  0.678800  1.0  -0.036
  C  C162  1  0.876460  0.398710  0.178800  1.0  -0.036
  C  C163  1  0.623540  0.101290  0.678800  1.0  -0.0376
  C  C164  1  0.123540  0.601290  0.178800  1.0  -0.0376
  C  C165  1  0.101290  0.321200  0.376460  1.0  -0.0355
  C  C166  1  0.601290  0.821200  0.876460  1.0  -0.0355
  C  C167  1  0.898710  0.321200  0.623540  1.0  -0.0362
  C  C168  1  0.398710  0.821200  0.123540  1.0  -0.0362
  C  C169  1  0.898710  0.678800  0.376460  1.0  -0.0374
  C  C170  1  0.398710  0.178800  0.876460  1.0  -0.0374
  C  C171  1  0.101290  0.678800  0.623540  1.0  -0.0354
  C  C172  1  0.601290  0.178800  0.123540  1.0  -0.0354
  C  C173  1  0.321200  0.376460  0.101290  1.0  -0.0366
  C  C174  1  0.821200  0.876460  0.601290  1.0  -0.0366
  C  C175  1  0.321200  0.623540  0.898710  1.0  -0.0351
  C  C176  1  0.821200  0.123540  0.398710  1.0  -0.0351
  C  C177  1  0.678800  0.376460  0.898710  1.0  -0.0345
  C  C178  1  0.178800  0.876460  0.398710  1.0  -0.0345
  C  C179  1  0.678800  0.623540  0.101290  1.0  -0.036
  C  C180  1  0.178800  0.123540  0.601290  1.0  -0.036
  C  C181  1  0.986900  0.375500  0.375500  1.0  0.4154
  C  C182  1  0.904200  0.395700  0.395700  1.0  -0.4601
  C  C183  1  0.486900  0.875500  0.875500  1.0  0.4154
  C  C184  1  0.404200  0.895700  0.895700  1.0  -0.4601
  C  C185  1  0.013100  0.624500  0.375500  1.0  0.4155
  C  C186  1  0.095800  0.604300  0.395700  1.0  -0.4604
  C  C187  1  0.513100  0.124500  0.875500  1.0  0.4155
  C  C188  1  0.595800  0.104300  0.895700  1.0  -0.4604
  C  C189  1  0.013100  0.375500  0.624500  1.0  0.4147
  C  C190  1  0.095800  0.395700  0.604300  1.0  -0.4603
  C  C191  1  0.513100  0.875500  0.124500  1.0  0.4147
  C  C192  1  0.595800  0.895700  0.104300  1.0  -0.4603
  C  C193  1  0.986900  0.624500  0.624500  1.0  0.4156
  C  C194  1  0.904200  0.604300  0.604300  1.0  -0.4593
  C  C195  1  0.486900  0.124500  0.124500  1.0  0.4156
  C  C196  1  0.404200  0.104300  0.104300  1.0  -0.4593
  C  C197  1  0.375500  0.986900  0.375500  1.0  0.4153
  C  C198  1  0.395700  0.904200  0.395700  1.0  -0.4612
  C  C199  1  0.875500  0.486900  0.875500  1.0  0.4153
  C  C200  1  0.895700  0.404200  0.895700  1.0  -0.4612
  C  C201  1  0.375500  0.013100  0.624500  1.0  0.4154
  C  C202  1  0.395700  0.095800  0.604300  1.0  -0.4604
  C  C203  1  0.875500  0.513100  0.124500  1.0  0.4154
  C  C204  1  0.895700  0.595800  0.104300  1.0  -0.4604
  C  C205  1  0.624500  0.013100  0.375500  1.0  0.4176
  C  C206  1  0.604300  0.095800  0.395700  1.0  -0.4605
  C  C207  1  0.124500  0.513100  0.875500  1.0  0.4176
  C  C208  1  0.104300  0.595800  0.895700  1.0  -0.4605
  C  C209  1  0.624500  0.986900  0.624500  1.0  0.4179
  C  C210  1  0.604300  0.904200  0.604300  1.0  -0.4599
  C  C211  1  0.124500  0.486900  0.124500  1.0  0.4179
  C  C212  1  0.104300  0.404200  0.104300  1.0  -0.4599
  C  C213  1  0.375500  0.375500  0.986900  1.0  0.4132
  C  C214  1  0.395700  0.395700  0.904200  1.0  -0.4621
  C  C215  1  0.875500  0.875500  0.486900  1.0  0.4132
  C  C216  1  0.895700  0.895700  0.404200  1.0  -0.4621
  C  C217  1  0.624500  0.375500  0.013100  1.0  0.4161
  C  C218  1  0.604300  0.395700  0.095800  1.0  -0.4605
  C  C219  1  0.124500  0.875500  0.513100  1.0  0.4161
  C  C220  1  0.104300  0.895700  0.595800  1.0  -0.4605
  C  C221  1  0.375500  0.624500  0.013100  1.0  0.4144
  C  C222  1  0.395700  0.604300  0.095800  1.0  -0.4607
  C  C223  1  0.875500  0.124500  0.513100  1.0  0.4144
  C  C224  1  0.895700  0.104300  0.595800  1.0  -0.4607
  C  C225  1  0.624500  0.624500  0.986900  1.0  0.4187
  C  C226  1  0.604300  0.604300  0.904200  1.0  -0.46
  C  C227  1  0.124500  0.124500  0.486900  1.0  0.4187
  C  C228  1  0.104300  0.104300  0.404200  1.0  -0.46
  N  N229  1  0.029180  0.410600  0.319650  1.0  -0.3916
  N  N230  1  0.529180  0.910600  0.819650  1.0  -0.3916
  N  N231  1  0.970820  0.589400  0.319650  1.0  -0.3906
  N  N232  1  0.470820  0.089400  0.819650  1.0  -0.3913
  N  N233  1  0.970820  0.410600  0.680350  1.0  -0.3909
  N  N234  1  0.470820  0.910600  0.180350  1.0  -0.3929
  N  N235  1  0.029180  0.589400  0.680350  1.0  -0.3899
  N  N236  1  0.529180  0.089400  0.180350  1.0  -0.3899
  N  N237  1  0.319650  0.029180  0.410600  1.0  -0.3927
  N  N238  1  0.819650  0.529180  0.910600  1.0  -0.3927
  N  N239  1  0.319650  0.970820  0.589400  1.0  -0.3936
  N  N240  1  0.819650  0.470820  0.089400  1.0  -0.3938
  N  N241  1  0.680350  0.970820  0.410600  1.0  -0.3951
  N  N242  1  0.180350  0.470820  0.910600  1.0  -0.3951
  N  N243  1  0.680350  0.029180  0.589400  1.0  -0.3933
  N  N244  1  0.180350  0.529180  0.089400  1.0  -0.3933
  N  N245  1  0.410600  0.319650  0.029180  1.0  -0.3979
  N  N246  1  0.910600  0.819650  0.529180  1.0  -0.3979
  N  N247  1  0.589400  0.319650  0.970820  1.0  -0.3908
  N  N248  1  0.089400  0.819650  0.470820  1.0  -0.3916
  N  N249  1  0.410600  0.680350  0.970820  1.0  -0.3953
  N  N250  1  0.910600  0.180350  0.470820  1.0  -0.3953
  N  N251  1  0.589400  0.680350  0.029180  1.0  -0.3908
  N  N252  1  0.089400  0.180350  0.529180  1.0  -0.3908
  N  N253  1  0.410600  0.029180  0.319650  1.0  -0.3954
  N  N254  1  0.910600  0.529180  0.819650  1.0  -0.3954
  N  N255  1  0.589400  0.970820  0.319650  1.0  -0.3895
  N  N256  1  0.089400  0.470820  0.819650  1.0  -0.3904
  N  N257  1  0.410600  0.970820  0.680350  1.0  -0.3921
  N  N258  1  0.910600  0.470820  0.180350  1.0  -0.3973
  N  N259  1  0.589400  0.029180  0.680350  1.0  -0.3895
  N  N260  1  0.089400  0.529180  0.180350  1.0  -0.3895
  N  N261  1  0.029180  0.319650  0.410600  1.0  -0.39
  N  N262  1  0.529180  0.819650  0.910600  1.0  -0.39
  N  N263  1  0.970820  0.319650  0.589400  1.0  -0.3905
  N  N264  1  0.470820  0.819650  0.089400  1.0  -0.3912
  N  N265  1  0.970820  0.680350  0.410600  1.0  -0.3914
  N  N266  1  0.470820  0.180350  0.910600  1.0  -0.3968
  N  N267  1  0.029180  0.680350  0.589400  1.0  -0.3922
  N  N268  1  0.529180  0.180350  0.089400  1.0  -0.3922
  N  N269  1  0.319650  0.410600  0.029180  1.0  -0.3928
  N  N270  1  0.819650  0.910600  0.529180  1.0  -0.3928
  N  N271  1  0.319650  0.589400  0.970820  1.0  -0.3923
  N  N272  1  0.819650  0.089400  0.470820  1.0  -0.3932
  N  N273  1  0.680350  0.410600  0.970820  1.0  -0.3946
  N  N274  1  0.180350  0.910600  0.470820  1.0  -0.3946
  N  N275  1  0.680350  0.589400  0.029180  1.0  -0.3922
  N  N276  1  0.180350  0.089400  0.529180  1.0  -0.3922
