# generated using pymatgen
data_EuH22C29(SO3)2
_symmetry_space_group_name_H-M   'P 1'
_cell_length_a   8.70970000
_cell_length_b   14.07380000
_cell_length_c   16.20650000
_cell_angle_alpha   114.08500000
_cell_angle_beta   91.02800000
_cell_angle_gamma   94.46300000
_symmetry_Int_Tables_number   1
_chemical_formula_structural   EuH22C29(SO3)2
_chemical_formula_sum   'Eu2 H44 C58 S4 O12'
_cell_volume   1805.42442858
_cell_formula_units_Z   2
loop_
 _symmetry_equiv_pos_site_id
 _symmetry_equiv_pos_as_xyz
  1  'x, y, z'
loop_
 _atom_site_type_symbol
 _atom_site_label
 _atom_site_symmetry_multiplicity
 _atom_site_fract_x
 _atom_site_fract_y
 _atom_site_fract_z
 _atom_site_occupancy
 _atom_site_charge
  Eu  Eu1  1  0.185410  0.044220  0.438510  1.0  2.128
  Eu  Eu2  1  0.814590  0.955780  0.561490  1.0  2.1277
  H  H3  1  0.719400  0.130200  0.313800  1.0  0.0909
  H  H4  1  0.529200  0.109300  0.203700  1.0  0.0945
  H  H5  1  0.773400  0.905700  0.013600  1.0  0.0963
  H  H6  1  0.973100  0.933000  0.122400  1.0  0.1069
  H  H7  1  0.941900  0.169100  0.746300  1.0  0.1028
  H  H8  1  0.941500  0.287100  0.896100  1.0  0.1059
  H  H9  1  0.166600  0.509900  0.834400  1.0  0.1048
  H  H10  1  0.165300  0.391800  0.684400  1.0  0.1014
  H  H11  1  0.280800  0.557900  0.985400  1.0  0.1489
  H  H12  1  0.215900  0.583500  0.082900  1.0  0.1319
  H  H13  1  0.265300  0.330000  0.105000  1.0  0.1686
  H  H14  1  0.211500  0.444900  0.156700  1.0  0.142
  H  H15  1  0.117500  0.363200  0.066700  1.0  0.1365
  H  H16  1  0.704900  0.222400  0.538700  1.0  0.1048
  H  H17  1  0.897800  0.356500  0.571300  1.0  0.0881
  H  H18  1  0.664200  0.470100  0.418800  1.0  0.1041
  H  H19  1  0.467800  0.337300  0.387800  1.0  0.1051
  H  H20  1  0.977700  0.670300  0.579000  1.0  0.1243
  H  H21  1  0.800200  0.635000  0.545500  1.0  0.1305
  H  H22  1  0.031800  0.648900  0.786600  1.0  0.1342
  H  H23  1  0.085100  0.589400  0.685700  1.0  0.1166
  H  H24  1  0.078900  0.713500  0.727900  1.0  0.1267
  H  H25  1  0.280600  0.869800  0.686200  1.0  0.0906
  H  H26  1  0.470800  0.890700  0.796300  1.0  0.0949
  H  H27  1  0.226600  0.094300  0.986400  1.0  0.0971
  H  H28  1  0.026900  0.067000  0.877600  1.0  0.1059
  H  H29  1  0.058100  0.830900  0.253700  1.0  0.1031
  H  H30  1  0.058500  0.712900  0.103900  1.0  0.1068
  H  H31  1  0.833400  0.490100  0.165600  1.0  0.1046
  H  H32  1  0.834700  0.608200  0.315600  1.0  0.1019
  H  H33  1  0.719200  0.442100  0.014600  1.0  0.151
  H  H34  1  0.784100  0.416500  0.917100  1.0  0.1322
  H  H35  1  0.734700  0.670000  0.895000  1.0  0.169
  H  H36  1  0.788500  0.555100  0.843300  1.0  0.1428
  H  H37  1  0.882500  0.636800  0.933300  1.0  0.1366
  H  H38  1  0.295100  0.777600  0.461300  1.0  0.1043
  H  H39  1  0.102200  0.643500  0.428700  1.0  0.0881
  H  H40  1  0.335800  0.529900  0.581200  1.0  0.1038
  H  H41  1  0.532200  0.662700  0.612200  1.0  0.1048
  H  H42  1  0.022300  0.329700  0.421000  1.0  0.1242
  H  H43  1  0.199800  0.365000  0.454500  1.0  0.1292
  H  H44  1  0.968200  0.351100  0.213400  1.0  0.1347
  H  H45  1  0.914900  0.410600  0.314300  1.0  0.1168
  H  H46  1  0.921100  0.286500  0.272100  1.0  0.1268
  C  C47  1  0.982900  0.043400  0.300200  1.0  0.6681
  C  C48  1  0.862400  0.031400  0.229000  1.0  -0.1337
  C  C49  1  0.731100  0.084400  0.252600  1.0  -0.0576
  C  C50  1  0.616800  0.070700  0.186800  1.0  -0.1157
  C  C51  1  0.626900  0.002800  0.097700  1.0  0.0107
  C  C52  1  0.762200  0.951800  0.074800  1.0  -0.1023
  C  C53  1  0.881200  0.966700  0.139600  1.0  -0.107
  C  C54  1  0.495400  0.983300  0.030600  1.0  0.1235
  C  C55  1  0.078200  0.189300  0.608000  1.0  0.6901
  C  C56  1  0.058400  0.267700  0.701000  1.0  -0.1677
  C  C57  1  0.989300  0.238200  0.764400  1.0  -0.0545
  C  C58  1  0.988800  0.308200  0.853200  1.0  -0.1745
  C  C59  1  0.058000  0.411300  0.881300  1.0  0.0454
  C  C60  1  0.121800  0.440300  0.817100  1.0  -0.1753
  C  C61  1  0.121700  0.370000  0.727900  1.0  -0.0586
  C  C62  1  0.062600  0.488800  0.979300  1.0  0.098
  C  C63  1  0.223600  0.526900  0.022100  1.0  -0.3389
  C  C64  1  0.220200  0.387700  0.097300  1.0  -0.4334
  C  C65  1  0.440200  0.180600  0.440200  1.0  0.6499
  C  C66  1  0.565200  0.265900  0.460500  1.0  -0.1341
  C  C67  1  0.695600  0.273000  0.514600  1.0  -0.0359
  C  C68  1  0.810900  0.352400  0.533300  1.0  -0.075
  C  C69  1  0.803000  0.427200  0.497600  1.0  0.0579
  C  C70  1  0.672600  0.419900  0.443400  1.0  -0.1192
  C  C71  1  0.555600  0.340900  0.424900  1.0  -0.0798
  C  C72  1  0.930700  0.511500  0.515700  1.0  0.0347
  C  C73  1  0.890000  0.618800  0.574100  1.0  -0.3604
  C  C74  1  0.030000  0.647000  0.726000  1.0  -0.3828
  C  C75  1  0.338200  0.932600  0.049100  1.0  -0.0396
  C  C76  1  0.017100  0.956600  0.699800  1.0  0.6662
  C  C77  1  0.137600  0.968600  0.771000  1.0  -0.1342
  C  C78  1  0.268900  0.915600  0.747400  1.0  -0.0581
  C  C79  1  0.383200  0.929300  0.813200  1.0  -0.1163
  C  C80  1  0.373100  0.997200  0.902300  1.0  0.0117
  C  C81  1  0.237800  0.048200  0.925200  1.0  -0.1029
  C  C82  1  0.118800  0.033300  0.860400  1.0  -0.1086
  C  C83  1  0.504600  0.016700  0.969400  1.0  0.1248
  C  C84  1  0.921800  0.810700  0.392000  1.0  0.6892
  C  C85  1  0.941600  0.732300  0.299000  1.0  -0.1674
  C  C86  1  0.010700  0.761800  0.235600  1.0  -0.055
  C  C87  1  0.011200  0.691800  0.146800  1.0  -0.1736
  C  C88  1  0.942000  0.588700  0.118700  1.0  0.0455
  C  C89  1  0.878200  0.559700  0.182900  1.0  -0.177
  C  C90  1  0.878300  0.630000  0.272100  1.0  -0.0593
  C  C91  1  0.937400  0.511200  0.020700  1.0  0.0963
  C  C92  1  0.776400  0.473100  0.977900  1.0  -0.3359
  C  C93  1  0.779800  0.612300  0.902700  1.0  -0.4349
  C  C94  1  0.559800  0.819400  0.559800  1.0  0.6518
  C  C95  1  0.434800  0.734100  0.539500  1.0  -0.13
  C  C96  1  0.304400  0.727000  0.485400  1.0  -0.0355
  C  C97  1  0.189100  0.647600  0.466700  1.0  -0.0731
  C  C98  1  0.197000  0.572800  0.502400  1.0  0.0582
  C  C99  1  0.327400  0.580100  0.556600  1.0  -0.1216
  C  C100  1  0.444400  0.659100  0.575100  1.0  -0.0805
  C  C101  1  0.069300  0.488500  0.484300  1.0  0.0353
  C  C102  1  0.110000  0.381200  0.425900  1.0  -0.3641
  C  C103  1  0.970000  0.353000  0.274000  1.0  -0.3816
  C  C104  1  0.661800  0.067400  0.950900  1.0  -0.039
  S  S105  1  0.334600  0.431100  0.034000  1.0  0.0389
  S  S106  1  0.845000  0.630800  0.685200  1.0  0.0493
  S  S107  1  0.665400  0.568900  0.966000  1.0  0.041
  S  S108  1  0.155000  0.369200  0.314800  1.0  0.0509
  O  O109  1  0.954200  0.093500  0.383500  1.0  -0.6095
  O  O110  1  0.106500  0.001700  0.278700  1.0  -0.6118
  O  O111  1  0.006200  0.097600  0.577700  1.0  -0.8609
  O  O112  1  0.171600  0.213600  0.561500  1.0  -0.6636
  O  O113  1  0.321700  0.176400  0.394500  1.0  -0.6127
  O  O114  1  0.456600  0.111800  0.471900  1.0  -0.6586
  O  O115  1  0.045800  0.906500  0.616500  1.0  -0.6088
  O  O116  1  0.893500  0.998300  0.721300  1.0  -0.6132
  O  O117  1  0.993800  0.902400  0.422300  1.0  -0.8605
  O  O118  1  0.828400  0.786400  0.438500  1.0  -0.6627
  O  O119  1  0.678300  0.823600  0.605500  1.0  -0.6129
  O  O120  1  0.543400  0.888200  0.528100  1.0  -0.6585
