# generated using pymatgen
data_CdH11C17(NO)4
_symmetry_space_group_name_H-M   'P 1'
_cell_length_a   9.22000000
_cell_length_b   10.75000000
_cell_length_c   18.83100000
_cell_angle_alpha   90.00000000
_cell_angle_beta   90.00000000
_cell_angle_gamma   104.08700000
_symmetry_Int_Tables_number   1
_chemical_formula_structural   CdH11C17(NO)4
_chemical_formula_sum   'Cd4 H44 C68 N16 O16'
_cell_volume   1810.30577258
_cell_formula_units_Z   4
loop_
 _symmetry_equiv_pos_site_id
 _symmetry_equiv_pos_as_xyz
  1  'x, y, z'
loop_
 _atom_site_type_symbol
 _atom_site_label
 _atom_site_symmetry_multiplicity
 _atom_site_fract_x
 _atom_site_fract_y
 _atom_site_fract_z
 _atom_site_occupancy
 _atom_site_charge
  Cd  Cd1  1  0.508250  0.835770  0.381660  1.0  0.9939
  Cd  Cd2  1  0.491750  0.664230  0.881660  1.0  0.994
  Cd  Cd3  1  0.491750  0.164230  0.618340  1.0  0.9925
  Cd  Cd4  1  0.508250  0.335770  0.118340  1.0  0.993
  H  H5  1  0.643700  0.348900  0.368400  1.0  0.1226
  H  H6  1  0.053100  0.519300  0.293800  1.0  0.1228
  H  H7  1  0.939200  0.138400  0.326400  1.0  0.1089
  H  H8  1  0.012600  0.703300  0.351600  1.0  0.121
  H  H9  1  0.869600  0.865300  0.361600  1.0  0.1053
  H  H10  1  0.582200  0.538000  0.328200  1.0  0.1033
  H  H11  1  0.216000  0.186100  0.355700  1.0  0.1506
  H  H12  1  0.437800  0.203100  0.282800  1.0  0.0962
  H  H13  1  0.210900  0.430100  0.198400  1.0  0.1032
  H  H14  1  0.189700  0.420900  0.451300  1.0  0.1064
  H  H15  1  0.019500  0.718300  0.505300  1.0  0.1015
  H  H16  1  0.356300  0.151100  0.868400  1.0  0.1223
  H  H17  1  0.946900  0.980700  0.793800  1.0  0.1226
  H  H18  1  0.060800  0.361600  0.826400  1.0  0.108
  H  H19  1  0.987400  0.796700  0.851600  1.0  0.1215
  H  H20  1  0.130400  0.634700  0.861600  1.0  0.1061
  H  H21  1  0.417800  0.962000  0.828200  1.0  0.1035
  H  H22  1  0.784000  0.313900  0.855700  1.0  0.151
  H  H23  1  0.562200  0.296900  0.782800  1.0  0.0964
  H  H24  1  0.789100  0.069900  0.698400  1.0  0.1038
  H  H25  1  0.810300  0.079100  0.951300  1.0  0.107
  H  H26  1  0.980500  0.781700  0.005300  1.0  0.1015
  H  H27  1  0.356300  0.651100  0.631600  1.0  0.1224
  H  H28  1  0.946900  0.480700  0.706200  1.0  0.1234
  H  H29  1  0.060800  0.861600  0.673600  1.0  0.1087
  H  H30  1  0.987400  0.296700  0.648400  1.0  0.1211
  H  H31  1  0.130400  0.134700  0.638400  1.0  0.1056
  H  H32  1  0.417800  0.462000  0.671800  1.0  0.1032
  H  H33  1  0.784000  0.813900  0.644300  1.0  0.1502
  H  H34  1  0.562200  0.796900  0.717200  1.0  0.0962
  H  H35  1  0.789100  0.569900  0.801600  1.0  0.1036
  H  H36  1  0.810300  0.579100  0.548700  1.0  0.1067
  H  H37  1  0.980500  0.281700  0.494700  1.0  0.1016
  H  H38  1  0.643700  0.848900  0.131600  1.0  0.1222
  H  H39  1  0.053100  0.019300  0.206200  1.0  0.1227
  H  H40  1  0.939200  0.638400  0.173600  1.0  0.109
  H  H41  1  0.012600  0.203300  0.148400  1.0  0.121
  H  H42  1  0.869600  0.365300  0.138400  1.0  0.1053
  H  H43  1  0.582200  0.038000  0.171800  1.0  0.1027
  H  H44  1  0.216000  0.686100  0.144300  1.0  0.1506
  H  H45  1  0.437800  0.703100  0.217200  1.0  0.096
  H  H46  1  0.210900  0.930100  0.301600  1.0  0.103
  H  H47  1  0.189700  0.920900  0.048700  1.0  0.1062
  H  H48  1  0.019500  0.218300  0.994700  1.0  0.1017
  C  C49  1  0.771700  0.224000  0.348800  1.0  -0.0363
  C  C50  1  0.736800  0.342600  0.352050  1.0  -0.139
  C  C51  1  0.842000  0.451200  0.330760  1.0  0.149
  C  C52  1  0.983500  0.445600  0.308210  1.0  -0.2208
  C  C53  1  0.018000  0.327500  0.307800  1.0  0.125
  C  C54  1  0.914000  0.217100  0.327450  1.0  -0.1382
  C  C55  1  0.658800  0.101500  0.366710  1.0  0.6417
  C  C56  1  0.909300  0.689500  0.347920  1.0  -0.1491
  C  C57  1  0.829600  0.778400  0.353200  1.0  0.0485
  C  C58  1  0.671400  0.599500  0.334890  1.0  0.1698
  C  C59  1  0.242400  0.237100  0.315640  1.0  -0.1435
  C  C60  1  0.364100  0.247300  0.275010  1.0  0.0409
  C  C61  1  0.241500  0.372300  0.228150  1.0  0.1619
  C  C62  1  0.126800  0.585200  0.473140  1.0  -0.131
  C  C63  1  0.113200  0.452600  0.470810  1.0  -0.0626
  C  C64  1  0.011500  0.630400  0.503060  1.0  -0.0599
  C  C65  1  0.261100  0.675400  0.441290  1.0  0.6448
  C  C66  1  0.228300  0.276000  0.848800  1.0  -0.0347
  C  C67  1  0.263200  0.157400  0.852050  1.0  -0.1397
  C  C68  1  0.158000  0.048800  0.830760  1.0  0.1499
  C  C69  1  0.016500  0.054400  0.808210  1.0  -0.2218
  C  C70  1  0.982000  0.172500  0.807800  1.0  0.1236
  C  C71  1  0.086000  0.282900  0.827450  1.0  -0.1408
  C  C72  1  0.341200  0.398500  0.866710  1.0  0.6434
  C  C73  1  0.090700  0.810500  0.847920  1.0  -0.1491
  C  C74  1  0.170400  0.721600  0.853200  1.0  0.0484
  C  C75  1  0.328600  0.900500  0.834890  1.0  0.1706
  C  C76  1  0.757600  0.262900  0.815640  1.0  -0.1449
  C  C77  1  0.635900  0.252700  0.775010  1.0  0.0415
  C  C78  1  0.758500  0.127700  0.728150  1.0  0.1611
  C  C79  1  0.873200  0.914800  0.973140  1.0  -0.1321
  C  C80  1  0.886800  0.047400  0.970810  1.0  -0.063
  C  C81  1  0.988500  0.869600  0.003060  1.0  -0.0581
  C  C82  1  0.738900  0.824600  0.941290  1.0  0.6478
  C  C83  1  0.228300  0.776000  0.651200  1.0  -0.035
  C  C84  1  0.263200  0.657400  0.647950  1.0  -0.1396
  C  C85  1  0.158000  0.548800  0.669240  1.0  0.1501
  C  C86  1  0.016500  0.554400  0.691790  1.0  -0.2217
  C  C87  1  0.982000  0.672500  0.692200  1.0  0.1235
  C  C88  1  0.086000  0.782900  0.672550  1.0  -0.14
  C  C89  1  0.341200  0.898500  0.633290  1.0  0.642
  C  C90  1  0.090700  0.310500  0.652080  1.0  -0.1493
  C  C91  1  0.170400  0.221600  0.646800  1.0  0.0474
  C  C92  1  0.328600  0.400500  0.665110  1.0  0.17
  C  C93  1  0.757600  0.762900  0.684360  1.0  -0.1455
  C  C94  1  0.635900  0.752700  0.724990  1.0  0.0419
  C  C95  1  0.758500  0.627700  0.771850  1.0  0.1628
  C  C96  1  0.873200  0.414800  0.526860  1.0  -0.1319
  C  C97  1  0.886800  0.547400  0.529190  1.0  -0.0634
  C  C98  1  0.988500  0.369600  0.496940  1.0  -0.0581
  C  C99  1  0.738900  0.324600  0.558710  1.0  0.6473
  C  C100  1  0.771700  0.724000  0.151200  1.0  -0.0378
  C  C101  1  0.736800  0.842600  0.147950  1.0  -0.1386
  C  C102  1  0.842000  0.951200  0.169240  1.0  0.1492
  C  C103  1  0.983500  0.945600  0.191790  1.0  -0.221
  C  C104  1  0.018000  0.827500  0.192200  1.0  0.125
  C  C105  1  0.914000  0.717100  0.172550  1.0  -0.139
  C  C106  1  0.658800  0.601500  0.133290  1.0  0.6426
  C  C107  1  0.909300  0.189500  0.152080  1.0  -0.1489
  C  C108  1  0.829600  0.278400  0.146800  1.0  0.0487
  C  C109  1  0.671400  0.099500  0.165110  1.0  0.1693
  C  C110  1  0.242400  0.737100  0.184360  1.0  -0.1445
  C  C111  1  0.364100  0.747300  0.224990  1.0  0.0412
  C  C112  1  0.241500  0.872300  0.271850  1.0  0.1632
  C  C113  1  0.126800  0.085200  0.026860  1.0  -0.1309
  C  C114  1  0.113200  0.952600  0.029190  1.0  -0.0625
  C  C115  1  0.011500  0.130400  0.996940  1.0  -0.0598
  C  C116  1  0.261100  0.175400  0.058710  1.0  0.645
  N  N117  1  0.681000  0.722400  0.344490  1.0  -0.3613
  N  N118  1  0.808200  0.574200  0.335990  1.0  0.0325
  N  N119  1  0.364900  0.332800  0.219840  1.0  -0.4039
  N  N120  1  0.165400  0.317100  0.285990  1.0  0.0369
  N  N121  1  0.319000  0.777600  0.844490  1.0  -0.3656
  N  N122  1  0.191800  0.925800  0.835990  1.0  0.0325
  N  N123  1  0.635100  0.167200  0.719840  1.0  -0.4036
  N  N124  1  0.834600  0.182900  0.785990  1.0  0.0365
  N  N125  1  0.319000  0.277600  0.655510  1.0  -0.3702
  N  N126  1  0.191800  0.425800  0.664010  1.0  0.0324
  N  N127  1  0.635100  0.667200  0.780160  1.0  -0.404
  N  N128  1  0.834600  0.682900  0.714010  1.0  0.0368
  N  N129  1  0.681000  0.222400  0.155510  1.0  -0.3612
  N  N130  1  0.808200  0.074200  0.164010  1.0  0.0321
  N  N131  1  0.364900  0.832800  0.280160  1.0  -0.4041
  N  N132  1  0.165400  0.817100  0.214010  1.0  0.0374
  O  O133  1  0.531900  0.103400  0.388060  1.0  -0.6047
  O  O134  1  0.699100  0.000900  0.356110  1.0  -0.6104
  O  O135  1  0.270700  0.793700  0.442060  1.0  -0.6006
  O  O136  1  0.359100  0.629000  0.412720  1.0  -0.6217
  O  O137  1  0.468100  0.396600  0.888060  1.0  -0.6043
  O  O138  1  0.300900  0.499100  0.856110  1.0  -0.6102
  O  O139  1  0.729300  0.706300  0.942060  1.0  -0.6
  O  O140  1  0.640900  0.871000  0.912720  1.0  -0.6213
  O  O141  1  0.468100  0.896600  0.611940  1.0  -0.6052
  O  O142  1  0.300900  0.999100  0.643890  1.0  -0.6109
  O  O143  1  0.729300  0.206300  0.557940  1.0  -0.6019
  O  O144  1  0.640900  0.371000  0.587280  1.0  -0.6216
  O  O145  1  0.531900  0.603400  0.111940  1.0  -0.6048
  O  O146  1  0.699100  0.500900  0.143890  1.0  -0.6104
  O  O147  1  0.270700  0.293700  0.057940  1.0  -0.5997
  O  O148  1  0.359100  0.129000  0.087280  1.0  -0.6222
