# generated using pymatgen
data_In5H3C3(S4N)2
_symmetry_space_group_name_H-M   'P 1'
_cell_length_a   22.51210000
_cell_length_b   22.66100000
_cell_length_c   33.34090000
_cell_angle_alpha   90.00000000
_cell_angle_beta   90.00000000
_cell_angle_gamma   90.00000000
_symmetry_Int_Tables_number   1
_chemical_formula_structural   In5H3C3(S4N)2
_chemical_formula_sum   'In80 H48 C48 S128 N32'
_cell_volume   17008.75004668
_cell_formula_units_Z   16
loop_
 _symmetry_equiv_pos_site_id
 _symmetry_equiv_pos_as_xyz
  1  'x, y, z'
loop_
 _atom_site_type_symbol
 _atom_site_label
 _atom_site_symmetry_multiplicity
 _atom_site_fract_x
 _atom_site_fract_y
 _atom_site_fract_z
 _atom_site_occupancy
 _atom_site_charge
  In  In1  1  0.913610  0.301020  0.255500  1.0  0.8141
  In  In2  1  0.822060  0.231960  0.335330  1.0  0.8994
  In  In3  1  0.984010  0.310120  0.356870  1.0  0.8755
  In  In4  1  0.976210  0.158830  0.291990  1.0  0.8539
  In  In5  1  0.752700  0.154950  0.422510  1.0  0.8546
  In  In6  1  0.892060  0.233070  0.448540  1.0  0.8958
  In  In7  1  0.041840  0.301500  0.461030  1.0  0.8355
  In  In8  1  0.885270  0.078410  0.382810  1.0  0.9011
  In  In9  1  0.044370  0.157720  0.407100  1.0  0.9021
  In  In10  1  0.031720  0.023620  0.345070  1.0  0.8173
  In  In11  1  0.586390  0.698980  0.755500  1.0  0.8129
  In  In12  1  0.677940  0.768040  0.835330  1.0  0.8979
  In  In13  1  0.515990  0.689880  0.856870  1.0  0.8773
  In  In14  1  0.523790  0.841170  0.791990  1.0  0.8546
  In  In15  1  0.747300  0.845050  0.922510  1.0  0.855
  In  In16  1  0.607940  0.766930  0.948540  1.0  0.8953
  In  In17  1  0.458160  0.698500  0.961030  1.0  0.8352
  In  In18  1  0.614730  0.921590  0.882810  1.0  0.8997
  In  In19  1  0.455630  0.842280  0.907100  1.0  0.9034
  In  In20  1  0.468280  0.976380  0.845070  1.0  0.8181
  In  In21  1  0.086390  0.801020  0.244500  1.0  0.8133
  In  In22  1  0.177940  0.731960  0.164670  1.0  0.8969
  In  In23  1  0.015990  0.810120  0.143130  1.0  0.8767
  In  In24  1  0.023790  0.658830  0.208010  1.0  0.8554
  In  In25  1  0.247300  0.654950  0.077490  1.0  0.8558
  In  In26  1  0.107940  0.733070  0.051460  1.0  0.894
  In  In27  1  0.958160  0.801500  0.038970  1.0  0.8365
  In  In28  1  0.114730  0.578410  0.117190  1.0  0.9005
  In  In29  1  0.955630  0.657720  0.092900  1.0  0.9039
  In  In30  1  0.968280  0.523620  0.154930  1.0  0.8172
  In  In31  1  0.413610  0.198980  0.744500  1.0  0.813
  In  In32  1  0.322060  0.268040  0.664670  1.0  0.8992
  In  In33  1  0.484010  0.189880  0.643130  1.0  0.875
  In  In34  1  0.476210  0.341170  0.708010  1.0  0.8539
  In  In35  1  0.252700  0.345050  0.577490  1.0  0.8555
  In  In36  1  0.392060  0.266930  0.551460  1.0  0.8962
  In  In37  1  0.541840  0.198500  0.538970  1.0  0.8358
  In  In38  1  0.385270  0.421590  0.617190  1.0  0.9013
  In  In39  1  0.544370  0.342280  0.592900  1.0  0.902
  In  In40  1  0.531720  0.476380  0.654930  1.0  0.8171
  In  In41  1  0.086390  0.698980  0.744500  1.0  0.8126
  In  In42  1  0.177940  0.768040  0.664670  1.0  0.8973
  In  In43  1  0.015990  0.689880  0.643130  1.0  0.8768
  In  In44  1  0.023790  0.841170  0.708010  1.0  0.855
  In  In45  1  0.247300  0.845050  0.577490  1.0  0.856
  In  In46  1  0.107940  0.766930  0.551460  1.0  0.8947
  In  In47  1  0.958160  0.698500  0.538970  1.0  0.8359
  In  In48  1  0.114730  0.921590  0.617190  1.0  0.9002
  In  In49  1  0.955630  0.842280  0.592900  1.0  0.9037
  In  In50  1  0.968280  0.976380  0.654930  1.0  0.8177
  In  In51  1  0.413610  0.301020  0.244500  1.0  0.8136
  In  In52  1  0.322060  0.231960  0.164670  1.0  0.8989
  In  In53  1  0.484010  0.310120  0.143130  1.0  0.875
  In  In54  1  0.476210  0.158830  0.208010  1.0  0.8543
  In  In55  1  0.252700  0.154950  0.077490  1.0  0.8554
  In  In56  1  0.392060  0.233070  0.051460  1.0  0.8955
  In  In57  1  0.541840  0.301500  0.038970  1.0  0.8362
  In  In58  1  0.385270  0.078410  0.117190  1.0  0.9015
  In  In59  1  0.544370  0.157720  0.092900  1.0  0.9023
  In  In60  1  0.531720  0.023620  0.154930  1.0  0.8169
  In  In61  1  0.913610  0.198980  0.755500  1.0  0.8133
  In  In62  1  0.822060  0.268040  0.835330  1.0  0.8997
  In  In63  1  0.984010  0.189880  0.856870  1.0  0.8755
  In  In64  1  0.976210  0.341170  0.791990  1.0  0.8537
  In  In65  1  0.752700  0.345050  0.922510  1.0  0.8547
  In  In66  1  0.892060  0.266930  0.948540  1.0  0.8967
  In  In67  1  0.041840  0.198500  0.961030  1.0  0.8353
  In  In68  1  0.885270  0.421590  0.882810  1.0  0.9007
  In  In69  1  0.044370  0.342280  0.907100  1.0  0.9017
  In  In70  1  0.031720  0.476380  0.845070  1.0  0.8175
  In  In71  1  0.586390  0.801020  0.255500  1.0  0.8137
  In  In72  1  0.677940  0.731960  0.335330  1.0  0.8975
  In  In73  1  0.515990  0.810120  0.356870  1.0  0.8773
  In  In74  1  0.523790  0.658830  0.291990  1.0  0.8548
  In  In75  1  0.747300  0.654950  0.422510  1.0  0.8548
  In  In76  1  0.607940  0.733070  0.448540  1.0  0.8944
  In  In77  1  0.458160  0.801500  0.461030  1.0  0.8358
  In  In78  1  0.614730  0.578410  0.382810  1.0  0.9001
  In  In79  1  0.455630  0.657720  0.407100  1.0  0.9038
  In  In80  1  0.468280  0.523620  0.345070  1.0  0.8176
  H  H81  1  0.632900  0.059300  0.431400  1.0  -0.0296
  H  H82  1  0.817000  0.354300  0.184900  1.0  -0.0228
  H  H83  1  0.550600  0.073800  0.480900  1.0  -0.0154
  H  H84  1  0.660000  0.210000  0.483800  1.0  -0.0522
  H  H85  1  0.836400  0.445900  0.147500  1.0  -0.0362
  H  H86  1  0.979200  0.405400  0.208000  1.0  -0.0421
  H  H87  1  0.867100  0.940700  0.931400  1.0  -0.029
  H  H88  1  0.683000  0.645700  0.684900  1.0  -0.0216
  H  H89  1  0.949400  0.926200  0.980900  1.0  -0.015
  H  H90  1  0.840000  0.790000  0.983800  1.0  -0.0512
  H  H91  1  0.663600  0.554100  0.647500  1.0  -0.0358
  H  H92  1  0.520800  0.594600  0.708000  1.0  -0.0419
  H  H93  1  0.367100  0.559300  0.068600  1.0  -0.0274
  H  H94  1  0.183000  0.854300  0.315100  1.0  -0.022
  H  H95  1  0.449400  0.573800  0.019100  1.0  -0.0155
  H  H96  1  0.340000  0.710000  0.016200  1.0  -0.0523
  H  H97  1  0.163600  0.945900  0.352500  1.0  -0.0355
  H  H98  1  0.020800  0.905400  0.292000  1.0  -0.0414
  H  H99  1  0.132900  0.440700  0.568600  1.0  -0.0285
  H  H100  1  0.317000  0.145700  0.815100  1.0  -0.0221
  H  H101  1  0.050600  0.426200  0.519100  1.0  -0.0146
  H  H102  1  0.160000  0.290000  0.516200  1.0  -0.0512
  H  H103  1  0.336400  0.054100  0.852500  1.0  -0.0348
  H  H104  1  0.479200  0.094600  0.792000  1.0  -0.0415
  H  H105  1  0.367100  0.940700  0.568600  1.0  -0.0285
  H  H106  1  0.183000  0.645700  0.815100  1.0  -0.0216
  H  H107  1  0.449400  0.926200  0.519100  1.0  -0.0145
  H  H108  1  0.340000  0.790000  0.516200  1.0  -0.0511
  H  H109  1  0.163600  0.554100  0.852500  1.0  -0.0352
  H  H110  1  0.020800  0.594600  0.792000  1.0  -0.0416
  H  H111  1  0.132900  0.059300  0.068600  1.0  -0.0278
  H  H112  1  0.317000  0.354300  0.315100  1.0  -0.0223
  H  H113  1  0.050600  0.073800  0.019100  1.0  -0.0153
  H  H114  1  0.160000  0.210000  0.016200  1.0  -0.0517
  H  H115  1  0.336400  0.445900  0.352500  1.0  -0.0353
  H  H116  1  0.479200  0.405400  0.292000  1.0  -0.0413
  H  H117  1  0.632900  0.440700  0.931400  1.0  -0.0293
  H  H118  1  0.817000  0.145700  0.684900  1.0  -0.0222
  H  H119  1  0.550600  0.426200  0.980900  1.0  -0.0149
  H  H120  1  0.660000  0.290000  0.983800  1.0  -0.0513
  H  H121  1  0.836400  0.054100  0.647500  1.0  -0.0362
  H  H122  1  0.979200  0.094600  0.708000  1.0  -0.0422
  H  H123  1  0.867100  0.559300  0.431400  1.0  -0.0292
  H  H124  1  0.683000  0.854300  0.184900  1.0  -0.0224
  H  H125  1  0.949400  0.573800  0.480900  1.0  -0.0159
  H  H126  1  0.840000  0.710000  0.483800  1.0  -0.0527
  H  H127  1  0.663600  0.945900  0.147500  1.0  -0.0357
  H  H128  1  0.520800  0.905400  0.208000  1.0  -0.0418
  C  C129  1  0.629000  0.092100  0.449000  1.0  -0.146
  C  C130  1  0.853300  0.375800  0.184800  1.0  -0.1684
  C  C131  1  0.582900  0.099700  0.475900  1.0  -0.1683
  C  C132  1  0.643700  0.172700  0.477100  1.0  0.051
  C  C133  1  0.864200  0.425700  0.163900  1.0  -0.1809
  C  C134  1  0.940700  0.403500  0.196400  1.0  0.0562
  C  C135  1  0.871000  0.907900  0.949000  1.0  -0.146
  C  C136  1  0.646700  0.624200  0.684800  1.0  -0.1707
  C  C137  1  0.917100  0.900300  0.975900  1.0  -0.1692
  C  C138  1  0.856300  0.827300  0.977100  1.0  0.0526
  C  C139  1  0.635800  0.574300  0.663900  1.0  -0.1801
  C  C140  1  0.559300  0.596500  0.696400  1.0  0.0561
  C  C141  1  0.371000  0.592100  0.051000  1.0  -0.1462
  C  C142  1  0.146700  0.875800  0.315200  1.0  -0.1692
  C  C143  1  0.417100  0.599700  0.024100  1.0  -0.1688
  C  C144  1  0.356300  0.672700  0.022900  1.0  0.0512
  C  C145  1  0.135800  0.925700  0.336100  1.0  -0.1792
  C  C146  1  0.059300  0.903500  0.303600  1.0  0.0559
  C  C147  1  0.129000  0.407900  0.551000  1.0  -0.1467
  C  C148  1  0.353300  0.124200  0.815200  1.0  -0.1693
  C  C149  1  0.082900  0.400300  0.524100  1.0  -0.1679
  C  C150  1  0.143700  0.327300  0.522900  1.0  0.0512
  C  C151  1  0.364200  0.074300  0.836100  1.0  -0.1796
  C  C152  1  0.440700  0.096500  0.803600  1.0  0.0564
  C  C153  1  0.371000  0.907900  0.551000  1.0  -0.1473
  C  C154  1  0.146700  0.624200  0.815200  1.0  -0.1707
  C  C155  1  0.417100  0.900300  0.524100  1.0  -0.1688
  C  C156  1  0.356300  0.827300  0.522900  1.0  0.0521
  C  C157  1  0.135800  0.574300  0.836100  1.0  -0.1781
  C  C158  1  0.059300  0.596500  0.803600  1.0  0.056
  C  C159  1  0.129000  0.092100  0.051000  1.0  -0.1461
  C  C160  1  0.353300  0.375800  0.315200  1.0  -0.1684
  C  C161  1  0.082900  0.099700  0.024100  1.0  -0.1686
  C  C162  1  0.143700  0.172700  0.022900  1.0  0.0508
  C  C163  1  0.364200  0.425700  0.336100  1.0  -0.1803
  C  C164  1  0.440700  0.403500  0.303600  1.0  0.056
  C  C165  1  0.629000  0.407900  0.949000  1.0  -0.1459
  C  C166  1  0.853300  0.124200  0.684800  1.0  -0.1693
  C  C167  1  0.582900  0.400300  0.975900  1.0  -0.1684
  C  C168  1  0.643700  0.327300  0.977100  1.0  0.0518
  C  C169  1  0.864200  0.074300  0.663900  1.0  -0.1807
  C  C170  1  0.940700  0.096500  0.696400  1.0  0.0565
  C  C171  1  0.871000  0.592100  0.449000  1.0  -0.1459
  C  C172  1  0.646700  0.875800  0.184800  1.0  -0.1694
  C  C173  1  0.917100  0.599700  0.475900  1.0  -0.1689
  C  C174  1  0.856300  0.672700  0.477100  1.0  0.0514
  C  C175  1  0.635800  0.925700  0.163900  1.0  -0.1807
  C  C176  1  0.559300  0.903500  0.196400  1.0  0.056
  S  S177  1  0.811020  0.288700  0.274670  1.0  -0.34
  S  S178  1  0.976800  0.364600  0.295350  1.0  -0.35
  S  S179  1  0.964200  0.213700  0.230430  1.0  -0.3477
  S  S180  1  0.725530  0.209700  0.362520  1.0  -0.3547
  S  S181  1  0.882480  0.290330  0.384510  1.0  -0.3932
  S  S182  1  0.041800  0.367400  0.403710  1.0  -0.3547
  S  S183  1  0.874500  0.136980  0.319700  1.0  -0.4096
  S  S184  1  0.035580  0.214700  0.343160  1.0  -0.3927
  S  S185  1  0.030500  0.069500  0.279390  1.0  -0.3622
  S  S186  1  0.795000  0.214400  0.475410  1.0  -0.344
  S  S187  1  0.948800  0.289800  0.496130  1.0  -0.3586
  S  S188  1  0.789800  0.056500  0.411340  1.0  -0.3529
  S  S189  1  0.942840  0.136890  0.433660  1.0  -0.3888
  S  S190  1  0.102700  0.214100  0.454040  1.0  -0.3485
  S  S191  1  0.935500  0.987000  0.367230  1.0  -0.3358
  S  S192  1  0.095500  0.066000  0.395860  1.0  -0.3511
  S  S193  1  0.688980  0.711300  0.774670  1.0  -0.3392
  S  S194  1  0.523200  0.635400  0.795350  1.0  -0.3508
  S  S195  1  0.535800  0.786300  0.730430  1.0  -0.3472
  S  S196  1  0.774470  0.790300  0.862520  1.0  -0.3552
  S  S197  1  0.617520  0.709670  0.884510  1.0  -0.3924
  S  S198  1  0.458200  0.632600  0.903710  1.0  -0.3563
  S  S199  1  0.625500  0.863020  0.819700  1.0  -0.411
  S  S200  1  0.464420  0.785300  0.843160  1.0  -0.3928
  S  S201  1  0.469500  0.930500  0.779390  1.0  -0.363
  S  S202  1  0.705000  0.785600  0.975410  1.0  -0.3448
  S  S203  1  0.551200  0.710200  0.996130  1.0  -0.3576
  S  S204  1  0.710200  0.943500  0.911340  1.0  -0.3528
  S  S205  1  0.557160  0.863110  0.933660  1.0  -0.3885
  S  S206  1  0.397300  0.785900  0.954040  1.0  -0.3479
  S  S207  1  0.564500  0.013000  0.867230  1.0  -0.337
  S  S208  1  0.404500  0.934000  0.895860  1.0  -0.3509
  S  S209  1  0.188980  0.788700  0.225330  1.0  -0.339
  S  S210  1  0.023200  0.864600  0.204650  1.0  -0.35
  S  S211  1  0.035800  0.713700  0.269570  1.0  -0.3473
  S  S212  1  0.274470  0.709700  0.137480  1.0  -0.355
  S  S213  1  0.117520  0.790330  0.115490  1.0  -0.393
  S  S214  1  0.958200  0.867400  0.096290  1.0  -0.3554
  S  S215  1  0.125500  0.636980  0.180300  1.0  -0.4089
  S  S216  1  0.964420  0.714700  0.156840  1.0  -0.3924
  S  S217  1  0.969500  0.569500  0.220610  1.0  -0.3608
  S  S218  1  0.205000  0.714400  0.024590  1.0  -0.3444
  S  S219  1  0.051200  0.789800  0.003870  1.0  -0.3595
  S  S220  1  0.210200  0.556500  0.088660  1.0  -0.3537
  S  S221  1  0.057160  0.636890  0.066340  1.0  -0.3896
  S  S222  1  0.897300  0.714100  0.045960  1.0  -0.3487
  S  S223  1  0.064500  0.487000  0.132770  1.0  -0.3365
  S  S224  1  0.904500  0.566000  0.104140  1.0  -0.3509
  S  S225  1  0.311020  0.211300  0.725330  1.0  -0.3397
  S  S226  1  0.476800  0.135400  0.704650  1.0  -0.3486
  S  S227  1  0.464200  0.286300  0.769570  1.0  -0.3477
  S  S228  1  0.225530  0.290300  0.637480  1.0  -0.355
  S  S229  1  0.382480  0.209670  0.615490  1.0  -0.3918
  S  S230  1  0.541800  0.132600  0.596290  1.0  -0.3555
  S  S231  1  0.374500  0.363020  0.680300  1.0  -0.4096
  S  S232  1  0.535580  0.285300  0.656840  1.0  -0.3922
  S  S233  1  0.530500  0.430500  0.720610  1.0  -0.36
  S  S234  1  0.295000  0.285600  0.524590  1.0  -0.3446
  S  S235  1  0.448800  0.210200  0.503870  1.0  -0.3604
  S  S236  1  0.289800  0.443500  0.588660  1.0  -0.3526
  S  S237  1  0.442840  0.363110  0.566340  1.0  -0.3893
  S  S238  1  0.602700  0.285900  0.545960  1.0  -0.3485
  S  S239  1  0.435500  0.513000  0.632770  1.0  -0.3364
  S  S240  1  0.595500  0.434000  0.604140  1.0  -0.3512
  S  S241  1  0.188980  0.711300  0.725330  1.0  -0.339
  S  S242  1  0.023200  0.635400  0.704650  1.0  -0.3501
  S  S243  1  0.035800  0.786300  0.769570  1.0  -0.3472
  S  S244  1  0.274470  0.790300  0.637480  1.0  -0.355
  S  S245  1  0.117520  0.709670  0.615490  1.0  -0.3923
  S  S246  1  0.958200  0.632600  0.596290  1.0  -0.3563
  S  S247  1  0.125500  0.863020  0.680300  1.0  -0.4098
  S  S248  1  0.964420  0.785300  0.656840  1.0  -0.3922
  S  S249  1  0.969500  0.930500  0.720610  1.0  -0.3608
  S  S250  1  0.205000  0.785600  0.524590  1.0  -0.345
  S  S251  1  0.051200  0.710200  0.503870  1.0  -0.3595
  S  S252  1  0.210200  0.943500  0.588660  1.0  -0.353
  S  S253  1  0.057160  0.863110  0.566340  1.0  -0.3894
  S  S254  1  0.897300  0.785900  0.545960  1.0  -0.3482
  S  S255  1  0.064500  0.013000  0.632770  1.0  -0.3368
  S  S256  1  0.904500  0.934000  0.604140  1.0  -0.351
  S  S257  1  0.311020  0.288700  0.225330  1.0  -0.3398
  S  S258  1  0.476800  0.364600  0.204650  1.0  -0.3488
  S  S259  1  0.464200  0.213700  0.269570  1.0  -0.3477
  S  S260  1  0.225530  0.209700  0.137480  1.0  -0.3549
  S  S261  1  0.382480  0.290330  0.115490  1.0  -0.393
  S  S262  1  0.541800  0.367400  0.096290  1.0  -0.3546
  S  S263  1  0.374500  0.136980  0.180300  1.0  -0.4087
  S  S264  1  0.535580  0.214700  0.156840  1.0  -0.3924
  S  S265  1  0.530500  0.069500  0.220610  1.0  -0.3599
  S  S266  1  0.295000  0.214400  0.024590  1.0  -0.3441
  S  S267  1  0.448800  0.289800  0.003870  1.0  -0.3604
  S  S268  1  0.289800  0.056500  0.088660  1.0  -0.3531
  S  S269  1  0.442840  0.136890  0.066340  1.0  -0.3895
  S  S270  1  0.602700  0.214100  0.045960  1.0  -0.3487
  S  S271  1  0.435500  0.987000  0.132770  1.0  -0.336
  S  S272  1  0.595500  0.066000  0.104140  1.0  -0.3512
  S  S273  1  0.811020  0.211300  0.774670  1.0  -0.3401
  S  S274  1  0.976800  0.135400  0.795350  1.0  -0.3497
  S  S275  1  0.964200  0.286300  0.730430  1.0  -0.3474
  S  S276  1  0.725530  0.290300  0.862520  1.0  -0.3553
  S  S277  1  0.882480  0.209670  0.884510  1.0  -0.3919
  S  S278  1  0.041800  0.132600  0.903710  1.0  -0.3554
  S  S279  1  0.874500  0.363020  0.819700  1.0  -0.4107
  S  S280  1  0.035580  0.285300  0.843160  1.0  -0.3926
  S  S281  1  0.030500  0.430500  0.779390  1.0  -0.3622
  S  S282  1  0.795000  0.285600  0.975410  1.0  -0.3443
  S  S283  1  0.948800  0.210200  0.996130  1.0  -0.3585
  S  S284  1  0.789800  0.443500  0.911340  1.0  -0.3523
  S  S285  1  0.942840  0.363110  0.933660  1.0  -0.3885
  S  S286  1  0.102700  0.285900  0.954040  1.0  -0.3482
  S  S287  1  0.935500  0.513000  0.867230  1.0  -0.3364
  S  S288  1  0.095500  0.434000  0.895860  1.0  -0.3512
  S  S289  1  0.688980  0.788700  0.274670  1.0  -0.339
  S  S290  1  0.523200  0.864600  0.295350  1.0  -0.3509
  S  S291  1  0.535800  0.713700  0.230430  1.0  -0.3475
  S  S292  1  0.774470  0.709700  0.362520  1.0  -0.3548
  S  S293  1  0.617520  0.790330  0.384510  1.0  -0.3932
  S  S294  1  0.458200  0.867400  0.403710  1.0  -0.3555
  S  S295  1  0.625500  0.636980  0.319700  1.0  -0.4098
  S  S296  1  0.464420  0.714700  0.343160  1.0  -0.3928
  S  S297  1  0.469500  0.569500  0.279390  1.0  -0.3629
  S  S298  1  0.705000  0.714400  0.475410  1.0  -0.3443
  S  S299  1  0.551200  0.789800  0.496130  1.0  -0.3576
  S  S300  1  0.710200  0.556500  0.411340  1.0  -0.3535
  S  S301  1  0.557160  0.636890  0.433660  1.0  -0.3889
  S  S302  1  0.397300  0.714100  0.454040  1.0  -0.3485
  S  S303  1  0.564500  0.487000  0.367230  1.0  -0.3366
  S  S304  1  0.404500  0.566000  0.395860  1.0  -0.3508
  N  N305  1  0.593900  0.152500  0.493700  1.0  -0.4892
  N  N306  1  0.668300  0.137900  0.451200  1.0  -0.5558
  N  N307  1  0.902100  0.361700  0.205200  1.0  -0.5246
  N  N308  1  0.921300  0.442300  0.170300  1.0  -0.5412
  N  N309  1  0.906100  0.847500  0.993700  1.0  -0.4902
  N  N310  1  0.831700  0.862100  0.951200  1.0  -0.5521
  N  N311  1  0.597900  0.638300  0.705200  1.0  -0.5249
  N  N312  1  0.578700  0.557700  0.670300  1.0  -0.5428
  N  N313  1  0.406100  0.652500  0.006300  1.0  -0.4934
  N  N314  1  0.331700  0.637900  0.048800  1.0  -0.5545
  N  N315  1  0.097900  0.861700  0.294800  1.0  -0.5265
  N  N316  1  0.078700  0.942300  0.329700  1.0  -0.5417
  N  N317  1  0.093900  0.347500  0.506300  1.0  -0.492
  N  N318  1  0.168300  0.362100  0.548800  1.0  -0.5567
  N  N319  1  0.402100  0.138300  0.794800  1.0  -0.5246
  N  N320  1  0.421300  0.057700  0.829700  1.0  -0.5416
  N  N321  1  0.406100  0.847500  0.506300  1.0  -0.4947
  N  N322  1  0.331700  0.862100  0.548800  1.0  -0.5546
  N  N323  1  0.097900  0.638300  0.794800  1.0  -0.5257
  N  N324  1  0.078700  0.557700  0.829700  1.0  -0.5431
  N  N325  1  0.093900  0.152500  0.006300  1.0  -0.4905
  N  N326  1  0.168300  0.137900  0.048800  1.0  -0.5566
  N  N327  1  0.402100  0.361700  0.294800  1.0  -0.5253
  N  N328  1  0.421300  0.442300  0.329700  1.0  -0.5408
  N  N329  1  0.593900  0.347500  0.993700  1.0  -0.49
  N  N330  1  0.668300  0.362100  0.951200  1.0  -0.556
  N  N331  1  0.902100  0.138300  0.705200  1.0  -0.5239
  N  N332  1  0.921300  0.057700  0.670300  1.0  -0.5418
  N  N333  1  0.906100  0.652500  0.493700  1.0  -0.49
  N  N334  1  0.831700  0.637900  0.451200  1.0  -0.5518
  N  N335  1  0.597900  0.861700  0.205200  1.0  -0.5258
  N  N336  1  0.578700  0.942300  0.170300  1.0  -0.541
