# generated using pymatgen
data_In5H7C8(S4N)2
_symmetry_space_group_name_H-M   'P 1'
_cell_length_a   22.41650000
_cell_length_b   22.43880000
_cell_length_c   33.99400000
_cell_angle_alpha   90.00000000
_cell_angle_beta   90.00000000
_cell_angle_gamma   90.00000000
_symmetry_Int_Tables_number   1
_chemical_formula_structural   In5H7C8(S4N)2
_chemical_formula_sum   'In80 H112 C128 S128 N32'
_cell_volume   17098.96025064
_cell_formula_units_Z   16
loop_
 _symmetry_equiv_pos_site_id
 _symmetry_equiv_pos_as_xyz
  1  'x, y, z'
loop_
 _atom_site_type_symbol
 _atom_site_label
 _atom_site_symmetry_multiplicity
 _atom_site_fract_x
 _atom_site_fract_y
 _atom_site_fract_z
 _atom_site_occupancy
 _atom_site_charge
  In  In1  1  0.296360  0.083050  0.761320  1.0  0.9066
  In  In2  1  0.222300  0.161680  0.843640  1.0  0.9331
  In  In3  1  0.311470  0.002730  0.857950  1.0  0.9791
  In  In4  1  0.157110  0.008140  0.793870  1.0  0.9295
  In  In5  1  0.140830  0.218550  0.932250  1.0  0.9409
  In  In6  1  0.226300  0.078740  0.950510  1.0  0.8848
  In  In7  1  0.071290  0.085810  0.886650  1.0  0.9073
  In  In8  1  0.304490  0.932320  0.955620  1.0  0.9866
  In  In9  1  0.159730  0.926290  0.901890  1.0  0.93
  In  In10  1  0.022110  0.941370  0.841750  1.0  0.8833
  In  In11  1  0.703640  0.416950  0.261320  1.0  0.9054
  In  In12  1  0.777700  0.338320  0.343640  1.0  0.9338
  In  In13  1  0.688530  0.497270  0.357950  1.0  0.978
  In  In14  1  0.842890  0.491860  0.293870  1.0  0.9287
  In  In15  1  0.859170  0.281450  0.432250  1.0  0.9405
  In  In16  1  0.773700  0.421260  0.450510  1.0  0.8833
  In  In17  1  0.928710  0.414190  0.386650  1.0  0.9063
  In  In18  1  0.695510  0.567680  0.455620  1.0  0.9864
  In  In19  1  0.840270  0.573710  0.401890  1.0  0.9275
  In  In20  1  0.977890  0.558630  0.341750  1.0  0.8849
  In  In21  1  0.796360  0.916950  0.738680  1.0  0.9056
  In  In22  1  0.722300  0.838320  0.656360  1.0  0.9334
  In  In23  1  0.811470  0.997270  0.642050  1.0  0.9788
  In  In24  1  0.657110  0.991860  0.706130  1.0  0.9294
  In  In25  1  0.640830  0.781450  0.567750  1.0  0.943
  In  In26  1  0.726300  0.921260  0.549490  1.0  0.8845
  In  In27  1  0.571290  0.914190  0.613350  1.0  0.908
  In  In28  1  0.804490  0.067680  0.544380  1.0  0.9854
  In  In29  1  0.659730  0.073710  0.598110  1.0  0.93
  In  In30  1  0.522110  0.058630  0.658250  1.0  0.8832
  In  In31  1  0.203640  0.583050  0.238680  1.0  0.9049
  In  In32  1  0.277700  0.661680  0.156360  1.0  0.9332
  In  In33  1  0.188530  0.502730  0.142050  1.0  0.9789
  In  In34  1  0.342890  0.508140  0.206130  1.0  0.9293
  In  In35  1  0.359170  0.718550  0.067750  1.0  0.9431
  In  In36  1  0.273700  0.578740  0.049490  1.0  0.8837
  In  In37  1  0.428710  0.585810  0.113350  1.0  0.9064
  In  In38  1  0.195510  0.432320  0.044380  1.0  0.9867
  In  In39  1  0.340270  0.426290  0.098110  1.0  0.9281
  In  In40  1  0.477890  0.441370  0.158250  1.0  0.8844
  In  In41  1  0.703640  0.916950  0.238680  1.0  0.9046
  In  In42  1  0.777700  0.838320  0.156360  1.0  0.9338
  In  In43  1  0.688530  0.997270  0.142050  1.0  0.9785
  In  In44  1  0.842890  0.991860  0.206130  1.0  0.9288
  In  In45  1  0.859170  0.781450  0.067750  1.0  0.9429
  In  In46  1  0.773700  0.921260  0.049490  1.0  0.8836
  In  In47  1  0.928710  0.914190  0.113350  1.0  0.9067
  In  In48  1  0.695510  0.067680  0.044380  1.0  0.9862
  In  In49  1  0.840270  0.073710  0.098110  1.0  0.9278
  In  In50  1  0.977890  0.058630  0.158250  1.0  0.8845
  In  In51  1  0.296360  0.583050  0.738680  1.0  0.9057
  In  In52  1  0.222300  0.661680  0.656360  1.0  0.9329
  In  In53  1  0.311470  0.502730  0.642050  1.0  0.9794
  In  In54  1  0.157110  0.508140  0.706130  1.0  0.9299
  In  In55  1  0.140830  0.718550  0.567750  1.0  0.9434
  In  In56  1  0.226300  0.578740  0.549490  1.0  0.8846
  In  In57  1  0.071290  0.585810  0.613350  1.0  0.9078
  In  In58  1  0.304490  0.432320  0.544380  1.0  0.9864
  In  In59  1  0.159730  0.426290  0.598110  1.0  0.9302
  In  In60  1  0.022110  0.441370  0.658250  1.0  0.8827
  In  In61  1  0.203640  0.083050  0.261320  1.0  0.9058
  In  In62  1  0.277700  0.161680  0.343640  1.0  0.9334
  In  In63  1  0.188530  0.002730  0.357950  1.0  0.9785
  In  In64  1  0.342890  0.008140  0.293870  1.0  0.9289
  In  In65  1  0.359170  0.218550  0.432250  1.0  0.9406
  In  In66  1  0.273700  0.078740  0.450510  1.0  0.8833
  In  In67  1  0.428710  0.085810  0.386650  1.0  0.9059
  In  In68  1  0.195510  0.932320  0.455620  1.0  0.9867
  In  In69  1  0.340270  0.926290  0.401890  1.0  0.9279
  In  In70  1  0.477890  0.941370  0.341750  1.0  0.885
  In  In71  1  0.796360  0.416950  0.761320  1.0  0.9063
  In  In72  1  0.722300  0.338320  0.843640  1.0  0.9334
  In  In73  1  0.811470  0.497270  0.857950  1.0  0.9781
  In  In74  1  0.657110  0.491860  0.793870  1.0  0.9292
  In  In75  1  0.640830  0.281450  0.932250  1.0  0.9408
  In  In76  1  0.726300  0.421260  0.950510  1.0  0.8848
  In  In77  1  0.571290  0.414190  0.886650  1.0  0.9075
  In  In78  1  0.804490  0.567680  0.955620  1.0  0.9855
  In  In79  1  0.659730  0.573710  0.901890  1.0  0.9298
  In  In80  1  0.522110  0.558630  0.841750  1.0  0.8837
  H  H81  1  0.193600  0.303200  0.999500  1.0  -0.015
  H  H82  1  0.075200  0.480000  0.994000  1.0  -0.0029
  H  H83  1  0.989700  0.480000  0.955300  1.0  -0.0248
  H  H84  1  0.019900  0.309800  0.919400  1.0  0.0031
  H  H85  1  0.899800  0.409900  0.936200  1.0  0.0298
  H  H86  1  0.917000  0.351500  0.911700  1.0  0.0195
  H  H87  1  0.928700  0.416100  0.893400  1.0  0.0227
  H  H88  1  0.422500  0.048000  0.722200  1.0  -0.0111
  H  H89  1  0.270000  0.186400  0.689100  1.0  0.0037
  H  H90  1  0.282900  0.254600  0.638400  1.0  0.0017
  H  H91  1  0.445200  0.181500  0.613600  1.0  0.0078
  H  H92  1  0.404500  0.261200  0.573800  1.0  -0.0004
  H  H93  1  0.350700  0.299700  0.591400  1.0  -0.0037
  H  H94  1  0.337000  0.241400  0.565800  1.0  -0.0011
  H  H95  1  0.806400  0.196800  0.499500  1.0  -0.0144
  H  H96  1  0.924800  0.020000  0.494000  1.0  -0.003
  H  H97  1  0.010300  0.020000  0.455300  1.0  -0.0251
  H  H98  1  0.980100  0.190200  0.419400  1.0  0.0036
  H  H99  1  0.100200  0.090100  0.436200  1.0  0.0299
  H  H100  1  0.083000  0.148500  0.411700  1.0  0.0205
  H  H101  1  0.071300  0.083900  0.393400  1.0  0.0226
  H  H102  1  0.577500  0.452000  0.222200  1.0  -0.0105
  H  H103  1  0.730000  0.313600  0.189100  1.0  0.0034
  H  H104  1  0.717100  0.245400  0.138400  1.0  0.0021
  H  H105  1  0.554800  0.318500  0.113600  1.0  0.0081
  H  H106  1  0.595500  0.238800  0.073800  1.0  0.0018
  H  H107  1  0.649300  0.200300  0.091400  1.0  -0.003
  H  H108  1  0.663000  0.258600  0.065800  1.0  -0.0007
  H  H109  1  0.693600  0.696800  0.500500  1.0  -0.0146
  H  H110  1  0.575200  0.520000  0.506000  1.0  -0.0029
  H  H111  1  0.489700  0.520000  0.544700  1.0  -0.0254
  H  H112  1  0.519900  0.690200  0.580600  1.0  0.0035
  H  H113  1  0.399800  0.590100  0.563800  1.0  0.0308
  H  H114  1  0.417000  0.648500  0.588300  1.0  0.0201
  H  H115  1  0.428700  0.583900  0.606600  1.0  0.0223
  H  H116  1  0.922500  0.952000  0.777800  1.0  -0.0109
  H  H117  1  0.770000  0.813600  0.810900  1.0  0.0034
  H  H118  1  0.782900  0.745400  0.861600  1.0  0.0017
  H  H119  1  0.945200  0.818500  0.886400  1.0  0.0076
  H  H120  1  0.904500  0.738800  0.926200  1.0  -0.0026
  H  H121  1  0.850700  0.700300  0.908600  1.0  -0.004
  H  H122  1  0.837000  0.758600  0.934200  1.0  -1e-04
  H  H123  1  0.306400  0.803200  0.000500  1.0  -0.0146
  H  H124  1  0.424800  0.980000  0.006000  1.0  -0.0028
  H  H125  1  0.510300  0.980000  0.044700  1.0  -0.0252
  H  H126  1  0.480100  0.809800  0.080600  1.0  0.003
  H  H127  1  0.600200  0.909900  0.063800  1.0  0.0309
  H  H128  1  0.583000  0.851500  0.088300  1.0  0.0201
  H  H129  1  0.571300  0.916100  0.106600  1.0  0.0219
  H  H130  1  0.077500  0.548000  0.277800  1.0  -0.0119
  H  H131  1  0.230000  0.686400  0.310900  1.0  0.0039
  H  H132  1  0.217100  0.754600  0.361600  1.0  0.0024
  H  H133  1  0.054800  0.681500  0.386400  1.0  0.0081
  H  H134  1  0.095500  0.761200  0.426200  1.0  0.0017
  H  H135  1  0.149300  0.799700  0.408600  1.0  -0.0029
  H  H136  1  0.163000  0.741400  0.434200  1.0  -0.0008
  H  H137  1  0.806400  0.696800  0.000500  1.0  -0.0142
  H  H138  1  0.924800  0.520000  0.006000  1.0  -0.0031
  H  H139  1  0.010300  0.520000  0.044700  1.0  -0.0252
  H  H140  1  0.980100  0.690200  0.080600  1.0  0.0034
  H  H141  1  0.100200  0.590100  0.063800  1.0  0.0311
  H  H142  1  0.083000  0.648500  0.088300  1.0  0.0206
  H  H143  1  0.071300  0.583900  0.106600  1.0  0.0221
  H  H144  1  0.577500  0.952000  0.277800  1.0  -0.011
  H  H145  1  0.730000  0.813600  0.310900  1.0  0.0037
  H  H146  1  0.717100  0.745400  0.361600  1.0  0.002
  H  H147  1  0.554800  0.818500  0.386400  1.0  0.008
  H  H148  1  0.595500  0.738800  0.426200  1.0  0.0013
  H  H149  1  0.649300  0.700300  0.408600  1.0  -0.0035
  H  H150  1  0.663000  0.758600  0.434200  1.0  0.0007
  H  H151  1  0.193600  0.803200  0.500500  1.0  -0.0149
  H  H152  1  0.075200  0.980000  0.506000  1.0  -0.0029
  H  H153  1  0.989700  0.980000  0.544700  1.0  -0.025
  H  H154  1  0.019900  0.809800  0.580600  1.0  0.0033
  H  H155  1  0.899800  0.909900  0.563800  1.0  0.0305
  H  H156  1  0.917000  0.851500  0.588300  1.0  0.0197
  H  H157  1  0.928700  0.916100  0.606600  1.0  0.0222
  H  H158  1  0.422500  0.548000  0.777800  1.0  -0.0121
  H  H159  1  0.270000  0.686400  0.810900  1.0  0.0036
  H  H160  1  0.282900  0.754600  0.861600  1.0  0.0019
  H  H161  1  0.445200  0.681500  0.886400  1.0  0.0077
  H  H162  1  0.404500  0.761200  0.926200  1.0  -0.0021
  H  H163  1  0.350700  0.799700  0.908600  1.0  -0.0036
  H  H164  1  0.337000  0.741400  0.934200  1.0  0.0008
  H  H165  1  0.306400  0.303200  0.499500  1.0  -0.0148
  H  H166  1  0.424800  0.480000  0.494000  1.0  -0.0028
  H  H167  1  0.510300  0.480000  0.455300  1.0  -0.025
  H  H168  1  0.480100  0.309800  0.419400  1.0  0.003
  H  H169  1  0.600200  0.409900  0.436200  1.0  0.03
  H  H170  1  0.583000  0.351500  0.411700  1.0  0.0198
  H  H171  1  0.571300  0.416100  0.393400  1.0  0.0227
  H  H172  1  0.077500  0.048000  0.222200  1.0  -0.0108
  H  H173  1  0.230000  0.186400  0.189100  1.0  0.0035
  H  H174  1  0.217100  0.254600  0.138400  1.0  0.0023
  H  H175  1  0.054800  0.181500  0.113600  1.0  0.008
  H  H176  1  0.095500  0.261200  0.073800  1.0  0.0023
  H  H177  1  0.149300  0.299700  0.091400  1.0  -0.003
  H  H178  1  0.163000  0.241400  0.065800  1.0  1e-04
  H  H179  1  0.693600  0.196800  0.999500  1.0  -0.0145
  H  H180  1  0.575200  0.020000  0.994000  1.0  -0.0028
  H  H181  1  0.489700  0.020000  0.955300  1.0  -0.0254
  H  H182  1  0.519900  0.190200  0.919400  1.0  0.0037
  H  H183  1  0.399800  0.090100  0.936200  1.0  0.03
  H  H184  1  0.417000  0.148500  0.911700  1.0  0.02
  H  H185  1  0.428700  0.083900  0.893400  1.0  0.0226
  H  H186  1  0.922500  0.452000  0.722200  1.0  -0.0103
  H  H187  1  0.770000  0.313600  0.689100  1.0  0.0035
  H  H188  1  0.782900  0.245400  0.638400  1.0  0.0014
  H  H189  1  0.945200  0.318500  0.613600  1.0  0.0079
  H  H190  1  0.904500  0.238800  0.573800  1.0  -0.0011
  H  H191  1  0.850700  0.200300  0.591400  1.0  -0.0036
  H  H192  1  0.837000  0.258600  0.565800  1.0  0.0007
  C  C193  1  0.160100  0.324500  0.989700  1.0  0.1388
  C  C194  1  0.095700  0.394700  0.980200  1.0  0.0333
  C  C195  1  0.063400  0.445600  0.979700  1.0  -0.2835
  C  C196  1  0.012700  0.444600  0.957200  1.0  -0.2121
  C  C197  1  0.992900  0.393400  0.936600  1.0  -0.0989
  C  C198  1  0.029800  0.343300  0.935200  1.0  -0.1711
  C  C199  1  0.080100  0.344200  0.957100  1.0  0.021
  C  C200  1  0.928500  0.392600  0.917700  1.0  -0.497
  C  C201  1  0.407500  0.078900  0.705800  1.0  0.1493
  C  C202  1  0.350600  0.146900  0.683100  1.0  0.0468
  C  C203  1  0.305800  0.186400  0.674200  1.0  -0.2045
  C  C204  1  0.313000  0.225800  0.643800  1.0  -0.304
  C  C205  1  0.365200  0.223600  0.620200  1.0  0.0316
  C  C206  1  0.409800  0.183500  0.628900  1.0  -0.2206
  C  C207  1  0.401100  0.145800  0.661100  1.0  -0.0279
  C  C208  1  0.364000  0.259300  0.585000  1.0  -0.5079
  C  C209  1  0.839900  0.175500  0.489700  1.0  0.1386
  C  C210  1  0.904300  0.105300  0.480200  1.0  0.0346
  C  C211  1  0.936600  0.054400  0.479700  1.0  -0.2831
  C  C212  1  0.987300  0.055400  0.457200  1.0  -0.2109
  C  C213  1  0.007100  0.106600  0.436600  1.0  -0.0971
  C  C214  1  0.970200  0.156700  0.435200  1.0  -0.1724
  C  C215  1  0.919900  0.155800  0.457100  1.0  0.02
  C  C216  1  0.071500  0.107400  0.417700  1.0  -0.4983
  C  C217  1  0.592500  0.421100  0.205800  1.0  0.149
  C  C218  1  0.649400  0.353100  0.183100  1.0  0.0461
  C  C219  1  0.694200  0.313600  0.174200  1.0  -0.2035
  C  C220  1  0.687000  0.274200  0.143800  1.0  -0.3015
  C  C221  1  0.634800  0.276400  0.120200  1.0  0.0321
  C  C222  1  0.590200  0.316500  0.128900  1.0  -0.2193
  C  C223  1  0.598900  0.354200  0.161100  1.0  -0.0285
  C  C224  1  0.636000  0.240700  0.085000  1.0  -0.5074
  C  C225  1  0.660100  0.675500  0.510300  1.0  0.1384
  C  C226  1  0.595700  0.605300  0.519800  1.0  0.0338
  C  C227  1  0.563400  0.554400  0.520300  1.0  -0.2825
  C  C228  1  0.512700  0.555400  0.542800  1.0  -0.2111
  C  C229  1  0.492900  0.606600  0.563400  1.0  -0.0994
  C  C230  1  0.529800  0.656700  0.564800  1.0  -0.1718
  C  C231  1  0.580100  0.655800  0.542900  1.0  0.0192
  C  C232  1  0.428500  0.607400  0.582300  1.0  -0.497
  C  C233  1  0.907500  0.921100  0.794200  1.0  0.148
  C  C234  1  0.850600  0.853100  0.816900  1.0  0.0493
  C  C235  1  0.805800  0.813600  0.825800  1.0  -0.2043
  C  C236  1  0.813000  0.774200  0.856200  1.0  -0.3036
  C  C237  1  0.865200  0.776400  0.879800  1.0  0.033
  C  C238  1  0.909800  0.816500  0.871100  1.0  -0.2205
  C  C239  1  0.901100  0.854200  0.838900  1.0  -0.0282
  C  C240  1  0.864000  0.740700  0.915000  1.0  -0.507
  C  C241  1  0.339900  0.824500  0.010300  1.0  0.1391
  C  C242  1  0.404300  0.894700  0.019800  1.0  0.0342
  C  C243  1  0.436600  0.945600  0.020300  1.0  -0.2855
  C  C244  1  0.487300  0.944600  0.042800  1.0  -0.2116
  C  C245  1  0.507100  0.893400  0.063400  1.0  -0.0982
  C  C246  1  0.470200  0.843300  0.064800  1.0  -0.1701
  C  C247  1  0.419900  0.844200  0.042900  1.0  0.0197
  C  C248  1  0.571500  0.892600  0.082300  1.0  -0.4979
  C  C249  1  0.092500  0.578900  0.294200  1.0  0.1489
  C  C250  1  0.149400  0.646900  0.316900  1.0  0.0482
  C  C251  1  0.194200  0.686400  0.325800  1.0  -0.2039
  C  C252  1  0.187000  0.725800  0.356200  1.0  -0.3014
  C  C253  1  0.134800  0.723600  0.379800  1.0  0.0316
  C  C254  1  0.090200  0.683500  0.371100  1.0  -0.2197
  C  C255  1  0.098900  0.645800  0.338900  1.0  -0.0283
  C  C256  1  0.136000  0.759300  0.415000  1.0  -0.5082
  C  C257  1  0.839900  0.675500  0.010300  1.0  0.1385
  C  C258  1  0.904300  0.605300  0.019800  1.0  0.0345
  C  C259  1  0.936600  0.554400  0.020300  1.0  -0.2836
  C  C260  1  0.987300  0.555400  0.042800  1.0  -0.2107
  C  C261  1  0.007100  0.606600  0.063400  1.0  -0.098
  C  C262  1  0.970200  0.656700  0.064800  1.0  -0.1713
  C  C263  1  0.919900  0.655800  0.042900  1.0  0.0191
  C  C264  1  0.071500  0.607400  0.082300  1.0  -0.4979
  C  C265  1  0.592500  0.921100  0.294200  1.0  0.1484
  C  C266  1  0.649400  0.853100  0.316900  1.0  0.0483
  C  C267  1  0.694200  0.813600  0.325800  1.0  -0.2041
  C  C268  1  0.687000  0.774200  0.356200  1.0  -0.3014
  C  C269  1  0.634800  0.776400  0.379800  1.0  0.0327
  C  C270  1  0.590200  0.816500  0.371100  1.0  -0.2195
  C  C271  1  0.598900  0.854200  0.338900  1.0  -0.0284
  C  C272  1  0.636000  0.740700  0.415000  1.0  -0.5074
  C  C273  1  0.160100  0.824500  0.510300  1.0  0.1382
  C  C274  1  0.095700  0.894700  0.519800  1.0  0.0334
  C  C275  1  0.063400  0.945600  0.520300  1.0  -0.2839
  C  C276  1  0.012700  0.944600  0.542800  1.0  -0.2118
  C  C277  1  0.992900  0.893400  0.563400  1.0  -0.0995
  C  C278  1  0.029800  0.843300  0.564800  1.0  -0.1708
  C  C279  1  0.080100  0.844200  0.542900  1.0  0.0199
  C  C280  1  0.928500  0.892600  0.582300  1.0  -0.4972
  C  C281  1  0.407500  0.578900  0.794200  1.0  0.1477
  C  C282  1  0.350600  0.646900  0.816900  1.0  0.0491
  C  C283  1  0.305800  0.686400  0.825800  1.0  -0.2041
  C  C284  1  0.313000  0.725800  0.856200  1.0  -0.3041
  C  C285  1  0.365200  0.723600  0.879800  1.0  0.0322
  C  C286  1  0.409800  0.683500  0.871100  1.0  -0.2205
  C  C287  1  0.401100  0.645800  0.838900  1.0  -0.0279
  C  C288  1  0.364000  0.759300  0.915000  1.0  -0.5078
  C  C289  1  0.339900  0.324500  0.489700  1.0  0.1392
  C  C290  1  0.404300  0.394700  0.480200  1.0  0.0342
  C  C291  1  0.436600  0.445600  0.479700  1.0  -0.2851
  C  C292  1  0.487300  0.444600  0.457200  1.0  -0.2118
  C  C293  1  0.507100  0.393400  0.436600  1.0  -0.0973
  C  C294  1  0.470200  0.343300  0.435200  1.0  -0.1711
  C  C295  1  0.419900  0.344200  0.457100  1.0  0.0207
  C  C296  1  0.571500  0.392600  0.417700  1.0  -0.4987
  C  C297  1  0.092500  0.078900  0.205800  1.0  0.1504
  C  C298  1  0.149400  0.146900  0.183100  1.0  0.0459
  C  C299  1  0.194200  0.186400  0.174200  1.0  -0.2035
  C  C300  1  0.187000  0.225800  0.143800  1.0  -0.3015
  C  C301  1  0.134800  0.223600  0.120200  1.0  0.0311
  C  C302  1  0.090200  0.183500  0.128900  1.0  -0.2191
  C  C303  1  0.098900  0.145800  0.161100  1.0  -0.0284
  C  C304  1  0.136000  0.259300  0.085000  1.0  -0.5079
  C  C305  1  0.660100  0.175500  0.989700  1.0  0.1391
  C  C306  1  0.595700  0.105300  0.980200  1.0  0.0341
  C  C307  1  0.563400  0.054400  0.979700  1.0  -0.282
  C  C308  1  0.512700  0.055400  0.957200  1.0  -0.2113
  C  C309  1  0.492900  0.106600  0.936600  1.0  -0.0988
  C  C310  1  0.529800  0.156700  0.935200  1.0  -0.1727
  C  C311  1  0.580100  0.155800  0.957100  1.0  0.0202
  C  C312  1  0.428500  0.107400  0.917700  1.0  -0.4967
  C  C313  1  0.907500  0.421100  0.705800  1.0  0.1485
  C  C314  1  0.850600  0.353100  0.683100  1.0  0.0471
  C  C315  1  0.805800  0.313600  0.674200  1.0  -0.2046
  C  C316  1  0.813000  0.274200  0.643800  1.0  -0.3037
  C  C317  1  0.865200  0.276400  0.620200  1.0  0.0323
  C  C318  1  0.909800  0.316500  0.628900  1.0  -0.2206
  C  C319  1  0.901100  0.354200  0.661100  1.0  -0.0281
  C  C320  1  0.864000  0.240700  0.585000  1.0  -0.5072
  S  S321  1  0.276900  0.182700  0.784470  1.0  -0.348
  S  S322  1  0.366740  0.023100  0.798500  1.0  -0.3286
  S  S323  1  0.213700  0.026600  0.734740  1.0  -0.3284
  S  S324  1  0.196500  0.253700  0.875830  1.0  -0.3339
  S  S325  1  0.283720  0.099820  0.889080  1.0  -0.2209
  S  S326  1  0.129520  0.105600  0.825140  1.0  -0.3497
  S  S327  1  0.371000  0.940940  0.900240  1.0  -0.3866
  S  S328  1  0.217820  0.947260  0.840500  1.0  -0.3422
  S  S329  1  0.067940  0.953600  0.777480  1.0  -0.3335
  S  S330  1  0.198000  0.169700  0.983300  1.0  -0.2965
  S  S331  1  0.043490  0.178300  0.917440  1.0  -0.304
  S  S332  1  0.290900  0.022700  0.993040  1.0  -0.2962
  S  S333  1  0.132600  0.024020  0.932920  1.0  -0.3581
  S  S334  1  0.981770  0.033700  0.867810  1.0  -0.3115
  S  S335  1  0.217480  0.869100  0.947610  1.0  -0.2679
  S  S336  1  0.069000  0.872700  0.886190  1.0  -0.3126
  S  S337  1  0.723100  0.317300  0.284470  1.0  -0.3489
  S  S338  1  0.633260  0.476900  0.298500  1.0  -0.3275
  S  S339  1  0.786300  0.473400  0.234740  1.0  -0.3275
  S  S340  1  0.803500  0.246300  0.375830  1.0  -0.3339
  S  S341  1  0.716280  0.400180  0.389080  1.0  -0.2212
  S  S342  1  0.870480  0.394400  0.325140  1.0  -0.3498
  S  S343  1  0.629000  0.559060  0.400240  1.0  -0.3861
  S  S344  1  0.782180  0.552740  0.340500  1.0  -0.3416
  S  S345  1  0.932060  0.546400  0.277480  1.0  -0.3335
  S  S346  1  0.802000  0.330300  0.483300  1.0  -0.2975
  S  S347  1  0.956510  0.321700  0.417440  1.0  -0.3038
  S  S348  1  0.709100  0.477300  0.493040  1.0  -0.2968
  S  S349  1  0.867400  0.475980  0.432920  1.0  -0.3588
  S  S350  1  0.018230  0.466300  0.367810  1.0  -0.3107
  S  S351  1  0.782520  0.630900  0.447610  1.0  -0.2682
  S  S352  1  0.931000  0.627300  0.386190  1.0  -0.3118
  S  S353  1  0.776900  0.817300  0.715530  1.0  -0.3488
  S  S354  1  0.866740  0.976900  0.701500  1.0  -0.3282
  S  S355  1  0.713700  0.973400  0.765260  1.0  -0.3283
  S  S356  1  0.696500  0.746300  0.624170  1.0  -0.3342
  S  S357  1  0.783720  0.900180  0.610920  1.0  -0.221
  S  S358  1  0.629520  0.894400  0.674860  1.0  -0.3492
  S  S359  1  0.871000  0.059060  0.599760  1.0  -0.3873
  S  S360  1  0.717820  0.052740  0.659500  1.0  -0.3421
  S  S361  1  0.567940  0.046400  0.722520  1.0  -0.3329
  S  S362  1  0.698000  0.830300  0.516700  1.0  -0.2965
  S  S363  1  0.543490  0.821700  0.582560  1.0  -0.3036
  S  S364  1  0.790900  0.977300  0.506960  1.0  -0.2954
  S  S365  1  0.632600  0.975980  0.567080  1.0  -0.3591
  S  S366  1  0.481770  0.966300  0.632190  1.0  -0.3111
  S  S367  1  0.717480  0.130900  0.552390  1.0  -0.2675
  S  S368  1  0.569000  0.127300  0.613810  1.0  -0.3133
  S  S369  1  0.223100  0.682700  0.215530  1.0  -0.3479
  S  S370  1  0.133260  0.523100  0.201500  1.0  -0.3284
  S  S371  1  0.286300  0.526600  0.265260  1.0  -0.3281
  S  S372  1  0.303500  0.753700  0.124170  1.0  -0.3347
  S  S373  1  0.216280  0.599820  0.110920  1.0  -0.2213
  S  S374  1  0.370480  0.605600  0.174860  1.0  -0.3485
  S  S375  1  0.129000  0.440940  0.099760  1.0  -0.3861
  S  S376  1  0.282180  0.447260  0.159500  1.0  -0.3427
  S  S377  1  0.432060  0.453600  0.222520  1.0  -0.3329
  S  S378  1  0.302000  0.669700  0.016700  1.0  -0.2984
  S  S379  1  0.456510  0.678300  0.082560  1.0  -0.3037
  S  S380  1  0.209100  0.522700  0.006960  1.0  -0.2955
  S  S381  1  0.367400  0.524020  0.067080  1.0  -0.3598
  S  S382  1  0.518230  0.533700  0.132190  1.0  -0.3107
  S  S383  1  0.282520  0.369100  0.052390  1.0  -0.2684
  S  S384  1  0.431000  0.372700  0.113810  1.0  -0.3129
  S  S385  1  0.723100  0.817300  0.215530  1.0  -0.3488
  S  S386  1  0.633260  0.976900  0.201500  1.0  -0.3276
  S  S387  1  0.786300  0.973400  0.265260  1.0  -0.3278
  S  S388  1  0.803500  0.746300  0.124170  1.0  -0.3342
  S  S389  1  0.716280  0.900180  0.110920  1.0  -0.2213
  S  S390  1  0.870480  0.894400  0.174860  1.0  -0.3491
  S  S391  1  0.629000  0.059060  0.099760  1.0  -0.3861
  S  S392  1  0.782180  0.052740  0.159500  1.0  -0.3419
  S  S393  1  0.932060  0.046400  0.222520  1.0  -0.333
  S  S394  1  0.802000  0.830300  0.016700  1.0  -0.2979
  S  S395  1  0.956510  0.821700  0.082560  1.0  -0.3038
  S  S396  1  0.709100  0.977300  0.006960  1.0  -0.2958
  S  S397  1  0.867400  0.975980  0.067080  1.0  -0.3598
  S  S398  1  0.018230  0.966300  0.132190  1.0  -0.3104
  S  S399  1  0.782520  0.130900  0.052390  1.0  -0.2683
  S  S400  1  0.931000  0.127300  0.113810  1.0  -0.3128
  S  S401  1  0.276900  0.682700  0.715530  1.0  -0.348
  S  S402  1  0.366740  0.523100  0.701500  1.0  -0.3287
  S  S403  1  0.213700  0.526600  0.765260  1.0  -0.3284
  S  S404  1  0.196500  0.753700  0.624170  1.0  -0.3341
  S  S405  1  0.283720  0.599820  0.610920  1.0  -0.221
  S  S406  1  0.129520  0.605600  0.674860  1.0  -0.3488
  S  S407  1  0.371000  0.440940  0.599760  1.0  -0.3872
  S  S408  1  0.217820  0.447260  0.659500  1.0  -0.3429
  S  S409  1  0.067940  0.453600  0.722520  1.0  -0.3327
  S  S410  1  0.198000  0.669700  0.516700  1.0  -0.297
  S  S411  1  0.043490  0.678300  0.582560  1.0  -0.304
  S  S412  1  0.290900  0.522700  0.506960  1.0  -0.2952
  S  S413  1  0.132600  0.524020  0.567080  1.0  -0.3591
  S  S414  1  0.981770  0.533700  0.632190  1.0  -0.3112
  S  S415  1  0.217480  0.369100  0.552390  1.0  -0.2686
  S  S416  1  0.069000  0.372700  0.613810  1.0  -0.3133
  S  S417  1  0.223100  0.182700  0.284470  1.0  -0.3479
  S  S418  1  0.133260  0.023100  0.298500  1.0  -0.3284
  S  S419  1  0.286300  0.026600  0.234740  1.0  -0.3277
  S  S420  1  0.303500  0.253700  0.375830  1.0  -0.3341
  S  S421  1  0.216280  0.099820  0.389080  1.0  -0.2212
  S  S422  1  0.370480  0.105600  0.325140  1.0  -0.3495
  S  S423  1  0.129000  0.940940  0.400240  1.0  -0.3857
  S  S424  1  0.282180  0.947260  0.340500  1.0  -0.3421
  S  S425  1  0.432060  0.953600  0.277480  1.0  -0.3335
  S  S426  1  0.302000  0.169700  0.483300  1.0  -0.2978
  S  S427  1  0.456510  0.178300  0.417440  1.0  -0.3038
  S  S428  1  0.209100  0.022700  0.493040  1.0  -0.2967
  S  S429  1  0.367400  0.024020  0.432920  1.0  -0.3586
  S  S430  1  0.518230  0.033700  0.367810  1.0  -0.3111
  S  S431  1  0.282520  0.869100  0.447610  1.0  -0.2683
  S  S432  1  0.431000  0.872700  0.386190  1.0  -0.3123
  S  S433  1  0.776900  0.317300  0.784470  1.0  -0.349
  S  S434  1  0.866740  0.476900  0.798500  1.0  -0.3282
  S  S435  1  0.713700  0.473400  0.734740  1.0  -0.3283
  S  S436  1  0.696500  0.246300  0.875830  1.0  -0.3339
  S  S437  1  0.783720  0.400180  0.889080  1.0  -0.2209
  S  S438  1  0.629520  0.394400  0.825140  1.0  -0.3499
  S  S439  1  0.871000  0.559060  0.900240  1.0  -0.3871
  S  S440  1  0.717820  0.552740  0.840500  1.0  -0.3418
  S  S441  1  0.567940  0.546400  0.777480  1.0  -0.3336
  S  S442  1  0.698000  0.330300  0.983300  1.0  -0.2965
  S  S443  1  0.543490  0.321700  0.917440  1.0  -0.3036
  S  S444  1  0.790900  0.477300  0.993040  1.0  -0.2965
  S  S445  1  0.632600  0.475980  0.932920  1.0  -0.3583
  S  S446  1  0.481770  0.466300  0.867810  1.0  -0.3113
  S  S447  1  0.717480  0.630900  0.947610  1.0  -0.2673
  S  S448  1  0.569000  0.627300  0.886190  1.0  -0.3122
  N  N449  1  0.146200  0.379700  0.001600  1.0  -0.5398
  N  N450  1  0.122900  0.301800  0.962900  1.0  -0.4996
  N  N451  1  0.438600  0.100700  0.676400  1.0  -0.5361
  N  N452  1  0.353800  0.102700  0.711100  1.0  -0.5118
  N  N453  1  0.853800  0.120300  0.501600  1.0  -0.5406
  N  N454  1  0.877100  0.198200  0.462900  1.0  -0.5016
  N  N455  1  0.561400  0.399300  0.176400  1.0  -0.5358
  N  N456  1  0.646200  0.397300  0.211100  1.0  -0.5117
  N  N457  1  0.646200  0.620300  0.498400  1.0  -0.539
  N  N458  1  0.622900  0.698200  0.537100  1.0  -0.4982
  N  N459  1  0.938600  0.899300  0.823600  1.0  -0.5363
  N  N460  1  0.853800  0.897300  0.788900  1.0  -0.5128
  N  N461  1  0.353800  0.879700  0.998400  1.0  -0.5393
  N  N462  1  0.377100  0.801800  0.037100  1.0  -0.5009
  N  N463  1  0.061400  0.600700  0.323600  1.0  -0.5365
  N  N464  1  0.146200  0.602700  0.288900  1.0  -0.5151
  N  N465  1  0.853800  0.620300  0.998400  1.0  -0.54
  N  N466  1  0.877100  0.698200  0.037100  1.0  -0.4998
  N  N467  1  0.561400  0.899300  0.323600  1.0  -0.5362
  N  N468  1  0.646200  0.897300  0.288900  1.0  -0.5144
  N  N469  1  0.146200  0.879700  0.498400  1.0  -0.5394
  N  N470  1  0.122900  0.801800  0.537100  1.0  -0.4997
  N  N471  1  0.438600  0.600700  0.823600  1.0  -0.5364
  N  N472  1  0.353800  0.602700  0.788900  1.0  -0.5133
  N  N473  1  0.353800  0.379700  0.501600  1.0  -0.5399
  N  N474  1  0.377100  0.301800  0.462900  1.0  -0.5008
  N  N475  1  0.061400  0.100700  0.176400  1.0  -0.5357
  N  N476  1  0.146200  0.102700  0.211100  1.0  -0.5117
  N  N477  1  0.646200  0.120300  0.001600  1.0  -0.54
  N  N478  1  0.622900  0.198200  0.962900  1.0  -0.5004
  N  N479  1  0.938600  0.399300  0.676400  1.0  -0.5362
  N  N480  1  0.853800  0.397300  0.711100  1.0  -0.5118
