# generated using pymatgen
data_In5H5C7(S4N)2
_symmetry_space_group_name_H-M   'P 1'
_cell_length_a   21.27720000
_cell_length_b   21.41800000
_cell_length_c   36.01000000
_cell_angle_alpha   90.00000000
_cell_angle_beta   90.00000000
_cell_angle_gamma   90.00000000
_symmetry_Int_Tables_number   1
_chemical_formula_structural   In5H5C7(S4N)2
_chemical_formula_sum   'In80 H80 C112 S128 N32'
_cell_volume   16410.29965630
_cell_formula_units_Z   16
loop_
 _symmetry_equiv_pos_site_id
 _symmetry_equiv_pos_as_xyz
  1  'x, y, z'
loop_
 _atom_site_type_symbol
 _atom_site_label
 _atom_site_symmetry_multiplicity
 _atom_site_fract_x
 _atom_site_fract_y
 _atom_site_fract_z
 _atom_site_occupancy
 _atom_site_charge
  In  In1  1  0.072720  0.837380  0.050480  1.0  0.9749
  In  In2  1  0.087480  0.689690  0.105460  1.0  0.9244
  In  In3  1  0.923500  0.744810  0.052730  1.0  0.8433
  In  In4  1  0.989590  0.843760  0.141010  1.0  0.9846
  In  In5  1  0.079360  0.548040  0.162710  1.0  0.8996
  In  In6  1  0.929120  0.583530  0.113420  1.0  0.9273
  In  In7  1  0.990570  0.683470  0.203000  1.0  0.9094
  In  In8  1  0.782900  0.642290  0.068450  1.0  0.8994
  In  In9  1  0.828390  0.736610  0.150380  1.0  0.9169
  In  In10  1  0.897190  0.824930  0.229400  1.0  0.8704
  In  In11  1  0.427280  0.162620  0.550480  1.0  0.9737
  In  In12  1  0.412520  0.310310  0.605460  1.0  0.9255
  In  In13  1  0.576500  0.255190  0.552730  1.0  0.8435
  In  In14  1  0.510410  0.156240  0.641010  1.0  0.9849
  In  In15  1  0.420640  0.451960  0.662710  1.0  0.8997
  In  In16  1  0.570880  0.416470  0.613420  1.0  0.927
  In  In17  1  0.509430  0.316530  0.703000  1.0  0.9091
  In  In18  1  0.717100  0.357710  0.568450  1.0  0.9012
  In  In19  1  0.671610  0.263390  0.650380  1.0  0.9152
  In  In20  1  0.602810  0.175070  0.729400  1.0  0.8695
  In  In21  1  0.927280  0.337380  0.449520  1.0  0.9728
  In  In22  1  0.912520  0.189690  0.394540  1.0  0.9254
  In  In23  1  0.076500  0.244810  0.447270  1.0  0.8445
  In  In24  1  0.010410  0.343760  0.358990  1.0  0.985
  In  In25  1  0.920640  0.048040  0.337290  1.0  0.8997
  In  In26  1  0.070880  0.083530  0.386580  1.0  0.9272
  In  In27  1  0.009430  0.183470  0.297000  1.0  0.909
  In  In28  1  0.217100  0.142290  0.431550  1.0  0.9009
  In  In29  1  0.171610  0.236610  0.349620  1.0  0.9155
  In  In30  1  0.102810  0.324930  0.270600  1.0  0.8708
  In  In31  1  0.572720  0.662620  0.949520  1.0  0.973
  In  In32  1  0.587480  0.810310  0.894540  1.0  0.924
  In  In33  1  0.423500  0.755190  0.947270  1.0  0.8436
  In  In34  1  0.489590  0.656240  0.858990  1.0  0.9847
  In  In35  1  0.579360  0.951960  0.837290  1.0  0.9013
  In  In36  1  0.429120  0.916470  0.886580  1.0  0.9266
  In  In37  1  0.490570  0.816530  0.797000  1.0  0.9088
  In  In38  1  0.282900  0.857710  0.931550  1.0  0.8993
  In  In39  1  0.328390  0.763390  0.849620  1.0  0.9172
  In  In40  1  0.397190  0.675070  0.770600  1.0  0.8707
  In  In41  1  0.904220  0.439690  0.823180  1.0  0.8951
  In  In42  1  0.894030  0.306340  0.888920  1.0  0.909
  In  In43  1  0.048470  0.420490  0.883540  1.0  0.9001
  In  In44  1  0.005850  0.305760  0.795350  1.0  0.9327
  In  In45  1  0.904350  0.166890  0.949850  1.0  0.9592
  In  In46  1  0.047250  0.268170  0.952980  1.0  0.8948
  In  In47  1  0.005020  0.154340  0.865650  1.0  0.9218
  In  In48  1  0.183080  0.376570  0.941480  1.0  0.8952
  In  In49  1  0.158370  0.270030  0.859750  1.0  0.9094
  In  In50  1  0.110510  0.165930  0.782720  1.0  0.8796
  In  In51  1  0.595780  0.560310  0.323180  1.0  0.8941
  In  In52  1  0.605970  0.693660  0.388920  1.0  0.9098
  In  In53  1  0.451530  0.579510  0.383540  1.0  0.9006
  In  In54  1  0.494150  0.694240  0.295350  1.0  0.9324
  In  In55  1  0.595650  0.833110  0.449850  1.0  0.9607
  In  In56  1  0.452750  0.731830  0.452980  1.0  0.8947
  In  In57  1  0.494980  0.845660  0.365650  1.0  0.922
  In  In58  1  0.316920  0.623430  0.441480  1.0  0.8941
  In  In59  1  0.341630  0.729970  0.359750  1.0  0.9107
  In  In60  1  0.389490  0.834070  0.282720  1.0  0.88
  In  In61  1  0.095780  0.939690  0.676820  1.0  0.8944
  In  In62  1  0.105970  0.806340  0.611080  1.0  0.9091
  In  In63  1  0.951530  0.920490  0.616460  1.0  0.9004
  In  In64  1  0.994150  0.805760  0.704650  1.0  0.9326
  In  In65  1  0.095650  0.666890  0.550150  1.0  0.9604
  In  In66  1  0.952750  0.768170  0.547020  1.0  0.8941
  In  In67  1  0.994980  0.654340  0.634350  1.0  0.9225
  In  In68  1  0.816920  0.876570  0.558520  1.0  0.8938
  In  In69  1  0.841630  0.770030  0.640250  1.0  0.9105
  In  In70  1  0.889490  0.665930  0.717280  1.0  0.8794
  In  In71  1  0.404220  0.060310  0.176820  1.0  0.8937
  In  In72  1  0.394030  0.193660  0.111080  1.0  0.9091
  In  In73  1  0.548470  0.079510  0.116460  1.0  0.9011
  In  In74  1  0.505850  0.194240  0.204650  1.0  0.9331
  In  In75  1  0.404350  0.333110  0.050150  1.0  0.9603
  In  In76  1  0.547250  0.231830  0.047020  1.0  0.8939
  In  In77  1  0.505020  0.345660  0.134350  1.0  0.9227
  In  In78  1  0.683080  0.123430  0.058520  1.0  0.8967
  In  In79  1  0.658370  0.229970  0.140250  1.0  0.9091
  In  In80  1  0.610510  0.334070  0.217280  1.0  0.8801
  H  H81  1  0.194700  0.818800  0.999500  1.0  -0.0195
  H  H82  1  0.046800  0.987200  0.012900  1.0  -0.0051
  H  H83  1  0.055900  0.076200  0.976300  1.0  -0.0197
  H  H84  1  0.122400  0.074800  0.923600  1.0  -0.0239
  H  H85  1  0.195200  0.992800  0.915300  1.0  -0.0083
  H  H86  1  0.072800  0.456600  0.231900  1.0  -0.027
  H  H87  1  0.217200  0.285800  0.201200  1.0  -0.0083
  H  H88  1  0.274700  0.295500  0.146400  1.0  -0.0321
  H  H89  1  0.281100  0.387200  0.116400  1.0  -0.0307
  H  H90  1  0.205700  0.465100  0.124000  1.0  -0.0081
  H  H91  1  0.305300  0.181200  0.499500  1.0  -0.0199
  H  H92  1  0.453200  0.012800  0.512900  1.0  -0.0049
  H  H93  1  0.444100  0.923800  0.476300  1.0  -0.02
  H  H94  1  0.377600  0.925200  0.423600  1.0  -0.0238
  H  H95  1  0.304800  0.007200  0.415300  1.0  -0.009
  H  H96  1  0.427200  0.543400  0.731900  1.0  -0.0268
  H  H97  1  0.282800  0.714200  0.701200  1.0  -0.0077
  H  H98  1  0.225300  0.704500  0.646400  1.0  -0.0314
  H  H99  1  0.218900  0.612800  0.616400  1.0  -0.0309
  H  H100  1  0.294300  0.534900  0.624000  1.0  -0.0093
  H  H101  1  0.805300  0.318800  0.500500  1.0  -0.0181
  H  H102  1  0.953200  0.487200  0.487100  1.0  -0.005
  H  H103  1  0.944100  0.576200  0.523700  1.0  -0.0193
  H  H104  1  0.877600  0.574800  0.576400  1.0  -0.0237
  H  H105  1  0.804800  0.492800  0.584700  1.0  -0.0081
  H  H106  1  0.927200  0.956600  0.268100  1.0  -0.0262
  H  H107  1  0.782800  0.785800  0.298800  1.0  -0.0087
  H  H108  1  0.725300  0.795500  0.353600  1.0  -0.0325
  H  H109  1  0.718900  0.887200  0.383600  1.0  -0.0304
  H  H110  1  0.794300  0.965100  0.376000  1.0  -0.0079
  H  H111  1  0.694700  0.681200  0.000500  1.0  -0.0192
  H  H112  1  0.546800  0.512800  0.987100  1.0  -0.0054
  H  H113  1  0.555900  0.423800  0.023700  1.0  -0.0201
  H  H114  1  0.622400  0.425200  0.076400  1.0  -0.0228
  H  H115  1  0.695200  0.507200  0.084700  1.0  -0.0078
  H  H116  1  0.572800  0.043400  0.768100  1.0  -0.0263
  H  H117  1  0.717200  0.214200  0.798800  1.0  -0.0079
  H  H118  1  0.774700  0.204500  0.853600  1.0  -0.0317
  H  H119  1  0.781100  0.112800  0.883600  1.0  -0.03
  H  H120  1  0.705700  0.034900  0.876000  1.0  -0.0081
  H  H121  1  0.922100  0.543400  0.762300  1.0  -0.0304
  H  H122  1  0.753300  0.500700  0.845400  1.0  -0.0104
  H  H123  1  0.662800  0.568000  0.843000  1.0  -0.025
  H  H124  1  0.667300  0.664500  0.810100  1.0  -0.0068
  H  H125  1  0.741700  0.670200  0.762800  1.0  -0.0288
  H  H126  1  0.768900  0.168000  0.990600  1.0  -0.0225
  H  H127  1  0.941300  0.027900  0.987900  1.0  -0.0156
  H  H128  1  0.947100  0.946700  0.032800  1.0  -0.0135
  H  H129  1  0.863100  0.928600  0.071900  1.0  -0.0238
  H  H130  1  0.773400  0.990000  0.070000  1.0  -0.0095
  H  H131  1  0.577900  0.456600  0.262300  1.0  -0.0316
  H  H132  1  0.746700  0.499300  0.345400  1.0  -0.0103
  H  H133  1  0.837200  0.432000  0.343000  1.0  -0.025
  H  H134  1  0.832700  0.335500  0.310100  1.0  -0.0063
  H  H135  1  0.758300  0.329800  0.262800  1.0  -0.0298
  H  H136  1  0.731100  0.832000  0.490600  1.0  -0.0214
  H  H137  1  0.558700  0.972100  0.487900  1.0  -0.0163
  H  H138  1  0.552900  0.053300  0.532800  1.0  -0.0139
  H  H139  1  0.636900  0.071400  0.571900  1.0  -0.0246
  H  H140  1  0.726600  0.010000  0.570000  1.0  -0.0099
  H  H141  1  0.077900  0.043400  0.737700  1.0  -0.0311
  H  H142  1  0.246700  0.000700  0.654600  1.0  -0.0115
  H  H143  1  0.337200  0.068000  0.657000  1.0  -0.0256
  H  H144  1  0.332700  0.164500  0.689900  1.0  -0.007
  H  H145  1  0.258300  0.170200  0.737200  1.0  -0.0296
  H  H146  1  0.231100  0.668000  0.509400  1.0  -0.0223
  H  H147  1  0.058700  0.527900  0.512100  1.0  -0.0159
  H  H148  1  0.052900  0.446700  0.467200  1.0  -0.0137
  H  H149  1  0.136900  0.428600  0.428100  1.0  -0.0243
  H  H150  1  0.226600  0.490000  0.430000  1.0  -0.0099
  H  H151  1  0.422100  0.956600  0.237700  1.0  -0.0302
  H  H152  1  0.253300  0.999300  0.154600  1.0  -0.0112
  H  H153  1  0.162800  0.932000  0.157000  1.0  -0.0259
  H  H154  1  0.167300  0.835500  0.189900  1.0  -0.0065
  H  H155  1  0.241700  0.829800  0.237200  1.0  -0.029
  H  H156  1  0.268900  0.332000  0.009400  1.0  -0.0213
  H  H157  1  0.441300  0.472100  0.012100  1.0  -0.0153
  H  H158  1  0.447100  0.553300  0.967200  1.0  -0.014
  H  H159  1  0.363100  0.571400  0.928100  1.0  -0.0245
  H  H160  1  0.273400  0.510000  0.930000  1.0  -0.0091
  C  C161  1  0.178900  0.858400  0.992200  1.0  0.1285
  C  C162  1  0.122400  0.943100  0.989600  1.0  0.0048
  C  C163  1  0.078400  0.990200  0.994400  1.0  -0.2554
  C  C164  1  0.081800  0.040900  0.971600  1.0  -0.2261
  C  C165  1  0.123900  0.041400  0.940900  1.0  -0.2361
  C  C166  1  0.167300  0.993100  0.935900  1.0  -0.2085
  C  C167  1  0.168300  0.945000  0.962400  1.0  -0.0164
  C  C168  1  0.104200  0.438400  0.216600  1.0  0.0953
  C  C169  1  0.170700  0.373600  0.194400  1.0  -0.0967
  C  C170  1  0.214100  0.321800  0.185900  1.0  -0.2581
  C  C171  1  0.249400  0.329300  0.154600  1.0  -0.2197
  C  C172  1  0.250000  0.382000  0.134900  1.0  -0.2052
  C  C173  1  0.207800  0.429800  0.140000  1.0  -0.2304
  C  C174  1  0.169600  0.422400  0.169400  1.0  -0.0078
  C  C175  1  0.321100  0.141600  0.492200  1.0  0.1276
  C  C176  1  0.377600  0.056900  0.489600  1.0  0.0048
  C  C177  1  0.421600  0.009800  0.494400  1.0  -0.2548
  C  C178  1  0.418200  0.959100  0.471600  1.0  -0.2269
  C  C179  1  0.376100  0.958600  0.440900  1.0  -0.236
  C  C180  1  0.332700  0.006900  0.435900  1.0  -0.2086
  C  C181  1  0.331700  0.055000  0.462400  1.0  -0.0155
  C  C182  1  0.395800  0.561600  0.716600  1.0  0.0973
  C  C183  1  0.329300  0.626400  0.694400  1.0  -0.0956
  C  C184  1  0.285900  0.678200  0.685900  1.0  -0.2581
  C  C185  1  0.250600  0.670700  0.654600  1.0  -0.2177
  C  C186  1  0.250000  0.618000  0.634900  1.0  -0.2059
  C  C187  1  0.292200  0.570200  0.640000  1.0  -0.2302
  C  C188  1  0.330400  0.577600  0.669400  1.0  -0.0075
  C  C189  1  0.821100  0.358400  0.507800  1.0  0.1281
  C  C190  1  0.877600  0.443100  0.510400  1.0  0.0066
  C  C191  1  0.921600  0.490200  0.505600  1.0  -0.2544
  C  C192  1  0.918200  0.540900  0.528400  1.0  -0.2263
  C  C193  1  0.876100  0.541400  0.559100  1.0  -0.2369
  C  C194  1  0.832700  0.493100  0.564100  1.0  -0.211
  C  C195  1  0.831700  0.445000  0.537600  1.0  -0.0158
  C  C196  1  0.895800  0.938400  0.283400  1.0  0.0962
  C  C197  1  0.829300  0.873600  0.305600  1.0  -0.0944
  C  C198  1  0.785900  0.821800  0.314100  1.0  -0.2565
  C  C199  1  0.750600  0.829300  0.345400  1.0  -0.2194
  C  C200  1  0.750000  0.882000  0.365100  1.0  -0.2053
  C  C201  1  0.792200  0.929800  0.360000  1.0  -0.2296
  C  C202  1  0.830400  0.922400  0.330600  1.0  -0.0074
  C  C203  1  0.678900  0.641600  0.007800  1.0  0.1287
  C  C204  1  0.622400  0.556900  0.010400  1.0  0.0063
  C  C205  1  0.578400  0.509800  0.005600  1.0  -0.2552
  C  C206  1  0.581800  0.459100  0.028400  1.0  -0.2262
  C  C207  1  0.623900  0.458600  0.059100  1.0  -0.2353
  C  C208  1  0.667300  0.506900  0.064100  1.0  -0.2094
  C  C209  1  0.668300  0.555000  0.037600  1.0  -0.0164
  C  C210  1  0.604200  0.061600  0.783400  1.0  0.0957
  C  C211  1  0.670700  0.126400  0.805600  1.0  -0.094
  C  C212  1  0.714100  0.178200  0.814100  1.0  -0.2572
  C  C213  1  0.749400  0.170700  0.845400  1.0  -0.2176
  C  C214  1  0.750000  0.118000  0.865100  1.0  -0.204
  C  C215  1  0.707800  0.070200  0.860000  1.0  -0.2308
  C  C216  1  0.669600  0.077600  0.830600  1.0  -0.0076
  C  C217  1  0.881800  0.553600  0.771800  1.0  0.0596
  C  C218  1  0.798600  0.548700  0.803000  1.0  0.0192
  C  C219  1  0.751000  0.535200  0.828900  1.0  -0.252
  C  C220  1  0.698600  0.577500  0.828400  1.0  -0.192
  C  C221  1  0.698300  0.633000  0.806800  1.0  -0.2556
  C  C222  1  0.745300  0.638500  0.781100  1.0  -0.2067
  C  C223  1  0.794900  0.602400  0.780200  1.0  -0.019
  C  C224  1  0.788000  0.130100  0.998400  1.0  0.1399
  C  C225  1  0.858600  0.059700  0.007200  1.0  -0.0142
  C  C226  1  0.908800  0.021800  0.005600  1.0  -0.2151
  C  C227  1  0.911000  0.972700  0.031500  1.0  -0.2337
  C  C228  1  0.861000  0.962200  0.054700  1.0  -0.2567
  C  C229  1  0.807900  0.998700  0.054000  1.0  -0.2615
  C  C230  1  0.806200  0.047800  0.029800  1.0  -0.0033
  C  C231  1  0.618200  0.446400  0.271800  1.0  0.0603
  C  C232  1  0.701400  0.451300  0.303000  1.0  0.0191
  C  C233  1  0.749000  0.464800  0.328900  1.0  -0.252
  C  C234  1  0.801400  0.422500  0.328400  1.0  -0.1909
  C  C235  1  0.801700  0.367000  0.306800  1.0  -0.255
  C  C236  1  0.754700  0.361500  0.281100  1.0  -0.2074
  C  C237  1  0.705100  0.397600  0.280200  1.0  -0.0185
  C  C238  1  0.712000  0.869900  0.498400  1.0  0.141
  C  C239  1  0.641400  0.940300  0.507200  1.0  -0.0148
  C  C240  1  0.591200  0.978200  0.505600  1.0  -0.2153
  C  C241  1  0.589000  0.027300  0.531500  1.0  -0.2348
  C  C242  1  0.639000  0.037800  0.554700  1.0  -0.2577
  C  C243  1  0.692100  0.001300  0.554000  1.0  -0.2601
  C  C244  1  0.693800  0.952200  0.529800  1.0  -0.0042
  C  C245  1  0.118200  0.053600  0.728200  1.0  0.0605
  C  C246  1  0.201400  0.048700  0.697000  1.0  0.0191
  C  C247  1  0.249000  0.035200  0.671100  1.0  -0.2519
  C  C248  1  0.301400  0.077500  0.671600  1.0  -0.1913
  C  C249  1  0.301700  0.133000  0.693200  1.0  -0.2546
  C  C250  1  0.254700  0.138500  0.718900  1.0  -0.2072
  C  C251  1  0.205100  0.102400  0.719800  1.0  -0.0192
  C  C252  1  0.212000  0.630100  0.501600  1.0  0.1398
  C  C253  1  0.141400  0.559700  0.492800  1.0  -0.0167
  C  C254  1  0.091200  0.521800  0.494400  1.0  -0.2148
  C  C255  1  0.089000  0.472700  0.468500  1.0  -0.2352
  C  C256  1  0.139000  0.462200  0.445300  1.0  -0.2567
  C  C257  1  0.192100  0.498700  0.446000  1.0  -0.2614
  C  C258  1  0.193800  0.547800  0.470200  1.0  -0.0042
  C  C259  1  0.381800  0.946400  0.228200  1.0  0.0609
  C  C260  1  0.298600  0.951300  0.197000  1.0  0.0192
  C  C261  1  0.251000  0.964800  0.171100  1.0  -0.252
  C  C262  1  0.198600  0.922500  0.171600  1.0  -0.1924
  C  C263  1  0.198300  0.867000  0.193200  1.0  -0.2559
  C  C264  1  0.245300  0.861500  0.218900  1.0  -0.2072
  C  C265  1  0.294900  0.897600  0.219800  1.0  -0.0188
  C  C266  1  0.288000  0.369900  0.001600  1.0  0.1409
  C  C267  1  0.358600  0.440300  0.992800  1.0  -0.0152
  C  C268  1  0.408800  0.478200  0.994400  1.0  -0.2148
  C  C269  1  0.411000  0.527300  0.968500  1.0  -0.2331
  C  C270  1  0.361000  0.537800  0.945300  1.0  -0.2574
  C  C271  1  0.307900  0.501300  0.946000  1.0  -0.2605
  C  C272  1  0.306200  0.452200  0.970200  1.0  -0.0034
  S  S273  1  0.146600  0.753700  0.063270  1.0  -0.2917
  S  S274  1  0.985800  0.806600  0.010760  1.0  -0.357
  S  S275  1  0.049900  0.909700  0.100090  1.0  -0.3741
  S  S276  1  0.152700  0.602800  0.123200  1.0  -0.3175
  S  S277  1  0.990600  0.653700  0.071980  1.0  -0.3647
  S  S278  1  0.055100  0.751900  0.161300  1.0  -0.126
  S  S279  1  0.831900  0.706700  0.020440  1.0  -0.3177
  S  S280  1  0.891900  0.805700  0.108530  1.0  -0.2059
  S  S281  1  0.956900  0.901900  0.194860  1.0  -0.3265
  S  S282  1  0.994300  0.496400  0.130420  1.0  -0.3587
  S  S283  1  0.053300  0.595900  0.222150  1.0  -0.3307
  S  S284  1  0.838400  0.544900  0.080490  1.0  -0.3436
  S  S285  1  0.894900  0.645700  0.168510  1.0  -0.3431
  S  S286  1  0.956400  0.740100  0.257010  1.0  -0.3363
  S  S287  1  0.736100  0.694900  0.120330  1.0  -0.3495
  S  S288  1  0.795900  0.794300  0.204480  1.0  -0.3494
  S  S289  1  0.353400  0.246300  0.563270  1.0  -0.2924
  S  S290  1  0.514200  0.193400  0.510760  1.0  -0.3567
  S  S291  1  0.450100  0.090300  0.600090  1.0  -0.3744
  S  S292  1  0.347300  0.397200  0.623200  1.0  -0.317
  S  S293  1  0.509400  0.346300  0.571980  1.0  -0.3647
  S  S294  1  0.444900  0.248100  0.661300  1.0  -0.1249
  S  S295  1  0.668100  0.293300  0.520440  1.0  -0.318
  S  S296  1  0.608100  0.194300  0.608530  1.0  -0.2069
  S  S297  1  0.543100  0.098100  0.694860  1.0  -0.327
  S  S298  1  0.505700  0.503600  0.630420  1.0  -0.3581
  S  S299  1  0.446700  0.404100  0.722150  1.0  -0.3311
  S  S300  1  0.661600  0.455100  0.580490  1.0  -0.343
  S  S301  1  0.605100  0.354300  0.668510  1.0  -0.3429
  S  S302  1  0.543600  0.259900  0.757010  1.0  -0.3369
  S  S303  1  0.763900  0.305100  0.620330  1.0  -0.3515
  S  S304  1  0.704100  0.205700  0.704480  1.0  -0.3499
  S  S305  1  0.853400  0.253700  0.436730  1.0  -0.2929
  S  S306  1  0.014200  0.306600  0.489240  1.0  -0.3564
  S  S307  1  0.950100  0.409700  0.399910  1.0  -0.3743
  S  S308  1  0.847300  0.102800  0.376800  1.0  -0.317
  S  S309  1  0.009400  0.153700  0.428020  1.0  -0.3637
  S  S310  1  0.944900  0.251900  0.338700  1.0  -0.1251
  S  S311  1  0.168100  0.206700  0.479560  1.0  -0.3173
  S  S312  1  0.108100  0.305700  0.391470  1.0  -0.207
  S  S313  1  0.043100  0.401900  0.305140  1.0  -0.3268
  S  S314  1  0.005700  0.996400  0.369580  1.0  -0.3579
  S  S315  1  0.946700  0.095900  0.277850  1.0  -0.3306
  S  S316  1  0.161600  0.044900  0.419510  1.0  -0.3437
  S  S317  1  0.105100  0.145700  0.331490  1.0  -0.344
  S  S318  1  0.043600  0.240100  0.242990  1.0  -0.3374
  S  S319  1  0.263900  0.194900  0.379670  1.0  -0.3506
  S  S320  1  0.204100  0.294300  0.295520  1.0  -0.35
  S  S321  1  0.646600  0.746300  0.936730  1.0  -0.2917
  S  S322  1  0.485800  0.693400  0.989240  1.0  -0.3564
  S  S323  1  0.549900  0.590300  0.899910  1.0  -0.375
  S  S324  1  0.652700  0.897200  0.876800  1.0  -0.3172
  S  S325  1  0.490600  0.846300  0.928020  1.0  -0.364
  S  S326  1  0.555100  0.748100  0.838700  1.0  -0.1264
  S  S327  1  0.331900  0.793300  0.979560  1.0  -0.317
  S  S328  1  0.391900  0.694300  0.891470  1.0  -0.2066
  S  S329  1  0.456900  0.598100  0.805140  1.0  -0.3264
  S  S330  1  0.494300  0.003600  0.869580  1.0  -0.3576
  S  S331  1  0.553300  0.904100  0.777850  1.0  -0.331
  S  S332  1  0.338400  0.955100  0.919510  1.0  -0.3428
  S  S333  1  0.394900  0.854300  0.831490  1.0  -0.3432
  S  S334  1  0.456400  0.759900  0.742990  1.0  -0.3368
  S  S335  1  0.236100  0.805100  0.879670  1.0  -0.3498
  S  S336  1  0.295900  0.705700  0.795520  1.0  -0.3491
  S  S337  1  0.827600  0.385600  0.860550  1.0  -0.348
  S  S338  1  0.982200  0.500200  0.856630  1.0  -0.3451
  S  S339  1  0.941500  0.386300  0.767730  1.0  -0.3173
  S  S340  1  0.830400  0.246700  0.931100  1.0  -0.333
  S  S341  1  0.982200  0.354300  0.925460  1.0  -0.373
  S  S342  1  0.939900  0.240900  0.838060  1.0  -0.278
  S  S343  1  0.132600  0.469100  0.917550  1.0  -0.3217
  S  S344  1  0.092400  0.354900  0.831810  1.0  -0.3698
  S  S345  1  0.047900  0.239700  0.746820  1.0  -0.3373
  S  S346  1  0.985800  0.201000  0.992400  1.0  -0.3537
  S  S347  1  0.937200  0.091900  0.904230  1.0  -0.3336
  S  S348  1  0.128900  0.317100  0.988820  1.0  -0.3157
  S  S349  1  0.092700  0.203600  0.901950  1.0  -0.1325
  S  S350  1  0.051600  0.090400  0.818300  1.0  -0.3559
  S  S351  1  0.240800  0.316900  0.895910  1.0  -0.3719
  S  S352  1  0.203900  0.208300  0.810880  1.0  -0.3358
  S  S353  1  0.672400  0.614400  0.360550  1.0  -0.3482
  S  S354  1  0.517800  0.499800  0.356630  1.0  -0.3474
  S  S355  1  0.558500  0.613700  0.267730  1.0  -0.3163
  S  S356  1  0.669600  0.753300  0.431100  1.0  -0.3339
  S  S357  1  0.517800  0.645700  0.425460  1.0  -0.3734
  S  S358  1  0.560100  0.759100  0.338060  1.0  -0.2771
  S  S359  1  0.367400  0.530900  0.417550  1.0  -0.3211
  S  S360  1  0.407600  0.645100  0.331810  1.0  -0.3701
  S  S361  1  0.452100  0.760300  0.246820  1.0  -0.3382
  S  S362  1  0.514200  0.799000  0.492400  1.0  -0.3533
  S  S363  1  0.562800  0.908100  0.404230  1.0  -0.3334
  S  S364  1  0.371100  0.682900  0.488820  1.0  -0.3153
  S  S365  1  0.407300  0.796400  0.401950  1.0  -0.1323
  S  S366  1  0.448400  0.909600  0.318300  1.0  -0.3556
  S  S367  1  0.259200  0.683100  0.395910  1.0  -0.3719
  S  S368  1  0.296100  0.791700  0.310880  1.0  -0.3362
  S  S369  1  0.172400  0.885600  0.639450  1.0  -0.348
  S  S370  1  0.017800  0.000200  0.643370  1.0  -0.3467
  S  S371  1  0.058500  0.886300  0.732270  1.0  -0.3159
  S  S372  1  0.169600  0.746700  0.568900  1.0  -0.3329
  S  S373  1  0.017800  0.854300  0.574540  1.0  -0.3738
  S  S374  1  0.060100  0.740900  0.661940  1.0  -0.2772
  S  S375  1  0.867400  0.969100  0.582450  1.0  -0.3212
  S  S376  1  0.907600  0.854900  0.668190  1.0  -0.369
  S  S377  1  0.952100  0.739700  0.753180  1.0  -0.3377
  S  S378  1  0.014200  0.701000  0.507600  1.0  -0.3525
  S  S379  1  0.062800  0.591900  0.595770  1.0  -0.3331
  S  S380  1  0.871100  0.817100  0.511180  1.0  -0.316
  S  S381  1  0.907300  0.703600  0.598050  1.0  -0.1323
  S  S382  1  0.948400  0.590400  0.681700  1.0  -0.356
  S  S383  1  0.759200  0.816900  0.604090  1.0  -0.3727
  S  S384  1  0.796100  0.708300  0.689120  1.0  -0.3358
  S  S385  1  0.327600  0.114400  0.139450  1.0  -0.3483
  S  S386  1  0.482200  0.999800  0.143370  1.0  -0.3469
  S  S387  1  0.441500  0.113700  0.232270  1.0  -0.3165
  S  S388  1  0.330400  0.253300  0.068900  1.0  -0.3337
  S  S389  1  0.482200  0.145700  0.074540  1.0  -0.373
  S  S390  1  0.439900  0.259100  0.161940  1.0  -0.2778
  S  S391  1  0.632600  0.030900  0.082450  1.0  -0.3209
  S  S392  1  0.592400  0.145100  0.168190  1.0  -0.3694
  S  S393  1  0.547900  0.260300  0.253180  1.0  -0.3376
  S  S394  1  0.485800  0.299000  0.007600  1.0  -0.3534
  S  S395  1  0.437200  0.408100  0.095770  1.0  -0.3337
  S  S396  1  0.628900  0.182900  0.011180  1.0  -0.3163
  S  S397  1  0.592700  0.296400  0.098050  1.0  -0.1324
  S  S398  1  0.551600  0.409600  0.181700  1.0  -0.3555
  S  S399  1  0.740800  0.183100  0.104090  1.0  -0.3724
  S  S400  1  0.703900  0.291700  0.189120  1.0  -0.3358
  N  N401  1  0.130500  0.887200  0.010600  1.0  -0.5474
  N  N402  1  0.202200  0.890100  0.963300  1.0  -0.5142
  N  N403  1  0.127000  0.466300  0.184900  1.0  -0.4417
  N  N404  1  0.130500  0.383600  0.223600  1.0  -0.522
  N  N405  1  0.369500  0.112800  0.510600  1.0  -0.547
  N  N406  1  0.297800  0.109900  0.463300  1.0  -0.511
  N  N407  1  0.373000  0.533700  0.684900  1.0  -0.4394
  N  N408  1  0.369500  0.616400  0.723600  1.0  -0.5216
  N  N409  1  0.869500  0.387200  0.489400  1.0  -0.5498
  N  N410  1  0.797800  0.390100  0.536700  1.0  -0.511
  N  N411  1  0.873000  0.966300  0.315100  1.0  -0.4417
  N  N412  1  0.869500  0.883600  0.276400  1.0  -0.5271
  N  N413  1  0.630500  0.612800  0.989400  1.0  -0.5496
  N  N414  1  0.702200  0.609900  0.036700  1.0  -0.5139
  N  N415  1  0.627000  0.033700  0.815100  1.0  -0.4414
  N  N416  1  0.630500  0.116400  0.776400  1.0  -0.5268
  N  N417  1  0.854000  0.517600  0.796800  1.0  -0.5488
  N  N418  1  0.852600  0.603000  0.760700  1.0  -0.4953
  N  N419  1  0.843600  0.110900  0.985300  1.0  -0.5706
  N  N420  1  0.761600  0.092500  0.023000  1.0  -0.5064
  N  N421  1  0.646000  0.482400  0.296800  1.0  -0.5493
  N  N422  1  0.647400  0.397000  0.260700  1.0  -0.4944
  N  N423  1  0.656400  0.889100  0.485300  1.0  -0.5691
  N  N424  1  0.738400  0.907500  0.523000  1.0  -0.5046
  N  N425  1  0.146000  0.017600  0.703200  1.0  -0.5485
  N  N426  1  0.147400  0.103000  0.739300  1.0  -0.492
  N  N427  1  0.156400  0.610900  0.514700  1.0  -0.5691
  N  N428  1  0.238400  0.592500  0.477000  1.0  -0.5051
  N  N429  1  0.354000  0.982400  0.203200  1.0  -0.5491
  N  N430  1  0.352600  0.897000  0.239300  1.0  -0.4929
  N  N431  1  0.343600  0.389100  0.014700  1.0  -0.5688
  N  N432  1  0.261600  0.407500  0.977000  1.0  -0.5062
