# generated using pymatgen
data_In5H7C5(S4N)2
_symmetry_space_group_name_H-M   'P 1'
_cell_length_a   24.84380000
_cell_length_b   24.84380000
_cell_length_c   25.31610000
_cell_angle_alpha   60.61530000
_cell_angle_beta   60.61530000
_cell_angle_gamma   90.00000000
_symmetry_Int_Tables_number   1
_chemical_formula_structural   In5H7C5(S4N)2
_chemical_formula_sum   'In40 H56 C40 S64 N16'
_cell_volume   11251.24108107
_cell_formula_units_Z   8
loop_
 _symmetry_equiv_pos_site_id
 _symmetry_equiv_pos_as_xyz
  1  'x, y, z'
loop_
 _atom_site_type_symbol
 _atom_site_label
 _atom_site_symmetry_multiplicity
 _atom_site_fract_x
 _atom_site_fract_y
 _atom_site_fract_z
 _atom_site_occupancy
 _atom_site_charge
  In  In1  1  0.568750  0.181970  0.928380  1.0  0.9287
  In  In2  1  0.525220  0.865430  0.073520  1.0  0.8646
  In  In3  1  0.537610  0.857360  0.218420  1.0  0.9149
  In  In4  1  0.561380  0.025220  0.073880  1.0  0.9153
  In  In5  1  0.502870  0.889650  0.928380  1.0  0.9253
  In  In6  1  0.401260  0.061050  0.073520  1.0  0.8665
  In  In7  1  0.243970  0.924220  0.218420  1.0  0.9198
  In  In8  1  0.364740  0.900900  0.073880  1.0  0.9181
  In  In9  1  0.639650  0.752870  0.428380  1.0  0.9252
  In  In10  1  0.811050  0.651260  0.573520  1.0  0.8645
  In  In11  1  0.674220  0.493970  0.718420  1.0  0.9206
  In  In12  1  0.650900  0.614740  0.573880  1.0  0.9189
  In  In13  1  0.931970  0.818750  0.428380  1.0  0.9237
  In  In14  1  0.615430  0.775220  0.573520  1.0  0.8667
  In  In15  1  0.607360  0.787610  0.718420  1.0  0.9153
  In  In16  1  0.775220  0.811380  0.573880  1.0  0.9162
  In  In17  1  0.542630  0.042630  0.914740  1.0  0.9104
  In  In18  1  0.384350  0.884350  0.231300  1.0  0.9149
  In  In19  1  0.792630  0.792630  0.414740  1.0  0.9104
  In  In20  1  0.634350  0.634350  0.731300  1.0  0.9149
  In  In21  1  0.818030  0.497130  0.071620  1.0  0.9237
  In  In22  1  0.134570  0.598740  0.926480  1.0  0.8649
  In  In23  1  0.142640  0.756030  0.781580  1.0  0.9211
  In  In24  1  0.974780  0.635260  0.926120  1.0  0.9173
  In  In25  1  0.110350  0.431250  0.071620  1.0  0.9189
  In  In26  1  0.938950  0.474780  0.926480  1.0  0.8663
  In  In27  1  0.075780  0.462390  0.781580  1.0  0.9213
  In  In28  1  0.099100  0.438620  0.926120  1.0  0.9158
  In  In29  1  0.247130  0.068030  0.571620  1.0  0.9271
  In  In30  1  0.348740  0.384570  0.426480  1.0  0.8653
  In  In31  1  0.506030  0.392640  0.281580  1.0  0.9203
  In  In32  1  0.385260  0.224780  0.426120  1.0  0.9155
  In  In33  1  0.181250  0.360350  0.571620  1.0  0.9185
  In  In34  1  0.224780  0.188950  0.426480  1.0  0.8666
  In  In35  1  0.212390  0.325780  0.281580  1.0  0.9219
  In  In36  1  0.188620  0.349100  0.426120  1.0  0.9168
  In  In37  1  0.957370  0.457370  0.085260  1.0  0.9121
  In  In38  1  0.115650  0.615650  0.768700  1.0  0.9136
  In  In39  1  0.207370  0.207370  0.585260  1.0  0.9121
  In  In40  1  0.365650  0.365650  0.268700  1.0  0.9136
  H  H41  1  0.701100  0.266700  0.845200  1.0  -0.0296
  H  H42  1  0.738600  0.388100  0.803800  1.0  0.0296
  H  H43  1  0.556300  0.344900  0.785800  1.0  -0.0654
  H  H44  1  0.525700  0.281600  0.865800  1.0  -0.0929
  H  H45  1  0.468200  0.329000  0.877600  1.0  -0.0539
  H  H46  1  0.524300  0.397900  0.820200  1.0  -0.0429
  H  H47  1  0.512700  0.348600  0.898400  1.0  -0.0368
  H  H48  1  0.453700  0.888100  0.845200  1.0  -0.0295
  H  H49  1  0.457600  0.808100  0.803800  1.0  0.0304
  H  H50  1  0.657900  0.869300  0.785800  1.0  -0.0705
  H  H51  1  0.608500  0.852600  0.865800  1.0  -0.0872
  H  H52  1  0.654200  0.793400  0.877600  1.0  -0.047
  H  H53  1  0.655500  0.781900  0.820200  1.0  -0.0413
  H  H54  1  0.588900  0.753000  0.898400  1.0  -0.0424
  H  H55  1  0.638100  0.703700  0.345200  1.0  -0.0297
  H  H56  1  0.558100  0.707600  0.303800  1.0  0.0322
  H  H57  1  0.619300  0.907900  0.285800  1.0  -0.0749
  H  H58  1  0.602600  0.858500  0.365800  1.0  -0.0883
  H  H59  1  0.543400  0.904200  0.377600  1.0  -0.047
  H  H60  1  0.531900  0.905500  0.320200  1.0  -0.0417
  H  H61  1  0.503000  0.838900  0.398400  1.0  -0.0436
  H  H62  1  0.016700  0.951100  0.345200  1.0  -0.0305
  H  H63  1  0.138100  0.988600  0.303800  1.0  0.0314
  H  H64  1  0.094900  0.806300  0.285800  1.0  -0.0659
  H  H65  1  0.031600  0.775700  0.365800  1.0  -0.0958
  H  H66  1  0.079000  0.718200  0.377600  1.0  -0.0481
  H  H67  1  0.147900  0.774300  0.320200  1.0  -0.0428
  H  H68  1  0.098600  0.762700  0.398400  1.0  -0.0388
  H  H69  1  0.733300  0.546300  0.154800  1.0  -0.0279
  H  H70  1  0.611900  0.542400  0.196200  1.0  0.0332
  H  H71  1  0.655100  0.342100  0.214200  1.0  -0.0736
  H  H72  1  0.718400  0.391500  0.134200  1.0  -0.0871
  H  H73  1  0.671000  0.345800  0.122400  1.0  -0.0497
  H  H74  1  0.602100  0.344500  0.179800  1.0  -0.0463
  H  H75  1  0.651400  0.411100  0.101600  1.0  -0.0381
  H  H76  1  0.111900  0.298900  0.154800  1.0  -0.0311
  H  H77  1  0.191900  0.261400  0.196200  1.0  0.0321
  H  H78  1  0.130700  0.443700  0.214200  1.0  -0.0722
  H  H79  1  0.147400  0.474300  0.134200  1.0  -0.0867
  H  H80  1  0.206600  0.531800  0.122400  1.0  -0.0463
  H  H81  1  0.218100  0.475700  0.179800  1.0  -0.041
  H  H82  1  0.247000  0.487300  0.101600  1.0  -0.0404
  H  H83  1  0.296300  0.983300  0.654800  1.0  -0.0296
  H  H84  1  0.292400  0.861900  0.696200  1.0  0.0306
  H  H85  1  0.092100  0.905100  0.714200  1.0  -0.0725
  H  H86  1  0.141500  0.968400  0.634200  1.0  -0.0892
  H  H87  1  0.095800  0.921000  0.622400  1.0  -0.0516
  H  H88  1  0.094500  0.852100  0.679800  1.0  -0.0441
  H  H89  1  0.161100  0.901400  0.601600  1.0  -0.0501
  H  H90  1  0.048900  0.361900  0.654800  1.0  -0.0324
  H  H91  1  0.011400  0.441900  0.696200  1.0  0.0321
  H  H92  1  0.193700  0.380700  0.714200  1.0  -0.0728
  H  H93  1  0.224300  0.397400  0.634200  1.0  -0.09
  H  H94  1  0.281800  0.456600  0.622400  1.0  -0.0486
  H  H95  1  0.225700  0.468100  0.679800  1.0  -0.04
  H  H96  1  0.237300  0.497000  0.601600  1.0  -0.0372
  C  C97  1  0.613400  0.337200  0.822600  1.0  0.1925
  C  C98  1  0.677400  0.297400  0.841200  1.0  -0.0863
  C  C99  1  0.703300  0.365000  0.810000  1.0  -0.0707
  C  C100  1  0.548000  0.329000  0.834000  1.0  -0.1212
  C  C101  1  0.512000  0.352000  0.858000  1.0  -0.5334
  C  C102  1  0.564000  0.840200  0.822600  1.0  0.1928
  C  C103  1  0.481400  0.861400  0.841200  1.0  -0.0885
  C  C104  1  0.486700  0.825000  0.810000  1.0  -0.0697
  C  C105  1  0.618000  0.837000  0.834000  1.0  -0.1231
  C  C106  1  0.630000  0.790000  0.858000  1.0  -0.5336
  C  C107  1  0.590200  0.814000  0.322600  1.0  0.194
  C  C108  1  0.611400  0.731400  0.341200  1.0  -0.0876
  C  C109  1  0.575000  0.736700  0.310000  1.0  -0.0713
  C  C110  1  0.587000  0.868000  0.334000  1.0  -0.1198
  C  C111  1  0.540000  0.880000  0.358000  1.0  -0.5353
  C  C112  1  0.087200  0.863400  0.322600  1.0  0.191
  C  C113  1  0.047400  0.927400  0.341200  1.0  -0.0862
  C  C114  1  0.115000  0.953300  0.310000  1.0  -0.07
  C  C115  1  0.079000  0.798000  0.334000  1.0  -0.1258
  C  C116  1  0.102000  0.762000  0.358000  1.0  -0.5308
  C  C117  1  0.662800  0.436000  0.177400  1.0  0.1932
  C  C118  1  0.702600  0.518600  0.158800  1.0  -0.0903
  C  C119  1  0.635000  0.513300  0.190000  1.0  -0.0725
  C  C120  1  0.671000  0.382000  0.166000  1.0  -0.1289
  C  C121  1  0.648000  0.370000  0.142000  1.0  -0.5324
  C  C122  1  0.159800  0.386600  0.177400  1.0  0.192
  C  C123  1  0.138600  0.322600  0.158800  1.0  -0.0875
  C  C124  1  0.175000  0.296700  0.190000  1.0  -0.0696
  C  C125  1  0.163000  0.452000  0.166000  1.0  -0.1236
  C  C126  1  0.210000  0.488000  0.142000  1.0  -0.535
  C  C127  1  0.186000  0.912800  0.677400  1.0  0.1942
  C  C128  1  0.268600  0.952600  0.658800  1.0  -0.0892
  C  C129  1  0.263300  0.885000  0.690000  1.0  -0.0692
  C  C130  1  0.132000  0.921000  0.666000  1.0  -0.1277
  C  C131  1  0.120000  0.898000  0.642000  1.0  -0.5332
  C  C132  1  0.136600  0.409800  0.677400  1.0  0.1926
  C  C133  1  0.072600  0.388600  0.658800  1.0  -0.0869
  C  C134  1  0.046700  0.425000  0.690000  1.0  -0.0688
  C  C135  1  0.202000  0.413000  0.666000  1.0  -0.1217
  C  C136  1  0.238000  0.460000  0.642000  1.0  -0.5317
  S  S137  1  0.457200  0.176400  0.996200  1.0  -0.307
  S  S138  1  0.563800  0.809200  0.149000  1.0  -0.3429
  S  S139  1  0.405320  0.843720  0.152160  1.0  -0.3893
  S  S140  1  0.583690  0.985790  0.993220  1.0  -0.397
  S  S141  1  0.598400  0.158100  0.837600  1.0  -0.3453
  S  S142  1  0.423300  0.828100  0.307000  1.0  -0.3801
  S  S143  1  0.600900  0.970000  0.149800  1.0  -0.3363
  S  S144  1  0.617300  0.140200  0.997600  1.0  -0.3529
  S  S145  1  0.546600  0.827400  0.996200  1.0  -0.3079
  S  S146  1  0.287200  0.041800  0.149000  1.0  -0.3424
  S  S147  1  0.442520  0.004120  0.152160  1.0  -0.3888
  S  S148  1  0.423090  0.020990  0.993220  1.0  -0.4007
  S  S149  1  0.564000  0.004300  0.837600  1.0  -0.3427
  S  S150  1  0.269700  0.864900  0.307000  1.0  -0.3829
  S  S151  1  0.249300  0.880200  0.149800  1.0  -0.338
  S  S152  1  0.385100  0.862200  0.997600  1.0  -0.3541
  S  S153  1  0.577400  0.796600  0.496200  1.0  -0.3065
  S  S154  1  0.791800  0.537200  0.649000  1.0  -0.3431
  S  S155  1  0.754120  0.692520  0.652160  1.0  -0.3899
  S  S156  1  0.770990  0.673090  0.493220  1.0  -0.4009
  S  S157  1  0.754300  0.814000  0.337600  1.0  -0.341
  S  S158  1  0.614900  0.519700  0.807000  1.0  -0.3804
  S  S159  1  0.630200  0.499300  0.649800  1.0  -0.3306
  S  S160  1  0.612200  0.635100  0.497600  1.0  -0.3541
  S  S161  1  0.926400  0.707200  0.496200  1.0  -0.3056
  S  S162  1  0.559200  0.813800  0.649000  1.0  -0.3428
  S  S163  1  0.593720  0.655320  0.652160  1.0  -0.3901
  S  S164  1  0.735790  0.833690  0.493220  1.0  -0.4059
  S  S165  1  0.908100  0.848400  0.337600  1.0  -0.3524
  S  S166  1  0.578100  0.673300  0.807000  1.0  -0.3802
  S  S167  1  0.720000  0.850900  0.649800  1.0  -0.3356
  S  S168  1  0.890200  0.867300  0.497600  1.0  -0.3486
  S  S169  1  0.823600  0.453400  0.003800  1.0  -0.3062
  S  S170  1  0.190800  0.712800  0.851000  1.0  -0.3414
  S  S171  1  0.156280  0.557480  0.847840  1.0  -0.3893
  S  S172  1  0.014210  0.576910  0.006780  1.0  -0.4034
  S  S173  1  0.841900  0.436000  0.162400  1.0  -0.342
  S  S174  1  0.171900  0.730300  0.693000  1.0  -0.3822
  S  S175  1  0.030000  0.750700  0.850200  1.0  -0.3373
  S  S176  1  0.859800  0.614900  0.002400  1.0  -0.3521
  S  S177  1  0.172600  0.542800  0.003800  1.0  -0.3074
  S  S178  1  0.958200  0.436200  0.851000  1.0  -0.3439
  S  S179  1  0.995880  0.594680  0.847840  1.0  -0.3893
  S  S180  1  0.979010  0.416310  0.006780  1.0  -0.3993
  S  S181  1  0.995700  0.401600  0.162400  1.0  -0.3471
  S  S182  1  0.135100  0.576700  0.693000  1.0  -0.3791
  S  S183  1  0.119800  0.399100  0.850200  1.0  -0.3355
  S  S184  1  0.137800  0.382700  0.002400  1.0  -0.3526
  S  S185  1  0.203400  0.073600  0.503800  1.0  -0.3057
  S  S186  1  0.462800  0.440800  0.351000  1.0  -0.342
  S  S187  1  0.307480  0.406280  0.347840  1.0  -0.3906
  S  S188  1  0.326910  0.264210  0.506780  1.0  -0.4006
  S  S189  1  0.186000  0.091900  0.662400  1.0  -0.3404
  S  S190  1  0.480300  0.421900  0.193000  1.0  -0.3794
  S  S191  1  0.500700  0.280000  0.350200  1.0  -0.3288
  S  S192  1  0.364900  0.109800  0.502400  1.0  -0.3524
  S  S193  1  0.292800  0.422600  0.503800  1.0  -0.3082
  S  S194  1  0.186200  0.208200  0.351000  1.0  -0.3475
  S  S195  1  0.344680  0.245880  0.347840  1.0  -0.3905
  S  S196  1  0.166310  0.229010  0.506780  1.0  -0.4023
  S  S197  1  0.151600  0.245700  0.662400  1.0  -0.345
  S  S198  1  0.326700  0.385100  0.193000  1.0  -0.382
  S  S199  1  0.149100  0.369800  0.350200  1.0  -0.3292
  S  S200  1  0.132700  0.387800  0.502400  1.0  -0.3526
  N  N201  1  0.619600  0.285000  0.862600  1.0  -0.3587
  N  N202  1  0.660100  0.387200  0.788000  1.0  -0.4168
  N  N203  1  0.517800  0.852400  0.862600  1.0  -0.353
  N  N204  1  0.551900  0.824800  0.788000  1.0  -0.414
  N  N205  1  0.602400  0.767800  0.362600  1.0  -0.3533
  N  N206  1  0.574800  0.801900  0.288000  1.0  -0.4138
  N  N207  1  0.035000  0.869600  0.362600  1.0  -0.3581
  N  N208  1  0.137200  0.910100  0.288000  1.0  -0.4186
  N  N209  1  0.715000  0.482200  0.137400  1.0  -0.3605
  N  N210  1  0.612800  0.448100  0.212000  1.0  -0.4159
  N  N211  1  0.147600  0.380400  0.137400  1.0  -0.3569
  N  N212  1  0.175200  0.339900  0.212000  1.0  -0.4115
  N  N213  1  0.232200  0.965000  0.637400  1.0  -0.3561
  N  N214  1  0.198100  0.862800  0.712000  1.0  -0.4157
  N  N215  1  0.130400  0.397600  0.637400  1.0  -0.3573
  N  N216  1  0.089900  0.425200  0.712000  1.0  -0.4134
