# generated using pymatgen
data_In10H7C7(S4N)4
_symmetry_space_group_name_H-M   'P 1'
_cell_length_a   22.56290000
_cell_length_b   22.66170000
_cell_length_c   33.70150000
_cell_angle_alpha   90.00000000
_cell_angle_beta   90.00000000
_cell_angle_gamma   90.00000000
_symmetry_Int_Tables_number   1
_chemical_formula_structural   In10H7C7(S4N)4
_chemical_formula_sum   'In80 H56 C56 S128 N32'
_cell_volume   17232.03768085
_cell_formula_units_Z   8
loop_
 _symmetry_equiv_pos_site_id
 _symmetry_equiv_pos_as_xyz
  1  'x, y, z'
loop_
 _atom_site_type_symbol
 _atom_site_label
 _atom_site_symmetry_multiplicity
 _atom_site_fract_x
 _atom_site_fract_y
 _atom_site_fract_z
 _atom_site_occupancy
 _atom_site_charge
  In  In1  1  0.307050  0.588830  0.758750  1.0  0.825
  In  In2  1  0.233320  0.676930  0.838220  1.0  0.8704
  In  In3  1  0.315860  0.518420  0.859680  1.0  0.8911
  In  In4  1  0.164200  0.523420  0.793830  1.0  0.8705
  In  In5  1  0.154160  0.743940  0.924680  1.0  0.8316
  In  In6  1  0.234130  0.605560  0.950030  1.0  0.915
  In  In7  1  0.080240  0.610080  0.884310  1.0  0.9016
  In  In8  1  0.307030  0.458430  0.962690  1.0  0.882
  In  In9  1  0.162870  0.453650  0.906670  1.0  0.8802
  In  In10  1  0.027850  0.463740  0.844270  1.0  0.8369
  In  In11  1  0.692950  0.911170  0.258750  1.0  0.8243
  In  In12  1  0.766680  0.823070  0.338220  1.0  0.8712
  In  In13  1  0.684140  0.981580  0.359680  1.0  0.8933
  In  In14  1  0.835800  0.976580  0.293830  1.0  0.8692
  In  In15  1  0.845840  0.756060  0.424680  1.0  0.8314
  In  In16  1  0.765870  0.894440  0.450030  1.0  0.9158
  In  In17  1  0.919760  0.889920  0.384310  1.0  0.9004
  In  In18  1  0.692970  0.041570  0.462690  1.0  0.8815
  In  In19  1  0.837130  0.046350  0.406670  1.0  0.8789
  In  In20  1  0.972150  0.036260  0.344270  1.0  0.8379
  In  In21  1  0.807050  0.411170  0.741250  1.0  0.8243
  In  In22  1  0.733320  0.323070  0.661780  1.0  0.8699
  In  In23  1  0.815860  0.481580  0.640320  1.0  0.891
  In  In24  1  0.664200  0.476580  0.706170  1.0  0.8704
  In  In25  1  0.654160  0.256060  0.575320  1.0  0.8315
  In  In26  1  0.734130  0.394440  0.549970  1.0  0.9154
  In  In27  1  0.580240  0.389920  0.615690  1.0  0.9025
  In  In28  1  0.807030  0.541570  0.537310  1.0  0.8855
  In  In29  1  0.662870  0.546350  0.593330  1.0  0.8801
  In  In30  1  0.527850  0.536260  0.655730  1.0  0.8369
  In  In31  1  0.192950  0.088830  0.241250  1.0  0.8239
  In  In32  1  0.266680  0.176930  0.161780  1.0  0.8706
  In  In33  1  0.184140  0.018420  0.140320  1.0  0.8929
  In  In34  1  0.335800  0.023420  0.206170  1.0  0.8696
  In  In35  1  0.345840  0.243940  0.075320  1.0  0.8314
  In  In36  1  0.265870  0.105560  0.049970  1.0  0.9152
  In  In37  1  0.419760  0.110080  0.115690  1.0  0.9003
  In  In38  1  0.192970  0.958430  0.037310  1.0  0.8833
  In  In39  1  0.337130  0.953650  0.093330  1.0  0.8799
  In  In40  1  0.472150  0.963740  0.155730  1.0  0.8372
  In  In41  1  0.692950  0.411170  0.241250  1.0  0.8237
  In  In42  1  0.766680  0.323070  0.161780  1.0  0.8708
  In  In43  1  0.684140  0.481580  0.140320  1.0  0.893
  In  In44  1  0.835800  0.476580  0.206170  1.0  0.8691
  In  In45  1  0.845840  0.256060  0.075320  1.0  0.8314
  In  In46  1  0.765870  0.394440  0.049970  1.0  0.9155
  In  In47  1  0.919760  0.389920  0.115690  1.0  0.9008
  In  In48  1  0.692970  0.541570  0.037310  1.0  0.8843
  In  In49  1  0.837130  0.546350  0.093330  1.0  0.8794
  In  In50  1  0.972150  0.536260  0.155730  1.0  0.8375
  In  In51  1  0.307050  0.088830  0.741250  1.0  0.8245
  In  In52  1  0.233320  0.176930  0.661780  1.0  0.8698
  In  In53  1  0.315860  0.018420  0.640320  1.0  0.8909
  In  In54  1  0.164200  0.023420  0.706170  1.0  0.8708
  In  In55  1  0.154160  0.243940  0.575320  1.0  0.8317
  In  In56  1  0.234130  0.105560  0.549970  1.0  0.915
  In  In57  1  0.080240  0.110080  0.615690  1.0  0.9021
  In  In58  1  0.307030  0.958430  0.537310  1.0  0.885
  In  In59  1  0.162870  0.953650  0.593330  1.0  0.8806
  In  In60  1  0.027850  0.963740  0.655730  1.0  0.8365
  In  In61  1  0.192950  0.588830  0.258750  1.0  0.8246
  In  In62  1  0.266680  0.676930  0.338220  1.0  0.8711
  In  In63  1  0.184140  0.518420  0.359680  1.0  0.8931
  In  In64  1  0.335800  0.523420  0.293830  1.0  0.8695
  In  In65  1  0.345840  0.743940  0.424680  1.0  0.8313
  In  In66  1  0.265870  0.605560  0.450030  1.0  0.9152
  In  In67  1  0.419760  0.610080  0.384310  1.0  0.8998
  In  In68  1  0.192970  0.458430  0.462690  1.0  0.8805
  In  In69  1  0.337130  0.453650  0.406670  1.0  0.8795
  In  In70  1  0.472150  0.463740  0.344270  1.0  0.8377
  In  In71  1  0.807050  0.911170  0.758750  1.0  0.8247
  In  In72  1  0.733320  0.823070  0.838220  1.0  0.8704
  In  In73  1  0.815860  0.981580  0.859680  1.0  0.8913
  In  In74  1  0.664200  0.976580  0.793830  1.0  0.8702
  In  In75  1  0.654160  0.756060  0.924680  1.0  0.8315
  In  In76  1  0.734130  0.894440  0.950030  1.0  0.9157
  In  In77  1  0.580240  0.889920  0.884310  1.0  0.9021
  In  In78  1  0.807030  0.041570  0.962690  1.0  0.8826
  In  In79  1  0.662870  0.046350  0.906670  1.0  0.8797
  In  In80  1  0.527850  0.036260  0.844270  1.0  0.8372
  H  H81  1  0.424000  0.534300  0.718900  1.0  -0.0393
  H  H82  1  0.342200  0.669400  0.677300  1.0  -0.0156
  H  H83  1  0.206200  0.837500  0.988100  1.0  -0.0642
  H  H84  1  0.055000  0.859000  0.933600  1.0  -0.0391
  H  H85  1  0.040100  0.960300  0.010600  1.0  -0.0329
  H  H86  1  0.029800  0.972200  0.964300  1.0  -0.0362
  H  H87  1  0.085400  0.001300  0.986500  1.0  -0.0153
  H  H88  1  0.576000  0.965700  0.218900  1.0  -0.0391
  H  H89  1  0.657800  0.830600  0.177300  1.0  -0.0161
  H  H90  1  0.793800  0.662500  0.488100  1.0  -0.0646
  H  H91  1  0.945000  0.641000  0.433600  1.0  -0.0385
  H  H92  1  0.959900  0.539700  0.510600  1.0  -0.0323
  H  H93  1  0.970200  0.527800  0.464300  1.0  -0.0356
  H  H94  1  0.914600  0.498700  0.486500  1.0  -0.0177
  H  H95  1  0.924000  0.465700  0.781100  1.0  -0.0396
  H  H96  1  0.842200  0.330600  0.822700  1.0  -0.0172
  H  H97  1  0.706200  0.162500  0.511900  1.0  -0.0628
  H  H98  1  0.555000  0.141000  0.566400  1.0  -0.0391
  H  H99  1  0.540100  0.039700  0.489400  1.0  -0.033
  H  H100  1  0.529800  0.027800  0.535700  1.0  -0.0364
  H  H101  1  0.585400  0.998700  0.513500  1.0  -0.0151
  H  H102  1  0.076000  0.034300  0.281100  1.0  -0.0412
  H  H103  1  0.157800  0.169400  0.322700  1.0  -0.0172
  H  H104  1  0.293800  0.337500  0.011900  1.0  -0.064
  H  H105  1  0.445000  0.359000  0.066400  1.0  -0.0384
  H  H106  1  0.459900  0.460300  0.989400  1.0  -0.0324
  H  H107  1  0.470200  0.472200  0.035700  1.0  -0.0356
  H  H108  1  0.414600  0.501300  0.013500  1.0  -0.0172
  H  H109  1  0.576000  0.465700  0.281100  1.0  -0.0405
  H  H110  1  0.657800  0.330600  0.322700  1.0  -0.0168
  H  H111  1  0.793800  0.162500  0.011900  1.0  -0.0641
  H  H112  1  0.945000  0.141000  0.066400  1.0  -0.039
  H  H113  1  0.959900  0.039700  0.989400  1.0  -0.0336
  H  H114  1  0.970200  0.027800  0.035700  1.0  -0.0355
  H  H115  1  0.914600  0.998700  0.013500  1.0  -0.0175
  H  H116  1  0.424000  0.034300  0.781100  1.0  -0.0409
  H  H117  1  0.342200  0.169400  0.822700  1.0  -0.0166
  H  H118  1  0.206200  0.337500  0.511900  1.0  -0.063
  H  H119  1  0.055000  0.359000  0.566400  1.0  -0.0385
  H  H120  1  0.040100  0.460300  0.489400  1.0  -0.0342
  H  H121  1  0.029800  0.472200  0.535700  1.0  -0.0364
  H  H122  1  0.085400  0.501300  0.513500  1.0  -0.0152
  H  H123  1  0.076000  0.534300  0.218900  1.0  -0.0393
  H  H124  1  0.157800  0.669400  0.177300  1.0  -0.0157
  H  H125  1  0.293800  0.837500  0.488100  1.0  -0.0639
  H  H126  1  0.445000  0.859000  0.433600  1.0  -0.0382
  H  H127  1  0.459900  0.960300  0.510600  1.0  -0.0334
  H  H128  1  0.470200  0.972200  0.464300  1.0  -0.0353
  H  H129  1  0.414600  0.001300  0.486500  1.0  -0.0172
  H  H130  1  0.924000  0.965700  0.718900  1.0  -0.0385
  H  H131  1  0.842200  0.830600  0.677300  1.0  -0.0168
  H  H132  1  0.706200  0.662500  0.988100  1.0  -0.0639
  H  H133  1  0.555000  0.641000  0.933600  1.0  -0.0394
  H  H134  1  0.540100  0.539700  0.010600  1.0  -0.0339
  H  H135  1  0.529800  0.527800  0.964300  1.0  -0.0365
  H  H136  1  0.585400  0.498700  0.986500  1.0  -0.0153
  C  C137  1  0.414000  0.566700  0.702300  1.0  0.0851
  C  C138  1  0.370200  0.638500  0.680900  1.0  -0.0279
  C  C139  1  0.419800  0.630400  0.658000  1.0  -0.1219
  C  C140  1  0.169100  0.853000  0.979700  1.0  0.0839
  C  C141  1  0.088400  0.864600  0.950400  1.0  -0.176
  C  C142  1  0.097800  0.911500  0.974800  1.0  0.1204
  C  C143  1  0.059800  0.966400  0.985000  1.0  -0.5338
  C  C144  1  0.586000  0.933300  0.202300  1.0  0.0844
  C  C145  1  0.629800  0.861500  0.180900  1.0  -0.03
  C  C146  1  0.580200  0.869600  0.158000  1.0  -0.12
  C  C147  1  0.830900  0.647000  0.479700  1.0  0.0858
  C  C148  1  0.911600  0.635400  0.450400  1.0  -0.1751
  C  C149  1  0.902200  0.588500  0.474800  1.0  0.1217
  C  C150  1  0.940200  0.533600  0.485000  1.0  -0.5331
  C  C151  1  0.914000  0.433300  0.797700  1.0  0.0835
  C  C152  1  0.870200  0.361500  0.819100  1.0  -0.0301
  C  C153  1  0.919800  0.369600  0.842000  1.0  -0.1162
  C  C154  1  0.669100  0.147000  0.520300  1.0  0.0842
  C  C155  1  0.588400  0.135400  0.549600  1.0  -0.1758
  C  C156  1  0.597800  0.088500  0.525200  1.0  0.1209
  C  C157  1  0.559800  0.033600  0.515000  1.0  -0.5338
  C  C158  1  0.086000  0.066700  0.297700  1.0  0.0822
  C  C159  1  0.129800  0.138500  0.319100  1.0  -0.0288
  C  C160  1  0.080200  0.130400  0.342000  1.0  -0.1183
  C  C161  1  0.330900  0.353000  0.020300  1.0  0.0858
  C  C162  1  0.411600  0.364600  0.049600  1.0  -0.1734
  C  C163  1  0.402200  0.411500  0.025200  1.0  0.1208
  C  C164  1  0.440200  0.466400  0.015000  1.0  -0.5342
  C  C165  1  0.586000  0.433300  0.297700  1.0  0.0832
  C  C166  1  0.629800  0.361500  0.319100  1.0  -0.0301
  C  C167  1  0.580200  0.369600  0.342000  1.0  -0.1176
  C  C168  1  0.830900  0.147000  0.020300  1.0  0.0856
  C  C169  1  0.911600  0.135400  0.049600  1.0  -0.1739
  C  C170  1  0.902200  0.088500  0.025200  1.0  0.1214
  C  C171  1  0.940200  0.033600  0.015000  1.0  -0.5341
  C  C172  1  0.414000  0.066700  0.797700  1.0  0.0829
  C  C173  1  0.370200  0.138500  0.819100  1.0  -0.0295
  C  C174  1  0.419800  0.130400  0.842000  1.0  -0.1176
  C  C175  1  0.169100  0.353000  0.520300  1.0  0.0833
  C  C176  1  0.088400  0.364600  0.549600  1.0  -0.1758
  C  C177  1  0.097800  0.411500  0.525200  1.0  0.1207
  C  C178  1  0.059800  0.466400  0.515000  1.0  -0.534
  C  C179  1  0.086000  0.566700  0.202300  1.0  0.0843
  C  C180  1  0.129800  0.638500  0.180900  1.0  -0.0278
  C  C181  1  0.080200  0.630400  0.158000  1.0  -0.1218
  C  C182  1  0.330900  0.853000  0.479700  1.0  0.0863
  C  C183  1  0.411600  0.864600  0.450400  1.0  -0.1753
  C  C184  1  0.402200  0.911500  0.474800  1.0  0.1209
  C  C185  1  0.440200  0.966400  0.485000  1.0  -0.5336
  C  C186  1  0.914000  0.933300  0.702300  1.0  0.0847
  C  C187  1  0.870200  0.861500  0.680900  1.0  -0.0297
  C  C188  1  0.919800  0.869600  0.658000  1.0  -0.1193
  C  C189  1  0.669100  0.647000  0.979700  1.0  0.0845
  C  C190  1  0.588400  0.635400  0.950400  1.0  -0.1757
  C  C191  1  0.597800  0.588500  0.974800  1.0  0.1208
  C  C192  1  0.559800  0.533600  0.985000  1.0  -0.533
  S  S193  1  0.290800  0.689900  0.778800  1.0  -0.3324
  S  S194  1  0.372600  0.529500  0.799860  1.0  -0.3566
  S  S195  1  0.221500  0.536100  0.733990  1.0  -0.3789
  S  S196  1  0.209700  0.772000  0.865900  1.0  -0.3533
  S  S197  1  0.292500  0.618000  0.887210  1.0  -0.3931
  S  S198  1  0.139100  0.622800  0.821920  1.0  -0.4034
  S  S199  1  0.374600  0.462500  0.906470  1.0  -0.3526
  S  S200  1  0.221600  0.465300  0.844240  1.0  -0.3885
  S  S201  1  0.074900  0.469200  0.779480  1.0  -0.3356
  S  S202  1  0.213200  0.701100  0.977550  1.0  -0.3367
  S  S203  1  0.056100  0.704100  0.913100  1.0  -0.3276
  S  S204  1  0.292600  0.551200  0.997150  1.0  -0.3911
  S  S205  1  0.138800  0.553100  0.934340  1.0  -0.3952
  S  S206  1  0.989900  0.558000  0.868410  1.0  -0.3725
  S  S207  1  0.220100  0.397100  0.953500  1.0  -0.3504
  S  S208  1  0.072100  0.400300  0.893670  1.0  -0.3426
  S  S209  1  0.709200  0.810100  0.278800  1.0  -0.3316
  S  S210  1  0.627400  0.970500  0.299860  1.0  -0.3569
  S  S211  1  0.778500  0.963900  0.233990  1.0  -0.3781
  S  S212  1  0.790300  0.728000  0.365900  1.0  -0.3523
  S  S213  1  0.707500  0.882000  0.387210  1.0  -0.3921
  S  S214  1  0.860900  0.877200  0.321920  1.0  -0.4032
  S  S215  1  0.625400  0.037500  0.406470  1.0  -0.3522
  S  S216  1  0.778400  0.034700  0.344240  1.0  -0.3892
  S  S217  1  0.925100  0.030800  0.279480  1.0  -0.3356
  S  S218  1  0.786800  0.798900  0.477550  1.0  -0.3372
  S  S219  1  0.943900  0.795900  0.413100  1.0  -0.3286
  S  S220  1  0.707400  0.948800  0.497150  1.0  -0.3912
  S  S221  1  0.861200  0.946900  0.434340  1.0  -0.3954
  S  S222  1  0.010100  0.942000  0.368410  1.0  -0.3723
  S  S223  1  0.779900  0.102900  0.453500  1.0  -0.3501
  S  S224  1  0.927900  0.099700  0.393670  1.0  -0.3434
  S  S225  1  0.790800  0.310100  0.721200  1.0  -0.3316
  S  S226  1  0.872600  0.470500  0.700140  1.0  -0.3562
  S  S227  1  0.721500  0.463900  0.766010  1.0  -0.379
  S  S228  1  0.709700  0.228000  0.634100  1.0  -0.3533
  S  S229  1  0.792500  0.382000  0.612790  1.0  -0.3923
  S  S230  1  0.639100  0.377200  0.678080  1.0  -0.4019
  S  S231  1  0.874600  0.537500  0.593530  1.0  -0.3526
  S  S232  1  0.721600  0.534700  0.655760  1.0  -0.3886
  S  S233  1  0.574900  0.530800  0.720520  1.0  -0.3351
  S  S234  1  0.713200  0.298900  0.522450  1.0  -0.3367
  S  S235  1  0.556100  0.295900  0.586900  1.0  -0.3278
  S  S236  1  0.792600  0.448800  0.502850  1.0  -0.3922
  S  S237  1  0.638800  0.446900  0.565660  1.0  -0.3956
  S  S238  1  0.489900  0.442000  0.631590  1.0  -0.3729
  S  S239  1  0.720100  0.602900  0.546500  1.0  -0.3501
  S  S240  1  0.572100  0.599700  0.606330  1.0  -0.3439
  S  S241  1  0.209200  0.189900  0.221200  1.0  -0.3322
  S  S242  1  0.127400  0.029500  0.200140  1.0  -0.3567
  S  S243  1  0.278500  0.036100  0.266010  1.0  -0.3789
  S  S244  1  0.290300  0.272000  0.134100  1.0  -0.3538
  S  S245  1  0.207500  0.118000  0.112790  1.0  -0.3925
  S  S246  1  0.360900  0.122800  0.178080  1.0  -0.4029
  S  S247  1  0.125400  0.962500  0.093530  1.0  -0.3518
  S  S248  1  0.278400  0.965300  0.155760  1.0  -0.3885
  S  S249  1  0.425100  0.969200  0.220520  1.0  -0.3346
  S  S250  1  0.286800  0.201100  0.022450  1.0  -0.3381
  S  S251  1  0.443900  0.204100  0.086900  1.0  -0.3288
  S  S252  1  0.207400  0.051200  0.002850  1.0  -0.3926
  S  S253  1  0.361200  0.053100  0.065660  1.0  -0.396
  S  S254  1  0.510100  0.058000  0.131590  1.0  -0.3728
  S  S255  1  0.279900  0.897100  0.046500  1.0  -0.3508
  S  S256  1  0.427900  0.900300  0.106330  1.0  -0.3438
  S  S257  1  0.709200  0.310100  0.221200  1.0  -0.3317
  S  S258  1  0.627400  0.470500  0.200140  1.0  -0.3565
  S  S259  1  0.778500  0.463900  0.266010  1.0  -0.3788
  S  S260  1  0.790300  0.228000  0.134100  1.0  -0.3529
  S  S261  1  0.707500  0.382000  0.112790  1.0  -0.392
  S  S262  1  0.860900  0.377200  0.178080  1.0  -0.4023
  S  S263  1  0.625400  0.537500  0.093530  1.0  -0.352
  S  S264  1  0.778400  0.534700  0.155760  1.0  -0.3889
  S  S265  1  0.925100  0.530800  0.220520  1.0  -0.3347
  S  S266  1  0.786800  0.298900  0.022450  1.0  -0.3374
  S  S267  1  0.943900  0.295900  0.086900  1.0  -0.3288
  S  S268  1  0.707400  0.448800  0.002850  1.0  -0.3929
  S  S269  1  0.861200  0.446900  0.065660  1.0  -0.3959
  S  S270  1  0.010100  0.442000  0.131590  1.0  -0.3722
  S  S271  1  0.779900  0.602900  0.046500  1.0  -0.3504
  S  S272  1  0.927900  0.599700  0.106330  1.0  -0.3442
  S  S273  1  0.290800  0.189900  0.721200  1.0  -0.3323
  S  S274  1  0.372600  0.029500  0.700140  1.0  -0.3562
  S  S275  1  0.221500  0.036100  0.766010  1.0  -0.3791
  S  S276  1  0.209700  0.272000  0.634100  1.0  -0.3537
  S  S277  1  0.292500  0.118000  0.612790  1.0  -0.393
  S  S278  1  0.139100  0.122800  0.678080  1.0  -0.4025
  S  S279  1  0.374600  0.962500  0.593530  1.0  -0.3524
  S  S280  1  0.221600  0.965300  0.655760  1.0  -0.3885
  S  S281  1  0.074900  0.969200  0.720520  1.0  -0.335
  S  S282  1  0.213200  0.201100  0.522450  1.0  -0.3372
  S  S283  1  0.056100  0.204100  0.586900  1.0  -0.3279
  S  S284  1  0.292600  0.051200  0.502850  1.0  -0.3922
  S  S285  1  0.138800  0.053100  0.565660  1.0  -0.3956
  S  S286  1  0.989900  0.058000  0.631590  1.0  -0.3727
  S  S287  1  0.220100  0.897100  0.546500  1.0  -0.3509
  S  S288  1  0.072100  0.900300  0.606330  1.0  -0.3436
  S  S289  1  0.209200  0.689900  0.278800  1.0  -0.3322
  S  S290  1  0.127400  0.529500  0.299860  1.0  -0.3567
  S  S291  1  0.278500  0.536100  0.233990  1.0  -0.3784
  S  S292  1  0.290300  0.772000  0.365900  1.0  -0.3531
  S  S293  1  0.207500  0.618000  0.387210  1.0  -0.3926
  S  S294  1  0.360900  0.622800  0.321920  1.0  -0.404
  S  S295  1  0.125400  0.462500  0.406470  1.0  -0.3518
  S  S296  1  0.278400  0.465300  0.344240  1.0  -0.3887
  S  S297  1  0.425100  0.469200  0.279480  1.0  -0.3356
  S  S298  1  0.286800  0.701100  0.477550  1.0  -0.3377
  S  S299  1  0.443900  0.704100  0.413100  1.0  -0.3286
  S  S300  1  0.207400  0.551200  0.497150  1.0  -0.3913
  S  S301  1  0.361200  0.553100  0.434340  1.0  -0.3955
  S  S302  1  0.510100  0.558000  0.368410  1.0  -0.3728
  S  S303  1  0.279900  0.397100  0.453500  1.0  -0.3504
  S  S304  1  0.427900  0.400300  0.393670  1.0  -0.3428
  S  S305  1  0.790800  0.810100  0.778800  1.0  -0.3316
  S  S306  1  0.872600  0.970500  0.799860  1.0  -0.3567
  S  S307  1  0.721500  0.963900  0.733990  1.0  -0.3783
  S  S308  1  0.709700  0.728000  0.865900  1.0  -0.3527
  S  S309  1  0.792500  0.882000  0.887210  1.0  -0.3923
  S  S310  1  0.639100  0.877200  0.821920  1.0  -0.4026
  S  S311  1  0.874600  0.037500  0.906470  1.0  -0.3529
  S  S312  1  0.721600  0.034700  0.844240  1.0  -0.3889
  S  S313  1  0.574900  0.030800  0.779480  1.0  -0.3356
  S  S314  1  0.713200  0.798900  0.977550  1.0  -0.3363
  S  S315  1  0.556100  0.795900  0.913100  1.0  -0.3275
  S  S316  1  0.792600  0.948800  0.997150  1.0  -0.3908
  S  S317  1  0.638800  0.946900  0.934340  1.0  -0.3952
  S  S318  1  0.489900  0.942000  0.868410  1.0  -0.3726
  S  S319  1  0.720100  0.102900  0.953500  1.0  -0.3499
  S  S320  1  0.572100  0.099700  0.893670  1.0  -0.3431
  N  N321  1  0.366800  0.598600  0.707900  1.0  -0.5227
  N  N322  1  0.446300  0.582400  0.672400  1.0  -0.5009
  N  N323  1  0.135800  0.826600  0.954100  1.0  -0.5552
  N  N324  1  0.147700  0.903100  0.993300  1.0  -0.5025
  N  N325  1  0.633200  0.901400  0.207900  1.0  -0.5253
  N  N326  1  0.553700  0.917600  0.172400  1.0  -0.4965
  N  N327  1  0.864200  0.673400  0.454100  1.0  -0.5558
  N  N328  1  0.852300  0.596900  0.493300  1.0  -0.5049
  N  N329  1  0.866800  0.401400  0.792100  1.0  -0.5235
  N  N330  1  0.946300  0.417600  0.827600  1.0  -0.5009
  N  N331  1  0.635800  0.173400  0.545900  1.0  -0.5528
  N  N332  1  0.647700  0.096900  0.506700  1.0  -0.5062
  N  N333  1  0.133200  0.098600  0.292100  1.0  -0.5273
  N  N334  1  0.053700  0.082400  0.327600  1.0  -0.4979
  N  N335  1  0.364200  0.326600  0.045900  1.0  -0.5535
  N  N336  1  0.352300  0.403100  0.006700  1.0  -0.503
  N  N337  1  0.633200  0.401400  0.292100  1.0  -0.527
  N  N338  1  0.553700  0.417600  0.327600  1.0  -0.4981
  N  N339  1  0.864200  0.173400  0.045900  1.0  -0.5533
  N  N340  1  0.852300  0.096900  0.006700  1.0  -0.5054
  N  N341  1  0.366800  0.098600  0.792100  1.0  -0.5235
  N  N342  1  0.446300  0.082400  0.827600  1.0  -0.5006
  N  N343  1  0.135800  0.326600  0.545900  1.0  -0.553
  N  N344  1  0.147700  0.403100  0.506700  1.0  -0.5045
  N  N345  1  0.133200  0.598600  0.207900  1.0  -0.525
  N  N346  1  0.053700  0.582400  0.172400  1.0  -0.4968
  N  N347  1  0.364200  0.826600  0.454100  1.0  -0.5555
  N  N348  1  0.352300  0.903100  0.493300  1.0  -0.5028
  N  N349  1  0.866800  0.901400  0.707900  1.0  -0.5233
  N  N350  1  0.946300  0.917600  0.672400  1.0  -0.501
  N  N351  1  0.635800  0.673400  0.954100  1.0  -0.5553
  N  N352  1  0.647700  0.596900  0.993300  1.0  -0.5035
