# generated using pymatgen
data_Cd4In16H4C6S31N4
_symmetry_space_group_name_H-M   'P 1'
_cell_length_a   16.61600000
_cell_length_b   23.31630000
_cell_length_c   23.31630000
_cell_angle_alpha   82.70590000
_cell_angle_beta   69.12580000
_cell_angle_gamma   69.12590000
_symmetry_Int_Tables_number   1
_chemical_formula_structural   Cd4In16H4C6S31N4
_chemical_formula_sum   'Cd8 In32 H8 C12 S62 N8'
_cell_volume   7886.40691178
_cell_formula_units_Z   2
loop_
 _symmetry_equiv_pos_site_id
 _symmetry_equiv_pos_as_xyz
  1  'x, y, z'
loop_
 _atom_site_type_symbol
 _atom_site_label
 _atom_site_symmetry_multiplicity
 _atom_site_fract_x
 _atom_site_fract_y
 _atom_site_fract_z
 _atom_site_occupancy
 _atom_site_charge
  Cd  Cd1  1  0.849770  0.083120  0.044400  1.0  0.4566
  Cd  Cd2  1  0.977290  0.916880  0.955600  1.0  0.4577
  Cd  Cd3  1  0.105830  0.044400  0.916880  1.0  0.4555
  Cd  Cd4  1  0.067110  0.955600  0.083120  1.0  0.4573
  Cd  Cd5  1  0.272710  0.544400  0.583120  1.0  0.4569
  Cd  Cd6  1  0.400230  0.455600  0.416880  1.0  0.4559
  Cd  Cd7  1  0.182890  0.416880  0.544400  1.0  0.4566
  Cd  Cd8  1  0.144170  0.583120  0.455600  1.0  0.4574
  In  In9  1  0.725020  0.959110  0.080290  1.0  0.8551
  In  In10  1  0.978030  0.206580  0.003820  1.0  0.8649
  In  In11  1  0.941510  0.118420  0.168560  1.0  0.8452
  In  In12  1  0.702420  0.878770  0.231590  1.0  0.8349
  In  In13  1  0.764420  0.040890  0.919710  1.0  0.8554
  In  In14  1  0.188430  0.793420  0.996180  1.0  0.8648
  In  In15  1  0.228490  0.881580  0.831440  1.0  0.8459
  In  In16  1  0.812780  0.121230  0.768410  1.0  0.8364
  In  In17  1  0.194690  0.080290  0.040890  1.0  0.8552
  In  In18  1  0.018150  0.003820  0.793420  1.0  0.8645
  In  In19  1  0.889930  0.168560  0.881580  1.0  0.8461
  In  In20  1  0.065990  0.231590  0.121230  1.0  0.8352
  In  In21  1  0.315870  0.919710  0.959110  1.0  0.8552
  In  In22  1  0.815390  0.996180  0.206580  1.0  0.8647
  In  In23  1  0.940070  0.831440  0.118420  1.0  0.8461
  In  In24  1  0.418810  0.768410  0.878770  1.0  0.8356
  In  In25  1  0.485580  0.580290  0.459110  1.0  0.8552
  In  In26  1  0.061570  0.503820  0.706580  1.0  0.8647
  In  In27  1  0.021510  0.668560  0.618420  1.0  0.8459
  In  In28  1  0.437220  0.731590  0.378770  1.0  0.8355
  In  In29  1  0.524980  0.419710  0.540890  1.0  0.8552
  In  In30  1  0.271970  0.496180  0.293420  1.0  0.8645
  In  In31  1  0.308490  0.331440  0.381580  1.0  0.8463
  In  In32  1  0.547580  0.268410  0.621230  1.0  0.8352
  In  In33  1  0.934130  0.540890  0.580290  1.0  0.8552
  In  In34  1  0.434610  0.293420  0.503820  1.0  0.8653
  In  In35  1  0.309930  0.381580  0.668560  1.0  0.8451
  In  In36  1  0.831190  0.621230  0.731590  1.0  0.8349
  In  In37  1  0.055310  0.459110  0.419710  1.0  0.8552
  In  In38  1  0.231850  0.706580  0.496180  1.0  0.8643
  In  In39  1  0.360070  0.618420  0.331440  1.0  0.846
  In  In40  1  0.184010  0.378770  0.268410  1.0  0.8363
  H  H41  1  0.529400  0.925000  0.357400  1.0  -0.0545
  H  H42  1  0.811800  0.075000  0.642600  1.0  -0.0544
  H  H43  1  0.113200  0.357400  0.075000  1.0  -0.0591
  H  H44  1  0.545600  0.642600  0.925000  1.0  -0.0555
  H  H45  1  0.438200  0.857400  0.425000  1.0  -0.0561
  H  H46  1  0.720600  0.142600  0.575000  1.0  -0.0596
  H  H47  1  0.704400  0.575000  0.857400  1.0  -0.0539
  H  H48  1  0.136800  0.425000  0.142600  1.0  -0.0538
  C  C49  1  0.537000  0.885500  0.348500  1.0  -0.1998
  C  C50  1  0.771000  0.114500  0.651500  1.0  -0.2
  C  C51  1  0.114500  0.348500  0.114500  1.0  -0.2002
  C  C52  1  0.577500  0.651500  0.885500  1.0  -0.1992
  C  C53  1  0.479000  0.848500  0.385500  1.0  -0.1993
  C  C54  1  0.713000  0.151500  0.614500  1.0  -0.2002
  C  C55  1  0.672500  0.614500  0.848500  1.0  -0.2013
  C  C56  1  0.135500  0.385500  0.151500  1.0  -0.199
  C  C57  1  0.568000  0.807000  0.307000  1.0  -0.0036
  C  C58  1  0.682000  0.193000  0.693000  1.0  -0.0009
  C  C59  1  0.125000  0.307000  0.193000  1.0  -0.0067
  C  C60  1  0.625000  0.693000  0.807000  1.0  -0.0017
  S  S61  1  0.871200  0.165800  0.087800  1.0  -0.4629
  S  S62  1  0.743300  0.041700  0.127700  1.0  -0.4497
  S  S63  1  0.780100  0.127400  0.963200  1.0  -0.4526
  S  S64  1  0.621600  0.918200  0.159800  1.0  -0.4133
  S  S65  1  0.963500  0.198800  0.211400  1.0  -0.4086
  S  S66  1  0.910900  0.249400  0.924800  1.0  -0.3873
  S  S67  1  0.998000  0.288100  0.045700  1.0  -0.3937
  S  S68  1  0.124800  0.834200  0.912200  1.0  -0.4629
  S  S69  1  0.912700  0.958300  0.872300  1.0  -0.4487
  S  S70  1  0.870700  0.872600  0.036800  1.0  -0.4523
  S  S71  1  0.699600  0.081800  0.840200  1.0  -0.4122
  S  S72  1  0.373700  0.801200  0.788600  1.0  -0.4088
  S  S73  1  0.085100  0.750600  0.075200  1.0  -0.3866
  S  S74  1  0.331800  0.711900  0.954300  1.0  -0.3952
  S  S75  1  0.041000  0.087800  0.834200  1.0  -0.4611
  S  S76  1  0.129000  0.127700  0.958300  1.0  -0.4486
  S  S77  1  0.256700  0.963200  0.872600  1.0  -0.4517
  S  S78  1  0.218600  0.159800  0.081800  1.0  -0.4124
  S  S79  1  0.825100  0.211400  0.801200  1.0  -0.4089
  S  S80  1  0.164300  0.924800  0.750600  1.0  -0.3855
  S  S81  1  0.956300  0.045700  0.711900  1.0  -0.395
  S  S82  1  0.963000  0.912200  0.165800  1.0  -0.4618
  S  S83  1  0.215000  0.872300  0.041700  1.0  -0.4489
  S  S84  1  0.092500  0.036800  0.127400  1.0  -0.4517
  S  S85  1  0.460200  0.840200  0.918200  1.0  -0.4123
  S  S86  1  0.837700  0.788600  0.198800  1.0  -0.4085
  S  S87  1  0.839700  0.075200  0.249400  1.0  -0.385
  S  S88  1  0.713900  0.954300  0.288100  1.0  -0.3944
  S  S89  1  0.125200  0.587800  0.665800  1.0  -0.4617
  S  S90  1  0.337300  0.627700  0.541700  1.0  -0.4489
  S  S91  1  0.379300  0.463200  0.627400  1.0  -0.4515
  S  S92  1  0.550400  0.659800  0.418200  1.0  -0.4121
  S  S93  1  0.876300  0.711400  0.698800  1.0  -0.4087
  S  S94  1  0.164900  0.424800  0.749400  1.0  -0.3903
  S  S95  1  0.918200  0.545700  0.788100  1.0  -0.3949
  S  S96  1  0.378800  0.412200  0.334200  1.0  -0.4613
  S  S97  1  0.506700  0.372300  0.458300  1.0  -0.4487
  S  S98  1  0.469900  0.536800  0.372600  1.0  -0.4517
  S  S99  1  0.628400  0.340200  0.581800  1.0  -0.4127
  S  S100  1  0.286500  0.288600  0.301200  1.0  -0.4089
  S  S101  1  0.339100  0.575200  0.250600  1.0  -0.3903
  S  S102  1  0.252000  0.454300  0.211900  1.0  -0.3945
  S  S103  1  0.287000  0.334200  0.587800  1.0  -0.4622
  S  S104  1  0.035000  0.458300  0.627700  1.0  -0.4492
  S  S105  1  0.157500  0.372600  0.463200  1.0  -0.4524
  S  S106  1  0.789800  0.581800  0.659800  1.0  -0.4133
  S  S107  1  0.412300  0.301200  0.711400  1.0  -0.4085
  S  S108  1  0.410300  0.250600  0.424800  1.0  -0.3912
  S  S109  1  0.536100  0.211900  0.545700  1.0  -0.3947
  S  S110  1  0.209000  0.665800  0.412200  1.0  -0.4636
  S  S111  1  0.121000  0.541700  0.372300  1.0  -0.4493
  S  S112  1  0.993300  0.627400  0.536800  1.0  -0.4526
  S  S113  1  0.031400  0.418200  0.340200  1.0  -0.4123
  S  S114  1  0.424900  0.698800  0.288600  1.0  -0.4084
  S  S115  1  0.085700  0.749400  0.575200  1.0  -0.3912
  S  S116  1  0.293700  0.788100  0.454300  1.0  -0.3944
  S  S117  1  0.000000  0.000000  0.000000  1.0  0.4959
  S  S118  1  0.250000  0.500000  0.500000  1.0  0.4955
  S  S119  1  0.659200  0.000000  0.000000  1.0  -0.367
  S  S120  1  0.340800  0.000000  0.000000  1.0  -0.3675
  S  S121  1  0.590800  0.500000  0.500000  1.0  -0.3675
  S  S122  1  0.909200  0.500000  0.500000  1.0  -0.367
  N  N123  1  0.599300  0.852800  0.300600  1.0  -0.5762
  N  N124  1  0.752700  0.147200  0.699400  1.0  -0.5671
  N  N125  1  0.100100  0.300600  0.147200  1.0  -0.5749
  N  N126  1  0.547900  0.699400  0.852800  1.0  -0.5752
  N  N127  1  0.497300  0.800600  0.352800  1.0  -0.5753
  N  N128  1  0.650700  0.199400  0.647200  1.0  -0.5752
  N  N129  1  0.702100  0.647200  0.800600  1.0  -0.5765
  N  N130  1  0.149900  0.352800  0.199400  1.0  -0.5669
