# generated using pymatgen
data_In5H9C9(S4N)2
_symmetry_space_group_name_H-M   'P 1'
_cell_length_a   22.48350000
_cell_length_b   22.52200000
_cell_length_c   34.48410000
_cell_angle_alpha   90.00000000
_cell_angle_beta   90.00000000
_cell_angle_gamma   90.00000000
_symmetry_Int_Tables_number   1
_chemical_formula_structural   In5H9C9(S4N)2
_chemical_formula_sum   'In80 H144 C144 S128 N32'
_cell_volume   17461.83051465
_cell_formula_units_Z   16
loop_
 _symmetry_equiv_pos_site_id
 _symmetry_equiv_pos_as_xyz
  1  'x, y, z'
loop_
 _atom_site_type_symbol
 _atom_site_label
 _atom_site_symmetry_multiplicity
 _atom_site_fract_x
 _atom_site_fract_y
 _atom_site_fract_z
 _atom_site_occupancy
 _atom_site_charge
  In  In1  1  0.521230  0.546180  0.840990  1.0  0.8889
  In  In2  1  0.573120  0.402890  0.884720  1.0  0.9595
  In  In3  1  0.657410  0.483280  0.793520  1.0  0.9385
  In  In4  1  0.657680  0.564810  0.900260  1.0  0.9228
  In  In5  1  0.645460  0.272120  0.930450  1.0  0.9015
  In  In6  1  0.726320  0.331760  0.842980  1.0  0.9189
  In  In7  1  0.725610  0.413380  0.949010  1.0  0.9525
  In  In8  1  0.800280  0.411420  0.763250  1.0  0.9047
  In  In9  1  0.810280  0.491900  0.857800  1.0  1.0184
  In  In10  1  0.799800  0.561680  0.955920  1.0  1.0052
  In  In11  1  0.478770  0.953820  0.340990  1.0  0.8902
  In  In12  1  0.426880  0.097110  0.384720  1.0  0.9574
  In  In13  1  0.342590  0.016720  0.293520  1.0  0.939
  In  In14  1  0.342320  0.935190  0.400260  1.0  0.9221
  In  In15  1  0.354540  0.227880  0.430450  1.0  0.9025
  In  In16  1  0.273680  0.168240  0.342980  1.0  0.9188
  In  In17  1  0.274390  0.086620  0.449010  1.0  0.9523
  In  In18  1  0.199720  0.088580  0.263250  1.0  0.9041
  In  In19  1  0.189720  0.008100  0.357800  1.0  1.0175
  In  In20  1  0.200200  0.938320  0.455920  1.0  1.0044
  In  In21  1  0.021230  0.453820  0.659010  1.0  0.8881
  In  In22  1  0.073120  0.597110  0.615280  1.0  0.9591
  In  In23  1  0.157410  0.516720  0.706480  1.0  0.9393
  In  In24  1  0.157680  0.435190  0.599740  1.0  0.9236
  In  In25  1  0.145460  0.727880  0.569550  1.0  0.9036
  In  In26  1  0.226320  0.668240  0.657020  1.0  0.9185
  In  In27  1  0.225610  0.586620  0.550990  1.0  0.9514
  In  In28  1  0.300280  0.588580  0.736750  1.0  0.9038
  In  In29  1  0.310280  0.508100  0.642200  1.0  1.0187
  In  In30  1  0.299800  0.438320  0.544080  1.0  1.0052
  In  In31  1  0.978770  0.046180  0.159010  1.0  0.89
  In  In32  1  0.926880  0.902890  0.115280  1.0  0.9578
  In  In33  1  0.842590  0.983280  0.206480  1.0  0.9387
  In  In34  1  0.842320  0.064810  0.099740  1.0  0.9219
  In  In35  1  0.854540  0.772120  0.069550  1.0  0.9021
  In  In36  1  0.773680  0.831760  0.157020  1.0  0.9184
  In  In37  1  0.774390  0.913380  0.050990  1.0  0.9516
  In  In38  1  0.699720  0.911420  0.236750  1.0  0.9028
  In  In39  1  0.689720  0.991900  0.142200  1.0  1.0175
  In  In40  1  0.700200  0.061680  0.044080  1.0  1.0058
  In  In41  1  0.478770  0.453820  0.159010  1.0  0.8898
  In  In42  1  0.426880  0.597110  0.115280  1.0  0.9574
  In  In43  1  0.342590  0.516720  0.206480  1.0  0.9393
  In  In44  1  0.342320  0.435190  0.099740  1.0  0.9224
  In  In45  1  0.354540  0.727880  0.069550  1.0  0.9033
  In  In46  1  0.273680  0.668240  0.157020  1.0  0.9183
  In  In47  1  0.274390  0.586620  0.050990  1.0  0.9514
  In  In48  1  0.199720  0.588580  0.236750  1.0  0.9031
  In  In49  1  0.189720  0.508100  0.142200  1.0  1.0177
  In  In50  1  0.200200  0.438320  0.044080  1.0  1.0052
  In  In51  1  0.521230  0.046180  0.659010  1.0  0.8886
  In  In52  1  0.573120  0.902890  0.615280  1.0  0.9594
  In  In53  1  0.657410  0.983280  0.706480  1.0  0.9387
  In  In54  1  0.657680  0.064810  0.599740  1.0  0.9231
  In  In55  1  0.645460  0.772120  0.569550  1.0  0.9024
  In  In56  1  0.726320  0.831760  0.657020  1.0  0.9185
  In  In57  1  0.725610  0.913380  0.550990  1.0  0.9516
  In  In58  1  0.800280  0.911420  0.736750  1.0  0.9038
  In  In59  1  0.810280  0.991900  0.642200  1.0  1.0185
  In  In60  1  0.799800  0.061680  0.544080  1.0  1.0059
  In  In61  1  0.978770  0.546180  0.340990  1.0  0.8903
  In  In62  1  0.926880  0.402890  0.384720  1.0  0.9578
  In  In63  1  0.842590  0.483280  0.293520  1.0  0.9385
  In  In64  1  0.842320  0.564810  0.400260  1.0  0.9215
  In  In65  1  0.854540  0.272120  0.430450  1.0  0.9012
  In  In66  1  0.773680  0.331760  0.342980  1.0  0.9188
  In  In67  1  0.774390  0.413380  0.449010  1.0  0.9525
  In  In68  1  0.699720  0.411420  0.263250  1.0  0.9039
  In  In69  1  0.689720  0.491900  0.357800  1.0  1.0174
  In  In70  1  0.700200  0.561680  0.455920  1.0  1.0048
  In  In71  1  0.021230  0.953820  0.840990  1.0  0.8885
  In  In72  1  0.073120  0.097110  0.884720  1.0  0.9591
  In  In73  1  0.157410  0.016720  0.793520  1.0  0.9391
  In  In74  1  0.157680  0.935190  0.900260  1.0  0.9233
  In  In75  1  0.145460  0.227880  0.930450  1.0  0.9027
  In  In76  1  0.226320  0.168240  0.842980  1.0  0.919
  In  In77  1  0.225610  0.086620  0.949010  1.0  0.9523
  In  In78  1  0.300280  0.088580  0.763250  1.0  0.9048
  In  In79  1  0.310280  0.008100  0.857800  1.0  1.0186
  In  In80  1  0.299800  0.938320  0.955920  1.0  1.0047
  H  H81  1  0.420800  0.543400  0.776700  1.0  -0.0049
  H  H82  1  0.448900  0.669100  0.888400  1.0  0.0101
  H  H83  1  0.280800  0.692900  0.809500  1.0  0.0042
  H  H84  1  0.393700  0.731400  0.939400  1.0  0.0206
  H  H85  1  0.342500  0.774200  0.923200  1.0  -1e-04
  H  H86  1  0.410400  0.785800  0.911600  1.0  0.0195
  H  H87  1  0.261200  0.762200  0.893300  1.0  0.0056
  H  H88  1  0.246800  0.772500  0.848400  1.0  0.0201
  H  H89  1  0.298100  0.810300  0.869000  1.0  0.0182
  H  H90  1  0.691600  0.192600  0.002900  1.0  0.0013
  H  H91  1  0.537100  0.170000  0.910100  1.0  0.0156
  H  H92  1  0.594300  0.008000  0.986900  1.0  -0.0026
  H  H93  1  0.479200  0.962100  0.942100  1.0  0.0244
  H  H94  1  0.546800  0.941600  0.936300  1.0  0.0207
  H  H95  1  0.511600  0.972400  0.901300  1.0  -0.0386
  H  H96  1  0.472400  0.033200  0.879800  1.0  -0.0072
  H  H97  1  0.473200  0.102600  0.869900  1.0  0.0181
  H  H98  1  0.432400  0.078200  0.904400  1.0  0.0273
  H  H99  1  0.579200  0.956600  0.276700  1.0  -0.0041
  H  H100  1  0.551100  0.830900  0.388400  1.0  0.0105
  H  H101  1  0.719200  0.807100  0.309500  1.0  0.0041
  H  H102  1  0.606300  0.768600  0.439400  1.0  0.0205
  H  H103  1  0.657500  0.725800  0.423200  1.0  1e-04
  H  H104  1  0.589600  0.714200  0.411600  1.0  0.0188
  H  H105  1  0.738800  0.737800  0.393300  1.0  0.0057
  H  H106  1  0.753200  0.727500  0.348400  1.0  0.0224
  H  H107  1  0.701900  0.689700  0.369000  1.0  0.0184
  H  H108  1  0.308400  0.307400  0.502900  1.0  -0.0003
  H  H109  1  0.462900  0.330000  0.410100  1.0  0.0148
  H  H110  1  0.405700  0.492000  0.486900  1.0  -0.0009
  H  H111  1  0.520800  0.537900  0.442100  1.0  0.0235
  H  H112  1  0.453200  0.558400  0.436300  1.0  0.0201
  H  H113  1  0.488400  0.527600  0.401300  1.0  -0.0387
  H  H114  1  0.527600  0.466800  0.379800  1.0  -0.006
  H  H115  1  0.526800  0.397400  0.369900  1.0  0.0195
  H  H116  1  0.567600  0.421800  0.404400  1.0  0.0287
  H  H117  1  0.920800  0.456600  0.723300  1.0  -0.0029
  H  H118  1  0.948900  0.330900  0.611600  1.0  0.0107
  H  H119  1  0.780800  0.307100  0.690500  1.0  0.0036
  H  H120  1  0.893700  0.268600  0.560600  1.0  0.0202
  H  H121  1  0.842500  0.225800  0.576800  1.0  0.0011
  H  H122  1  0.910400  0.214200  0.588400  1.0  0.019
  H  H123  1  0.761200  0.237800  0.606700  1.0  0.0044
  H  H124  1  0.746800  0.227500  0.651600  1.0  0.0209
  H  H125  1  0.798100  0.189700  0.631000  1.0  0.0173
  H  H126  1  0.191600  0.807400  0.497100  1.0  0.0004
  H  H127  1  0.037100  0.830000  0.589900  1.0  0.0148
  H  H128  1  0.094300  0.992000  0.513100  1.0  -0.002
  H  H129  1  0.979200  0.037900  0.557900  1.0  0.0257
  H  H130  1  0.046800  0.058400  0.563700  1.0  0.0214
  H  H131  1  0.011600  0.027600  0.598700  1.0  -0.0361
  H  H132  1  0.972400  0.966800  0.620200  1.0  -0.0055
  H  H133  1  0.973200  0.897400  0.630100  1.0  0.0206
  H  H134  1  0.932400  0.921800  0.595600  1.0  0.0286
  H  H135  1  0.079200  0.043400  0.223300  1.0  -0.003
  H  H136  1  0.051100  0.169100  0.111600  1.0  0.0106
  H  H137  1  0.219200  0.192900  0.190500  1.0  0.0034
  H  H138  1  0.106300  0.231400  0.060600  1.0  0.019
  H  H139  1  0.157500  0.274200  0.076800  1.0  0.0004
  H  H140  1  0.089600  0.285800  0.088400  1.0  0.0189
  H  H141  1  0.238800  0.262200  0.106700  1.0  0.0049
  H  H142  1  0.253200  0.272500  0.151600  1.0  0.0223
  H  H143  1  0.201900  0.310300  0.131000  1.0  0.018
  H  H144  1  0.808400  0.692600  0.997100  1.0  0.0005
  H  H145  1  0.962900  0.670000  0.089900  1.0  0.0151
  H  H146  1  0.905700  0.508000  0.013100  1.0  -0.0021
  H  H147  1  0.020800  0.462100  0.057900  1.0  0.0247
  H  H148  1  0.953200  0.441600  0.063700  1.0  0.0202
  H  H149  1  0.988400  0.472400  0.098700  1.0  -0.0373
  H  H150  1  0.027600  0.533200  0.120200  1.0  -0.0054
  H  H151  1  0.026800  0.602600  0.130100  1.0  0.02
  H  H152  1  0.067600  0.578200  0.095600  1.0  0.0289
  H  H153  1  0.579200  0.456600  0.223300  1.0  -0.0028
  H  H154  1  0.551100  0.330900  0.111600  1.0  0.0108
  H  H155  1  0.719200  0.307100  0.190500  1.0  0.0035
  H  H156  1  0.606300  0.268600  0.060600  1.0  0.0194
  H  H157  1  0.657500  0.225800  0.076800  1.0  0.0008
  H  H158  1  0.589600  0.214200  0.088400  1.0  0.0187
  H  H159  1  0.738800  0.237800  0.106700  1.0  0.005
  H  H160  1  0.753200  0.227500  0.151600  1.0  0.0223
  H  H161  1  0.701900  0.189700  0.131000  1.0  0.0185
  H  H162  1  0.308400  0.807400  0.997100  1.0  0.0
  H  H163  1  0.462900  0.830000  0.089900  1.0  0.0146
  H  H164  1  0.405700  0.992000  0.013100  1.0  -0.0008
  H  H165  1  0.520800  0.037900  0.057900  1.0  0.0248
  H  H166  1  0.453200  0.058400  0.063700  1.0  0.0207
  H  H167  1  0.488400  0.027600  0.098700  1.0  -0.0365
  H  H168  1  0.527600  0.966800  0.120200  1.0  -0.0051
  H  H169  1  0.526800  0.897400  0.130100  1.0  0.0207
  H  H170  1  0.567600  0.921800  0.095600  1.0  0.0285
  H  H171  1  0.420800  0.043400  0.723300  1.0  -0.0034
  H  H172  1  0.448900  0.169100  0.611600  1.0  0.0105
  H  H173  1  0.280800  0.192900  0.690500  1.0  0.0035
  H  H174  1  0.393700  0.231400  0.560600  1.0  0.0199
  H  H175  1  0.342500  0.274200  0.576800  1.0  0.0007
  H  H176  1  0.410400  0.285800  0.588400  1.0  0.0192
  H  H177  1  0.261200  0.262200  0.606700  1.0  0.0045
  H  H178  1  0.246800  0.272500  0.651600  1.0  0.0209
  H  H179  1  0.298100  0.310300  0.631000  1.0  0.0174
  H  H180  1  0.691600  0.692600  0.497100  1.0  0.0012
  H  H181  1  0.537100  0.670000  0.589900  1.0  0.0154
  H  H182  1  0.594300  0.508000  0.513100  1.0  -0.0024
  H  H183  1  0.479200  0.462100  0.557900  1.0  0.0255
  H  H184  1  0.546800  0.441600  0.563700  1.0  0.0213
  H  H185  1  0.511600  0.472400  0.598700  1.0  -0.0368
  H  H186  1  0.472400  0.533200  0.620200  1.0  -0.0059
  H  H187  1  0.473200  0.602600  0.630100  1.0  0.0197
  H  H188  1  0.432400  0.578200  0.595600  1.0  0.0278
  H  H189  1  0.079200  0.543400  0.276700  1.0  -0.0047
  H  H190  1  0.051100  0.669100  0.388400  1.0  0.0106
  H  H191  1  0.219200  0.692900  0.309500  1.0  0.0041
  H  H192  1  0.106300  0.731400  0.439400  1.0  0.0206
  H  H193  1  0.157500  0.774200  0.423200  1.0  -0.0007
  H  H194  1  0.089600  0.785800  0.411600  1.0  0.0191
  H  H195  1  0.238800  0.762200  0.393300  1.0  0.0054
  H  H196  1  0.253200  0.772500  0.348400  1.0  0.0226
  H  H197  1  0.201900  0.810300  0.369000  1.0  0.0189
  H  H198  1  0.808400  0.192600  0.502900  1.0  0.0004
  H  H199  1  0.962900  0.170000  0.410100  1.0  0.0152
  H  H200  1  0.905700  0.008000  0.486900  1.0  -0.0014
  H  H201  1  0.020800  0.962100  0.442100  1.0  0.0237
  H  H202  1  0.953200  0.941600  0.436300  1.0  0.0199
  H  H203  1  0.988400  0.972400  0.401300  1.0  -0.0388
  H  H204  1  0.027600  0.033200  0.379800  1.0  -0.007
  H  H205  1  0.026800  0.102600  0.369900  1.0  0.0183
  H  H206  1  0.067600  0.078200  0.404400  1.0  0.0289
  H  H207  1  0.920800  0.956600  0.776700  1.0  -0.0042
  H  H208  1  0.948900  0.830900  0.888400  1.0  0.0101
  H  H209  1  0.780800  0.807100  0.809500  1.0  0.0041
  H  H210  1  0.893700  0.768600  0.939400  1.0  0.0207
  H  H211  1  0.842500  0.725800  0.923200  1.0  0.0008
  H  H212  1  0.910400  0.714200  0.911600  1.0  0.0193
  H  H213  1  0.761200  0.737800  0.893300  1.0  0.0057
  H  H214  1  0.746800  0.727500  0.848400  1.0  0.0202
  H  H215  1  0.798100  0.689700  0.869000  1.0  0.0174
  H  H216  1  0.191600  0.307400  0.002900  1.0  0.0005
  H  H217  1  0.037100  0.330000  0.910100  1.0  0.0149
  H  H218  1  0.094300  0.492000  0.986900  1.0  -0.0024
  H  H219  1  0.979200  0.537900  0.942100  1.0  0.0244
  H  H220  1  0.046800  0.558400  0.936300  1.0  0.0206
  H  H221  1  0.011600  0.527600  0.901300  1.0  -0.0381
  H  H222  1  0.972400  0.466800  0.879800  1.0  -0.0064
  H  H223  1  0.973200  0.397400  0.869900  1.0  0.0196
  H  H224  1  0.932400  0.421800  0.904400  1.0  0.0284
  C  C225  1  0.407900  0.574500  0.793400  1.0  0.1299
  C  C226  1  0.404200  0.635800  0.839800  1.0  -0.0925
  C  C227  1  0.414200  0.673300  0.872900  1.0  -0.1844
  C  C228  1  0.373100  0.714400  0.881300  1.0  -0.0889
  C  C229  1  0.323200  0.724600  0.857300  1.0  -0.0289
  C  C230  1  0.314900  0.687700  0.825400  1.0  -0.1666
  C  C231  1  0.355600  0.643300  0.816500  1.0  0.071
  C  C232  1  0.380600  0.755200  0.917200  1.0  -0.4711
  C  C233  1  0.278400  0.771500  0.867900  1.0  -0.4684
  C  C234  1  0.662500  0.168900  0.990200  1.0  0.1303
  C  C235  1  0.596500  0.141100  0.951600  1.0  0.0699
  C  C236  1  0.549700  0.136500  0.924600  1.0  -0.1934
  C  C237  1  0.522800  0.082300  0.919900  1.0  -0.0771
  C  C238  1  0.539100  0.034400  0.943700  1.0  -0.062
  C  C239  1  0.583000  0.040600  0.971100  1.0  -0.2262
  C  C240  1  0.609400  0.093600  0.975100  1.0  0.0474
  C  C241  1  0.517000  0.971700  0.930000  1.0  -0.3886
  C  C242  1  0.470000  0.073000  0.890800  1.0  -0.4486
  C  C243  1  0.592100  0.925500  0.293400  1.0  0.1294
  C  C244  1  0.595800  0.864200  0.339800  1.0  -0.092
  C  C245  1  0.585800  0.826700  0.372900  1.0  -0.1843
  C  C246  1  0.626900  0.785600  0.381300  1.0  -0.0887
  C  C247  1  0.676800  0.775400  0.357300  1.0  -0.0278
  C  C248  1  0.685100  0.812300  0.325400  1.0  -0.1647
  C  C249  1  0.644400  0.856700  0.316500  1.0  0.0706
  C  C250  1  0.619400  0.744800  0.417200  1.0  -0.4717
  C  C251  1  0.721600  0.728500  0.367900  1.0  -0.4664
  C  C252  1  0.337500  0.331100  0.490200  1.0  0.1309
  C  C253  1  0.403500  0.358900  0.451600  1.0  0.0706
  C  C254  1  0.450300  0.363500  0.424600  1.0  -0.1924
  C  C255  1  0.477200  0.417700  0.419900  1.0  -0.0773
  C  C256  1  0.460900  0.465600  0.443700  1.0  -0.0621
  C  C257  1  0.417000  0.459400  0.471100  1.0  -0.2274
  C  C258  1  0.390600  0.406400  0.475100  1.0  0.0479
  C  C259  1  0.483000  0.528300  0.430000  1.0  -0.3889
  C  C260  1  0.530000  0.427000  0.390800  1.0  -0.4527
  C  C261  1  0.907900  0.425500  0.706600  1.0  0.1304
  C  C262  1  0.904200  0.364200  0.660200  1.0  -0.0932
  C  C263  1  0.914200  0.326700  0.627100  1.0  -0.1838
  C  C264  1  0.873100  0.285600  0.618700  1.0  -0.0894
  C  C265  1  0.823200  0.275400  0.642700  1.0  -0.0289
  C  C266  1  0.814900  0.312300  0.674600  1.0  -0.1677
  C  C267  1  0.855600  0.356700  0.683500  1.0  0.0706
  C  C268  1  0.880600  0.244800  0.582800  1.0  -0.472
  C  C269  1  0.778400  0.228500  0.632100  1.0  -0.4677
  C  C270  1  0.162500  0.831100  0.509800  1.0  0.1305
  C  C271  1  0.096500  0.858900  0.548400  1.0  0.0702
  C  C272  1  0.049700  0.863500  0.575400  1.0  -0.1936
  C  C273  1  0.022800  0.917700  0.580100  1.0  -0.0762
  C  C274  1  0.039100  0.965600  0.556300  1.0  -0.0626
  C  C275  1  0.083000  0.959400  0.528900  1.0  -0.2283
  C  C276  1  0.109400  0.906400  0.524900  1.0  0.0467
  C  C277  1  0.017000  0.028300  0.570000  1.0  -0.3897
  C  C278  1  0.970000  0.927000  0.609200  1.0  -0.4513
  C  C279  1  0.092100  0.074500  0.206600  1.0  0.1316
  C  C280  1  0.095800  0.135800  0.160200  1.0  -0.0935
  C  C281  1  0.085800  0.173300  0.127100  1.0  -0.1841
  C  C282  1  0.126900  0.214400  0.118700  1.0  -0.0898
  C  C283  1  0.176800  0.224600  0.142700  1.0  -0.0279
  C  C284  1  0.185100  0.187700  0.174600  1.0  -0.1658
  C  C285  1  0.144400  0.143300  0.183500  1.0  0.0707
  C  C286  1  0.119400  0.255200  0.082800  1.0  -0.4724
  C  C287  1  0.221600  0.271500  0.132100  1.0  -0.4673
  C  C288  1  0.837500  0.668900  0.009800  1.0  0.131
  C  C289  1  0.903500  0.641100  0.048400  1.0  0.0701
  C  C290  1  0.950300  0.636500  0.075400  1.0  -0.193
  C  C291  1  0.977200  0.582300  0.080100  1.0  -0.0757
  C  C292  1  0.960900  0.534400  0.056300  1.0  -0.062
  C  C293  1  0.917000  0.540600  0.028900  1.0  -0.2277
  C  C294  1  0.890600  0.593600  0.024900  1.0  0.0468
  C  C295  1  0.983000  0.471700  0.070000  1.0  -0.3898
  C  C296  1  0.030000  0.573000  0.109200  1.0  -0.4503
  C  C297  1  0.592100  0.425500  0.206600  1.0  0.1298
  C  C298  1  0.595800  0.364200  0.160200  1.0  -0.0927
  C  C299  1  0.585800  0.326700  0.127100  1.0  -0.1832
  C  C300  1  0.626900  0.285600  0.118700  1.0  -0.0892
  C  C301  1  0.676800  0.275400  0.142700  1.0  -0.0278
  C  C302  1  0.685100  0.312300  0.174600  1.0  -0.1653
  C  C303  1  0.644400  0.356700  0.183500  1.0  0.0706
  C  C304  1  0.619400  0.244800  0.082800  1.0  -0.4719
  C  C305  1  0.721600  0.228500  0.132100  1.0  -0.4662
  C  C306  1  0.337500  0.831100  0.009800  1.0  0.1312
  C  C307  1  0.403500  0.858900  0.048400  1.0  0.071
  C  C308  1  0.450300  0.863500  0.075400  1.0  -0.1929
  C  C309  1  0.477200  0.917700  0.080100  1.0  -0.076
  C  C310  1  0.460900  0.965600  0.056300  1.0  -0.0626
  C  C311  1  0.417000  0.959400  0.028900  1.0  -0.2276
  C  C312  1  0.390600  0.906400  0.024900  1.0  0.047
  C  C313  1  0.483000  0.028300  0.070000  1.0  -0.3896
  C  C314  1  0.530000  0.927000  0.109200  1.0  -0.4523
  C  C315  1  0.407900  0.074500  0.706600  1.0  0.1317
  C  C316  1  0.404200  0.135800  0.660200  1.0  -0.093
  C  C317  1  0.414200  0.173300  0.627100  1.0  -0.1843
  C  C318  1  0.373100  0.214400  0.618700  1.0  -0.0898
  C  C319  1  0.323200  0.224600  0.642700  1.0  -0.0291
  C  C320  1  0.314900  0.187700  0.674600  1.0  -0.1677
  C  C321  1  0.355600  0.143300  0.683500  1.0  0.0706
  C  C322  1  0.380600  0.255200  0.582800  1.0  -0.4724
  C  C323  1  0.278400  0.271500  0.632100  1.0  -0.4682
  C  C324  1  0.662500  0.668900  0.509800  1.0  0.1305
  C  C325  1  0.596500  0.641100  0.548400  1.0  0.0693
  C  C326  1  0.549700  0.636500  0.575400  1.0  -0.1942
  C  C327  1  0.522800  0.582300  0.580100  1.0  -0.076
  C  C328  1  0.539100  0.534400  0.556300  1.0  -0.0621
  C  C329  1  0.583000  0.540600  0.528900  1.0  -0.2275
  C  C330  1  0.609400  0.593600  0.524900  1.0  0.0468
  C  C331  1  0.517000  0.471700  0.570000  1.0  -0.3892
  C  C332  1  0.470000  0.573000  0.609200  1.0  -0.4503
  C  C333  1  0.092100  0.574500  0.293400  1.0  0.1304
  C  C334  1  0.095800  0.635800  0.339800  1.0  -0.0926
  C  C335  1  0.085800  0.673300  0.372900  1.0  -0.1845
  C  C336  1  0.126900  0.714400  0.381300  1.0  -0.0891
  C  C337  1  0.176800  0.724600  0.357300  1.0  -0.0287
  C  C338  1  0.185100  0.687700  0.325400  1.0  -0.1653
  C  C339  1  0.144400  0.643300  0.316500  1.0  0.0709
  C  C340  1  0.119400  0.755200  0.417200  1.0  -0.4715
  C  C341  1  0.221600  0.771500  0.367900  1.0  -0.4682
  C  C342  1  0.837500  0.168900  0.490200  1.0  0.1305
  C  C343  1  0.903500  0.141100  0.451600  1.0  0.0706
  C  C344  1  0.950300  0.136500  0.424600  1.0  -0.1926
  C  C345  1  0.977200  0.082300  0.419900  1.0  -0.0772
  C  C346  1  0.960900  0.034400  0.443700  1.0  -0.0614
  C  C347  1  0.917000  0.040600  0.471100  1.0  -0.2267
  C  C348  1  0.890600  0.093600  0.475100  1.0  0.0476
  C  C349  1  0.983000  0.971700  0.430000  1.0  -0.3895
  C  C350  1  0.030000  0.073000  0.390800  1.0  -0.4501
  C  C351  1  0.907900  0.925500  0.793400  1.0  0.1296
  C  C352  1  0.904200  0.864200  0.839800  1.0  -0.0928
  C  C353  1  0.914200  0.826700  0.872900  1.0  -0.1843
  C  C354  1  0.873100  0.785600  0.881300  1.0  -0.0886
  C  C355  1  0.823200  0.775400  0.857300  1.0  -0.0278
  C  C356  1  0.814900  0.812300  0.825400  1.0  -0.1663
  C  C357  1  0.855600  0.856700  0.816500  1.0  0.071
  C  C358  1  0.880600  0.744800  0.917200  1.0  -0.4715
  C  C359  1  0.778400  0.728500  0.867900  1.0  -0.4676
  C  C360  1  0.162500  0.331100  0.990200  1.0  0.1306
  C  C361  1  0.096500  0.358900  0.951600  1.0  0.0699
  C  C362  1  0.049700  0.363500  0.924600  1.0  -0.1924
  C  C363  1  0.022800  0.417700  0.919900  1.0  -0.0773
  C  C364  1  0.039100  0.465600  0.943700  1.0  -0.0624
  C  C365  1  0.083000  0.459400  0.971100  1.0  -0.2278
  C  C366  1  0.109400  0.406400  0.975100  1.0  0.0474
  C  C367  1  0.017000  0.528300  0.930000  1.0  -0.3884
  C  C368  1  0.970000  0.427000  0.890800  1.0  -0.4508
  S  S369  1  0.482920  0.453100  0.866970  1.0  -0.3238
  S  S370  1  0.566900  0.535000  0.777530  1.0  -0.3207
  S  S371  1  0.567200  0.616100  0.884480  1.0  -0.2987
  S  S372  1  0.548100  0.309900  0.915450  1.0  -0.3276
  S  S373  1  0.632280  0.385330  0.824530  1.0  -0.341
  S  S374  1  0.632200  0.466020  0.930350  1.0  -0.325
  S  S375  1  0.715800  0.463800  0.736310  1.0  -0.3151
  S  S376  1  0.716110  0.545520  0.839950  1.0  -0.3387
  S  S377  1  0.711800  0.622500  0.947320  1.0  -0.3077
  S  S378  1  0.697900  0.238860  0.872530  1.0  -0.3294
  S  S379  1  0.703000  0.320100  0.980120  1.0  -0.296
  S  S380  1  0.783200  0.311200  0.785520  1.0  -0.3234
  S  S381  1  0.785130  0.394310  0.888770  1.0  -0.234
  S  S382  1  0.785900  0.470800  0.992270  1.0  -0.331
  S  S383  1  0.869410  0.470100  0.801450  1.0  -0.2966
  S  S384  1  0.863200  0.558800  0.899540  1.0  -0.3644
  S  S385  1  0.517080  0.046900  0.366970  1.0  -0.3242
  S  S386  1  0.433100  0.965000  0.277530  1.0  -0.3208
  S  S387  1  0.432800  0.883900  0.384480  1.0  -0.3007
  S  S388  1  0.451900  0.190100  0.415450  1.0  -0.3285
  S  S389  1  0.367720  0.114670  0.324530  1.0  -0.3409
  S  S390  1  0.367800  0.033980  0.430350  1.0  -0.3252
  S  S391  1  0.284200  0.036200  0.236310  1.0  -0.3144
  S  S392  1  0.283890  0.954480  0.339950  1.0  -0.3389
  S  S393  1  0.288200  0.877500  0.447320  1.0  -0.3059
  S  S394  1  0.302100  0.261140  0.372530  1.0  -0.33
  S  S395  1  0.297000  0.179900  0.480120  1.0  -0.2959
  S  S396  1  0.216800  0.188800  0.285520  1.0  -0.3231
  S  S397  1  0.214870  0.105690  0.388770  1.0  -0.2349
  S  S398  1  0.214100  0.029200  0.492270  1.0  -0.3292
  S  S399  1  0.130590  0.029900  0.301450  1.0  -0.2977
  S  S400  1  0.136800  0.941200  0.399540  1.0  -0.365
  S  S401  1  0.982920  0.546900  0.633030  1.0  -0.3245
  S  S402  1  0.066900  0.465000  0.722470  1.0  -0.3201
  S  S403  1  0.067200  0.383900  0.615520  1.0  -0.2997
  S  S404  1  0.048100  0.690100  0.584550  1.0  -0.3278
  S  S405  1  0.132280  0.614670  0.675470  1.0  -0.3407
  S  S406  1  0.132200  0.533980  0.569650  1.0  -0.326
  S  S407  1  0.215800  0.536200  0.763690  1.0  -0.3151
  S  S408  1  0.216110  0.454480  0.660050  1.0  -0.34
  S  S409  1  0.211800  0.377500  0.552680  1.0  -0.3086
  S  S410  1  0.197900  0.761140  0.627470  1.0  -0.3301
  S  S411  1  0.203000  0.679900  0.519880  1.0  -0.2951
  S  S412  1  0.283200  0.688800  0.714480  1.0  -0.3233
  S  S413  1  0.285130  0.605690  0.611230  1.0  -0.2338
  S  S414  1  0.285900  0.529200  0.507730  1.0  -0.3309
  S  S415  1  0.369410  0.529900  0.698550  1.0  -0.2967
  S  S416  1  0.363200  0.441200  0.600460  1.0  -0.3648
  S  S417  1  0.017080  0.953100  0.133030  1.0  -0.3237
  S  S418  1  0.933100  0.035000  0.222470  1.0  -0.3207
  S  S419  1  0.932800  0.116100  0.115520  1.0  -0.3012
  S  S420  1  0.951900  0.809900  0.084550  1.0  -0.3286
  S  S421  1  0.867720  0.885330  0.175470  1.0  -0.341
  S  S422  1  0.867800  0.966020  0.069650  1.0  -0.3259
  S  S423  1  0.784200  0.963800  0.263690  1.0  -0.3145
  S  S424  1  0.783890  0.045520  0.160050  1.0  -0.3398
  S  S425  1  0.788200  0.122500  0.052680  1.0  -0.3077
  S  S426  1  0.802100  0.738860  0.127470  1.0  -0.3293
  S  S427  1  0.797000  0.820100  0.019880  1.0  -0.2951
  S  S428  1  0.716800  0.811200  0.214480  1.0  -0.3233
  S  S429  1  0.714870  0.894310  0.111230  1.0  -0.2343
  S  S430  1  0.714100  0.970800  0.007730  1.0  -0.3304
  S  S431  1  0.630590  0.970100  0.198550  1.0  -0.2971
  S  S432  1  0.636800  0.058800  0.100460  1.0  -0.3648
  S  S433  1  0.517080  0.546900  0.133030  1.0  -0.3241
  S  S434  1  0.433100  0.465000  0.222470  1.0  -0.3204
  S  S435  1  0.432800  0.383900  0.115520  1.0  -0.3013
  S  S436  1  0.451900  0.690100  0.084550  1.0  -0.3286
  S  S437  1  0.367720  0.614670  0.175470  1.0  -0.3406
  S  S438  1  0.367800  0.533980  0.069650  1.0  -0.3262
  S  S439  1  0.284200  0.536200  0.263690  1.0  -0.3145
  S  S440  1  0.283890  0.454480  0.160050  1.0  -0.3402
  S  S441  1  0.288200  0.377500  0.052680  1.0  -0.3075
  S  S442  1  0.302100  0.761140  0.127470  1.0  -0.3302
  S  S443  1  0.297000  0.679900  0.019880  1.0  -0.2955
  S  S444  1  0.216800  0.688800  0.214480  1.0  -0.3231
  S  S445  1  0.214870  0.605690  0.111230  1.0  -0.2344
  S  S446  1  0.214100  0.529200  0.007730  1.0  -0.3294
  S  S447  1  0.130590  0.529900  0.198550  1.0  -0.2976
  S  S448  1  0.136800  0.441200  0.100460  1.0  -0.3651
  S  S449  1  0.482920  0.953100  0.633030  1.0  -0.3243
  S  S450  1  0.566900  0.035000  0.722470  1.0  -0.3203
  S  S451  1  0.567200  0.116100  0.615520  1.0  -0.2996
  S  S452  1  0.548100  0.809900  0.584550  1.0  -0.3277
  S  S453  1  0.632280  0.885330  0.675470  1.0  -0.3411
  S  S454  1  0.632200  0.966020  0.569650  1.0  -0.3257
  S  S455  1  0.715800  0.963800  0.763690  1.0  -0.315
  S  S456  1  0.716110  0.045520  0.660050  1.0  -0.3396
  S  S457  1  0.711800  0.122500  0.552680  1.0  -0.3085
  S  S458  1  0.697900  0.738860  0.627470  1.0  -0.3293
  S  S459  1  0.703000  0.820100  0.519880  1.0  -0.295
  S  S460  1  0.783200  0.811200  0.714480  1.0  -0.3234
  S  S461  1  0.785130  0.894310  0.611230  1.0  -0.2335
  S  S462  1  0.785900  0.970800  0.507730  1.0  -0.3315
  S  S463  1  0.869410  0.970100  0.698550  1.0  -0.2965
  S  S464  1  0.863200  0.058800  0.600460  1.0  -0.3645
  S  S465  1  0.017080  0.453100  0.366970  1.0  -0.3236
  S  S466  1  0.933100  0.535000  0.277530  1.0  -0.3208
  S  S467  1  0.932800  0.616100  0.384480  1.0  -0.3002
  S  S468  1  0.951900  0.309900  0.415450  1.0  -0.3284
  S  S469  1  0.867720  0.385330  0.324530  1.0  -0.341
  S  S470  1  0.867800  0.466020  0.430350  1.0  -0.3249
  S  S471  1  0.784200  0.463800  0.236310  1.0  -0.3142
  S  S472  1  0.783890  0.545520  0.339950  1.0  -0.3389
  S  S473  1  0.788200  0.622500  0.447320  1.0  -0.3061
  S  S474  1  0.802100  0.238860  0.372530  1.0  -0.3294
  S  S475  1  0.797000  0.320100  0.480120  1.0  -0.2958
  S  S476  1  0.716800  0.311200  0.285520  1.0  -0.3233
  S  S477  1  0.714870  0.394310  0.388770  1.0  -0.2348
  S  S478  1  0.714100  0.470800  0.492270  1.0  -0.3296
  S  S479  1  0.630590  0.470100  0.301450  1.0  -0.2972
  S  S480  1  0.636800  0.558800  0.399540  1.0  -0.3645
  S  S481  1  0.982920  0.046900  0.866970  1.0  -0.3242
  S  S482  1  0.066900  0.965000  0.777530  1.0  -0.3208
  S  S483  1  0.067200  0.883900  0.884480  1.0  -0.2992
  S  S484  1  0.048100  0.190100  0.915450  1.0  -0.3278
  S  S485  1  0.132280  0.114670  0.824530  1.0  -0.3408
  S  S486  1  0.132200  0.033980  0.930350  1.0  -0.3252
  S  S487  1  0.215800  0.036200  0.736310  1.0  -0.3152
  S  S488  1  0.216110  0.954480  0.839950  1.0  -0.3388
  S  S489  1  0.211800  0.877500  0.947320  1.0  -0.3075
  S  S490  1  0.197900  0.261140  0.872530  1.0  -0.33
  S  S491  1  0.203000  0.179900  0.980120  1.0  -0.2959
  S  S492  1  0.283200  0.188800  0.785520  1.0  -0.3233
  S  S493  1  0.285130  0.105690  0.888770  1.0  -0.2343
  S  S494  1  0.285900  0.029200  0.992270  1.0  -0.3307
  S  S495  1  0.369410  0.029900  0.801450  1.0  -0.2967
  S  S496  1  0.363200  0.941200  0.899540  1.0  -0.3648
  N  N497  1  0.438700  0.590500  0.824000  1.0  -0.501
  N  N498  1  0.357400  0.604200  0.786900  1.0  -0.5332
  N  N499  1  0.630800  0.189000  0.961000  1.0  -0.5182
  N  N500  1  0.651300  0.113200  0.000900  1.0  -0.4934
  N  N501  1  0.561300  0.909500  0.324000  1.0  -0.5007
  N  N502  1  0.642600  0.895800  0.286900  1.0  -0.5356
  N  N503  1  0.369200  0.311000  0.461000  1.0  -0.5173
  N  N504  1  0.348700  0.386800  0.500900  1.0  -0.4924
  N  N505  1  0.938700  0.409500  0.676000  1.0  -0.5022
  N  N506  1  0.857400  0.395800  0.713100  1.0  -0.5275
  N  N507  1  0.130800  0.811000  0.539000  1.0  -0.5157
  N  N508  1  0.151300  0.886800  0.499100  1.0  -0.493
  N  N509  1  0.061300  0.090500  0.176000  1.0  -0.499
  N  N510  1  0.142600  0.104200  0.213100  1.0  -0.5291
  N  N511  1  0.869200  0.689000  0.039000  1.0  -0.5181
  N  N512  1  0.848700  0.613200  0.999100  1.0  -0.4907
  N  N513  1  0.561300  0.409500  0.176000  1.0  -0.5
  N  N514  1  0.642600  0.395800  0.213100  1.0  -0.5287
  N  N515  1  0.369200  0.811000  0.039000  1.0  -0.5165
  N  N516  1  0.348700  0.886800  0.999100  1.0  -0.4911
  N  N517  1  0.438700  0.090500  0.676000  1.0  -0.5014
  N  N518  1  0.357400  0.104200  0.713100  1.0  -0.5285
  N  N519  1  0.630800  0.689000  0.539000  1.0  -0.5169
  N  N520  1  0.651300  0.613200  0.499100  1.0  -0.4919
  N  N521  1  0.061300  0.590500  0.324000  1.0  -0.4999
  N  N522  1  0.142600  0.604200  0.286900  1.0  -0.5361
  N  N523  1  0.869200  0.189000  0.461000  1.0  -0.5186
  N  N524  1  0.848700  0.113200  0.500900  1.0  -0.4921
  N  N525  1  0.938700  0.909500  0.824000  1.0  -0.5019
  N  N526  1  0.857400  0.895800  0.786900  1.0  -0.5322
  N  N527  1  0.130800  0.311000  0.961000  1.0  -0.5168
  N  N528  1  0.151300  0.386800  0.000900  1.0  -0.4939
