# generated using pymatgen
data_Zr3H28(C20O7)2
_symmetry_space_group_name_H-M   'P 1'
_cell_length_a   16.23260000
_cell_length_b   33.00240000
_cell_length_c   35.75030000
_cell_angle_alpha   90.00000000
_cell_angle_beta   90.00000000
_cell_angle_gamma   90.00000000
_symmetry_Int_Tables_number   1
_chemical_formula_structural   Zr3H28(C20O7)2
_chemical_formula_sum   'Zr24 H224 C320 O112'
_cell_volume   19151.96332151
_cell_formula_units_Z   8
loop_
 _symmetry_equiv_pos_site_id
 _symmetry_equiv_pos_as_xyz
  1  'x, y, z'
loop_
 _atom_site_type_symbol
 _atom_site_label
 _atom_site_symmetry_multiplicity
 _atom_site_fract_x
 _atom_site_fract_y
 _atom_site_fract_z
 _atom_site_occupancy
 _atom_site_charge
  Zr  Zr1  1  0.500000  0.500000  0.431880  1.0  1.8045
  Zr  Zr2  1  0.500000  0.000000  0.931880  1.0  1.8045
  Zr  Zr3  1  0.000000  0.500000  0.931880  1.0  1.8045
  Zr  Zr4  1  0.000000  0.000000  0.431880  1.0  1.8045
  Zr  Zr5  1  0.500000  0.500000  0.568120  1.0  1.8065
  Zr  Zr6  1  0.500000  0.000000  0.068120  1.0  1.8065
  Zr  Zr7  1  0.000000  0.500000  0.068120  1.0  1.8065
  Zr  Zr8  1  0.000000  0.000000  0.568120  1.0  1.8065
  Zr  Zr9  1  0.609530  0.553890  0.500000  1.0  1.8652
  Zr  Zr10  1  0.609530  0.053890  0.000000  1.0  1.8652
  Zr  Zr11  1  0.109530  0.553890  0.000000  1.0  1.8652
  Zr  Zr12  1  0.109530  0.053890  0.500000  1.0  1.8652
  Zr  Zr13  1  0.390470  0.446110  0.500000  1.0  1.8651
  Zr  Zr14  1  0.390470  0.946110  0.000000  1.0  1.8651
  Zr  Zr15  1  0.890470  0.446110  0.000000  1.0  1.8651
  Zr  Zr16  1  0.890470  0.946110  0.500000  1.0  1.8651
  Zr  Zr17  1  0.390470  0.553890  0.500000  1.0  1.8641
  Zr  Zr18  1  0.390470  0.053890  0.000000  1.0  1.8641
  Zr  Zr19  1  0.890470  0.553890  0.000000  1.0  1.8641
  Zr  Zr20  1  0.890470  0.053890  0.500000  1.0  1.8641
  Zr  Zr21  1  0.609530  0.446110  0.500000  1.0  1.8659
  Zr  Zr22  1  0.609530  0.946110  0.000000  1.0  1.8659
  Zr  Zr23  1  0.109530  0.446110  0.000000  1.0  1.8659
  Zr  Zr24  1  0.109530  0.946110  0.500000  1.0  1.8659
  H  H25  1  0.272200  0.366000  0.407100  1.0  0.1093
  H  H26  1  0.406400  0.438100  0.338800  1.0  0.119
  H  H27  1  0.231500  0.327100  0.355500  1.0  0.1169
  H  H28  1  0.364400  0.399800  0.287900  1.0  0.1133
  H  H29  1  0.281800  0.279600  0.304900  1.0  0.1067
  H  H30  1  0.272200  0.866000  0.907100  1.0  0.1093
  H  H31  1  0.406400  0.938100  0.838800  1.0  0.119
  H  H32  1  0.231500  0.827100  0.855500  1.0  0.1169
  H  H33  1  0.364400  0.899800  0.787900  1.0  0.1133
  H  H34  1  0.281800  0.779600  0.804900  1.0  0.1067
  H  H35  1  0.772200  0.366000  0.907100  1.0  0.1093
  H  H36  1  0.906400  0.438100  0.838800  1.0  0.119
  H  H37  1  0.731500  0.327100  0.855500  1.0  0.1169
  H  H38  1  0.864400  0.399800  0.787900  1.0  0.1133
  H  H39  1  0.781800  0.279600  0.804900  1.0  0.1065
  H  H40  1  0.772200  0.866000  0.407100  1.0  0.1093
  H  H41  1  0.906400  0.938100  0.338800  1.0  0.119
  H  H42  1  0.731500  0.827100  0.355500  1.0  0.1169
  H  H43  1  0.864400  0.899800  0.287900  1.0  0.1133
  H  H44  1  0.781800  0.779600  0.304900  1.0  0.1065
  H  H45  1  0.727800  0.634000  0.407100  1.0  0.1091
  H  H46  1  0.593600  0.561900  0.338800  1.0  0.1185
  H  H47  1  0.768500  0.672900  0.355500  1.0  0.1169
  H  H48  1  0.635600  0.600200  0.287900  1.0  0.1128
  H  H49  1  0.718200  0.720400  0.304900  1.0  0.1064
  H  H50  1  0.727800  0.134000  0.907100  1.0  0.1091
  H  H51  1  0.593600  0.061900  0.838800  1.0  0.1185
  H  H52  1  0.768500  0.172900  0.855500  1.0  0.1169
  H  H53  1  0.635600  0.100200  0.787900  1.0  0.1128
  H  H54  1  0.718200  0.220400  0.804900  1.0  0.1064
  H  H55  1  0.227800  0.634000  0.907100  1.0  0.1091
  H  H56  1  0.093600  0.561900  0.838800  1.0  0.1185
  H  H57  1  0.268500  0.672900  0.855500  1.0  0.1169
  H  H58  1  0.135600  0.600200  0.787900  1.0  0.1128
  H  H59  1  0.218200  0.720400  0.804900  1.0  0.1064
  H  H60  1  0.227800  0.134000  0.407100  1.0  0.1091
  H  H61  1  0.093600  0.061900  0.338800  1.0  0.1185
  H  H62  1  0.268500  0.172900  0.355500  1.0  0.1169
  H  H63  1  0.135600  0.100200  0.287900  1.0  0.1128
  H  H64  1  0.218200  0.220400  0.304900  1.0  0.1064
  H  H65  1  0.727800  0.366000  0.592900  1.0  0.1094
  H  H66  1  0.593600  0.438100  0.661200  1.0  0.1191
  H  H67  1  0.768500  0.327100  0.644500  1.0  0.1167
  H  H68  1  0.635600  0.399800  0.712100  1.0  0.1131
  H  H69  1  0.718200  0.279600  0.695100  1.0  0.107
  H  H70  1  0.727800  0.866000  0.092900  1.0  0.1094
  H  H71  1  0.593600  0.938100  0.161200  1.0  0.1191
  H  H72  1  0.768500  0.827100  0.144500  1.0  0.1167
  H  H73  1  0.635600  0.899800  0.212100  1.0  0.1131
  H  H74  1  0.718200  0.779600  0.195100  1.0  0.107
  H  H75  1  0.227800  0.366000  0.092900  1.0  0.1094
  H  H76  1  0.093600  0.438100  0.161200  1.0  0.1191
  H  H77  1  0.268500  0.327100  0.144500  1.0  0.1167
  H  H78  1  0.135600  0.399800  0.212100  1.0  0.1131
  H  H79  1  0.218200  0.279600  0.195100  1.0  0.1071
  H  H80  1  0.227800  0.866000  0.592900  1.0  0.1094
  H  H81  1  0.093600  0.938100  0.661200  1.0  0.1191
  H  H82  1  0.268500  0.827100  0.644500  1.0  0.1167
  H  H83  1  0.135600  0.899800  0.712100  1.0  0.1131
  H  H84  1  0.218200  0.779600  0.695100  1.0  0.1071
  H  H85  1  0.272200  0.634000  0.592900  1.0  0.109
  H  H86  1  0.406400  0.561900  0.661200  1.0  0.1189
  H  H87  1  0.231500  0.672900  0.644500  1.0  0.1169
  H  H88  1  0.364400  0.600200  0.712100  1.0  0.1127
  H  H89  1  0.281800  0.720400  0.695100  1.0  0.1069
  H  H90  1  0.272200  0.134000  0.092900  1.0  0.109
  H  H91  1  0.406400  0.061900  0.161200  1.0  0.1189
  H  H92  1  0.231500  0.172900  0.144500  1.0  0.1169
  H  H93  1  0.364400  0.100200  0.212100  1.0  0.1127
  H  H94  1  0.281800  0.220400  0.195100  1.0  0.1069
  H  H95  1  0.772200  0.634000  0.092900  1.0  0.109
  H  H96  1  0.906400  0.561900  0.161200  1.0  0.1189
  H  H97  1  0.731500  0.672900  0.144500  1.0  0.1169
  H  H98  1  0.864400  0.600200  0.212100  1.0  0.1127
  H  H99  1  0.781800  0.720400  0.195100  1.0  0.1069
  H  H100  1  0.772200  0.134000  0.592900  1.0  0.109
  H  H101  1  0.906400  0.061900  0.661200  1.0  0.1189
  H  H102  1  0.731500  0.172900  0.644500  1.0  0.1169
  H  H103  1  0.864400  0.100200  0.712100  1.0  0.1127
  H  H104  1  0.781800  0.220400  0.695100  1.0  0.1069
  H  H105  1  0.727800  0.634000  0.592900  1.0  0.1097
  H  H106  1  0.593600  0.561900  0.661200  1.0  0.1185
  H  H107  1  0.768500  0.672900  0.644500  1.0  0.1171
  H  H108  1  0.635600  0.600200  0.712100  1.0  0.113
  H  H109  1  0.718200  0.720400  0.695100  1.0  0.1069
  H  H110  1  0.727800  0.134000  0.092900  1.0  0.1097
  H  H111  1  0.593600  0.061900  0.161200  1.0  0.1185
  H  H112  1  0.768500  0.172900  0.144500  1.0  0.1171
  H  H113  1  0.635600  0.100200  0.212100  1.0  0.113
  H  H114  1  0.718200  0.220400  0.195100  1.0  0.1069
  H  H115  1  0.227800  0.634000  0.092900  1.0  0.1097
  H  H116  1  0.093600  0.561900  0.161200  1.0  0.1185
  H  H117  1  0.268500  0.672900  0.144500  1.0  0.1171
  H  H118  1  0.135600  0.600200  0.212100  1.0  0.113
  H  H119  1  0.218200  0.720400  0.195100  1.0  0.1069
  H  H120  1  0.227800  0.134000  0.592900  1.0  0.1097
  H  H121  1  0.093600  0.061900  0.661200  1.0  0.1185
  H  H122  1  0.268500  0.172900  0.644500  1.0  0.1171
  H  H123  1  0.135600  0.100200  0.712100  1.0  0.113
  H  H124  1  0.218200  0.220400  0.695100  1.0  0.1068
  H  H125  1  0.272200  0.366000  0.592900  1.0  0.1091
  H  H126  1  0.406400  0.438100  0.661200  1.0  0.1189
  H  H127  1  0.231500  0.327100  0.644500  1.0  0.1165
  H  H128  1  0.364400  0.399800  0.712100  1.0  0.113
  H  H129  1  0.281800  0.279600  0.695100  1.0  0.1071
  H  H130  1  0.272200  0.866000  0.092900  1.0  0.1091
  H  H131  1  0.406400  0.938100  0.161200  1.0  0.1189
  H  H132  1  0.231500  0.827100  0.144500  1.0  0.1165
  H  H133  1  0.364400  0.899800  0.212100  1.0  0.113
  H  H134  1  0.281800  0.779600  0.195100  1.0  0.1071
  H  H135  1  0.772200  0.366000  0.092900  1.0  0.1091
  H  H136  1  0.906400  0.438100  0.161200  1.0  0.1189
  H  H137  1  0.731500  0.327100  0.144500  1.0  0.1165
  H  H138  1  0.864400  0.399800  0.212100  1.0  0.113
  H  H139  1  0.781800  0.279600  0.195100  1.0  0.1071
  H  H140  1  0.772200  0.866000  0.592900  1.0  0.1091
  H  H141  1  0.906400  0.938100  0.661200  1.0  0.1189
  H  H142  1  0.731500  0.827100  0.644500  1.0  0.1165
  H  H143  1  0.864400  0.899800  0.712100  1.0  0.113
  H  H144  1  0.781800  0.779600  0.695100  1.0  0.1071
  H  H145  1  0.272200  0.634000  0.407100  1.0  0.109
  H  H146  1  0.406400  0.561900  0.338800  1.0  0.1186
  H  H147  1  0.231500  0.672900  0.355500  1.0  0.117
  H  H148  1  0.364400  0.600200  0.287900  1.0  0.113
  H  H149  1  0.281800  0.720400  0.304900  1.0  0.1064
  H  H150  1  0.272200  0.134000  0.907100  1.0  0.109
  H  H151  1  0.406400  0.061900  0.838800  1.0  0.1186
  H  H152  1  0.231500  0.172900  0.855500  1.0  0.117
  H  H153  1  0.364400  0.100200  0.787900  1.0  0.113
  H  H154  1  0.281800  0.220400  0.804900  1.0  0.1062
  H  H155  1  0.772200  0.634000  0.907100  1.0  0.109
  H  H156  1  0.906400  0.561900  0.838800  1.0  0.1186
  H  H157  1  0.731500  0.672900  0.855500  1.0  0.117
  H  H158  1  0.864400  0.600200  0.787900  1.0  0.113
  H  H159  1  0.781800  0.720400  0.804900  1.0  0.1064
  H  H160  1  0.772200  0.134000  0.407100  1.0  0.109
  H  H161  1  0.906400  0.061900  0.338800  1.0  0.1186
  H  H162  1  0.731500  0.172900  0.355500  1.0  0.117
  H  H163  1  0.864400  0.100200  0.287900  1.0  0.113
  H  H164  1  0.781800  0.220400  0.304900  1.0  0.1064
  H  H165  1  0.727800  0.366000  0.407100  1.0  0.109
  H  H166  1  0.593600  0.438100  0.338800  1.0  0.1194
  H  H167  1  0.768500  0.327100  0.355500  1.0  0.1169
  H  H168  1  0.635600  0.399800  0.287900  1.0  0.1129
  H  H169  1  0.718200  0.279600  0.304900  1.0  0.1068
  H  H170  1  0.727800  0.866000  0.907100  1.0  0.109
  H  H171  1  0.593600  0.938100  0.838800  1.0  0.1194
  H  H172  1  0.768500  0.827100  0.855500  1.0  0.1169
  H  H173  1  0.635600  0.899800  0.787900  1.0  0.1129
  H  H174  1  0.718200  0.779600  0.804900  1.0  0.1068
  H  H175  1  0.227800  0.366000  0.907100  1.0  0.109
  H  H176  1  0.093600  0.438100  0.838800  1.0  0.1194
  H  H177  1  0.268500  0.327100  0.855500  1.0  0.1169
  H  H178  1  0.135600  0.399800  0.787900  1.0  0.1129
  H  H179  1  0.218200  0.279600  0.804900  1.0  0.1068
  H  H180  1  0.227800  0.866000  0.407100  1.0  0.109
  H  H181  1  0.093600  0.938100  0.338800  1.0  0.1194
  H  H182  1  0.268500  0.827100  0.355500  1.0  0.1169
  H  H183  1  0.135600  0.899800  0.287900  1.0  0.1129
  H  H184  1  0.218200  0.779600  0.304900  1.0  0.1068
  H  H185  1  0.658000  0.500000  0.450900  1.0  0.3853
  H  H186  1  0.658000  0.000000  0.950900  1.0  0.3853
  H  H187  1  0.158000  0.500000  0.950900  1.0  0.3853
  H  H188  1  0.158000  0.000000  0.450900  1.0  0.3853
  H  H189  1  0.342000  0.500000  0.450900  1.0  0.3866
  H  H190  1  0.342000  0.000000  0.950900  1.0  0.3866
  H  H191  1  0.842000  0.500000  0.950900  1.0  0.3866
  H  H192  1  0.842000  0.000000  0.450900  1.0  0.3866
  H  H193  1  0.342000  0.500000  0.549100  1.0  0.386
  H  H194  1  0.342000  0.000000  0.049100  1.0  0.386
  H  H195  1  0.842000  0.500000  0.049100  1.0  0.386
  H  H196  1  0.842000  0.000000  0.549100  1.0  0.386
  H  H197  1  0.658000  0.500000  0.549100  1.0  0.385
  H  H198  1  0.658000  0.000000  0.049100  1.0  0.385
  H  H199  1  0.158000  0.500000  0.049100  1.0  0.385
  H  H200  1  0.158000  0.000000  0.549100  1.0  0.385
  H  H201  1  0.500000  0.578100  0.450400  1.0  0.3447
  H  H202  1  0.500000  0.078100  0.950400  1.0  0.3447
  H  H203  1  0.000000  0.578100  0.950400  1.0  0.3447
  H  H204  1  0.000000  0.078100  0.450400  1.0  0.3447
  H  H205  1  0.500000  0.421900  0.450400  1.0  0.3459
  H  H206  1  0.500000  0.921900  0.950400  1.0  0.3459
  H  H207  1  0.000000  0.421900  0.950400  1.0  0.3459
  H  H208  1  0.000000  0.921900  0.450400  1.0  0.3459
  H  H209  1  0.500000  0.578100  0.549600  1.0  0.3438
  H  H210  1  0.500000  0.078100  0.049600  1.0  0.3438
  H  H211  1  0.000000  0.578100  0.049600  1.0  0.3438
  H  H212  1  0.000000  0.078100  0.549600  1.0  0.3438
  H  H213  1  0.500000  0.421900  0.549600  1.0  0.3461
  H  H214  1  0.500000  0.921900  0.049600  1.0  0.3461
  H  H215  1  0.000000  0.421900  0.049600  1.0  0.3461
  H  H216  1  0.000000  0.921900  0.549600  1.0  0.3461
  H  H217  1  0.754300  0.523200  0.500000  1.0  0.3588
  H  H218  1  0.754300  0.023200  0.000000  1.0  0.3588
  H  H219  1  0.254300  0.523200  0.000000  1.0  0.3588
  H  H220  1  0.254300  0.023200  0.500000  1.0  0.3588
  H  H221  1  0.245700  0.476800  0.500000  1.0  0.359
  H  H222  1  0.245700  0.976800  0.000000  1.0  0.359
  H  H223  1  0.745700  0.476800  0.000000  1.0  0.359
  H  H224  1  0.745700  0.976800  0.500000  1.0  0.359
  H  H225  1  0.245700  0.523200  0.500000  1.0  0.3606
  H  H226  1  0.245700  0.023200  0.000000  1.0  0.3606
  H  H227  1  0.745700  0.523200  0.000000  1.0  0.3606
  H  H228  1  0.745700  0.023200  0.500000  1.0  0.3606
  H  H229  1  0.754300  0.476800  0.500000  1.0  0.3595
  H  H230  1  0.754300  0.976800  0.000000  1.0  0.3595
  H  H231  1  0.254300  0.476800  0.000000  1.0  0.3595
  H  H232  1  0.254300  0.976800  0.500000  1.0  0.3595
  H  H233  1  0.250000  0.385500  0.250000  1.0  0.1133
  H  H234  1  0.250000  0.885500  0.750000  1.0  0.1133
  H  H235  1  0.750000  0.614500  0.250000  1.0  0.1141
  H  H236  1  0.750000  0.114500  0.750000  1.0  0.1141
  H  H237  1  0.250000  0.114500  0.250000  1.0  0.1141
  H  H238  1  0.750000  0.385500  0.750000  1.0  0.1133
  H  H239  1  0.750000  0.885500  0.250000  1.0  0.1133
  H  H240  1  0.250000  0.614500  0.750000  1.0  0.1141
  H  H241  1  0.750000  0.614500  0.750000  1.0  0.1141
  H  H242  1  0.750000  0.114500  0.250000  1.0  0.1141
  H  H243  1  0.250000  0.614500  0.250000  1.0  0.1141
  H  H244  1  0.250000  0.385500  0.750000  1.0  0.1133
  H  H245  1  0.250000  0.885500  0.250000  1.0  0.1133
  H  H246  1  0.250000  0.114500  0.750000  1.0  0.1141
  H  H247  1  0.750000  0.385500  0.250000  1.0  0.1133
  H  H248  1  0.750000  0.885500  0.750000  1.0  0.1133
  C  C249  1  0.370400  0.431310  0.410180  1.0  0.6617
  C  C250  1  0.341200  0.405960  0.378000  1.0  -0.134
  C  C251  1  0.290900  0.373000  0.382760  1.0  -0.0621
  C  C252  1  0.370300  0.415770  0.342280  1.0  -0.0844
  C  C253  1  0.267100  0.349640  0.352120  1.0  -0.1408
  C  C254  1  0.345900  0.392660  0.312190  1.0  -0.1406
  C  C255  1  0.295500  0.359570  0.316470  1.0  0.0305
  C  C256  1  0.269800  0.335900  0.282730  1.0  -0.0015
  C  C257  1  0.269100  0.293970  0.282580  1.0  -0.1576
  C  C258  1  0.370400  0.931310  0.910180  1.0  0.6617
  C  C259  1  0.341200  0.905960  0.878000  1.0  -0.134
  C  C260  1  0.290900  0.873000  0.882760  1.0  -0.0621
  C  C261  1  0.370300  0.915770  0.842280  1.0  -0.0844
  C  C262  1  0.267100  0.849640  0.852120  1.0  -0.1408
  C  C263  1  0.345900  0.892660  0.812190  1.0  -0.1406
  C  C264  1  0.295500  0.859570  0.816470  1.0  0.0305
  C  C265  1  0.269800  0.835900  0.782730  1.0  -0.0015
  C  C266  1  0.269100  0.793970  0.782580  1.0  -0.1576
  C  C267  1  0.870400  0.431310  0.910180  1.0  0.6617
  C  C268  1  0.841200  0.405960  0.878000  1.0  -0.134
  C  C269  1  0.790900  0.373000  0.882760  1.0  -0.0621
  C  C270  1  0.870300  0.415770  0.842280  1.0  -0.0844
  C  C271  1  0.767100  0.349640  0.852120  1.0  -0.1408
  C  C272  1  0.845900  0.392660  0.812190  1.0  -0.1406
  C  C273  1  0.795500  0.359570  0.816470  1.0  0.0305
  C  C274  1  0.769800  0.335900  0.782730  1.0  -0.0015
  C  C275  1  0.769100  0.293970  0.782580  1.0  -0.1578
  C  C276  1  0.870400  0.931310  0.410180  1.0  0.6617
  C  C277  1  0.841200  0.905960  0.378000  1.0  -0.134
  C  C278  1  0.790900  0.873000  0.382760  1.0  -0.0621
  C  C279  1  0.870300  0.915770  0.342280  1.0  -0.0844
  C  C280  1  0.767100  0.849640  0.352120  1.0  -0.1408
  C  C281  1  0.845900  0.892660  0.312190  1.0  -0.1406
  C  C282  1  0.795500  0.859570  0.316470  1.0  0.0305
  C  C283  1  0.769800  0.835900  0.282730  1.0  -0.0015
  C  C284  1  0.769100  0.793970  0.282580  1.0  -0.1578
  C  C285  1  0.629600  0.568690  0.410180  1.0  0.6613
  C  C286  1  0.658800  0.594040  0.378000  1.0  -0.1344
  C  C287  1  0.709100  0.627000  0.382760  1.0  -0.0604
  C  C288  1  0.629700  0.584230  0.342280  1.0  -0.0828
  C  C289  1  0.732900  0.650360  0.352120  1.0  -0.1407
  C  C290  1  0.654100  0.607340  0.312190  1.0  -0.1405
  C  C291  1  0.704500  0.640430  0.316470  1.0  0.0307
  C  C292  1  0.730200  0.664100  0.282730  1.0  -0.0015
  C  C293  1  0.730900  0.706030  0.282580  1.0  -0.1595
  C  C294  1  0.629600  0.068690  0.910180  1.0  0.6613
  C  C295  1  0.658800  0.094040  0.878000  1.0  -0.1344
  C  C296  1  0.709100  0.127000  0.882760  1.0  -0.0604
  C  C297  1  0.629700  0.084230  0.842280  1.0  -0.0828
  C  C298  1  0.732900  0.150360  0.852120  1.0  -0.1407
  C  C299  1  0.654100  0.107340  0.812190  1.0  -0.1405
  C  C300  1  0.704500  0.140430  0.816470  1.0  0.0307
  C  C301  1  0.730200  0.164100  0.782730  1.0  -0.0015
  C  C302  1  0.730900  0.206030  0.782580  1.0  -0.1595
  C  C303  1  0.129600  0.568690  0.910180  1.0  0.6613
  C  C304  1  0.158800  0.594040  0.878000  1.0  -0.1344
  C  C305  1  0.209100  0.627000  0.882760  1.0  -0.0604
  C  C306  1  0.129700  0.584230  0.842280  1.0  -0.0828
  C  C307  1  0.232900  0.650360  0.852120  1.0  -0.1407
  C  C308  1  0.154100  0.607340  0.812190  1.0  -0.1405
  C  C309  1  0.204500  0.640430  0.816470  1.0  0.0307
  C  C310  1  0.230200  0.664100  0.782730  1.0  -0.0015
  C  C311  1  0.230900  0.706030  0.782580  1.0  -0.1588
  C  C312  1  0.129600  0.068690  0.410180  1.0  0.6613
  C  C313  1  0.158800  0.094040  0.378000  1.0  -0.1344
  C  C314  1  0.209100  0.127000  0.382760  1.0  -0.0604
  C  C315  1  0.129700  0.084230  0.342280  1.0  -0.0828
  C  C316  1  0.232900  0.150360  0.352120  1.0  -0.1407
  C  C317  1  0.154100  0.107340  0.312190  1.0  -0.1405
  C  C318  1  0.204500  0.140430  0.316470  1.0  0.0307
  C  C319  1  0.230200  0.164100  0.282730  1.0  -0.0015
  C  C320  1  0.230900  0.206030  0.282580  1.0  -0.1588
  C  C321  1  0.629600  0.431310  0.589820  1.0  0.6609
  C  C322  1  0.658800  0.405960  0.622000  1.0  -0.1342
  C  C323  1  0.709100  0.373000  0.617240  1.0  -0.0612
  C  C324  1  0.629700  0.415770  0.657720  1.0  -0.0841
  C  C325  1  0.732900  0.349640  0.647880  1.0  -0.1406
  C  C326  1  0.654100  0.392660  0.687810  1.0  -0.1405
  C  C327  1  0.704500  0.359570  0.683530  1.0  0.0307
  C  C328  1  0.730200  0.335900  0.717270  1.0  -0.0012
  C  C329  1  0.730900  0.293970  0.717420  1.0  -0.1582
  C  C330  1  0.629600  0.931310  0.089820  1.0  0.6609
  C  C331  1  0.658800  0.905960  0.122000  1.0  -0.1342
  C  C332  1  0.709100  0.873000  0.117240  1.0  -0.0612
  C  C333  1  0.629700  0.915770  0.157720  1.0  -0.0841
  C  C334  1  0.732900  0.849640  0.147880  1.0  -0.1406
  C  C335  1  0.654100  0.892660  0.187810  1.0  -0.1405
  C  C336  1  0.704500  0.859570  0.183530  1.0  0.0307
  C  C337  1  0.730200  0.835900  0.217270  1.0  -0.0012
  C  C338  1  0.730900  0.793970  0.217420  1.0  -0.1582
  C  C339  1  0.129600  0.431310  0.089820  1.0  0.6609
  C  C340  1  0.158800  0.405960  0.122000  1.0  -0.1342
  C  C341  1  0.209100  0.373000  0.117240  1.0  -0.0612
  C  C342  1  0.129700  0.415770  0.157720  1.0  -0.0841
  C  C343  1  0.232900  0.349640  0.147880  1.0  -0.1406
  C  C344  1  0.154100  0.392660  0.187810  1.0  -0.1405
  C  C345  1  0.204500  0.359570  0.183530  1.0  0.0307
  C  C346  1  0.230200  0.335900  0.217270  1.0  -0.0012
  C  C347  1  0.230900  0.293970  0.217420  1.0  -0.1586
  C  C348  1  0.129600  0.931310  0.589820  1.0  0.6609
  C  C349  1  0.158800  0.905960  0.622000  1.0  -0.1342
  C  C350  1  0.209100  0.873000  0.617240  1.0  -0.0612
  C  C351  1  0.129700  0.915770  0.657720  1.0  -0.0841
  C  C352  1  0.232900  0.849640  0.647880  1.0  -0.1406
  C  C353  1  0.154100  0.892660  0.687810  1.0  -0.1405
  C  C354  1  0.204500  0.859570  0.683530  1.0  0.0307
  C  C355  1  0.230200  0.835900  0.717270  1.0  -0.0012
  C  C356  1  0.230900  0.793970  0.717420  1.0  -0.1586
  C  C357  1  0.370400  0.568690  0.589820  1.0  0.6617
  C  C358  1  0.341200  0.594040  0.622000  1.0  -0.1351
  C  C359  1  0.290900  0.627000  0.617240  1.0  -0.0618
  C  C360  1  0.370300  0.584230  0.657720  1.0  -0.0834
  C  C361  1  0.267100  0.650360  0.647880  1.0  -0.1415
  C  C362  1  0.345900  0.607340  0.687810  1.0  -0.1399
  C  C363  1  0.295500  0.640430  0.683530  1.0  0.0304
  C  C364  1  0.269800  0.664100  0.717270  1.0  -0.0013
  C  C365  1  0.269100  0.706030  0.717420  1.0  -0.1583
  C  C366  1  0.370400  0.068690  0.089820  1.0  0.6617
  C  C367  1  0.341200  0.094040  0.122000  1.0  -0.1351
  C  C368  1  0.290900  0.127000  0.117240  1.0  -0.0618
  C  C369  1  0.370300  0.084230  0.157720  1.0  -0.0834
  C  C370  1  0.267100  0.150360  0.147880  1.0  -0.1415
  C  C371  1  0.345900  0.107340  0.187810  1.0  -0.1399
  C  C372  1  0.295500  0.140430  0.183530  1.0  0.0304
  C  C373  1  0.269800  0.164100  0.217270  1.0  -0.0013
  C  C374  1  0.269100  0.206030  0.217420  1.0  -0.1583
  C  C375  1  0.870400  0.568690  0.089820  1.0  0.6617
  C  C376  1  0.841200  0.594040  0.122000  1.0  -0.1351
  C  C377  1  0.790900  0.627000  0.117240  1.0  -0.0618
  C  C378  1  0.870300  0.584230  0.157720  1.0  -0.0834
  C  C379  1  0.767100  0.650360  0.147880  1.0  -0.1415
  C  C380  1  0.845900  0.607340  0.187810  1.0  -0.1399
  C  C381  1  0.795500  0.640430  0.183530  1.0  0.0304
  C  C382  1  0.769800  0.664100  0.217270  1.0  -0.0013
  C  C383  1  0.769100  0.706030  0.217420  1.0  -0.1581
  C  C384  1  0.870400  0.068690  0.589820  1.0  0.6617
  C  C385  1  0.841200  0.094040  0.622000  1.0  -0.1351
  C  C386  1  0.790900  0.127000  0.617240  1.0  -0.0618
  C  C387  1  0.870300  0.084230  0.657720  1.0  -0.0834
  C  C388  1  0.767100  0.150360  0.647880  1.0  -0.1415
  C  C389  1  0.845900  0.107340  0.687810  1.0  -0.1399
  C  C390  1  0.795500  0.140430  0.683530  1.0  0.0304
  C  C391  1  0.769800  0.164100  0.717270  1.0  -0.0013
  C  C392  1  0.769100  0.206030  0.717420  1.0  -0.1581
  C  C393  1  0.629600  0.568690  0.589820  1.0  0.6607
  C  C394  1  0.658800  0.594040  0.622000  1.0  -0.1342
  C  C395  1  0.709100  0.627000  0.617240  1.0  -0.0611
  C  C396  1  0.629700  0.584230  0.657720  1.0  -0.0825
  C  C397  1  0.732900  0.650360  0.647880  1.0  -0.1412
  C  C398  1  0.654100  0.607340  0.687810  1.0  -0.1398
  C  C399  1  0.704500  0.640430  0.683530  1.0  0.0306
  C  C400  1  0.730200  0.664100  0.717270  1.0  -0.0013
  C  C401  1  0.730900  0.706030  0.717420  1.0  -0.1585
  C  C402  1  0.629600  0.068690  0.089820  1.0  0.6607
  C  C403  1  0.658800  0.094040  0.122000  1.0  -0.1342
  C  C404  1  0.709100  0.127000  0.117240  1.0  -0.0611
  C  C405  1  0.629700  0.084230  0.157720  1.0  -0.0825
  C  C406  1  0.732900  0.150360  0.147880  1.0  -0.1412
  C  C407  1  0.654100  0.107340  0.187810  1.0  -0.1398
  C  C408  1  0.704500  0.140430  0.183530  1.0  0.0306
  C  C409  1  0.730200  0.164100  0.217270  1.0  -0.0013
  C  C410  1  0.730900  0.206030  0.217420  1.0  -0.1585
  C  C411  1  0.129600  0.568690  0.089820  1.0  0.6607
  C  C412  1  0.158800  0.594040  0.122000  1.0  -0.1342
  C  C413  1  0.209100  0.627000  0.117240  1.0  -0.0611
  C  C414  1  0.129700  0.584230  0.157720  1.0  -0.0825
  C  C415  1  0.232900  0.650360  0.147880  1.0  -0.1412
  C  C416  1  0.154100  0.607340  0.187810  1.0  -0.1398
  C  C417  1  0.204500  0.640430  0.183530  1.0  0.0306
  C  C418  1  0.230200  0.664100  0.217270  1.0  -0.0013
  C  C419  1  0.230900  0.706030  0.217420  1.0  -0.1585
  C  C420  1  0.129600  0.068690  0.589820  1.0  0.6607
  C  C421  1  0.158800  0.094040  0.622000  1.0  -0.1342
  C  C422  1  0.209100  0.127000  0.617240  1.0  -0.0611
  C  C423  1  0.129700  0.084230  0.657720  1.0  -0.0825
  C  C424  1  0.232900  0.150360  0.647880  1.0  -0.1412
  C  C425  1  0.154100  0.107340  0.687810  1.0  -0.1398
  C  C426  1  0.204500  0.140430  0.683530  1.0  0.0306
  C  C427  1  0.230200  0.164100  0.717270  1.0  -0.0013
  C  C428  1  0.230900  0.206030  0.717420  1.0  -0.1586
  C  C429  1  0.370400  0.431310  0.589820  1.0  0.662
  C  C430  1  0.341200  0.405960  0.622000  1.0  -0.1348
  C  C431  1  0.290900  0.373000  0.617240  1.0  -0.0617
  C  C432  1  0.370300  0.415770  0.657720  1.0  -0.0852
  C  C433  1  0.267100  0.349640  0.647880  1.0  -0.1404
  C  C434  1  0.345900  0.392660  0.687810  1.0  -0.1403
  C  C435  1  0.295500  0.359570  0.683530  1.0  0.0305
  C  C436  1  0.269800  0.335900  0.717270  1.0  -0.0012
  C  C437  1  0.269100  0.293970  0.717420  1.0  -0.1579
  C  C438  1  0.370400  0.931310  0.089820  1.0  0.662
  C  C439  1  0.341200  0.905960  0.122000  1.0  -0.1348
  C  C440  1  0.290900  0.873000  0.117240  1.0  -0.0617
  C  C441  1  0.370300  0.915770  0.157720  1.0  -0.0852
  C  C442  1  0.267100  0.849640  0.147880  1.0  -0.1404
  C  C443  1  0.345900  0.892660  0.187810  1.0  -0.1403
  C  C444  1  0.295500  0.859570  0.183530  1.0  0.0305
  C  C445  1  0.269800  0.835900  0.217270  1.0  -0.0012
  C  C446  1  0.269100  0.793970  0.217420  1.0  -0.1571
  C  C447  1  0.870400  0.431310  0.089820  1.0  0.662
  C  C448  1  0.841200  0.405960  0.122000  1.0  -0.1348
  C  C449  1  0.790900  0.373000  0.117240  1.0  -0.0617
  C  C450  1  0.870300  0.415770  0.157720  1.0  -0.0852
  C  C451  1  0.767100  0.349640  0.147880  1.0  -0.1404
  C  C452  1  0.845900  0.392660  0.187810  1.0  -0.1403
  C  C453  1  0.795500  0.359570  0.183530  1.0  0.0305
  C  C454  1  0.769800  0.335900  0.217270  1.0  -0.0012
  C  C455  1  0.769100  0.293970  0.217420  1.0  -0.1571
  C  C456  1  0.870400  0.931310  0.589820  1.0  0.662
  C  C457  1  0.841200  0.905960  0.622000  1.0  -0.1348
  C  C458  1  0.790900  0.873000  0.617240  1.0  -0.0617
  C  C459  1  0.870300  0.915770  0.657720  1.0  -0.0852
  C  C460  1  0.767100  0.849640  0.647880  1.0  -0.1404
  C  C461  1  0.845900  0.892660  0.687810  1.0  -0.1403
  C  C462  1  0.795500  0.859570  0.683530  1.0  0.0305
  C  C463  1  0.769800  0.835900  0.717270  1.0  -0.0012
  C  C464  1  0.769100  0.793970  0.717420  1.0  -0.1571
  C  C465  1  0.370400  0.568690  0.410180  1.0  0.6616
  C  C466  1  0.341200  0.594040  0.378000  1.0  -0.1342
  C  C467  1  0.290900  0.627000  0.382760  1.0  -0.0624
  C  C468  1  0.370300  0.584230  0.342280  1.0  -0.0836
  C  C469  1  0.267100  0.650360  0.352120  1.0  -0.1421
  C  C470  1  0.345900  0.607340  0.312190  1.0  -0.1408
  C  C471  1  0.295500  0.640430  0.316470  1.0  0.0305
  C  C472  1  0.269800  0.664100  0.282730  1.0  -0.0016
  C  C473  1  0.269100  0.706030  0.282580  1.0  -0.1585
  C  C474  1  0.370400  0.068690  0.910180  1.0  0.6616
  C  C475  1  0.341200  0.094040  0.878000  1.0  -0.1342
  C  C476  1  0.290900  0.127000  0.882760  1.0  -0.0624
  C  C477  1  0.370300  0.084230  0.842280  1.0  -0.0836
  C  C478  1  0.267100  0.150360  0.852120  1.0  -0.1421
  C  C479  1  0.345900  0.107340  0.812190  1.0  -0.1408
  C  C480  1  0.295500  0.140430  0.816470  1.0  0.0305
  C  C481  1  0.269800  0.164100  0.782730  1.0  -0.0016
  C  C482  1  0.269100  0.206030  0.782580  1.0  -0.1583
  C  C483  1  0.870400  0.568690  0.910180  1.0  0.6616
  C  C484  1  0.841200  0.594040  0.878000  1.0  -0.1342
  C  C485  1  0.790900  0.627000  0.882760  1.0  -0.0624
  C  C486  1  0.870300  0.584230  0.842280  1.0  -0.0836
  C  C487  1  0.767100  0.650360  0.852120  1.0  -0.1421
  C  C488  1  0.845900  0.607340  0.812190  1.0  -0.1408
  C  C489  1  0.795500  0.640430  0.816470  1.0  0.0305
  C  C490  1  0.769800  0.664100  0.782730  1.0  -0.0016
  C  C491  1  0.769100  0.706030  0.782580  1.0  -0.1585
  C  C492  1  0.870400  0.068690  0.410180  1.0  0.6616
  C  C493  1  0.841200  0.094040  0.378000  1.0  -0.1342
  C  C494  1  0.790900  0.127000  0.382760  1.0  -0.0624
  C  C495  1  0.870300  0.084230  0.342280  1.0  -0.0836
  C  C496  1  0.767100  0.150360  0.352120  1.0  -0.1421
  C  C497  1  0.845900  0.107340  0.312190  1.0  -0.1408
  C  C498  1  0.795500  0.140430  0.316470  1.0  0.0305
  C  C499  1  0.769800  0.164100  0.282730  1.0  -0.0016
  C  C500  1  0.769100  0.206030  0.282580  1.0  -0.1585
  C  C501  1  0.629600  0.431310  0.410180  1.0  0.6618
  C  C502  1  0.658800  0.405960  0.378000  1.0  -0.1345
  C  C503  1  0.709100  0.373000  0.382760  1.0  -0.0605
  C  C504  1  0.629700  0.415770  0.342280  1.0  -0.0836
  C  C505  1  0.732900  0.349640  0.352120  1.0  -0.1398
  C  C506  1  0.654100  0.392660  0.312190  1.0  -0.1406
  C  C507  1  0.704500  0.359570  0.316470  1.0  0.0307
  C  C508  1  0.730200  0.335900  0.282730  1.0  -0.0014
  C  C509  1  0.730900  0.293970  0.282580  1.0  -0.159
  C  C510  1  0.629600  0.931310  0.910180  1.0  0.6618
  C  C511  1  0.658800  0.905960  0.878000  1.0  -0.1345
  C  C512  1  0.709100  0.873000  0.882760  1.0  -0.0605
  C  C513  1  0.629700  0.915770  0.842280  1.0  -0.0836
  C  C514  1  0.732900  0.849640  0.852120  1.0  -0.1398
  C  C515  1  0.654100  0.892660  0.812190  1.0  -0.1406
  C  C516  1  0.704500  0.859570  0.816470  1.0  0.0307
  C  C517  1  0.730200  0.835900  0.782730  1.0  -0.0014
  C  C518  1  0.730900  0.793970  0.782580  1.0  -0.159
  C  C519  1  0.129600  0.431310  0.910180  1.0  0.6618
  C  C520  1  0.158800  0.405960  0.878000  1.0  -0.1345
  C  C521  1  0.209100  0.373000  0.882760  1.0  -0.0605
  C  C522  1  0.129700  0.415770  0.842280  1.0  -0.0836
  C  C523  1  0.232900  0.349640  0.852120  1.0  -0.1398
  C  C524  1  0.154100  0.392660  0.812190  1.0  -0.1406
  C  C525  1  0.204500  0.359570  0.816470  1.0  0.0307
  C  C526  1  0.230200  0.335900  0.782730  1.0  -0.0014
  C  C527  1  0.230900  0.293970  0.782580  1.0  -0.1587
  C  C528  1  0.129600  0.931310  0.410180  1.0  0.6618
  C  C529  1  0.158800  0.905960  0.378000  1.0  -0.1345
  C  C530  1  0.209100  0.873000  0.382760  1.0  -0.0605
  C  C531  1  0.129700  0.915770  0.342280  1.0  -0.0836
  C  C532  1  0.232900  0.849640  0.352120  1.0  -0.1398
  C  C533  1  0.154100  0.892660  0.312190  1.0  -0.1406
  C  C534  1  0.204500  0.859570  0.316470  1.0  0.0307
  C  C535  1  0.230200  0.835900  0.282730  1.0  -0.0014
  C  C536  1  0.230900  0.793970  0.282580  1.0  -0.159
  C  C537  1  0.250000  0.356760  0.250000  1.0  -0.1238
  C  C538  1  0.250000  0.272310  0.250000  1.0  0.0567
  C  C539  1  0.250000  0.856760  0.750000  1.0  -0.1238
  C  C540  1  0.250000  0.772310  0.750000  1.0  0.0567
  C  C541  1  0.750000  0.643240  0.250000  1.0  -0.1268
  C  C542  1  0.750000  0.727690  0.250000  1.0  0.0567
  C  C543  1  0.750000  0.143240  0.750000  1.0  -0.1268
  C  C544  1  0.750000  0.227690  0.750000  1.0  0.0567
  C  C545  1  0.250000  0.143240  0.250000  1.0  -0.1268
  C  C546  1  0.250000  0.227690  0.250000  1.0  0.0567
  C  C547  1  0.750000  0.356760  0.750000  1.0  -0.1238
  C  C548  1  0.750000  0.272310  0.750000  1.0  0.0567
  C  C549  1  0.750000  0.856760  0.250000  1.0  -0.1238
  C  C550  1  0.750000  0.772310  0.250000  1.0  0.0567
  C  C551  1  0.250000  0.643240  0.750000  1.0  -0.1268
  C  C552  1  0.250000  0.727690  0.750000  1.0  0.0567
  C  C553  1  0.750000  0.643240  0.750000  1.0  -0.1268
  C  C554  1  0.750000  0.727690  0.750000  1.0  0.0567
  C  C555  1  0.750000  0.143240  0.250000  1.0  -0.1268
  C  C556  1  0.750000  0.227690  0.250000  1.0  0.0567
  C  C557  1  0.250000  0.643240  0.250000  1.0  -0.1268
  C  C558  1  0.250000  0.727690  0.250000  1.0  0.0567
  C  C559  1  0.250000  0.356760  0.750000  1.0  -0.1238
  C  C560  1  0.250000  0.272310  0.750000  1.0  0.0567
  C  C561  1  0.250000  0.856760  0.250000  1.0  -0.1238
  C  C562  1  0.250000  0.772310  0.250000  1.0  0.0567
  C  C563  1  0.250000  0.143240  0.750000  1.0  -0.1268
  C  C564  1  0.250000  0.227690  0.750000  1.0  0.0567
  C  C565  1  0.750000  0.356760  0.250000  1.0  -0.1238
  C  C566  1  0.750000  0.272310  0.250000  1.0  0.0567
  C  C567  1  0.750000  0.856760  0.750000  1.0  -0.1238
  C  C568  1  0.750000  0.772310  0.750000  1.0  0.0567
  O  O569  1  0.417900  0.460010  0.401060  1.0  -0.6199
  O  O570  1  0.347700  0.422570  0.442910  1.0  -0.6314
  O  O571  1  0.417900  0.960010  0.901060  1.0  -0.6199
  O  O572  1  0.347700  0.922570  0.942910  1.0  -0.6314
  O  O573  1  0.917900  0.460010  0.901060  1.0  -0.6199
  O  O574  1  0.847700  0.422570  0.942910  1.0  -0.6314
  O  O575  1  0.917900  0.960010  0.401060  1.0  -0.6199
  O  O576  1  0.847700  0.922570  0.442910  1.0  -0.6314
  O  O577  1  0.582100  0.539990  0.401060  1.0  -0.6178
  O  O578  1  0.652300  0.577430  0.442910  1.0  -0.6325
  O  O579  1  0.582100  0.039990  0.901060  1.0  -0.6178
  O  O580  1  0.652300  0.077430  0.942910  1.0  -0.6325
  O  O581  1  0.082100  0.539990  0.901060  1.0  -0.6178
  O  O582  1  0.152300  0.577430  0.942910  1.0  -0.6325
  O  O583  1  0.082100  0.039990  0.401060  1.0  -0.6178
  O  O584  1  0.152300  0.077430  0.442910  1.0  -0.6325
  O  O585  1  0.582100  0.460010  0.598940  1.0  -0.6186
  O  O586  1  0.652300  0.422570  0.557090  1.0  -0.6326
  O  O587  1  0.582100  0.960010  0.098940  1.0  -0.6186
  O  O588  1  0.652300  0.922570  0.057090  1.0  -0.6326
  O  O589  1  0.082100  0.460010  0.098940  1.0  -0.6186
  O  O590  1  0.152300  0.422570  0.057090  1.0  -0.6326
  O  O591  1  0.082100  0.960010  0.598940  1.0  -0.6186
  O  O592  1  0.152300  0.922570  0.557090  1.0  -0.6326
  O  O593  1  0.417900  0.539990  0.598940  1.0  -0.62
  O  O594  1  0.347700  0.577430  0.557090  1.0  -0.6327
  O  O595  1  0.417900  0.039990  0.098940  1.0  -0.62
  O  O596  1  0.347700  0.077430  0.057090  1.0  -0.6327
  O  O597  1  0.917900  0.539990  0.098940  1.0  -0.62
  O  O598  1  0.847700  0.577430  0.057090  1.0  -0.6327
  O  O599  1  0.917900  0.039990  0.598940  1.0  -0.62
  O  O600  1  0.847700  0.077430  0.557090  1.0  -0.6327
  O  O601  1  0.582100  0.539990  0.598940  1.0  -0.6177
  O  O602  1  0.652300  0.577430  0.557090  1.0  -0.6329
  O  O603  1  0.582100  0.039990  0.098940  1.0  -0.6177
  O  O604  1  0.652300  0.077430  0.057090  1.0  -0.6329
  O  O605  1  0.082100  0.539990  0.098940  1.0  -0.6177
  O  O606  1  0.152300  0.577430  0.057090  1.0  -0.6329
  O  O607  1  0.082100  0.039990  0.598940  1.0  -0.6177
  O  O608  1  0.152300  0.077430  0.557090  1.0  -0.6329
  O  O609  1  0.417900  0.460010  0.598940  1.0  -0.6207
  O  O610  1  0.347700  0.422570  0.557090  1.0  -0.6323
  O  O611  1  0.417900  0.960010  0.098940  1.0  -0.6207
  O  O612  1  0.347700  0.922570  0.057090  1.0  -0.6323
  O  O613  1  0.917900  0.460010  0.098940  1.0  -0.6207
  O  O614  1  0.847700  0.422570  0.057090  1.0  -0.6323
  O  O615  1  0.917900  0.960010  0.598940  1.0  -0.6207
  O  O616  1  0.847700  0.922570  0.557090  1.0  -0.6323
  O  O617  1  0.417900  0.539990  0.401060  1.0  -0.6187
  O  O618  1  0.347700  0.577430  0.442910  1.0  -0.631
  O  O619  1  0.417900  0.039990  0.901060  1.0  -0.6187
  O  O620  1  0.347700  0.077430  0.942910  1.0  -0.631
  O  O621  1  0.917900  0.539990  0.901060  1.0  -0.6187
  O  O622  1  0.847700  0.577430  0.942910  1.0  -0.631
  O  O623  1  0.917900  0.039990  0.401060  1.0  -0.6187
  O  O624  1  0.847700  0.077430  0.442910  1.0  -0.631
  O  O625  1  0.582100  0.460010  0.401060  1.0  -0.6192
  O  O626  1  0.652300  0.422570  0.442910  1.0  -0.633
  O  O627  1  0.582100  0.960010  0.901060  1.0  -0.6192
  O  O628  1  0.652300  0.922570  0.942910  1.0  -0.633
  O  O629  1  0.082100  0.460010  0.901060  1.0  -0.6192
  O  O630  1  0.152300  0.422570  0.942910  1.0  -0.633
  O  O631  1  0.082100  0.960010  0.401060  1.0  -0.6192
  O  O632  1  0.152300  0.922570  0.442910  1.0  -0.633
  O  O633  1  0.608100  0.500000  0.467270  1.0  -0.8871
  O  O634  1  0.608100  0.000000  0.967270  1.0  -0.8871
  O  O635  1  0.108100  0.500000  0.967270  1.0  -0.8871
  O  O636  1  0.108100  0.000000  0.467270  1.0  -0.8871
  O  O637  1  0.391900  0.500000  0.467270  1.0  -0.8917
  O  O638  1  0.391900  0.000000  0.967270  1.0  -0.8917
  O  O639  1  0.891900  0.500000  0.967270  1.0  -0.8917
  O  O640  1  0.891900  0.000000  0.467270  1.0  -0.8917
  O  O641  1  0.391900  0.500000  0.532730  1.0  -0.8932
  O  O642  1  0.391900  0.000000  0.032730  1.0  -0.8932
  O  O643  1  0.891900  0.500000  0.032730  1.0  -0.8932
  O  O644  1  0.891900  0.000000  0.532730  1.0  -0.8932
  O  O645  1  0.608100  0.500000  0.532730  1.0  -0.8881
  O  O646  1  0.608100  0.000000  0.032730  1.0  -0.8881
  O  O647  1  0.108100  0.500000  0.032730  1.0  -0.8881
  O  O648  1  0.108100  0.000000  0.532730  1.0  -0.8881
  O  O649  1  0.500000  0.553530  0.466870  1.0  -0.8988
  O  O650  1  0.500000  0.053530  0.966870  1.0  -0.8988
  O  O651  1  0.000000  0.553530  0.966870  1.0  -0.8988
  O  O652  1  0.000000  0.053530  0.466870  1.0  -0.8988
  O  O653  1  0.500000  0.446470  0.466870  1.0  -0.9008
  O  O654  1  0.500000  0.946470  0.966870  1.0  -0.9008
  O  O655  1  0.000000  0.446470  0.966870  1.0  -0.9008
  O  O656  1  0.000000  0.946470  0.466870  1.0  -0.9008
  O  O657  1  0.500000  0.553530  0.533130  1.0  -0.8999
  O  O658  1  0.500000  0.053530  0.033130  1.0  -0.8999
  O  O659  1  0.000000  0.553530  0.033130  1.0  -0.8999
  O  O660  1  0.000000  0.053530  0.533130  1.0  -0.8999
  O  O661  1  0.500000  0.446470  0.533130  1.0  -0.9014
  O  O662  1  0.500000  0.946470  0.033130  1.0  -0.9014
  O  O663  1  0.000000  0.446470  0.033130  1.0  -0.9014
  O  O664  1  0.000000  0.946470  0.533130  1.0  -0.9014
  O  O665  1  0.741700  0.547850  0.500000  1.0  -0.6814
  O  O666  1  0.741700  0.047850  0.000000  1.0  -0.6814
  O  O667  1  0.241700  0.547850  0.000000  1.0  -0.6814
  O  O668  1  0.241700  0.047850  0.500000  1.0  -0.6814
  O  O669  1  0.258300  0.452150  0.500000  1.0  -0.6825
  O  O670  1  0.258300  0.952150  0.000000  1.0  -0.6825
  O  O671  1  0.758300  0.452150  0.000000  1.0  -0.6825
  O  O672  1  0.758300  0.952150  0.500000  1.0  -0.6825
  O  O673  1  0.258300  0.547850  0.500000  1.0  -0.6848
  O  O674  1  0.258300  0.047850  0.000000  1.0  -0.6848
  O  O675  1  0.758300  0.547850  0.000000  1.0  -0.6848
  O  O676  1  0.758300  0.047850  0.500000  1.0  -0.6848
  O  O677  1  0.741700  0.452150  0.500000  1.0  -0.682
  O  O678  1  0.741700  0.952150  0.000000  1.0  -0.682
  O  O679  1  0.241700  0.452150  0.000000  1.0  -0.682
  O  O680  1  0.241700  0.952150  0.500000  1.0  -0.682
