# generated using pymatgen
data_CoMo6H20C24(N4O3)3
_symmetry_space_group_name_H-M   'P 1'
_cell_length_a   9.51930000
_cell_length_b   10.95340000
_cell_length_c   11.49350000
_cell_angle_alpha   91.78600000
_cell_angle_beta   113.80000000
_cell_angle_gamma   105.46900000
_symmetry_Int_Tables_number   1
_chemical_formula_structural   CoMo6H20C24(N4O3)3
_chemical_formula_sum   'Co1 Mo6 H20 C24 N12 O9'
_cell_volume   1043.60510647
_cell_formula_units_Z   1
loop_
 _symmetry_equiv_pos_site_id
 _symmetry_equiv_pos_as_xyz
  1  'x, y, z'
loop_
 _atom_site_type_symbol
 _atom_site_label
 _atom_site_symmetry_multiplicity
 _atom_site_fract_x
 _atom_site_fract_y
 _atom_site_fract_z
 _atom_site_occupancy
 _atom_site_charge
  Co  Co1  1  0.000000  0.500000  0.500000  1.0  0.5956
  Mo  Mo2  1  0.418890  0.621110  0.749830  1.0  1.26
  Mo  Mo3  1  0.511510  0.647340  0.063470  1.0  0.6547
  Mo  Mo4  1  0.523940  0.928650  0.860020  1.0  0.6993
  Mo  Mo5  1  0.581110  0.378890  0.250170  1.0  1.26
  Mo  Mo6  1  0.488490  0.352660  0.936530  1.0  0.6564
  Mo  Mo7  1  0.476060  0.071350  0.139980  1.0  0.6999
  H  H8  1  0.889800  0.570600  0.222000  1.0  0.0762
  H  H9  1  0.250600  0.763200  0.540700  1.0  0.0725
  H  H10  1  0.331400  0.919600  0.432100  1.0  0.1039
  H  H11  1  0.187100  0.902300  0.211700  1.0  0.0957
  H  H12  1  0.949700  0.582400  0.735000  1.0  0.0763
  H  H13  1  0.798600  0.681200  0.394800  1.0  0.0594
  H  H14  1  0.671100  0.808100  0.450100  1.0  0.1031
  H  H15  1  0.680600  0.820600  0.655700  1.0  0.1068
  H  H16  1  0.130600  0.768200  0.896200  1.0  0.3404
  H  H17  1  0.198700  0.778500  0.039000  1.0  0.2926
  H  H18  1  0.110200  0.429400  0.778000  1.0  0.076
  H  H19  1  0.749400  0.236800  0.459300  1.0  0.0713
  H  H20  1  0.668600  0.080400  0.567900  1.0  0.1035
  H  H21  1  0.812900  0.097700  0.788300  1.0  0.0938
  H  H22  1  0.050300  0.417600  0.265000  1.0  0.0759
  H  H23  1  0.201400  0.318800  0.605200  1.0  0.0556
  H  H24  1  0.328900  0.191900  0.549900  1.0  0.1024
  H  H25  1  0.319400  0.179400  0.344300  1.0  0.1067
  H  H26  1  0.869400  0.231800  0.103800  1.0  0.34
  H  H27  1  0.801300  0.221500  0.961000  1.0  0.288
  C  C28  1  0.911500  0.715300  0.057000  1.0  0.2324
  C  C29  1  0.020100  0.733200  0.194400  1.0  -0.0842
  C  C30  1  0.980100  0.641700  0.264800  1.0  0.1187
  C  C31  1  0.192300  0.754200  0.452000  1.0  0.1634
  C  C32  1  0.240900  0.849300  0.387100  1.0  -0.1498
  C  C33  1  0.155600  0.839900  0.256800  1.0  -0.1348
  C  C34  1  0.823600  0.700800  0.847700  1.0  0.2408
  C  C35  1  0.817700  0.701800  0.717400  1.0  -0.0912
  C  C36  1  0.892600  0.628300  0.677100  1.0  0.1506
  C  C37  1  0.804200  0.686500  0.477600  1.0  0.1373
  C  C38  1  0.726500  0.762800  0.509800  1.0  -0.1468
  C  C39  1  0.732400  0.770600  0.631600  1.0  -0.0417
  C  C40  1  0.088500  0.284700  0.943000  1.0  0.2317
  C  C41  1  0.979900  0.266800  0.805600  1.0  -0.0849
  C  C42  1  0.019900  0.358300  0.735200  1.0  0.1188
  C  C43  1  0.807700  0.245800  0.548000  1.0  0.163
  C  C44  1  0.759100  0.150700  0.612900  1.0  -0.1492
  C  C45  1  0.844400  0.160100  0.743200  1.0  -0.1343
  C  C46  1  0.176400  0.299200  0.152300  1.0  0.2411
  C  C47  1  0.182300  0.298200  0.282600  1.0  -0.0904
  C  C48  1  0.107400  0.371700  0.322900  1.0  0.1497
  C  C49  1  0.195800  0.313500  0.522400  1.0  0.1354
  C  C50  1  0.273500  0.237200  0.490200  1.0  -0.1447
  C  C51  1  0.267600  0.229400  0.368400  1.0  -0.0424
  N  N52  1  0.754400  0.682100  0.007000  1.0  -0.234
  N  N53  1  0.699500  0.674000  0.875500  1.0  -0.2791
  N  N54  1  0.959800  0.727500  0.958600  1.0  0.1338
  N  N55  1  0.116800  0.762600  0.965500  1.0  -0.6423
  N  N56  1  0.065200  0.650300  0.392000  1.0  -0.2938
  N  N57  1  0.886500  0.620500  0.558900  1.0  -0.3098
  N  N58  1  0.245600  0.317900  0.993000  1.0  -0.2428
  N  N59  1  0.300500  0.326000  0.124500  1.0  -0.2777
  N  N60  1  0.040200  0.272500  0.041400  1.0  0.1337
  N  N61  1  0.883200  0.237400  0.034500  1.0  -0.641
  N  N62  1  0.934800  0.349700  0.608000  1.0  -0.294
  N  N63  1  0.113500  0.379500  0.441100  1.0  -0.3077
  O  O64  1  0.429800  0.510300  0.885500  1.0  -0.6891
  O  O65  1  0.476400  0.789700  0.720900  1.0  -0.7135
  O  O66  1  0.208100  0.580000  0.669400  1.0  -0.6337
  O  O67  1  0.466800  0.744100  0.928300  1.0  -0.6136
  O  O68  1  0.570200  0.489700  0.114500  1.0  -0.6886
  O  O69  1  0.523600  0.210300  0.279100  1.0  -0.7148
  O  O70  1  0.791900  0.420000  0.330600  1.0  -0.6353
  O  O71  1  0.533200  0.255900  0.071700  1.0  -0.6127
  O  O72  1  0.500000  0.000000  0.000000  1.0  -0.6987
