# generated using pymatgen
data_Zr3H28(C4O)12
_symmetry_space_group_name_H-M   'P 1'
_cell_length_a   45.45480000
_cell_length_b   45.45480000
_cell_length_c   15.59510000
_cell_angle_alpha   90.00000000
_cell_angle_beta   90.00000000
_cell_angle_gamma   120.00000000
_symmetry_Int_Tables_number   1
_chemical_formula_structural   Zr3H28(C4O)12
_chemical_formula_sum   'Zr18 H168 C288 O72'
_cell_volume   27904.76041201
_cell_formula_units_Z   6
loop_
 _symmetry_equiv_pos_site_id
 _symmetry_equiv_pos_as_xyz
  1  'x, y, z'
loop_
 _atom_site_type_symbol
 _atom_site_label
 _atom_site_symmetry_multiplicity
 _atom_site_fract_x
 _atom_site_fract_y
 _atom_site_fract_z
 _atom_site_occupancy
 _atom_site_charge
  Zr  Zr1  1  0.468830  0.531170  0.500000  1.0  1.8076
  Zr  Zr2  1  0.468830  0.937660  0.500000  1.0  1.8081
  Zr  Zr3  1  0.062340  0.531170  0.500000  1.0  1.8041
  Zr  Zr4  1  0.531170  0.468830  0.500000  1.0  1.8039
  Zr  Zr5  1  0.531170  0.062340  0.500000  1.0  1.8053
  Zr  Zr6  1  0.937660  0.468830  0.500000  1.0  1.8074
  Zr  Zr7  1  0.461050  0.461050  0.613410  1.0  2.0222
  Zr  Zr8  1  0.538950  0.000000  0.613410  1.0  2.0061
  Zr  Zr9  1  0.000000  0.538950  0.613410  1.0  2.0241
  Zr  Zr10  1  0.538950  0.538950  0.613410  1.0  2.0248
  Zr  Zr11  1  0.461050  0.000000  0.613410  1.0  2.0229
  Zr  Zr12  1  0.000000  0.461050  0.613410  1.0  2.0217
  Zr  Zr13  1  0.461050  0.461050  0.386590  1.0  2.0262
  Zr  Zr14  1  0.000000  0.538950  0.386590  1.0  2.0275
  Zr  Zr15  1  0.538950  0.000000  0.386590  1.0  2.0095
  Zr  Zr16  1  0.538950  0.538950  0.386590  1.0  2.0259
  Zr  Zr17  1  0.000000  0.461050  0.386590  1.0  2.0253
  Zr  Zr18  1  0.461050  0.000000  0.386590  1.0  2.0259
  H  H19  1  0.377400  0.524400  0.608800  1.0  0.1048
  H  H20  1  0.331800  0.523600  0.683600  1.0  0.1019
  H  H21  1  0.328300  0.450600  0.840700  1.0  0.0978
  H  H22  1  0.374700  0.453200  0.769600  1.0  0.0986
  H  H23  1  0.270800  0.487400  0.710600  1.0  0.1013
  H  H24  1  0.313700  0.484100  0.935700  1.0  0.0976
  H  H25  1  0.475600  0.853000  0.608800  1.0  0.1059
  H  H26  1  0.476400  0.808200  0.683600  1.0  0.1022
  H  H27  1  0.549400  0.877700  0.840700  1.0  0.0974
  H  H28  1  0.546800  0.921500  0.769600  1.0  0.0994
  H  H29  1  0.512600  0.783400  0.710600  1.0  0.101
  H  H30  1  0.515900  0.829600  0.935700  1.0  0.0977
  H  H31  1  0.147000  0.622600  0.608800  1.0  0.1059
  H  H32  1  0.191800  0.668200  0.683600  1.0  0.1023
  H  H33  1  0.122300  0.671700  0.840700  1.0  0.0986
  H  H34  1  0.078500  0.625300  0.769600  1.0  0.0988
  H  H35  1  0.216600  0.729200  0.710600  1.0  0.101
  H  H36  1  0.170400  0.686300  0.935700  1.0  0.0981
  H  H37  1  0.622600  0.475600  0.608800  1.0  0.105
  H  H38  1  0.668200  0.476400  0.683600  1.0  0.1019
  H  H39  1  0.671700  0.549400  0.840700  1.0  0.0978
  H  H40  1  0.625300  0.546800  0.769600  1.0  0.0988
  H  H41  1  0.729200  0.512600  0.710600  1.0  0.1014
  H  H42  1  0.686300  0.515900  0.935700  1.0  0.0979
  H  H43  1  0.524400  0.147000  0.608800  1.0  0.1062
  H  H44  1  0.523600  0.191800  0.683600  1.0  0.1023
  H  H45  1  0.450600  0.122300  0.840700  1.0  0.0977
  H  H46  1  0.453200  0.078500  0.769600  1.0  0.0989
  H  H47  1  0.487400  0.216600  0.710600  1.0  0.1013
  H  H48  1  0.484100  0.170400  0.935700  1.0  0.0981
  H  H49  1  0.853000  0.377400  0.608800  1.0  0.1054
  H  H50  1  0.808200  0.331800  0.683600  1.0  0.102
  H  H51  1  0.877700  0.328300  0.840700  1.0  0.0984
  H  H52  1  0.921500  0.374700  0.769600  1.0  0.0989
  H  H53  1  0.783400  0.270800  0.710600  1.0  0.1014
  H  H54  1  0.829600  0.313700  0.935700  1.0  0.0983
  H  H55  1  0.524400  0.377400  0.391200  1.0  0.1057
  H  H56  1  0.523600  0.331800  0.316400  1.0  0.1021
  H  H57  1  0.450600  0.328300  0.159300  1.0  0.0984
  H  H58  1  0.453200  0.374700  0.230400  1.0  0.0989
  H  H59  1  0.487400  0.270800  0.289400  1.0  0.101
  H  H60  1  0.484100  0.313700  0.064300  1.0  0.099
  H  H61  1  0.853000  0.475600  0.391200  1.0  0.1056
  H  H62  1  0.808200  0.476400  0.316400  1.0  0.1021
  H  H63  1  0.877700  0.549400  0.159300  1.0  0.0979
  H  H64  1  0.921500  0.546800  0.230400  1.0  0.0995
  H  H65  1  0.783400  0.512600  0.289400  1.0  0.1014
  H  H66  1  0.829600  0.515900  0.064300  1.0  0.0984
  H  H67  1  0.622600  0.147000  0.391200  1.0  0.1062
  H  H68  1  0.668200  0.191800  0.316400  1.0  0.1029
  H  H69  1  0.671700  0.122300  0.159300  1.0  0.097
  H  H70  1  0.625300  0.078500  0.230400  1.0  0.0995
  H  H71  1  0.729200  0.216600  0.289400  1.0  0.1011
  H  H72  1  0.686300  0.170400  0.064300  1.0  0.0982
  H  H73  1  0.475600  0.622600  0.391200  1.0  0.1058
  H  H74  1  0.476400  0.668200  0.316400  1.0  0.1026
  H  H75  1  0.549400  0.671700  0.159300  1.0  0.0985
  H  H76  1  0.546800  0.625300  0.230400  1.0  0.0992
  H  H77  1  0.512600  0.729200  0.289400  1.0  0.1011
  H  H78  1  0.515900  0.686300  0.064300  1.0  0.0984
  H  H79  1  0.147000  0.524400  0.391200  1.0  0.1051
  H  H80  1  0.191800  0.523600  0.316400  1.0  0.1023
  H  H81  1  0.122300  0.450600  0.159300  1.0  0.0968
  H  H82  1  0.078500  0.453200  0.230400  1.0  0.0986
  H  H83  1  0.216600  0.487400  0.289400  1.0  0.1012
  H  H84  1  0.170400  0.484100  0.064300  1.0  0.0981
  H  H85  1  0.377400  0.853000  0.391200  1.0  0.1067
  H  H86  1  0.331800  0.808200  0.316400  1.0  0.1027
  H  H87  1  0.328300  0.877700  0.159300  1.0  0.0972
  H  H88  1  0.374700  0.921500  0.230400  1.0  0.099
  H  H89  1  0.270800  0.783400  0.289400  1.0  0.101
  H  H90  1  0.313700  0.829600  0.064300  1.0  0.0983
  H  H91  1  0.622600  0.475600  0.391200  1.0  0.1054
  H  H92  1  0.668200  0.476400  0.316400  1.0  0.1022
  H  H93  1  0.671700  0.549400  0.159300  1.0  0.0973
  H  H94  1  0.625300  0.546800  0.230400  1.0  0.0988
  H  H95  1  0.729200  0.512600  0.289400  1.0  0.1012
  H  H96  1  0.686300  0.515900  0.064300  1.0  0.0981
  H  H97  1  0.524400  0.147000  0.391200  1.0  0.1063
  H  H98  1  0.523600  0.191800  0.316400  1.0  0.1029
  H  H99  1  0.450600  0.122300  0.159300  1.0  0.0973
  H  H100  1  0.453200  0.078500  0.230400  1.0  0.099
  H  H101  1  0.487400  0.216600  0.289400  1.0  0.1012
  H  H102  1  0.484100  0.170400  0.064300  1.0  0.0983
  H  H103  1  0.853000  0.377400  0.391200  1.0  0.1058
  H  H104  1  0.808200  0.331800  0.316400  1.0  0.1024
  H  H105  1  0.877700  0.328300  0.159300  1.0  0.0986
  H  H106  1  0.921500  0.374700  0.230400  1.0  0.0995
  H  H107  1  0.783400  0.270800  0.289400  1.0  0.1011
  H  H108  1  0.829600  0.313700  0.064300  1.0  0.0987
  H  H109  1  0.377400  0.524400  0.391200  1.0  0.105
  H  H110  1  0.331800  0.523600  0.316400  1.0  0.1023
  H  H111  1  0.328300  0.450600  0.159300  1.0  0.0972
  H  H112  1  0.374700  0.453200  0.230400  1.0  0.099
  H  H113  1  0.270800  0.487400  0.289400  1.0  0.1011
  H  H114  1  0.313700  0.484100  0.064300  1.0  0.098
  H  H115  1  0.475600  0.853000  0.391200  1.0  0.1066
  H  H116  1  0.476400  0.808200  0.316400  1.0  0.1025
  H  H117  1  0.549400  0.877700  0.159300  1.0  0.0973
  H  H118  1  0.546800  0.921500  0.230400  1.0  0.0997
  H  H119  1  0.512600  0.783400  0.289400  1.0  0.1011
  H  H120  1  0.515900  0.829600  0.064300  1.0  0.0984
  H  H121  1  0.147000  0.622600  0.391200  1.0  0.1058
  H  H122  1  0.191800  0.668200  0.316400  1.0  0.1025
  H  H123  1  0.122300  0.671700  0.159300  1.0  0.0984
  H  H124  1  0.078500  0.625300  0.230400  1.0  0.0989
  H  H125  1  0.216600  0.729200  0.289400  1.0  0.101
  H  H126  1  0.170400  0.686300  0.064300  1.0  0.0983
  H  H127  1  0.475600  0.622600  0.608800  1.0  0.1056
  H  H128  1  0.476400  0.668200  0.683600  1.0  0.1022
  H  H129  1  0.549400  0.671700  0.840700  1.0  0.0983
  H  H130  1  0.546800  0.625300  0.769600  1.0  0.0988
  H  H131  1  0.512600  0.729200  0.710600  1.0  0.1013
  H  H132  1  0.515900  0.686300  0.935700  1.0  0.098
  H  H133  1  0.147000  0.524400  0.608800  1.0  0.1053
  H  H134  1  0.191800  0.523600  0.683600  1.0  0.1019
  H  H135  1  0.122300  0.450600  0.840700  1.0  0.0976
  H  H136  1  0.078500  0.453200  0.769600  1.0  0.0985
  H  H137  1  0.216600  0.487400  0.710600  1.0  0.1013
  H  H138  1  0.170400  0.484100  0.935700  1.0  0.0977
  H  H139  1  0.377400  0.853000  0.608800  1.0  0.1062
  H  H140  1  0.331800  0.808200  0.683600  1.0  0.1027
  H  H141  1  0.328300  0.877700  0.840700  1.0  0.0975
  H  H142  1  0.374700  0.921500  0.769600  1.0  0.099
  H  H143  1  0.270800  0.783400  0.710600  1.0  0.1012
  H  H144  1  0.313700  0.829600  0.935700  1.0  0.0977
  H  H145  1  0.524400  0.377400  0.608800  1.0  0.1055
  H  H146  1  0.523600  0.331800  0.683600  1.0  0.102
  H  H147  1  0.450600  0.328300  0.840700  1.0  0.0987
  H  H148  1  0.453200  0.374700  0.769600  1.0  0.0988
  H  H149  1  0.487400  0.270800  0.710600  1.0  0.1011
  H  H150  1  0.484100  0.313700  0.935700  1.0  0.0983
  H  H151  1  0.853000  0.475600  0.608800  1.0  0.1048
  H  H152  1  0.808200  0.476400  0.683600  1.0  0.1016
  H  H153  1  0.877700  0.549400  0.840700  1.0  0.0981
  H  H154  1  0.921500  0.546800  0.769600  1.0  0.0991
  H  H155  1  0.783400  0.512600  0.710600  1.0  0.1014
  H  H156  1  0.829600  0.515900  0.935700  1.0  0.0979
  H  H157  1  0.622600  0.147000  0.608800  1.0  0.1061
  H  H158  1  0.668200  0.191800  0.683600  1.0  0.1021
  H  H159  1  0.671700  0.122300  0.840700  1.0  0.0973
  H  H160  1  0.625300  0.078500  0.769600  1.0  0.0991
  H  H161  1  0.729200  0.216600  0.710600  1.0  0.101
  H  H162  1  0.686300  0.170400  0.935700  1.0  0.0978
  H  H163  1  0.533900  0.579300  0.500000  1.0  0.3302
  H  H164  1  0.420700  0.954600  0.500000  1.0  0.3276
  H  H165  1  0.045400  0.466100  0.500000  1.0  0.33
  H  H166  1  0.466100  0.420700  0.500000  1.0  0.3311
  H  H167  1  0.579300  0.045400  0.500000  1.0  0.3265
  H  H168  1  0.954600  0.533900  0.500000  1.0  0.3298
  H  H169  1  0.579300  0.533900  0.500000  1.0  0.3289
  H  H170  1  0.954600  0.420700  0.500000  1.0  0.3315
  H  H171  1  0.466100  0.045400  0.500000  1.0  0.3275
  H  H172  1  0.420700  0.466100  0.500000  1.0  0.3308
  H  H173  1  0.045400  0.579300  0.500000  1.0  0.3292
  H  H174  1  0.533900  0.954600  0.500000  1.0  0.3271
  H  H175  1  0.477700  0.522300  0.334500  1.0  0.4015
  H  H176  1  0.477700  0.955400  0.334500  1.0  0.4024
  H  H177  1  0.044600  0.522300  0.334500  1.0  0.4015
  H  H178  1  0.522300  0.477700  0.334500  1.0  0.4012
  H  H179  1  0.522300  0.044600  0.334500  1.0  0.4029
  H  H180  1  0.955400  0.477700  0.334500  1.0  0.4011
  H  H181  1  0.522300  0.477700  0.665500  1.0  0.4015
  H  H182  1  0.955400  0.477700  0.665500  1.0  0.4009
  H  H183  1  0.522300  0.044600  0.665500  1.0  0.4023
  H  H184  1  0.477700  0.522300  0.665500  1.0  0.4007
  H  H185  1  0.044600  0.522300  0.665500  1.0  0.4015
  H  H186  1  0.477700  0.955400  0.665500  1.0  0.4025
  C  C187  1  0.410930  0.492190  0.638800  1.0  0.6418
  C  C188  1  0.380590  0.489610  0.686100  1.0  -0.1121
  C  C189  1  0.367650  0.510090  0.657200  1.0  -0.0733
  C  C190  1  0.340250  0.509090  0.700600  1.0  -0.1095
  C  C191  1  0.325330  0.486610  0.769100  1.0  0.047
  C  C192  1  0.338450  0.465930  0.794200  1.0  -0.1421
  C  C193  1  0.366020  0.467490  0.752300  1.0  -0.0705
  C  C194  1  0.296260  0.485270  0.815600  1.0  -0.0052
  C  C195  1  0.270140  0.486140  0.771500  1.0  -0.1276
  C  C196  1  0.269730  0.484470  0.953300  1.0  -0.1291
  C  C197  1  0.295650  0.484560  0.906000  1.0  -0.128
  C  C198  1  0.507810  0.918740  0.638800  1.0  0.6426
  C  C199  1  0.510390  0.890980  0.686100  1.0  -0.1121
  C  C200  1  0.489910  0.857560  0.657200  1.0  -0.0722
  C  C201  1  0.490910  0.831160  0.700600  1.0  -0.1072
  C  C202  1  0.513390  0.838720  0.769100  1.0  0.047
  C  C203  1  0.534070  0.872520  0.794200  1.0  -0.1416
  C  C204  1  0.532510  0.898530  0.752300  1.0  -0.0678
  C  C205  1  0.514730  0.810990  0.815600  1.0  -0.0051
  C  C206  1  0.513860  0.784000  0.771500  1.0  -0.1269
  C  C207  1  0.515530  0.785260  0.953300  1.0  -0.1302
  C  C208  1  0.515440  0.811090  0.906000  1.0  -0.1296
  C  C209  1  0.081260  0.589070  0.638800  1.0  0.6413
  C  C210  1  0.109020  0.619410  0.686100  1.0  -0.112
  C  C211  1  0.142440  0.632350  0.657200  1.0  -0.0725
  C  C212  1  0.168840  0.659750  0.700600  1.0  -0.1043
  C  C213  1  0.161280  0.674670  0.769100  1.0  0.0468
  C  C214  1  0.127480  0.661550  0.794200  1.0  -0.1404
  C  C215  1  0.101470  0.633980  0.752300  1.0  -0.0697
  C  C216  1  0.189010  0.703740  0.815600  1.0  -0.0057
  C  C217  1  0.216000  0.729860  0.771500  1.0  -0.127
  C  C218  1  0.214740  0.730270  0.953300  1.0  -0.1299
  C  C219  1  0.188910  0.704350  0.906000  1.0  -0.1273
  C  C220  1  0.589070  0.507810  0.638800  1.0  0.6402
  C  C221  1  0.619410  0.510390  0.686100  1.0  -0.1121
  C  C222  1  0.632350  0.489910  0.657200  1.0  -0.0724
  C  C223  1  0.659750  0.490910  0.700600  1.0  -0.1074
  C  C224  1  0.674670  0.513390  0.769100  1.0  0.0467
  C  C225  1  0.661550  0.534070  0.794200  1.0  -0.1428
  C  C226  1  0.633980  0.532510  0.752300  1.0  -0.0708
  C  C227  1  0.703740  0.514730  0.815600  1.0  -0.0055
  C  C228  1  0.729860  0.513860  0.771500  1.0  -0.1276
  C  C229  1  0.730270  0.515530  0.953300  1.0  -0.129
  C  C230  1  0.704350  0.515440  0.906000  1.0  -0.1293
  C  C231  1  0.492190  0.081260  0.638800  1.0  0.6422
  C  C232  1  0.489610  0.109020  0.686100  1.0  -0.1115
  C  C233  1  0.510090  0.142440  0.657200  1.0  -0.0732
  C  C234  1  0.509090  0.168840  0.700600  1.0  -0.1068
  C  C235  1  0.486610  0.161280  0.769100  1.0  0.0469
  C  C236  1  0.465930  0.127480  0.794200  1.0  -0.1404
  C  C237  1  0.467490  0.101470  0.752300  1.0  -0.0705
  C  C238  1  0.485270  0.189010  0.815600  1.0  -0.0049
  C  C239  1  0.486140  0.216000  0.771500  1.0  -0.1272
  C  C240  1  0.484470  0.214740  0.953300  1.0  -0.1292
  C  C241  1  0.484560  0.188910  0.906000  1.0  -0.1271
  C  C242  1  0.918740  0.410930  0.638800  1.0  0.6421
  C  C243  1  0.890980  0.380590  0.686100  1.0  -0.1116
  C  C244  1  0.857560  0.367650  0.657200  1.0  -0.0728
  C  C245  1  0.831160  0.340250  0.700600  1.0  -0.1061
  C  C246  1  0.838720  0.325330  0.769100  1.0  0.0468
  C  C247  1  0.872520  0.338450  0.794200  1.0  -0.1391
  C  C248  1  0.898530  0.366020  0.752300  1.0  -0.0693
  C  C249  1  0.810990  0.296260  0.815600  1.0  -0.0052
  C  C250  1  0.784000  0.270140  0.771500  1.0  -0.1272
  C  C251  1  0.785260  0.269730  0.953300  1.0  -0.1302
  C  C252  1  0.811090  0.295650  0.906000  1.0  -0.1281
  C  C253  1  0.492190  0.410930  0.361200  1.0  0.6427
  C  C254  1  0.489610  0.380590  0.313900  1.0  -0.1117
  C  C255  1  0.510090  0.367650  0.342800  1.0  -0.0732
  C  C256  1  0.509090  0.340250  0.299400  1.0  -0.1034
  C  C257  1  0.486610  0.325330  0.230900  1.0  0.0468
  C  C258  1  0.465930  0.338450  0.205800  1.0  -0.141
  C  C259  1  0.467490  0.366020  0.247700  1.0  -0.0695
  C  C260  1  0.485270  0.296260  0.184400  1.0  -0.0063
  C  C261  1  0.486140  0.270140  0.228500  1.0  -0.1264
  C  C262  1  0.484470  0.269730  0.046700  1.0  -0.1303
  C  C263  1  0.484560  0.295650  0.094000  1.0  -0.1267
  C  C264  1  0.918740  0.507810  0.361200  1.0  0.6416
  C  C265  1  0.890980  0.510390  0.313900  1.0  -0.1122
  C  C266  1  0.857560  0.489910  0.342800  1.0  -0.0722
  C  C267  1  0.831160  0.490910  0.299400  1.0  -0.1074
  C  C268  1  0.838720  0.513390  0.230900  1.0  0.0473
  C  C269  1  0.872520  0.534070  0.205800  1.0  -0.1431
  C  C270  1  0.898530  0.532510  0.247700  1.0  -0.0707
  C  C271  1  0.810990  0.514730  0.184400  1.0  -0.006
  C  C272  1  0.784000  0.513860  0.228500  1.0  -0.1267
  C  C273  1  0.785260  0.515530  0.046700  1.0  -0.1291
  C  C274  1  0.811090  0.515440  0.094000  1.0  -0.1272
  C  C275  1  0.589070  0.081260  0.361200  1.0  0.6427
  C  C276  1  0.619410  0.109020  0.313900  1.0  -0.1124
  C  C277  1  0.632350  0.142440  0.342800  1.0  -0.0725
  C  C278  1  0.659750  0.168840  0.299400  1.0  -0.1073
  C  C279  1  0.674670  0.161280  0.230900  1.0  0.047
  C  C280  1  0.661550  0.127480  0.205800  1.0  -0.1411
  C  C281  1  0.633980  0.101470  0.247700  1.0  -0.0708
  C  C282  1  0.703740  0.189010  0.184400  1.0  -0.0059
  C  C283  1  0.729860  0.216000  0.228500  1.0  -0.1255
  C  C284  1  0.730270  0.214740  0.046700  1.0  -0.1297
  C  C285  1  0.704350  0.188910  0.094000  1.0  -0.1281
  C  C286  1  0.507810  0.589070  0.361200  1.0  0.6412
  C  C287  1  0.510390  0.619410  0.313900  1.0  -0.1118
  C  C288  1  0.489910  0.632350  0.342800  1.0  -0.0728
  C  C289  1  0.490910  0.659750  0.299400  1.0  -0.1058
  C  C290  1  0.513390  0.674670  0.230900  1.0  0.0472
  C  C291  1  0.534070  0.661550  0.205800  1.0  -0.1397
  C  C292  1  0.532510  0.633980  0.247700  1.0  -0.0703
  C  C293  1  0.514730  0.703740  0.184400  1.0  -0.006
  C  C294  1  0.513860  0.729860  0.228500  1.0  -0.1262
  C  C295  1  0.515530  0.730270  0.046700  1.0  -0.1296
  C  C296  1  0.515440  0.704350  0.094000  1.0  -0.1261
  C  C297  1  0.081260  0.492190  0.361200  1.0  0.6408
  C  C298  1  0.109020  0.489610  0.313900  1.0  -0.1126
  C  C299  1  0.142440  0.510090  0.342800  1.0  -0.0735
  C  C300  1  0.168840  0.509090  0.299400  1.0  -0.1075
  C  C301  1  0.161280  0.486610  0.230900  1.0  0.0468
  C  C302  1  0.127480  0.465930  0.205800  1.0  -0.1427
  C  C303  1  0.101470  0.467490  0.247700  1.0  -0.0704
  C  C304  1  0.189010  0.485270  0.184400  1.0  -0.0063
  C  C305  1  0.216000  0.486140  0.228500  1.0  -0.1263
  C  C306  1  0.214740  0.484470  0.046700  1.0  -0.1289
  C  C307  1  0.188910  0.484560  0.094000  1.0  -0.1282
  C  C308  1  0.410930  0.918740  0.361200  1.0  0.6424
  C  C309  1  0.380590  0.890980  0.313900  1.0  -0.112
  C  C310  1  0.367650  0.857560  0.342800  1.0  -0.0731
  C  C311  1  0.340250  0.831160  0.299400  1.0  -0.1055
  C  C312  1  0.325330  0.838720  0.230900  1.0  0.0472
  C  C313  1  0.338450  0.872520  0.205800  1.0  -0.1438
  C  C314  1  0.366020  0.898530  0.247700  1.0  -0.0699
  C  C315  1  0.296260  0.810990  0.184400  1.0  -0.0059
  C  C316  1  0.270140  0.784000  0.228500  1.0  -0.1266
  C  C317  1  0.269730  0.785260  0.046700  1.0  -0.1297
  C  C318  1  0.295650  0.811090  0.094000  1.0  -0.1266
  C  C319  1  0.589070  0.507810  0.361200  1.0  0.6404
  C  C320  1  0.619410  0.510390  0.313900  1.0  -0.1124
  C  C321  1  0.632350  0.489910  0.342800  1.0  -0.0722
  C  C322  1  0.659750  0.490910  0.299400  1.0  -0.1067
  C  C323  1  0.674670  0.513390  0.230900  1.0  0.0468
  C  C324  1  0.661550  0.534070  0.205800  1.0  -0.1433
  C  C325  1  0.633980  0.532510  0.247700  1.0  -0.0712
  C  C326  1  0.703740  0.514730  0.184400  1.0  -0.0063
  C  C327  1  0.729860  0.513860  0.228500  1.0  -0.1264
  C  C328  1  0.730270  0.515530  0.046700  1.0  -0.129
  C  C329  1  0.704350  0.515440  0.094000  1.0  -0.1289
  C  C330  1  0.492190  0.081260  0.361200  1.0  0.6423
  C  C331  1  0.489610  0.109020  0.313900  1.0  -0.1116
  C  C332  1  0.510090  0.142440  0.342800  1.0  -0.0732
  C  C333  1  0.509090  0.168840  0.299400  1.0  -0.1065
  C  C334  1  0.486610  0.161280  0.230900  1.0  0.047
  C  C335  1  0.465930  0.127480  0.205800  1.0  -0.1416
  C  C336  1  0.467490  0.101470  0.247700  1.0  -0.0703
  C  C337  1  0.485270  0.189010  0.184400  1.0  -0.0058
  C  C338  1  0.486140  0.216000  0.228500  1.0  -0.1268
  C  C339  1  0.484470  0.214740  0.046700  1.0  -0.1291
  C  C340  1  0.484560  0.188910  0.094000  1.0  -0.1271
  C  C341  1  0.918740  0.410930  0.361200  1.0  0.6421
  C  C342  1  0.890980  0.380590  0.313900  1.0  -0.1118
  C  C343  1  0.857560  0.367650  0.342800  1.0  -0.0729
  C  C344  1  0.831160  0.340250  0.299400  1.0  -0.1059
  C  C345  1  0.838720  0.325330  0.230900  1.0  0.0469
  C  C346  1  0.872520  0.338450  0.205800  1.0  -0.1398
  C  C347  1  0.898530  0.366020  0.247700  1.0  -0.0703
  C  C348  1  0.810990  0.296260  0.184400  1.0  -0.0059
  C  C349  1  0.784000  0.270140  0.228500  1.0  -0.1265
  C  C350  1  0.785260  0.269730  0.046700  1.0  -0.1302
  C  C351  1  0.811090  0.295650  0.094000  1.0  -0.1277
  C  C352  1  0.410930  0.492190  0.361200  1.0  0.6419
  C  C353  1  0.380590  0.489610  0.313900  1.0  -0.1122
  C  C354  1  0.367650  0.510090  0.342800  1.0  -0.0737
  C  C355  1  0.340250  0.509090  0.299400  1.0  -0.1091
  C  C356  1  0.325330  0.486610  0.230900  1.0  0.0473
  C  C357  1  0.338450  0.465930  0.205800  1.0  -0.1427
  C  C358  1  0.366020  0.467490  0.247700  1.0  -0.0711
  C  C359  1  0.296260  0.485270  0.184400  1.0  -0.006
  C  C360  1  0.270140  0.486140  0.228500  1.0  -0.127
  C  C361  1  0.269730  0.484470  0.046700  1.0  -0.129
  C  C362  1  0.295650  0.484560  0.094000  1.0  -0.128
  C  C363  1  0.507810  0.918740  0.361200  1.0  0.6428
  C  C364  1  0.510390  0.890980  0.313900  1.0  -0.1126
  C  C365  1  0.489910  0.857560  0.342800  1.0  -0.0719
  C  C366  1  0.490910  0.831160  0.299400  1.0  -0.1065
  C  C367  1  0.513390  0.838720  0.230900  1.0  0.0471
  C  C368  1  0.534070  0.872520  0.205800  1.0  -0.1423
  C  C369  1  0.532510  0.898530  0.247700  1.0  -0.0691
  C  C370  1  0.514730  0.810990  0.184400  1.0  -0.0061
  C  C371  1  0.513860  0.784000  0.228500  1.0  -0.1255
  C  C372  1  0.515530  0.785260  0.046700  1.0  -0.1302
  C  C373  1  0.515440  0.811090  0.094000  1.0  -0.129
  C  C374  1  0.081260  0.589070  0.361200  1.0  0.6413
  C  C375  1  0.109020  0.619410  0.313900  1.0  -0.1122
  C  C376  1  0.142440  0.632350  0.342800  1.0  -0.0733
  C  C377  1  0.168840  0.659750  0.299400  1.0  -0.1036
  C  C378  1  0.161280  0.674670  0.230900  1.0  0.047
  C  C379  1  0.127480  0.661550  0.205800  1.0  -0.141
  C  C380  1  0.101470  0.633980  0.247700  1.0  -0.0694
  C  C381  1  0.189010  0.703740  0.184400  1.0  -0.0064
  C  C382  1  0.216000  0.729860  0.228500  1.0  -0.1268
  C  C383  1  0.214740  0.730270  0.046700  1.0  -0.1298
  C  C384  1  0.188910  0.704350  0.094000  1.0  -0.1269
  C  C385  1  0.507810  0.589070  0.638800  1.0  0.641
  C  C386  1  0.510390  0.619410  0.686100  1.0  -0.1116
  C  C387  1  0.489910  0.632350  0.657200  1.0  -0.0725
  C  C388  1  0.490910  0.659750  0.700600  1.0  -0.1062
  C  C389  1  0.513390  0.674670  0.769100  1.0  0.047
  C  C390  1  0.534070  0.661550  0.794200  1.0  -0.1391
  C  C391  1  0.532510  0.633980  0.752300  1.0  -0.0694
  C  C392  1  0.514730  0.703740  0.815600  1.0  -0.0052
  C  C393  1  0.513860  0.729860  0.771500  1.0  -0.127
  C  C394  1  0.515530  0.730270  0.953300  1.0  -0.1296
  C  C395  1  0.515440  0.704350  0.906000  1.0  -0.1279
  C  C396  1  0.081260  0.492190  0.638800  1.0  0.6405
  C  C397  1  0.109020  0.489610  0.686100  1.0  -0.1125
  C  C398  1  0.142440  0.510090  0.657200  1.0  -0.073
  C  C399  1  0.168840  0.509090  0.700600  1.0  -0.1082
  C  C400  1  0.161280  0.486610  0.769100  1.0  0.0466
  C  C401  1  0.127480  0.465930  0.794200  1.0  -0.1419
  C  C402  1  0.101470  0.467490  0.752300  1.0  -0.0703
  C  C403  1  0.189010  0.485270  0.815600  1.0  -0.0055
  C  C404  1  0.216000  0.486140  0.771500  1.0  -0.1278
  C  C405  1  0.214740  0.484470  0.953300  1.0  -0.129
  C  C406  1  0.188910  0.484560  0.906000  1.0  -0.1302
  C  C407  1  0.410930  0.918740  0.638800  1.0  0.6424
  C  C408  1  0.380590  0.890980  0.686100  1.0  -0.1119
  C  C409  1  0.367650  0.857560  0.657200  1.0  -0.0736
  C  C410  1  0.340250  0.831160  0.700600  1.0  -0.1064
  C  C411  1  0.325330  0.838720  0.769100  1.0  0.0471
  C  C412  1  0.338450  0.872520  0.794200  1.0  -0.1427
  C  C413  1  0.366020  0.898530  0.752300  1.0  -0.069
  C  C414  1  0.296260  0.810990  0.815600  1.0  -0.005
  C  C415  1  0.270140  0.784000  0.771500  1.0  -0.1271
  C  C416  1  0.269730  0.785260  0.953300  1.0  -0.1297
  C  C417  1  0.295650  0.811090  0.906000  1.0  -0.1287
  C  C418  1  0.492190  0.410930  0.638800  1.0  0.6424
  C  C419  1  0.489610  0.380590  0.686100  1.0  -0.1116
  C  C420  1  0.510090  0.367650  0.657200  1.0  -0.073
  C  C421  1  0.509090  0.340250  0.700600  1.0  -0.1042
  C  C422  1  0.486610  0.325330  0.769100  1.0  0.0467
  C  C423  1  0.465930  0.338450  0.794200  1.0  -0.1404
  C  C424  1  0.467490  0.366020  0.752300  1.0  -0.0696
  C  C425  1  0.485270  0.296260  0.815600  1.0  -0.0057
  C  C426  1  0.486140  0.270140  0.771500  1.0  -0.1274
  C  C427  1  0.484470  0.269730  0.953300  1.0  -0.1303
  C  C428  1  0.484560  0.295650  0.906000  1.0  -0.1288
  C  C429  1  0.918740  0.507810  0.638800  1.0  0.6413
  C  C430  1  0.890980  0.510390  0.686100  1.0  -0.1119
  C  C431  1  0.857560  0.489910  0.657200  1.0  -0.073
  C  C432  1  0.831160  0.490910  0.700600  1.0  -0.1081
  C  C433  1  0.838720  0.513390  0.769100  1.0  0.0471
  C  C434  1  0.872520  0.534070  0.794200  1.0  -0.1428
  C  C435  1  0.898530  0.532510  0.752300  1.0  -0.0693
  C  C436  1  0.810990  0.514730  0.815600  1.0  -0.0053
  C  C437  1  0.784000  0.513860  0.771500  1.0  -0.1273
  C  C438  1  0.785260  0.515530  0.953300  1.0  -0.1292
  C  C439  1  0.811090  0.515440  0.906000  1.0  -0.1288
  C  C440  1  0.589070  0.081260  0.638800  1.0  0.6424
  C  C441  1  0.619410  0.109020  0.686100  1.0  -0.112
  C  C442  1  0.632350  0.142440  0.657200  1.0  -0.072
  C  C443  1  0.659750  0.168840  0.700600  1.0  -0.1074
  C  C444  1  0.674670  0.161280  0.769100  1.0  0.0468
  C  C445  1  0.661550  0.127480  0.794200  1.0  -0.1401
  C  C446  1  0.633980  0.101470  0.752300  1.0  -0.0705
  C  C447  1  0.703740  0.189010  0.815600  1.0  -0.0051
  C  C448  1  0.729860  0.216000  0.771500  1.0  -0.1266
  C  C449  1  0.730270  0.214740  0.953300  1.0  -0.1298
  C  C450  1  0.704350  0.188910  0.906000  1.0  -0.13
  C  C451  1  0.242600  0.485200  0.816300  1.0  0.0175
  C  C452  1  0.242400  0.484800  0.909000  1.0  -0.0179
  C  C453  1  0.514800  0.757400  0.816300  1.0  0.0177
  C  C454  1  0.515200  0.757600  0.909000  1.0  -0.0179
  C  C455  1  0.242600  0.757400  0.816300  1.0  0.0177
  C  C456  1  0.242400  0.757600  0.909000  1.0  -0.0178
  C  C457  1  0.757400  0.514800  0.816300  1.0  0.0177
  C  C458  1  0.757600  0.515200  0.909000  1.0  -0.0178
  C  C459  1  0.485200  0.242600  0.816300  1.0  0.0175
  C  C460  1  0.484800  0.242400  0.909000  1.0  -0.0178
  C  C461  1  0.757400  0.242600  0.816300  1.0  0.0174
  C  C462  1  0.757600  0.242400  0.909000  1.0  -0.0179
  C  C463  1  0.485200  0.242600  0.183700  1.0  0.0173
  C  C464  1  0.484800  0.242400  0.091000  1.0  -0.0179
  C  C465  1  0.757400  0.514800  0.183700  1.0  0.0171
  C  C466  1  0.757600  0.515200  0.091000  1.0  -0.0178
  C  C467  1  0.757400  0.242600  0.183700  1.0  0.0172
  C  C468  1  0.757600  0.242400  0.091000  1.0  -0.018
  C  C469  1  0.514800  0.757400  0.183700  1.0  0.0172
  C  C470  1  0.515200  0.757600  0.091000  1.0  -0.0179
  C  C471  1  0.242600  0.485200  0.183700  1.0  0.0171
  C  C472  1  0.242400  0.484800  0.091000  1.0  -0.0179
  C  C473  1  0.242600  0.757400  0.183700  1.0  0.0173
  C  C474  1  0.242400  0.757600  0.091000  1.0  -0.0178
  O  O475  1  0.425250  0.515970  0.585330  1.0  -0.6158
  O  O476  1  0.419670  0.470710  0.658700  1.0  -0.6652
  O  O477  1  0.484030  0.909280  0.585330  1.0  -0.6134
  O  O478  1  0.529290  0.948960  0.658700  1.0  -0.6649
  O  O479  1  0.090720  0.574750  0.585330  1.0  -0.6141
  O  O480  1  0.051040  0.580330  0.658700  1.0  -0.6632
  O  O481  1  0.574750  0.484030  0.585330  1.0  -0.6144
  O  O482  1  0.580330  0.529290  0.658700  1.0  -0.6616
  O  O483  1  0.515970  0.090720  0.585330  1.0  -0.6148
  O  O484  1  0.470710  0.051040  0.658700  1.0  -0.6654
  O  O485  1  0.909280  0.425250  0.585330  1.0  -0.6129
  O  O486  1  0.948960  0.419670  0.658700  1.0  -0.6642
  O  O487  1  0.515970  0.425250  0.414670  1.0  -0.617
  O  O488  1  0.470710  0.419670  0.341300  1.0  -0.6642
  O  O489  1  0.909280  0.484030  0.414670  1.0  -0.6163
  O  O490  1  0.948960  0.529290  0.341300  1.0  -0.6646
  O  O491  1  0.574750  0.090720  0.414670  1.0  -0.6168
  O  O492  1  0.580330  0.051040  0.341300  1.0  -0.6667
  O  O493  1  0.484030  0.574750  0.414670  1.0  -0.6145
  O  O494  1  0.529290  0.580330  0.341300  1.0  -0.6665
  O  O495  1  0.090720  0.515970  0.414670  1.0  -0.6179
  O  O496  1  0.051040  0.470710  0.341300  1.0  -0.6633
  O  O497  1  0.425250  0.909280  0.414670  1.0  -0.6156
  O  O498  1  0.419670  0.948960  0.341300  1.0  -0.6661
  O  O499  1  0.574750  0.484030  0.414670  1.0  -0.6171
  O  O500  1  0.580330  0.529290  0.341300  1.0  -0.6635
  O  O501  1  0.515970  0.090720  0.414670  1.0  -0.6172
  O  O502  1  0.470710  0.051040  0.341300  1.0  -0.6659
  O  O503  1  0.909280  0.425250  0.414670  1.0  -0.6151
  O  O504  1  0.948960  0.419670  0.341300  1.0  -0.6657
  O  O505  1  0.425250  0.515970  0.414670  1.0  -0.6183
  O  O506  1  0.419670  0.470710  0.341300  1.0  -0.6637
  O  O507  1  0.484030  0.909280  0.414670  1.0  -0.6158
  O  O508  1  0.529290  0.948960  0.341300  1.0  -0.6662
  O  O509  1  0.090720  0.574750  0.414670  1.0  -0.616
  O  O510  1  0.051040  0.580330  0.341300  1.0  -0.6647
  O  O511  1  0.484030  0.574750  0.585330  1.0  -0.6127
  O  O512  1  0.529290  0.580330  0.658700  1.0  -0.6639
  O  O513  1  0.090720  0.515970  0.585330  1.0  -0.6149
  O  O514  1  0.051040  0.470710  0.658700  1.0  -0.6654
  O  O515  1  0.425250  0.909280  0.585330  1.0  -0.6133
  O  O516  1  0.419670  0.948960  0.658700  1.0  -0.6651
  O  O517  1  0.515970  0.425250  0.585330  1.0  -0.6144
  O  O518  1  0.470710  0.419670  0.658700  1.0  -0.663
  O  O519  1  0.909280  0.484030  0.585330  1.0  -0.615
  O  O520  1  0.948960  0.529290  0.658700  1.0  -0.6615
  O  O521  1  0.574750  0.090720  0.585330  1.0  -0.6144
  O  O522  1  0.580330  0.051040  0.658700  1.0  -0.6674
  O  O523  1  0.523470  0.553990  0.500000  1.0  -0.9285
  O  O524  1  0.446010  0.969480  0.500000  1.0  -0.9342
  O  O525  1  0.030520  0.476530  0.500000  1.0  -0.9304
  O  O526  1  0.476530  0.446010  0.500000  1.0  -0.9292
  O  O527  1  0.553990  0.030520  0.500000  1.0  -0.9299
  O  O528  1  0.969480  0.523470  0.500000  1.0  -0.9324
  O  O529  1  0.553990  0.523470  0.500000  1.0  -0.9313
  O  O530  1  0.969480  0.446010  0.500000  1.0  -0.9289
  O  O531  1  0.476530  0.030520  0.500000  1.0  -0.933
  O  O532  1  0.446010  0.476530  0.500000  1.0  -0.9313
  O  O533  1  0.030520  0.553990  0.500000  1.0  -0.9279
  O  O534  1  0.523470  0.969480  0.500000  1.0  -0.9307
  O  O535  1  0.485090  0.514910  0.386700  1.0  -0.9652
  O  O536  1  0.485090  0.970180  0.386700  1.0  -0.9629
  O  O537  1  0.029820  0.514910  0.386700  1.0  -0.964
  O  O538  1  0.514910  0.485090  0.386700  1.0  -0.9642
  O  O539  1  0.514910  0.029820  0.386700  1.0  -0.9613
  O  O540  1  0.970180  0.485090  0.386700  1.0  -0.9654
  O  O541  1  0.514910  0.485090  0.613300  1.0  -0.9647
  O  O542  1  0.970180  0.485090  0.613300  1.0  -0.966
  O  O543  1  0.514910  0.029820  0.613300  1.0  -0.9624
  O  O544  1  0.485090  0.514910  0.613300  1.0  -0.9659
  O  O545  1  0.029820  0.514910  0.613300  1.0  -0.9646
  O  O546  1  0.485090  0.970180  0.613300  1.0  -0.9639
