# generated using pymatgen
data_ZnPO4
_symmetry_space_group_name_H-M   'P 1'
_cell_length_a   14.22410000
_cell_length_b   13.49110000
_cell_length_c   13.99980000
_cell_angle_alpha   90.00000000
_cell_angle_beta   90.16900000
_cell_angle_gamma   90.00000000
_symmetry_Int_Tables_number   1
_chemical_formula_structural   ZnPO4
_chemical_formula_sum   'Zn20 P20 O80'
_cell_volume   2686.53251069
_cell_formula_units_Z   20
loop_
 _symmetry_equiv_pos_site_id
 _symmetry_equiv_pos_as_xyz
  1  'x, y, z'
loop_
 _atom_site_type_symbol
 _atom_site_label
 _atom_site_symmetry_multiplicity
 _atom_site_fract_x
 _atom_site_fract_y
 _atom_site_fract_z
 _atom_site_occupancy
 _atom_site_charge
  Zn  Zn1  1  0.977600  0.234900  0.125900  1.0  1.1971
  Zn  Zn2  1  0.875000  0.632600  0.221400  1.0  1.1703
  Zn  Zn3  1  0.477600  0.734900  0.125900  1.0  1.1971
  Zn  Zn4  1  0.375000  0.132600  0.221400  1.0  1.169
  Zn  Zn5  1  0.022400  0.234900  0.374100  1.0  1.199
  Zn  Zn6  1  0.125000  0.632600  0.278600  1.0  1.1689
  Zn  Zn7  1  0.522400  0.734900  0.374100  1.0  1.199
  Zn  Zn8  1  0.625000  0.132600  0.278600  1.0  1.1689
  Zn  Zn9  1  0.022400  0.765100  0.874100  1.0  1.199
  Zn  Zn10  1  0.125000  0.367400  0.778600  1.0  1.1702
  Zn  Zn11  1  0.522400  0.265100  0.874100  1.0  1.199
  Zn  Zn12  1  0.625000  0.867400  0.778600  1.0  1.1689
  Zn  Zn13  1  0.977600  0.765100  0.625900  1.0  1.1969
  Zn  Zn14  1  0.875000  0.367400  0.721400  1.0  1.1687
  Zn  Zn15  1  0.477600  0.265100  0.625900  1.0  1.1969
  Zn  Zn16  1  0.375000  0.867400  0.721400  1.0  1.1687
  Zn  Zn17  1  0.000000  0.934700  0.250000  1.0  1.1825
  Zn  Zn18  1  0.500000  0.434700  0.250000  1.0  1.1825
  Zn  Zn19  1  0.000000  0.065300  0.750000  1.0  1.1825
  Zn  Zn20  1  0.500000  0.565300  0.750000  1.0  1.1825
  P  P21  1  0.972800  0.753100  0.392400  1.0  1.7968
  P  P22  1  0.857200  0.114900  0.277200  1.0  1.7508
  P  P23  1  0.472800  0.253100  0.392400  1.0  1.7968
  P  P24  1  0.357200  0.614900  0.277200  1.0  1.7508
  P  P25  1  0.027200  0.753100  0.107600  1.0  1.7949
  P  P26  1  0.142800  0.114900  0.222800  1.0  1.765
  P  P27  1  0.527200  0.253100  0.107600  1.0  1.7949
  P  P28  1  0.642800  0.614900  0.222800  1.0  1.765
  P  P29  1  0.027200  0.246900  0.607600  1.0  1.7962
  P  P30  1  0.142800  0.885100  0.722800  1.0  1.7504
  P  P31  1  0.527200  0.746900  0.607600  1.0  1.7962
  P  P32  1  0.642800  0.385100  0.722800  1.0  1.7504
  P  P33  1  0.972800  0.246900  0.892400  1.0  1.7969
  P  P34  1  0.857200  0.885100  0.777200  1.0  1.7646
  P  P35  1  0.472800  0.746900  0.892400  1.0  1.7969
  P  P36  1  0.357200  0.385100  0.777200  1.0  1.7646
  P  P37  1  0.000000  0.433500  0.250000  1.0  1.7549
  P  P38  1  0.500000  0.933500  0.250000  1.0  1.7549
  P  P39  1  0.000000  0.566500  0.750000  1.0  1.755
  P  P40  1  0.500000  0.066500  0.750000  1.0  1.755
  O  O41  1  0.920600  0.141600  0.360500  1.0  -0.7265
  O  O42  1  0.867200  0.190600  0.196900  1.0  -0.7162
  O  O43  1  0.933300  0.757800  0.493800  1.0  -0.7616
  O  O44  1  0.004700  0.370800  0.159700  1.0  -0.7261
  O  O45  1  0.053500  0.677200  0.388600  1.0  -0.723
  O  O46  1  0.088100  0.498000  0.251100  1.0  -0.7512
  O  O47  1  0.892900  0.723300  0.327200  1.0  -0.7562
  O  O48  1  0.755100  0.114400  0.310700  1.0  -0.8101
  O  O49  1  0.116100  0.010700  0.256500  1.0  -0.7107
  O  O50  1  0.009500  0.855400  0.365900  1.0  -0.7085
  O  O51  1  0.420600  0.641600  0.360500  1.0  -0.7265
  O  O52  1  0.367200  0.690600  0.196900  1.0  -0.7162
  O  O53  1  0.433300  0.257800  0.493800  1.0  -0.7616
  O  O54  1  0.504700  0.870800  0.159700  1.0  -0.7261
  O  O55  1  0.553500  0.177200  0.388600  1.0  -0.723
  O  O56  1  0.588100  0.998000  0.251100  1.0  -0.7511
  O  O57  1  0.392900  0.223300  0.327200  1.0  -0.7562
  O  O58  1  0.255100  0.614400  0.310700  1.0  -0.8101
  O  O59  1  0.616100  0.510700  0.256500  1.0  -0.7107
  O  O60  1  0.509500  0.355400  0.365900  1.0  -0.7085
  O  O61  1  0.079400  0.141600  0.139500  1.0  -0.7248
  O  O62  1  0.132800  0.190600  0.303100  1.0  -0.7157
  O  O63  1  0.066700  0.757800  0.006200  1.0  -0.7627
  O  O64  1  0.995300  0.370800  0.340300  1.0  -0.728
  O  O65  1  0.946500  0.677200  0.111400  1.0  -0.724
  O  O66  1  0.911900  0.498000  0.248900  1.0  -0.7514
  O  O67  1  0.107100  0.723300  0.172800  1.0  -0.755
  O  O68  1  0.244900  0.114400  0.189300  1.0  -0.8097
  O  O69  1  0.883900  0.010700  0.243500  1.0  -0.7107
  O  O70  1  0.990500  0.855400  0.134100  1.0  -0.7103
  O  O71  1  0.579400  0.641600  0.139500  1.0  -0.7248
  O  O72  1  0.632800  0.690600  0.303100  1.0  -0.7157
  O  O73  1  0.566700  0.257800  0.006200  1.0  -0.7627
  O  O74  1  0.495300  0.870800  0.340300  1.0  -0.728
  O  O75  1  0.446500  0.177200  0.111400  1.0  -0.724
  O  O76  1  0.411900  0.998000  0.248900  1.0  -0.7514
  O  O77  1  0.607100  0.223300  0.172800  1.0  -0.755
  O  O78  1  0.744900  0.614400  0.189300  1.0  -0.8097
  O  O79  1  0.383900  0.510700  0.243500  1.0  -0.7107
  O  O80  1  0.490500  0.355400  0.134100  1.0  -0.7103
  O  O81  1  0.079400  0.858400  0.639500  1.0  -0.7247
  O  O82  1  0.132800  0.809400  0.803100  1.0  -0.7155
  O  O83  1  0.066700  0.242200  0.506200  1.0  -0.7625
  O  O84  1  0.995300  0.629200  0.840300  1.0  -0.7271
  O  O85  1  0.946500  0.322800  0.611400  1.0  -0.7227
  O  O86  1  0.911900  0.502000  0.748900  1.0  -0.752
  O  O87  1  0.107100  0.276700  0.672800  1.0  -0.755
  O  O88  1  0.244900  0.885600  0.689300  1.0  -0.8097
  O  O89  1  0.883900  0.989300  0.743500  1.0  -0.7101
  O  O90  1  0.990500  0.144600  0.634100  1.0  -0.7103
  O  O91  1  0.579400  0.358400  0.639500  1.0  -0.7247
  O  O92  1  0.632800  0.309400  0.803100  1.0  -0.7155
  O  O93  1  0.566700  0.742200  0.506200  1.0  -0.7625
  O  O94  1  0.495300  0.129200  0.840300  1.0  -0.7271
  O  O95  1  0.446500  0.822800  0.611400  1.0  -0.7227
  O  O96  1  0.411900  0.002000  0.748900  1.0  -0.7519
  O  O97  1  0.607100  0.776700  0.672800  1.0  -0.755
  O  O98  1  0.744900  0.385600  0.689300  1.0  -0.8097
  O  O99  1  0.383900  0.489300  0.743500  1.0  -0.7101
  O  O100  1  0.490500  0.644600  0.634100  1.0  -0.7103
  O  O101  1  0.920600  0.858400  0.860500  1.0  -0.7263
  O  O102  1  0.867200  0.809400  0.696900  1.0  -0.7165
  O  O103  1  0.933300  0.242200  0.993800  1.0  -0.7614
  O  O104  1  0.004700  0.629200  0.659700  1.0  -0.7255
  O  O105  1  0.053500  0.322800  0.888600  1.0  -0.722
  O  O106  1  0.088100  0.502000  0.751100  1.0  -0.7512
  O  O107  1  0.892900  0.276700  0.827200  1.0  -0.7559
  O  O108  1  0.755100  0.885600  0.810700  1.0  -0.8102
  O  O109  1  0.116100  0.989300  0.756500  1.0  -0.7092
  O  O110  1  0.009500  0.144600  0.865900  1.0  -0.7092
  O  O111  1  0.420600  0.358400  0.860500  1.0  -0.7263
  O  O112  1  0.367200  0.309400  0.696900  1.0  -0.7165
  O  O113  1  0.433300  0.742200  0.993800  1.0  -0.7614
  O  O114  1  0.504700  0.129200  0.659700  1.0  -0.7255
  O  O115  1  0.553500  0.822800  0.888600  1.0  -0.722
  O  O116  1  0.588100  0.002000  0.751100  1.0  -0.7512
  O  O117  1  0.392900  0.776700  0.827200  1.0  -0.7559
  O  O118  1  0.255100  0.385600  0.810700  1.0  -0.8102
  O  O119  1  0.616100  0.489300  0.756500  1.0  -0.7092
  O  O120  1  0.509500  0.644600  0.865900  1.0  -0.7092
