# generated using pymatgen
data_ZnH21C20N4O5
_symmetry_space_group_name_H-M   'P 1'
_cell_length_a   8.04500000
_cell_length_b   17.54900000
_cell_length_c   18.01400000
_cell_angle_alpha   90.00000000
_cell_angle_beta   108.09300000
_cell_angle_gamma   90.00000000
_symmetry_Int_Tables_number   1
_chemical_formula_structural   ZnH21C20N4O5
_chemical_formula_sum   'Zn4 H84 C80 N16 O20'
_cell_volume   2417.49301939
_cell_formula_units_Z   4
loop_
 _symmetry_equiv_pos_site_id
 _symmetry_equiv_pos_as_xyz
  1  'x, y, z'
loop_
 _atom_site_type_symbol
 _atom_site_label
 _atom_site_symmetry_multiplicity
 _atom_site_fract_x
 _atom_site_fract_y
 _atom_site_fract_z
 _atom_site_occupancy
 _atom_site_charge
  Zn  Zn1  1  0.118990  0.191310  0.733410  1.0  0.8692
  Zn  Zn2  1  0.881010  0.691310  0.766590  1.0  0.8683
  Zn  Zn3  1  0.881010  0.808690  0.266590  1.0  0.8682
  Zn  Zn4  1  0.118990  0.308690  0.233410  1.0  0.8694
  H  H5  1  0.196700  0.218500  0.512300  1.0  0.1082
  H  H6  1  0.520400  0.159400  0.391700  1.0  0.1155
  H  H7  1  0.611400  0.085500  0.611500  1.0  0.1113
  H  H8  1  0.620600  0.339200  0.552500  1.0  0.1464
  H  H9  1  0.907800  0.276900  0.573500  1.0  0.1092
  H  H10  1  0.771400  0.249100  0.762300  1.0  0.1067
  H  H11  1  0.388200  0.332400  0.631000  1.0  0.0764
  H  H12  1  0.452800  0.294400  0.714000  1.0  0.0812
  H  H13  1  0.540400  0.441700  0.679200  1.0  0.0779
  H  H14  1  0.620200  0.403800  0.761300  1.0  0.0722
  H  H15  1  0.332600  0.399500  0.773900  1.0  0.0674
  H  H16  1  0.402700  0.482700  0.772300  1.0  0.0695
  H  H17  1  0.787200  0.514600  0.776400  1.0  0.0967
  H  H18  1  0.135100  0.605300  0.693700  1.0  0.1046
  H  H19  1  0.160000  0.408800  0.646900  1.0  0.0713
  H  H20  1  0.243500  0.487700  0.637300  1.0  0.0748
  H  H21  1  0.943500  0.411000  0.738300  1.0  0.1176
  H  H22  1  0.786000  0.988900  0.556500  1.0  0.0718
  H  H23  1  0.863500  0.064000  0.602400  1.0  0.0664
  H  H24  1  0.061200  0.073200  0.522000  1.0  0.0598
  H  H25  1  0.103500  0.002000  0.577700  1.0  0.0544
  H  H26  1  0.803300  0.718500  0.987700  1.0  0.1087
  H  H27  1  0.479600  0.659400  0.108300  1.0  0.116
  H  H28  1  0.388600  0.585500  0.888500  1.0  0.1112
  H  H29  1  0.379400  0.839200  0.947500  1.0  0.1456
  H  H30  1  0.092200  0.776900  0.926500  1.0  0.1087
  H  H31  1  0.228600  0.749100  0.737700  1.0  0.1062
  H  H32  1  0.611800  0.832400  0.869000  1.0  0.0761
  H  H33  1  0.547200  0.794400  0.786000  1.0  0.0794
  H  H34  1  0.459600  0.941700  0.820800  1.0  0.0772
  H  H35  1  0.379800  0.903800  0.738700  1.0  0.0713
  H  H36  1  0.667400  0.899500  0.726100  1.0  0.0674
  H  H37  1  0.597300  0.982700  0.727700  1.0  0.0709
  H  H38  1  0.212800  0.014600  0.723600  1.0  0.0969
  H  H39  1  0.864900  0.105300  0.806300  1.0  0.1049
  H  H40  1  0.840000  0.908800  0.853100  1.0  0.0717
  H  H41  1  0.756500  0.987700  0.862700  1.0  0.076
  H  H42  1  0.056500  0.911000  0.761700  1.0  0.1174
  H  H43  1  0.214000  0.488900  0.943500  1.0  0.0709
  H  H44  1  0.136500  0.564000  0.897600  1.0  0.0669
  H  H45  1  0.938800  0.573200  0.978000  1.0  0.06
  H  H46  1  0.896500  0.502000  0.922300  1.0  0.054
  H  H47  1  0.803300  0.781500  0.487700  1.0  0.1092
  H  H48  1  0.479600  0.840600  0.608300  1.0  0.1158
  H  H49  1  0.388600  0.914500  0.388500  1.0  0.1114
  H  H50  1  0.379400  0.660800  0.447500  1.0  0.1459
  H  H51  1  0.092200  0.723100  0.426500  1.0  0.1083
  H  H52  1  0.228600  0.750900  0.237700  1.0  0.1064
  H  H53  1  0.611800  0.667600  0.369000  1.0  0.076
  H  H54  1  0.547200  0.705600  0.286000  1.0  0.0794
  H  H55  1  0.459600  0.558300  0.320800  1.0  0.079
  H  H56  1  0.379800  0.596200  0.238700  1.0  0.0712
  H  H57  1  0.667400  0.600500  0.226100  1.0  0.0667
  H  H58  1  0.597300  0.517300  0.227700  1.0  0.0704
  H  H59  1  0.212800  0.485400  0.223600  1.0  0.097
  H  H60  1  0.864900  0.394700  0.306300  1.0  0.1047
  H  H61  1  0.840000  0.591200  0.353100  1.0  0.0711
  H  H62  1  0.756500  0.512300  0.362700  1.0  0.0757
  H  H63  1  0.056500  0.589000  0.261700  1.0  0.1174
  H  H64  1  0.214000  0.011100  0.443500  1.0  0.0705
  H  H65  1  0.136500  0.936000  0.397600  1.0  0.0677
  H  H66  1  0.938800  0.926800  0.478000  1.0  0.0583
  H  H67  1  0.896500  0.998000  0.422300  1.0  0.0544
  H  H68  1  0.196700  0.281500  0.012300  1.0  0.1082
  H  H69  1  0.520400  0.340600  0.891700  1.0  0.1152
  H  H70  1  0.611400  0.414500  0.111500  1.0  0.1111
  H  H71  1  0.620600  0.160800  0.052500  1.0  0.1455
  H  H72  1  0.907800  0.223100  0.073500  1.0  0.109
  H  H73  1  0.771400  0.250900  0.262300  1.0  0.1059
  H  H74  1  0.388200  0.167600  0.131000  1.0  0.0763
  H  H75  1  0.452800  0.205600  0.214000  1.0  0.0798
  H  H76  1  0.540400  0.058300  0.179200  1.0  0.077
  H  H77  1  0.620200  0.096200  0.261300  1.0  0.072
  H  H78  1  0.332600  0.100500  0.273900  1.0  0.0661
  H  H79  1  0.402700  0.017300  0.272300  1.0  0.0704
  H  H80  1  0.787200  0.985400  0.276400  1.0  0.0967
  H  H81  1  0.135100  0.894700  0.193700  1.0  0.1039
  H  H82  1  0.160000  0.091200  0.146900  1.0  0.0723
  H  H83  1  0.243500  0.012300  0.137300  1.0  0.0739
  H  H84  1  0.943500  0.089000  0.238300  1.0  0.1173
  H  H85  1  0.786000  0.511100  0.056500  1.0  0.071
  H  H86  1  0.863500  0.436000  0.102400  1.0  0.0677
  H  H87  1  0.061200  0.426800  0.022000  1.0  0.0579
  H  H88  1  0.103500  0.498000  0.077700  1.0  0.0536
  C  C89  1  0.231000  0.239600  0.371700  1.0  0.6539
  C  C90  1  0.341100  0.195400  0.441100  1.0  -0.1562
  C  C91  1  0.295500  0.192700  0.509300  1.0  -0.0472
  C  C92  1  0.397000  0.151900  0.572900  1.0  -0.1338
  C  C93  1  0.588000  0.116800  0.500500  1.0  0.2612
  C  C94  1  0.488700  0.157400  0.437100  1.0  -0.1556
  C  C95  1  0.543500  0.113400  0.568900  1.0  -0.2005
  C  C96  1  0.349300  0.149400  0.647800  1.0  0.6651
  C  C97  1  0.685800  0.313300  0.597000  1.0  -0.1571
  C  C98  1  0.845600  0.279100  0.609200  1.0  -0.0057
  C  C99  1  0.770500  0.263600  0.712500  1.0  0.1344
  C  C100  1  0.484700  0.329700  0.679200  1.0  0.0071
  C  C101  1  0.516600  0.406200  0.715900  1.0  -0.1133
  C  C102  1  0.364800  0.437100  0.741300  1.0  -0.1153
  C  C103  1  0.876700  0.520100  0.754300  1.0  -0.0067
  C  C104  1  0.065200  0.570000  0.708500  1.0  0.1306
  C  C105  1  0.209500  0.455300  0.673800  1.0  0.0142
  C  C106  1  0.961200  0.462800  0.732900  1.0  -0.1469
  C  C107  1  0.841200  0.037400  0.553000  1.0  0.0744
  C  C108  1  0.016500  0.024700  0.533300  1.0  -0.1158
  C  C109  1  0.769000  0.739600  0.128300  1.0  0.6549
  C  C110  1  0.658900  0.695400  0.058900  1.0  -0.1572
  C  C111  1  0.704500  0.692700  0.990700  1.0  -0.0458
  C  C112  1  0.603000  0.651900  0.927100  1.0  -0.1355
  C  C113  1  0.412000  0.616800  0.999500  1.0  0.2613
  C  C114  1  0.511300  0.657400  0.062900  1.0  -0.1553
  C  C115  1  0.456500  0.613400  0.931100  1.0  -0.2021
  C  C116  1  0.650700  0.649400  0.852200  1.0  0.665
  C  C117  1  0.314200  0.813300  0.903000  1.0  -0.1568
  C  C118  1  0.154400  0.779100  0.890800  1.0  -0.0066
  C  C119  1  0.229500  0.763600  0.787500  1.0  0.1344
  C  C120  1  0.515300  0.829700  0.820800  1.0  0.0086
  C  C121  1  0.483400  0.906200  0.784100  1.0  -0.1145
  C  C122  1  0.635200  0.937100  0.758700  1.0  -0.1148
  C  C123  1  0.123300  0.020100  0.745700  1.0  -0.0064
  C  C124  1  0.934800  0.070000  0.791500  1.0  0.1308
  C  C125  1  0.790500  0.955300  0.826200  1.0  0.0107
  C  C126  1  0.038800  0.962800  0.767100  1.0  -0.1467
  C  C127  1  0.158800  0.537400  0.947000  1.0  0.073
  C  C128  1  0.983500  0.524700  0.966700  1.0  -0.1163
  C  C129  1  0.769000  0.760400  0.628300  1.0  0.6548
  C  C130  1  0.658900  0.804600  0.558900  1.0  -0.1581
  C  C131  1  0.704500  0.807300  0.490700  1.0  -0.0459
  C  C132  1  0.603000  0.848100  0.427100  1.0  -0.1351
  C  C133  1  0.412000  0.883200  0.499500  1.0  0.2615
  C  C134  1  0.511300  0.842600  0.562900  1.0  -0.1563
  C  C135  1  0.456500  0.886600  0.431100  1.0  -0.2021
  C  C136  1  0.650700  0.850600  0.352200  1.0  0.6653
  C  C137  1  0.314200  0.686700  0.403000  1.0  -0.1562
  C  C138  1  0.154400  0.720900  0.390800  1.0  -0.0064
  C  C139  1  0.229500  0.736400  0.287500  1.0  0.1345
  C  C140  1  0.515300  0.670300  0.320800  1.0  0.0093
  C  C141  1  0.483400  0.593800  0.284100  1.0  -0.1147
  C  C142  1  0.635200  0.562900  0.258700  1.0  -0.1146
  C  C143  1  0.123300  0.479900  0.245700  1.0  -0.0069
  C  C144  1  0.934800  0.430000  0.291500  1.0  0.1313
  C  C145  1  0.790500  0.544700  0.326200  1.0  0.0115
  C  C146  1  0.038800  0.537200  0.267100  1.0  -0.1471
  C  C147  1  0.158800  0.962600  0.447000  1.0  0.0728
  C  C148  1  0.983500  0.975300  0.466700  1.0  -0.1168
  C  C149  1  0.231000  0.260400  0.871700  1.0  0.6539
  C  C150  1  0.341100  0.304600  0.941100  1.0  -0.1591
  C  C151  1  0.295500  0.307300  0.009300  1.0  -0.0461
  C  C152  1  0.397000  0.348100  0.072900  1.0  -0.1333
  C  C153  1  0.588000  0.383200  0.000500  1.0  0.2609
  C  C154  1  0.488700  0.342600  0.937100  1.0  -0.1562
  C  C155  1  0.543500  0.386600  0.068900  1.0  -0.2009
  C  C156  1  0.349300  0.350600  0.147800  1.0  0.6652
  C  C157  1  0.685800  0.186700  0.097000  1.0  -0.1571
  C  C158  1  0.845600  0.220900  0.109200  1.0  -0.0057
  C  C159  1  0.770500  0.236400  0.212500  1.0  0.1338
  C  C160  1  0.484700  0.170300  0.179200  1.0  0.0082
  C  C161  1  0.516600  0.093800  0.215900  1.0  -0.1135
  C  C162  1  0.364800  0.062900  0.241300  1.0  -0.1153
  C  C163  1  0.876700  0.979900  0.254300  1.0  -0.0075
  C  C164  1  0.065200  0.930000  0.208500  1.0  0.1288
  C  C165  1  0.209500  0.044700  0.173800  1.0  0.0124
  C  C166  1  0.961200  0.037200  0.232900  1.0  -0.1479
  C  C167  1  0.841200  0.462600  0.053000  1.0  0.0739
  C  C168  1  0.016500  0.475300  0.033300  1.0  -0.1158
  N  N169  1  0.897500  0.249000  0.682600  1.0  -0.3839
  N  N170  1  0.642100  0.301700  0.662600  1.0  0.0678
  N  N171  1  0.942200  0.588000  0.738500  1.0  -0.4031
  N  N172  1  0.078000  0.494900  0.701800  1.0  0.0325
  N  N173  1  0.102500  0.749000  0.817400  1.0  -0.3867
  N  N174  1  0.357900  0.801700  0.837400  1.0  0.0676
  N  N175  1  0.057800  0.088000  0.761500  1.0  -0.4029
  N  N176  1  0.922000  0.994900  0.798200  1.0  0.0342
  N  N177  1  0.102500  0.751000  0.317400  1.0  -0.3858
  N  N178  1  0.357900  0.698300  0.337400  1.0  0.0681
  N  N179  1  0.057800  0.412000  0.261500  1.0  -0.4019
  N  N180  1  0.922000  0.505100  0.298200  1.0  0.0344
  N  N181  1  0.897500  0.251000  0.182600  1.0  -0.3839
  N  N182  1  0.642100  0.198300  0.162600  1.0  0.0678
  N  N183  1  0.942200  0.912000  0.238500  1.0  -0.4029
  N  N184  1  0.078000  0.005100  0.201800  1.0  0.0334
  O  O185  1  0.206700  0.183000  0.644500  1.0  -0.5961
  O  O186  1  0.445600  0.117900  0.705900  1.0  -0.5732
  O  O187  1  0.731400  0.082300  0.490300  1.0  -0.2784
  O  O188  1  0.091400  0.267700  0.372500  1.0  -0.5615
  O  O189  1  0.286700  0.247500  0.313800  1.0  -0.609
  O  O190  1  0.793300  0.683000  0.855500  1.0  -0.5951
  O  O191  1  0.554400  0.617900  0.794100  1.0  -0.5747
  O  O192  1  0.268600  0.582300  0.009700  1.0  -0.2802
  O  O193  1  0.908600  0.767700  0.127500  1.0  -0.5619
  O  O194  1  0.713300  0.747500  0.186200  1.0  -0.61
  O  O195  1  0.793300  0.817000  0.355500  1.0  -0.5953
  O  O196  1  0.554400  0.882100  0.294100  1.0  -0.5743
  O  O197  1  0.268600  0.917700  0.509700  1.0  -0.2804
  O  O198  1  0.908600  0.732300  0.627500  1.0  -0.5621
  O  O199  1  0.713300  0.752500  0.686200  1.0  -0.6099
  O  O200  1  0.206700  0.317000  0.144500  1.0  -0.5966
  O  O201  1  0.445600  0.382100  0.205900  1.0  -0.5731
  O  O202  1  0.731400  0.417700  0.990300  1.0  -0.2784
  O  O203  1  0.091400  0.232300  0.872500  1.0  -0.5615
  O  O204  1  0.286700  0.252500  0.813800  1.0  -0.6086
