# generated using pymatgen
data_CoH21C20N4O5
_symmetry_space_group_name_H-M   'P 1'
_cell_length_a   8.03190000
_cell_length_b   17.94070000
_cell_length_c   17.93180000
_cell_angle_alpha   90.00000000
_cell_angle_beta   108.64400000
_cell_angle_gamma   90.00000000
_symmetry_Int_Tables_number   1
_chemical_formula_structural   CoH21C20N4O5
_chemical_formula_sum   'Co4 H84 C80 N16 O20'
_cell_volume   2448.33820651
_cell_formula_units_Z   4
loop_
 _symmetry_equiv_pos_site_id
 _symmetry_equiv_pos_as_xyz
  1  'x, y, z'
loop_
 _atom_site_type_symbol
 _atom_site_label
 _atom_site_symmetry_multiplicity
 _atom_site_fract_x
 _atom_site_fract_y
 _atom_site_fract_z
 _atom_site_occupancy
 _atom_site_charge
  Co  Co1  1  0.126850  0.809980  0.236440  1.0  0.8613
  Co  Co2  1  0.873150  0.309980  0.263560  1.0  0.8627
  Co  Co3  1  0.873150  0.190020  0.763560  1.0  0.8623
  Co  Co4  1  0.126850  0.690020  0.736440  1.0  0.861
  H  H5  1  0.201900  0.720300  0.511400  1.0  0.1069
  H  H6  1  0.610800  0.585000  0.612900  1.0  0.115
  H  H7  1  0.532300  0.661500  0.394100  1.0  0.1112
  H  H8  1  0.868700  0.556200  0.602800  1.0  0.0831
  H  H9  1  0.783400  0.487000  0.548400  1.0  0.0972
  H  H10  1  0.845500  0.895800  0.289700  1.0  0.1027
  H  H11  1  0.044900  0.086800  0.252800  1.0  0.1246
  H  H12  1  0.217300  0.984300  0.224800  1.0  0.1059
  H  H13  1  0.744200  0.009900  0.356300  1.0  0.0911
  H  H14  1  0.835500  0.087000  0.351600  1.0  0.0737
  H  H15  1  0.598600  0.018700  0.224700  1.0  0.0634
  H  H16  1  0.679900  0.098300  0.225200  1.0  0.0623
  H  H17  1  0.222300  0.248500  0.233800  1.0  0.1056
  H  H18  1  0.087000  0.223800  0.423600  1.0  0.1051
  H  H19  1  0.374400  0.165000  0.446300  1.0  0.1325
  H  H20  1  0.546200  0.204800  0.285500  1.0  0.0832
  H  H21  1  0.607800  0.166500  0.368500  1.0  0.0794
  H  H22  1  0.381800  0.101400  0.235800  1.0  0.0742
  H  H23  1  0.456100  0.063400  0.318100  1.0  0.0829
  H  H24  1  0.134300  0.526900  0.569800  1.0  0.0921
  H  H25  1  0.018600  0.566900  0.489200  1.0  0.0867
  H  H26  1  0.798100  0.220300  0.988600  1.0  0.1073
  H  H27  1  0.389200  0.085000  0.887100  1.0  0.1147
  H  H28  1  0.467700  0.161500  0.105900  1.0  0.1114
  H  H29  1  0.131300  0.056200  0.897200  1.0  0.0835
  H  H30  1  0.216600  0.987000  0.951600  1.0  0.0973
  H  H31  1  0.154500  0.395800  0.210300  1.0  0.1023
  H  H32  1  0.955100  0.586800  0.247200  1.0  0.1247
  H  H33  1  0.782700  0.484300  0.275200  1.0  0.1063
  H  H34  1  0.255800  0.509900  0.143700  1.0  0.0892
  H  H35  1  0.164500  0.587000  0.148400  1.0  0.0742
  H  H36  1  0.401400  0.518700  0.275300  1.0  0.0635
  H  H37  1  0.320100  0.598300  0.274800  1.0  0.0612
  H  H38  1  0.777700  0.748500  0.266200  1.0  0.1054
  H  H39  1  0.913000  0.723800  0.076400  1.0  0.1055
  H  H40  1  0.625600  0.665000  0.053700  1.0  0.1324
  H  H41  1  0.453800  0.704800  0.214500  1.0  0.0829
  H  H42  1  0.392200  0.666500  0.131500  1.0  0.0782
  H  H43  1  0.618200  0.601400  0.264200  1.0  0.0735
  H  H44  1  0.543900  0.563400  0.181900  1.0  0.0806
  H  H45  1  0.865700  0.026900  0.930200  1.0  0.0911
  H  H46  1  0.981400  0.066900  0.010800  1.0  0.0854
  H  H47  1  0.798100  0.279700  0.488600  1.0  0.1077
  H  H48  1  0.389200  0.415000  0.387100  1.0  0.1146
  H  H49  1  0.467700  0.338500  0.605900  1.0  0.1116
  H  H50  1  0.131300  0.443800  0.397200  1.0  0.0838
  H  H51  1  0.216600  0.513000  0.451600  1.0  0.0965
  H  H52  1  0.154500  0.104200  0.710300  1.0  0.1026
  H  H53  1  0.955100  0.913200  0.747200  1.0  0.1251
  H  H54  1  0.782700  0.015700  0.775200  1.0  0.1059
  H  H55  1  0.255800  0.990100  0.643700  1.0  0.0893
  H  H56  1  0.164500  0.913000  0.648400  1.0  0.0739
  H  H57  1  0.401400  0.981300  0.775300  1.0  0.0621
  H  H58  1  0.320100  0.901700  0.774800  1.0  0.0618
  H  H59  1  0.777700  0.751500  0.766200  1.0  0.1056
  H  H60  1  0.913000  0.776200  0.576400  1.0  0.1056
  H  H61  1  0.625600  0.835000  0.553700  1.0  0.1327
  H  H62  1  0.453800  0.795200  0.714500  1.0  0.0837
  H  H63  1  0.392200  0.833500  0.631500  1.0  0.0781
  H  H64  1  0.618200  0.898600  0.764200  1.0  0.074
  H  H65  1  0.543900  0.936600  0.681900  1.0  0.081
  H  H66  1  0.865700  0.473100  0.430200  1.0  0.0907
  H  H67  1  0.981400  0.433100  0.510800  1.0  0.0864
  H  H68  1  0.201900  0.779700  0.011400  1.0  0.1071
  H  H69  1  0.610800  0.915000  0.112900  1.0  0.1142
  H  H70  1  0.532300  0.838500  0.894100  1.0  0.1113
  H  H71  1  0.868700  0.943800  0.102800  1.0  0.0838
  H  H72  1  0.783400  0.013000  0.048400  1.0  0.0959
  H  H73  1  0.845500  0.604200  0.789700  1.0  0.1026
  H  H74  1  0.044900  0.413200  0.752800  1.0  0.1248
  H  H75  1  0.217300  0.515700  0.724800  1.0  0.1055
  H  H76  1  0.744200  0.490100  0.856300  1.0  0.0907
  H  H77  1  0.835500  0.413000  0.851600  1.0  0.0748
  H  H78  1  0.598600  0.481300  0.724700  1.0  0.0643
  H  H79  1  0.679900  0.401700  0.725200  1.0  0.0622
  H  H80  1  0.222300  0.251500  0.733800  1.0  0.1053
  H  H81  1  0.087000  0.276200  0.923600  1.0  0.1052
  H  H82  1  0.374400  0.335000  0.946300  1.0  0.132
  H  H83  1  0.546200  0.295200  0.785500  1.0  0.0829
  H  H84  1  0.607800  0.333500  0.868500  1.0  0.079
  H  H85  1  0.381800  0.398600  0.735800  1.0  0.0743
  H  H86  1  0.456100  0.436600  0.818100  1.0  0.0817
  H  H87  1  0.134300  0.973100  0.069800  1.0  0.0919
  H  H88  1  0.018600  0.933100  0.989200  1.0  0.0845
  C  C89  1  0.349600  0.697300  0.441600  1.0  -0.1396
  C  C90  1  0.300500  0.694300  0.509200  1.0  -0.0152
  C  C91  1  0.397600  0.653000  0.573100  1.0  -0.156
  C  C92  1  0.545200  0.613200  0.570000  1.0  -0.1394
  C  C93  1  0.592200  0.616600  0.501400  1.0  0.2435
  C  C94  1  0.497600  0.658700  0.438800  1.0  -0.1375
  C  C95  1  0.840000  0.535100  0.550400  1.0  -0.0191
  C  C96  1  0.921300  0.930400  0.279300  1.0  0.1451
  C  C97  1  0.028400  0.036100  0.258800  1.0  -0.1609
  C  C98  1  0.121500  0.979200  0.242900  1.0  -0.0158
  C  C99  1  0.780900  0.043200  0.322000  1.0  0.0094
  C  C100  1  0.641000  0.062600  0.256700  1.0  -0.1263
  C  C101  1  0.223700  0.235200  0.284200  1.0  0.144
  C  C102  1  0.149200  0.221900  0.388000  1.0  -0.0075
  C  C103  1  0.308200  0.189100  0.400500  1.0  -0.1405
  C  C104  1  0.512200  0.169700  0.319200  1.0  0.0401
  C  C105  1  0.484400  0.098000  0.282400  1.0  -0.1418
  C  C106  1  0.347900  0.650400  0.646700  1.0  0.6774
  C  C107  1  0.244400  0.741500  0.371800  1.0  0.653
  C  C108  1  0.020100  0.530800  0.529700  1.0  -0.1469
  C  C109  1  0.650400  0.197300  0.058400  1.0  -0.1404
  C  C110  1  0.699500  0.194300  0.990800  1.0  -0.0152
  C  C111  1  0.602400  0.153000  0.926900  1.0  -0.1563
  C  C112  1  0.454800  0.113200  0.930000  1.0  -0.1402
  C  C113  1  0.407800  0.116600  0.998600  1.0  0.2432
  C  C114  1  0.502400  0.158700  0.061200  1.0  -0.1371
  C  C115  1  0.160000  0.035100  0.949600  1.0  -0.0189
  C  C116  1  0.078700  0.430400  0.220700  1.0  0.1415
  C  C117  1  0.971600  0.536100  0.241200  1.0  -0.1615
  C  C118  1  0.878500  0.479200  0.257100  1.0  -0.0168
  C  C119  1  0.219100  0.543200  0.178000  1.0  0.0111
  C  C120  1  0.359000  0.562600  0.243300  1.0  -0.1268
  C  C121  1  0.776300  0.735200  0.215800  1.0  0.1441
  C  C122  1  0.850800  0.721900  0.112000  1.0  -0.0069
  C  C123  1  0.691800  0.689100  0.099500  1.0  -0.1421
  C  C124  1  0.487800  0.669700  0.180800  1.0  0.0396
  C  C125  1  0.515600  0.598000  0.217600  1.0  -0.1407
  C  C126  1  0.652100  0.150400  0.853300  1.0  0.6767
  C  C127  1  0.755600  0.241500  0.128200  1.0  0.6529
  C  C128  1  0.979900  0.030800  0.970300  1.0  -0.1475
  C  C129  1  0.650400  0.302700  0.558400  1.0  -0.141
  C  C130  1  0.699500  0.305700  0.490800  1.0  -0.016
  C  C131  1  0.602400  0.347000  0.426900  1.0  -0.1563
  C  C132  1  0.454800  0.386800  0.430000  1.0  -0.1399
  C  C133  1  0.407800  0.383400  0.498600  1.0  0.244
  C  C134  1  0.502400  0.341300  0.561200  1.0  -0.1375
  C  C135  1  0.160000  0.464900  0.449600  1.0  -0.0184
  C  C136  1  0.078700  0.069600  0.720700  1.0  0.1429
  C  C137  1  0.971600  0.963900  0.741200  1.0  -0.1609
  C  C138  1  0.878500  0.020800  0.757100  1.0  -0.0163
  C  C139  1  0.219100  0.956800  0.678000  1.0  0.0127
  C  C140  1  0.359000  0.937400  0.743300  1.0  -0.1276
  C  C141  1  0.776300  0.764800  0.715800  1.0  0.145
  C  C142  1  0.850800  0.778100  0.612000  1.0  -0.0073
  C  C143  1  0.691800  0.810900  0.599500  1.0  -0.1424
  C  C144  1  0.487800  0.830300  0.680800  1.0  0.0385
  C  C145  1  0.515600  0.902000  0.717600  1.0  -0.1405
  C  C146  1  0.652100  0.349600  0.353300  1.0  0.6768
  C  C147  1  0.755600  0.258500  0.628200  1.0  0.6526
  C  C148  1  0.979900  0.469200  0.470300  1.0  -0.1451
  C  C149  1  0.349600  0.802700  0.941600  1.0  -0.1416
  C  C150  1  0.300500  0.805700  0.009200  1.0  -0.0154
  C  C151  1  0.397600  0.847000  0.073100  1.0  -0.1557
  C  C152  1  0.545200  0.886800  0.070000  1.0  -0.1397
  C  C153  1  0.592200  0.883400  0.001400  1.0  0.2441
  C  C154  1  0.497600  0.841300  0.938800  1.0  -0.1383
  C  C155  1  0.840000  0.964900  0.050400  1.0  -0.0184
  C  C156  1  0.921300  0.569600  0.779300  1.0  0.1446
  C  C157  1  0.028400  0.463900  0.758800  1.0  -0.1613
  C  C158  1  0.121500  0.520800  0.742900  1.0  -0.0156
  C  C159  1  0.780900  0.456800  0.822000  1.0  0.0079
  C  C160  1  0.641000  0.437400  0.756700  1.0  -0.1263
  C  C161  1  0.223700  0.264800  0.784200  1.0  0.1444
  C  C162  1  0.149200  0.278100  0.888000  1.0  -0.0079
  C  C163  1  0.308200  0.310900  0.900500  1.0  -0.1416
  C  C164  1  0.512200  0.330300  0.819200  1.0  0.0391
  C  C165  1  0.484400  0.402000  0.782400  1.0  -0.1418
  C  C166  1  0.347900  0.849600  0.146700  1.0  0.6775
  C  C167  1  0.244400  0.758500  0.871800  1.0  0.652
  C  C168  1  0.020100  0.969200  0.029700  1.0  -0.1453
  N  N169  1  0.054100  0.913400  0.257300  1.0  -0.3816
  N  N170  1  0.906200  0.003900  0.285400  1.0  0.0275
  N  N171  1  0.096500  0.251600  0.313800  1.0  -0.3957
  N  N172  1  0.352800  0.197700  0.334700  1.0  0.0543
  N  N173  1  0.945900  0.413400  0.242700  1.0  -0.3829
  N  N174  1  0.093800  0.503900  0.214600  1.0  0.0254
  N  N175  1  0.903500  0.751600  0.186200  1.0  -0.3951
  N  N176  1  0.647200  0.697700  0.165300  1.0  0.0547
  N  N177  1  0.945900  0.086600  0.742700  1.0  -0.3827
  N  N178  1  0.093800  0.996100  0.714600  1.0  0.0251
  N  N179  1  0.903500  0.748400  0.686200  1.0  -0.3946
  N  N180  1  0.647200  0.802300  0.665300  1.0  0.0547
  N  N181  1  0.054100  0.586600  0.757300  1.0  -0.3838
  N  N182  1  0.906200  0.496100  0.785400  1.0  0.0278
  N  N183  1  0.096500  0.248400  0.813800  1.0  -0.3958
  N  N184  1  0.352800  0.302300  0.834700  1.0  0.0541
  O  O185  1  0.305200  0.749400  0.315030  1.0  -0.6032
  O  O186  1  0.103700  0.771200  0.370000  1.0  -0.6526
  O  O187  1  0.731700  0.579900  0.490600  1.0  -0.2878
  O  O188  1  0.206500  0.684540  0.643870  1.0  -0.598
  O  O189  1  0.441100  0.617100  0.705300  1.0  -0.5591
  O  O190  1  0.694800  0.249400  0.184970  1.0  -0.6023
  O  O191  1  0.896300  0.271200  0.130000  1.0  -0.6545
  O  O192  1  0.268300  0.079900  0.009400  1.0  -0.2865
  O  O193  1  0.793500  0.184540  0.856130  1.0  -0.597
  O  O194  1  0.558900  0.117100  0.794700  1.0  -0.5615
  O  O195  1  0.694800  0.250600  0.684970  1.0  -0.6025
  O  O196  1  0.896300  0.228800  0.630000  1.0  -0.6528
  O  O197  1  0.268300  0.420100  0.509400  1.0  -0.2863
  O  O198  1  0.793500  0.315460  0.356130  1.0  -0.5972
  O  O199  1  0.558900  0.382900  0.294700  1.0  -0.5617
  O  O200  1  0.305200  0.750600  0.815030  1.0  -0.6035
  O  O201  1  0.103700  0.728800  0.870000  1.0  -0.6514
  O  O202  1  0.731700  0.920100  0.990600  1.0  -0.2878
  O  O203  1  0.206500  0.815460  0.143870  1.0  -0.5984
  O  O204  1  0.441100  0.882900  0.205300  1.0  -0.5594
