# generated using pymatgen
data_Zn5(PO4)4
_symmetry_space_group_name_H-M   'P 1'
_cell_length_a   18.34400000
_cell_length_b   13.30340000
_cell_length_c   7.44970000
_cell_angle_alpha   90.00000000
_cell_angle_beta   90.00000000
_cell_angle_gamma   90.00000000
_symmetry_Int_Tables_number   1
_chemical_formula_structural   Zn5(PO4)4
_chemical_formula_sum   'Zn20 P16 O64'
_cell_volume   1818.00668225
_cell_formula_units_Z   4
loop_
 _symmetry_equiv_pos_site_id
 _symmetry_equiv_pos_as_xyz
  1  'x, y, z'
loop_
 _atom_site_type_symbol
 _atom_site_label
 _atom_site_symmetry_multiplicity
 _atom_site_fract_x
 _atom_site_fract_y
 _atom_site_fract_z
 _atom_site_occupancy
 _atom_site_charge
  Zn  Zn1  1  0.056500  0.878300  0.060800  1.0  1.038
  Zn  Zn2  1  0.966100  0.128400  0.491100  1.0  1.1417
  Zn  Zn3  1  0.443500  0.121700  0.560800  1.0  1.038
  Zn  Zn4  1  0.533900  0.871600  0.991100  1.0  1.1417
  Zn  Zn5  1  0.943500  0.378300  0.939200  1.0  1.0382
  Zn  Zn6  1  0.033900  0.628400  0.508900  1.0  1.1416
  Zn  Zn7  1  0.556500  0.621700  0.439200  1.0  1.0387
  Zn  Zn8  1  0.466100  0.371600  0.008900  1.0  1.1418
  Zn  Zn9  1  0.943500  0.121700  0.939200  1.0  1.0385
  Zn  Zn10  1  0.033900  0.871600  0.508900  1.0  1.1417
  Zn  Zn11  1  0.556500  0.878300  0.439200  1.0  1.0382
  Zn  Zn12  1  0.466100  0.128400  0.008900  1.0  1.1418
  Zn  Zn13  1  0.056500  0.621700  0.060800  1.0  1.0387
  Zn  Zn14  1  0.966100  0.371600  0.491100  1.0  1.1418
  Zn  Zn15  1  0.443500  0.378300  0.560800  1.0  1.038
  Zn  Zn16  1  0.533900  0.628400  0.991100  1.0  1.1416
  Zn  Zn17  1  0.166900  0.250000  0.859900  1.0  1.1693
  Zn  Zn18  1  0.333100  0.750000  0.359900  1.0  1.1698
  Zn  Zn19  1  0.833100  0.750000  0.140100  1.0  1.1698
  Zn  Zn20  1  0.666900  0.250000  0.640100  1.0  1.1693
  P  P21  1  0.085400  0.048100  0.751600  1.0  1.8798
  P  P22  1  0.414600  0.951900  0.251600  1.0  1.8752
  P  P23  1  0.914600  0.548100  0.248400  1.0  1.8755
  P  P24  1  0.585400  0.451900  0.748400  1.0  1.8797
  P  P25  1  0.914600  0.951900  0.248400  1.0  1.8753
  P  P26  1  0.585400  0.048100  0.748400  1.0  1.8799
  P  P27  1  0.085400  0.451900  0.751600  1.0  1.8795
  P  P28  1  0.414600  0.548100  0.251600  1.0  1.8753
  P  P29  1  0.042600  0.250000  0.188000  1.0  1.7917
  P  P30  1  0.345400  0.250000  0.815200  1.0  1.7311
  P  P31  1  0.457400  0.750000  0.688000  1.0  1.7877
  P  P32  1  0.154600  0.750000  0.315200  1.0  1.7325
  P  P33  1  0.957400  0.750000  0.812000  1.0  1.788
  P  P34  1  0.654600  0.750000  0.184800  1.0  1.7326
  P  P35  1  0.542600  0.250000  0.312000  1.0  1.7918
  P  P36  1  0.845400  0.250000  0.684800  1.0  1.7309
  O  O37  1  0.084700  0.995700  0.933100  1.0  -0.8045
  O  O38  1  0.009200  0.100100  0.729400  1.0  -0.919
  O  O39  1  0.146100  0.124900  0.742100  1.0  -0.7501
  O  O40  1  0.095800  0.976800  0.592900  1.0  -0.734
  O  O41  1  0.036400  0.344900  0.302300  1.0  -0.7577
  O  O42  1  0.356700  0.154600  0.703500  1.0  -0.729
  O  O43  1  0.415300  0.004300  0.433100  1.0  -0.8036
  O  O44  1  0.490800  0.899900  0.229400  1.0  -0.9187
  O  O45  1  0.353900  0.875100  0.242100  1.0  -0.7524
  O  O46  1  0.404200  0.023200  0.092900  1.0  -0.7318
  O  O47  1  0.463600  0.655100  0.802300  1.0  -0.758
  O  O48  1  0.143300  0.845400  0.203500  1.0  -0.7283
  O  O49  1  0.915300  0.495700  0.066900  1.0  -0.8063
  O  O50  1  0.990800  0.600100  0.270600  1.0  -0.9194
  O  O51  1  0.853900  0.624900  0.257900  1.0  -0.752
  O  O52  1  0.904200  0.476800  0.407100  1.0  -0.7312
  O  O53  1  0.963600  0.844900  0.697700  1.0  -0.7576
  O  O54  1  0.643300  0.654600  0.296500  1.0  -0.7291
  O  O55  1  0.584700  0.504300  0.566900  1.0  -0.8043
  O  O56  1  0.509200  0.399900  0.770600  1.0  -0.9193
  O  O57  1  0.646100  0.375100  0.757900  1.0  -0.7508
  O  O58  1  0.595800  0.523200  0.907100  1.0  -0.7331
  O  O59  1  0.536400  0.155100  0.197700  1.0  -0.7575
  O  O60  1  0.856700  0.345400  0.796500  1.0  -0.7278
  O  O61  1  0.915300  0.004300  0.066900  1.0  -0.8055
  O  O62  1  0.990800  0.899900  0.270600  1.0  -0.9193
  O  O63  1  0.853900  0.875100  0.257900  1.0  -0.7519
  O  O64  1  0.904200  0.023200  0.407100  1.0  -0.7313
  O  O65  1  0.963600  0.655100  0.697700  1.0  -0.7578
  O  O66  1  0.643300  0.845400  0.296500  1.0  -0.7278
  O  O67  1  0.584700  0.995700  0.566900  1.0  -0.805
  O  O68  1  0.509200  0.100100  0.770600  1.0  -0.9196
  O  O69  1  0.646100  0.124900  0.757900  1.0  -0.7497
  O  O70  1  0.595800  0.976800  0.907100  1.0  -0.7334
  O  O71  1  0.536400  0.344900  0.197700  1.0  -0.7572
  O  O72  1  0.856700  0.154600  0.796500  1.0  -0.728
  O  O73  1  0.084700  0.504300  0.933100  1.0  -0.8041
  O  O74  1  0.009200  0.399900  0.729400  1.0  -0.9187
  O  O75  1  0.146100  0.375100  0.742100  1.0  -0.7508
  O  O76  1  0.095800  0.523200  0.592900  1.0  -0.7333
  O  O77  1  0.036400  0.155100  0.302300  1.0  -0.758
  O  O78  1  0.356700  0.345400  0.703500  1.0  -0.7288
  O  O79  1  0.415300  0.495700  0.433100  1.0  -0.804
  O  O80  1  0.490800  0.600100  0.229400  1.0  -0.9188
  O  O81  1  0.353900  0.624900  0.242100  1.0  -0.7519
  O  O82  1  0.404200  0.476800  0.092900  1.0  -0.7324
  O  O83  1  0.463600  0.844900  0.802300  1.0  -0.7578
  O  O84  1  0.143300  0.654600  0.203500  1.0  -0.7297
  O  O85  1  0.976800  0.250000  0.052100  1.0  -0.9057
  O  O86  1  0.113900  0.250000  0.088300  1.0  -0.8359
  O  O87  1  0.406600  0.250000  0.965300  1.0  -0.917
  O  O88  1  0.271200  0.250000  0.904000  1.0  -0.7621
  O  O89  1  0.523200  0.750000  0.552100  1.0  -0.9059
  O  O90  1  0.386100  0.750000  0.588300  1.0  -0.8377
  O  O91  1  0.093400  0.750000  0.465300  1.0  -0.9151
  O  O92  1  0.228800  0.750000  0.404000  1.0  -0.76
  O  O93  1  0.023200  0.750000  0.947900  1.0  -0.9065
  O  O94  1  0.886100  0.750000  0.911700  1.0  -0.8381
  O  O95  1  0.593400  0.750000  0.034700  1.0  -0.915
  O  O96  1  0.728800  0.750000  0.096000  1.0  -0.7574
  O  O97  1  0.476800  0.250000  0.447900  1.0  -0.9062
  O  O98  1  0.613900  0.250000  0.411700  1.0  -0.8354
  O  O99  1  0.906600  0.250000  0.534700  1.0  -0.9167
  O  O100  1  0.771200  0.250000  0.596000  1.0  -0.76
