# generated using pymatgen
data_CdH10C10(NO2)2
_symmetry_space_group_name_H-M   'P 1'
_cell_length_a   9.56670000
_cell_length_b   16.40810000
_cell_length_c   16.44690000
_cell_angle_alpha   90.00000000
_cell_angle_beta   90.00000000
_cell_angle_gamma   90.00000000
_symmetry_Int_Tables_number   1
_chemical_formula_structural   CdH10C10(NO2)2
_chemical_formula_sum   'Cd8 H80 C80 N16 O32'
_cell_volume   2581.69242969
_cell_formula_units_Z   8
loop_
 _symmetry_equiv_pos_site_id
 _symmetry_equiv_pos_as_xyz
  1  'x, y, z'
loop_
 _atom_site_type_symbol
 _atom_site_label
 _atom_site_symmetry_multiplicity
 _atom_site_fract_x
 _atom_site_fract_y
 _atom_site_fract_z
 _atom_site_occupancy
 _atom_site_charge
  Cd  Cd1  1  0.025570  0.429640  0.120790  1.0  1.0141
  Cd  Cd2  1  0.684430  0.749880  0.851050  1.0  0.9715
  Cd  Cd3  1  0.474430  0.570360  0.620790  1.0  1.013
  Cd  Cd4  1  0.815570  0.250120  0.351050  1.0  0.9722
  Cd  Cd5  1  0.974430  0.929640  0.379210  1.0  1.0054
  Cd  Cd6  1  0.315570  0.249880  0.648950  1.0  0.9727
  Cd  Cd7  1  0.525570  0.070360  0.879210  1.0  1.0097
  Cd  Cd8  1  0.184430  0.750120  0.148950  1.0  0.9728
  H  H9  1  0.474700  0.702300  0.093700  1.0  0.2547
  H  H10  1  0.817300  0.369100  0.000600  1.0  0.2632
  H  H11  1  0.434100  0.575800  0.053000  1.0  0.0741
  H  H12  1  0.258500  0.695500  0.979200  1.0  0.1362
  H  H13  1  0.294800  0.612700  0.936900  1.0  0.1405
  H  H14  1  0.469200  0.689500  0.231900  1.0  0.0969
  H  H15  1  0.380700  0.610200  0.219000  1.0  0.1041
  H  H16  1  0.703700  0.416000  0.149300  1.0  0.0713
  H  H17  1  0.497700  0.484000  0.173600  1.0  0.1394
  H  H18  1  0.718100  0.690400  0.188700  1.0  0.1279
  H  H19  1  0.917000  0.617700  0.166500  1.0  0.0834
  H  H20  1  0.920100  0.248700  0.972000  1.0  0.0844
  H  H21  1  0.824000  0.184700  0.078200  1.0  0.1468
  H  H22  1  0.735700  0.264400  0.069900  1.0  0.1244
  H  H23  1  0.067600  0.392400  0.929400  1.0  0.0969
  H  H24  1  0.939800  0.349600  0.887500  1.0  0.0843
  H  H25  1  0.989600  0.659900  0.878700  1.0  0.075
  H  H26  1  0.085600  0.537300  0.910900  1.0  0.1253
  H  H27  1  0.709600  0.435000  0.882400  1.0  0.1352
  H  H28  1  0.623700  0.562100  0.850500  1.0  0.0783
  H  H29  1  0.025300  0.297700  0.593700  1.0  0.2554
  H  H30  1  0.682700  0.630900  0.500600  1.0  0.2745
  H  H31  1  0.065900  0.424200  0.553000  1.0  0.0746
  H  H32  1  0.241500  0.304500  0.479200  1.0  0.1366
  H  H33  1  0.205200  0.387300  0.436900  1.0  0.1401
  H  H34  1  0.030800  0.310500  0.731900  1.0  0.0974
  H  H35  1  0.119300  0.389800  0.719000  1.0  0.1033
  H  H36  1  0.796300  0.584000  0.649300  1.0  0.0717
  H  H37  1  0.002300  0.516000  0.673600  1.0  0.1399
  H  H38  1  0.781900  0.309600  0.688700  1.0  0.1291
  H  H39  1  0.583000  0.382300  0.666500  1.0  0.0835
  H  H40  1  0.579900  0.751300  0.472000  1.0  0.0849
  H  H41  1  0.676000  0.815300  0.578200  1.0  0.1435
  H  H42  1  0.764300  0.735600  0.569900  1.0  0.126
  H  H43  1  0.432400  0.607600  0.429400  1.0  0.0984
  H  H44  1  0.560200  0.650400  0.387500  1.0  0.0858
  H  H45  1  0.510400  0.340100  0.378700  1.0  0.0749
  H  H46  1  0.414400  0.462700  0.410900  1.0  0.1258
  H  H47  1  0.790400  0.565000  0.382400  1.0  0.136
  H  H48  1  0.876300  0.437900  0.350500  1.0  0.0784
  H  H49  1  0.525300  0.202300  0.406300  1.0  0.2484
  H  H50  1  0.182700  0.869100  0.499400  1.0  0.2737
  H  H51  1  0.565900  0.075800  0.447000  1.0  0.0745
  H  H52  1  0.741500  0.195500  0.520800  1.0  0.1357
  H  H53  1  0.705200  0.112700  0.563100  1.0  0.1412
  H  H54  1  0.530800  0.189500  0.268100  1.0  0.0981
  H  H55  1  0.619300  0.110200  0.281000  1.0  0.1034
  H  H56  1  0.296300  0.916000  0.350700  1.0  0.0713
  H  H57  1  0.502300  0.984000  0.326400  1.0  0.14
  H  H58  1  0.281900  0.190400  0.311300  1.0  0.1287
  H  H59  1  0.083000  0.117700  0.333500  1.0  0.0832
  H  H60  1  0.079900  0.748700  0.528000  1.0  0.0857
  H  H61  1  0.176000  0.684700  0.421800  1.0  0.1462
  H  H62  1  0.264300  0.764400  0.430100  1.0  0.127
  H  H63  1  0.932400  0.892400  0.570600  1.0  0.0978
  H  H64  1  0.060200  0.849600  0.612500  1.0  0.086
  H  H65  1  0.010400  0.159900  0.621300  1.0  0.0749
  H  H66  1  0.914400  0.037300  0.589100  1.0  0.1265
  H  H67  1  0.290400  0.935000  0.617600  1.0  0.1361
  H  H68  1  0.376300  0.062100  0.649500  1.0  0.0783
  H  H69  1  0.974700  0.797700  0.906300  1.0  0.2559
  H  H70  1  0.317300  0.130900  0.999400  1.0  0.2665
  H  H71  1  0.934100  0.924200  0.947000  1.0  0.0745
  H  H72  1  0.758500  0.804500  0.020800  1.0  0.1366
  H  H73  1  0.794800  0.887300  0.063100  1.0  0.1404
  H  H74  1  0.969200  0.810500  0.768100  1.0  0.0973
  H  H75  1  0.880700  0.889800  0.781000  1.0  0.1047
  H  H76  1  0.203700  0.084000  0.850700  1.0  0.0715
  H  H77  1  0.997700  0.016000  0.826400  1.0  0.1393
  H  H78  1  0.218100  0.809600  0.811300  1.0  0.1286
  H  H79  1  0.417000  0.882300  0.833500  1.0  0.0834
  H  H80  1  0.420100  0.251300  0.028000  1.0  0.0852
  H  H81  1  0.324000  0.315300  0.921800  1.0  0.1439
  H  H82  1  0.235700  0.235600  0.930100  1.0  0.1248
  H  H83  1  0.567600  0.107600  0.070600  1.0  0.0964
  H  H84  1  0.439800  0.150400  0.112500  1.0  0.0855
  H  H85  1  0.489600  0.840100  0.121300  1.0  0.0751
  H  H86  1  0.585600  0.962700  0.089100  1.0  0.1258
  H  H87  1  0.209600  0.065000  0.117600  1.0  0.1359
  H  H88  1  0.123700  0.937900  0.149500  1.0  0.0785
  C  C89  1  0.223800  0.571700  0.085100  1.0  0.6172
  C  C90  1  0.357500  0.615200  0.057200  1.0  0.0486
  C  C91  1  0.330500  0.654300  0.973300  1.0  -0.3554
  C  C92  1  0.456100  0.692700  0.935100  1.0  0.7069
  C  C93  1  0.450800  0.645200  0.194500  1.0  -0.0207
  C  C94  1  0.706400  0.472200  0.156600  1.0  0.1898
  C  C95  1  0.581500  0.512600  0.171200  1.0  -0.2123
  C  C96  1  0.583500  0.596800  0.182300  1.0  0.1115
  C  C97  1  0.712200  0.634400  0.180400  1.0  -0.1959
  C  C98  1  0.831700  0.590500  0.166400  1.0  0.1959
  C  C99  1  0.082400  0.257800  0.053300  1.0  0.6205
  C  C100  1  0.934000  0.277300  0.023700  1.0  0.0427
  C  C101  1  0.827100  0.243400  0.084500  1.0  -0.3824
  C  C102  1  0.852300  0.262200  0.172900  1.0  0.7362
  C  C103  1  0.966300  0.390000  0.927700  1.0  0.0004
  C  C104  1  0.931700  0.614400  0.880600  1.0  0.1848
  C  C105  1  0.990400  0.540600  0.900000  1.0  -0.2114
  C  C106  1  0.909200  0.471700  0.903300  1.0  0.1291
  C  C107  1  0.768400  0.480100  0.883200  1.0  -0.2077
  C  C108  1  0.717700  0.557200  0.864200  1.0  0.1865
  C  C109  1  0.276200  0.428300  0.585100  1.0  0.6155
  C  C110  1  0.142500  0.384800  0.557200  1.0  0.0499
  C  C111  1  0.169500  0.345700  0.473300  1.0  -0.3564
  C  C112  1  0.043900  0.307300  0.435100  1.0  0.7066
  C  C113  1  0.049200  0.354800  0.694500  1.0  -0.0211
  C  C114  1  0.793600  0.527800  0.656600  1.0  0.1894
  C  C115  1  0.918500  0.487400  0.671200  1.0  -0.2137
  C  C116  1  0.916500  0.403200  0.682300  1.0  0.111
  C  C117  1  0.787800  0.365600  0.680400  1.0  -0.1941
  C  C118  1  0.668300  0.409500  0.666400  1.0  0.1945
  C  C119  1  0.417600  0.742200  0.553300  1.0  0.6202
  C  C120  1  0.566000  0.722700  0.523700  1.0  0.0424
  C  C121  1  0.672900  0.756600  0.584500  1.0  -0.3822
  C  C122  1  0.647700  0.737800  0.672900  1.0  0.7365
  C  C123  1  0.533700  0.610000  0.427700  1.0  0.0004
  C  C124  1  0.568300  0.385600  0.380600  1.0  0.1847
  C  C125  1  0.509600  0.459400  0.400000  1.0  -0.2117
  C  C126  1  0.590800  0.528300  0.403300  1.0  0.1284
  C  C127  1  0.731600  0.519900  0.383200  1.0  -0.2069
  C  C128  1  0.782300  0.442800  0.364200  1.0  0.1874
  C  C129  1  0.776200  0.071700  0.414900  1.0  0.6164
  C  C130  1  0.642500  0.115200  0.442800  1.0  0.0489
  C  C131  1  0.669500  0.154300  0.526700  1.0  -0.3559
  C  C132  1  0.543900  0.192700  0.564900  1.0  0.7063
  C  C133  1  0.549200  0.145200  0.305500  1.0  -0.0223
  C  C134  1  0.293600  0.972200  0.343400  1.0  0.1902
  C  C135  1  0.418500  0.012600  0.328800  1.0  -0.2128
  C  C136  1  0.416500  0.096800  0.317700  1.0  0.1119
  C  C137  1  0.287800  0.134400  0.319600  1.0  -0.1944
  C  C138  1  0.168300  0.090500  0.333600  1.0  0.1951
  C  C139  1  0.917600  0.757800  0.446700  1.0  0.6206
  C  C140  1  0.066000  0.777300  0.476300  1.0  0.0413
  C  C141  1  0.172900  0.743400  0.415500  1.0  -0.3831
  C  C142  1  0.147700  0.762200  0.327100  1.0  0.7372
  C  C143  1  0.033700  0.890000  0.572300  1.0  -0.0004
  C  C144  1  0.068300  0.114400  0.619400  1.0  0.185
  C  C145  1  0.009600  0.040600  0.600000  1.0  -0.2118
  C  C146  1  0.090800  0.971700  0.596700  1.0  0.1289
  C  C147  1  0.231600  0.980100  0.616800  1.0  -0.2069
  C  C148  1  0.282300  0.057200  0.635800  1.0  0.1877
  C  C149  1  0.723800  0.928300  0.914900  1.0  0.6168
  C  C150  1  0.857500  0.884800  0.942800  1.0  0.0499
  C  C151  1  0.830500  0.845700  0.026700  1.0  -0.356
  C  C152  1  0.956100  0.807300  0.064900  1.0  0.7062
  C  C153  1  0.950800  0.854800  0.805500  1.0  -0.0208
  C  C154  1  0.206400  0.027800  0.843400  1.0  0.1896
  C  C155  1  0.081500  0.987400  0.828800  1.0  -0.214
  C  C156  1  0.083500  0.903200  0.817700  1.0  0.1114
  C  C157  1  0.212200  0.865600  0.819600  1.0  -0.1956
  C  C158  1  0.331700  0.909500  0.833600  1.0  0.1952
  C  C159  1  0.582400  0.242200  0.946700  1.0  0.6199
  C  C160  1  0.434000  0.222700  0.976300  1.0  0.043
  C  C161  1  0.327100  0.256600  0.915500  1.0  -0.3827
  C  C162  1  0.352300  0.237800  0.827100  1.0  0.7372
  C  C163  1  0.466300  0.110000  0.072300  1.0  1e-04
  C  C164  1  0.431700  0.885600  0.119400  1.0  0.1848
  C  C165  1  0.490400  0.959400  0.100000  1.0  -0.2113
  C  C166  1  0.409200  0.028300  0.096700  1.0  0.1285
  C  C167  1  0.268400  0.019900  0.116800  1.0  -0.2077
  C  C168  1  0.217700  0.942800  0.135800  1.0  0.1871
  N  N169  1  0.394100  0.679400  0.117000  1.0  -0.4528
  N  N170  1  0.830500  0.509700  0.152400  1.0  -0.3873
  N  N171  1  0.912500  0.365300  0.008400  1.0  -0.4911
  N  N172  1  0.795600  0.624300  0.864400  1.0  -0.3729
  N  N173  1  0.105900  0.320600  0.617000  1.0  -0.4517
  N  N174  1  0.669500  0.490300  0.652400  1.0  -0.3894
  N  N175  1  0.587500  0.634700  0.508400  1.0  -0.4875
  N  N176  1  0.704400  0.375700  0.364400  1.0  -0.3719
  N  N177  1  0.605900  0.179400  0.383000  1.0  -0.4519
  N  N178  1  0.169500  0.009700  0.347600  1.0  -0.3911
  N  N179  1  0.087500  0.865300  0.491600  1.0  -0.4806
  N  N180  1  0.204400  0.124300  0.635600  1.0  -0.3727
  N  N181  1  0.894100  0.820600  0.883000  1.0  -0.4526
  N  N182  1  0.330500  0.990300  0.847600  1.0  -0.3885
  N  N183  1  0.412500  0.134700  0.991600  1.0  -0.4869
  N  N184  1  0.295600  0.875700  0.135600  1.0  -0.373
  O  O185  1  0.133800  0.611530  0.123700  1.0  -0.5828
  O  O186  1  0.210100  0.496900  0.066900  1.0  -0.5839
  O  O187  1  0.460700  0.697330  0.857850  1.0  -0.618
  O  O188  1  0.555100  0.719100  0.977810  1.0  -0.6301
  O  O189  1  0.156900  0.316360  0.079110  1.0  -0.6317
  O  O190  1  0.119000  0.184600  0.049300  1.0  -0.6171
  O  O191  1  0.900300  0.329830  0.194530  1.0  -0.6335
  O  O192  1  0.812900  0.207770  0.223310  1.0  -0.6184
  O  O193  1  0.366200  0.388470  0.623700  1.0  -0.5833
  O  O194  1  0.289900  0.503100  0.566900  1.0  -0.585
  O  O195  1  0.039300  0.302670  0.357850  1.0  -0.6185
  O  O196  1  0.944900  0.280900  0.477810  1.0  -0.6299
  O  O197  1  0.343100  0.683640  0.579110  1.0  -0.6342
  O  O198  1  0.381000  0.815400  0.549300  1.0  -0.6169
  O  O199  1  0.599700  0.670170  0.694530  1.0  -0.6346
  O  O200  1  0.687100  0.792230  0.723310  1.0  -0.6182
  O  O201  1  0.866200  0.111530  0.376300  1.0  -0.5819
  O  O202  1  0.789900  0.996900  0.433100  1.0  -0.5839
  O  O203  1  0.539300  0.197330  0.642150  1.0  -0.6168
  O  O204  1  0.444900  0.219100  0.522190  1.0  -0.6304
  O  O205  1  0.843100  0.816360  0.420890  1.0  -0.6323
  O  O206  1  0.881000  0.684600  0.450700  1.0  -0.616
  O  O207  1  0.099700  0.829830  0.305470  1.0  -0.6334
  O  O208  1  0.187100  0.707770  0.276690  1.0  -0.6192
  O  O209  1  0.633800  0.888470  0.876300  1.0  -0.5827
  O  O210  1  0.710100  0.003100  0.933100  1.0  -0.5847
  O  O211  1  0.960700  0.802670  0.142150  1.0  -0.6176
  O  O212  1  0.055100  0.780900  0.022190  1.0  -0.6307
  O  O213  1  0.656900  0.183640  0.920890  1.0  -0.633
  O  O214  1  0.619000  0.315400  0.950700  1.0  -0.6174
  O  O215  1  0.400300  0.170170  0.805470  1.0  -0.6334
  O  O216  1  0.312900  0.292230  0.776690  1.0  -0.6166
