# generated using pymatgen
data_Cu2H3C7INO4
_symmetry_space_group_name_H-M   'P 1'
_cell_length_a   19.21000000
_cell_length_b   19.21000000
_cell_length_c   10.99400000
_cell_angle_alpha   90.00000000
_cell_angle_beta   90.00000000
_cell_angle_gamma   90.00000000
_symmetry_Int_Tables_number   1
_chemical_formula_structural   Cu2H3C7INO4
_chemical_formula_sum   'Cu16 H24 C56 I8 N8 O32'
_cell_volume   4057.05095540
_cell_formula_units_Z   8
loop_
 _symmetry_equiv_pos_site_id
 _symmetry_equiv_pos_as_xyz
  1  'x, y, z'
loop_
 _atom_site_type_symbol
 _atom_site_label
 _atom_site_symmetry_multiplicity
 _atom_site_fract_x
 _atom_site_fract_y
 _atom_site_fract_z
 _atom_site_occupancy
 _atom_site_charge
  Cu  Cu1  1  0.681470  0.250000  0.086590  1.0  0.1187
  Cu  Cu2  1  0.818530  0.250000  0.086590  1.0  0.119
  Cu  Cu3  1  0.250000  0.681470  0.086590  1.0  0.1196
  Cu  Cu4  1  0.250000  0.818530  0.086590  1.0  0.1187
  Cu  Cu5  1  0.318530  0.750000  0.913410  1.0  0.1192
  Cu  Cu6  1  0.181470  0.750000  0.913410  1.0  0.1189
  Cu  Cu7  1  0.750000  0.181470  0.913410  1.0  0.1199
  Cu  Cu8  1  0.750000  0.318530  0.913410  1.0  0.1189
  Cu  Cu9  1  0.469540  0.469540  0.595000  1.0  0.904
  Cu  Cu10  1  0.030460  0.030460  0.595000  1.0  0.905
  Cu  Cu11  1  0.030460  0.469540  0.595000  1.0  0.9045
  Cu  Cu12  1  0.469540  0.030460  0.595000  1.0  0.9041
  Cu  Cu13  1  0.530460  0.969540  0.405000  1.0  0.904
  Cu  Cu14  1  0.969540  0.530460  0.405000  1.0  0.9054
  Cu  Cu15  1  0.969540  0.969540  0.405000  1.0  0.9048
  Cu  Cu16  1  0.530460  0.530460  0.405000  1.0  0.9045
  H  H17  1  0.594300  0.351400  0.225900  1.0  0.1057
  H  H18  1  0.905700  0.148600  0.225900  1.0  0.1057
  H  H19  1  0.148600  0.594300  0.225900  1.0  0.1061
  H  H20  1  0.351400  0.905700  0.225900  1.0  0.1058
  H  H21  1  0.405700  0.851400  0.774100  1.0  0.1052
  H  H22  1  0.094300  0.648600  0.774100  1.0  0.1056
  H  H23  1  0.851400  0.094300  0.774100  1.0  0.106
  H  H24  1  0.648600  0.405700  0.774100  1.0  0.1056
  H  H25  1  0.405700  0.648600  0.774100  1.0  0.1056
  H  H26  1  0.094300  0.851400  0.774100  1.0  0.1055
  H  H27  1  0.851400  0.405700  0.774100  1.0  0.1057
  H  H28  1  0.648600  0.094300  0.774100  1.0  0.106
  H  H29  1  0.594300  0.148600  0.225900  1.0  0.106
  H  H30  1  0.905700  0.351400  0.225900  1.0  0.1054
  H  H31  1  0.148600  0.905700  0.225900  1.0  0.1057
  H  H32  1  0.351400  0.594300  0.225900  1.0  0.1062
  H  H33  1  0.481400  0.250000  0.473200  1.0  0.1381
  H  H34  1  0.018600  0.250000  0.473200  1.0  0.1384
  H  H35  1  0.250000  0.481400  0.473200  1.0  0.1392
  H  H36  1  0.250000  0.018600  0.473200  1.0  0.1393
  H  H37  1  0.518600  0.750000  0.526800  1.0  0.138
  H  H38  1  0.981400  0.750000  0.526800  1.0  0.1379
  H  H39  1  0.750000  0.981400  0.526800  1.0  0.1388
  H  H40  1  0.750000  0.518600  0.526800  1.0  0.1391
  C  C41  1  0.579700  0.309600  0.259900  1.0  0.1905
  C  C42  1  0.534200  0.311600  0.356800  1.0  -0.1978
  C  C43  1  0.514900  0.381400  0.409500  1.0  0.7072
  C  C44  1  0.920300  0.190400  0.259900  1.0  0.1899
  C  C45  1  0.965800  0.188400  0.356800  1.0  -0.1969
  C  C46  1  0.985100  0.118600  0.409500  1.0  0.7078
  C  C47  1  0.190400  0.579700  0.259900  1.0  0.1876
  C  C48  1  0.188400  0.534200  0.356800  1.0  -0.198
  C  C49  1  0.118600  0.514900  0.409500  1.0  0.7075
  C  C50  1  0.309600  0.920300  0.259900  1.0  0.1874
  C  C51  1  0.311600  0.965800  0.356800  1.0  -0.1972
  C  C52  1  0.381400  0.985100  0.409500  1.0  0.707
  C  C53  1  0.420300  0.809600  0.740100  1.0  0.1892
  C  C54  1  0.465800  0.811600  0.643200  1.0  -0.1983
  C  C55  1  0.485100  0.881400  0.590500  1.0  0.7084
  C  C56  1  0.079700  0.690400  0.740100  1.0  0.19
  C  C57  1  0.034200  0.688400  0.643200  1.0  -0.198
  C  C58  1  0.014900  0.618600  0.590500  1.0  0.7073
  C  C59  1  0.809600  0.079700  0.740100  1.0  0.1863
  C  C60  1  0.811600  0.034200  0.643200  1.0  -0.198
  C  C61  1  0.881400  0.014900  0.590500  1.0  0.7069
  C  C62  1  0.690400  0.420300  0.740100  1.0  0.1875
  C  C63  1  0.688400  0.465800  0.643200  1.0  -0.1974
  C  C64  1  0.618600  0.485100  0.590500  1.0  0.7077
  C  C65  1  0.420300  0.690400  0.740100  1.0  0.1856
  C  C66  1  0.465800  0.688400  0.643200  1.0  -0.1968
  C  C67  1  0.485100  0.618600  0.590500  1.0  0.7079
  C  C68  1  0.079700  0.809600  0.740100  1.0  0.1863
  C  C69  1  0.034200  0.811600  0.643200  1.0  -0.1984
  C  C70  1  0.014900  0.881400  0.590500  1.0  0.7075
  C  C71  1  0.809600  0.420300  0.740100  1.0  0.1834
  C  C72  1  0.811600  0.465800  0.643200  1.0  -0.1976
  C  C73  1  0.881400  0.485100  0.590500  1.0  0.7073
  C  C74  1  0.690400  0.079700  0.740100  1.0  0.1824
  C  C75  1  0.688400  0.034200  0.643200  1.0  -0.1984
  C  C76  1  0.618600  0.014900  0.590500  1.0  0.7075
  C  C77  1  0.579700  0.190400  0.259900  1.0  0.1864
  C  C78  1  0.534200  0.188400  0.356800  1.0  -0.1979
  C  C79  1  0.514900  0.118600  0.409500  1.0  0.7071
  C  C80  1  0.920300  0.309600  0.259900  1.0  0.187
  C  C81  1  0.965800  0.311600  0.356800  1.0  -0.1979
  C  C82  1  0.985100  0.381400  0.409500  1.0  0.7083
  C  C83  1  0.190400  0.920300  0.259900  1.0  0.1844
  C  C84  1  0.188400  0.965800  0.356800  1.0  -0.197
  C  C85  1  0.118600  0.985100  0.409500  1.0  0.7076
  C  C86  1  0.309600  0.579700  0.259900  1.0  0.1834
  C  C87  1  0.311600  0.534200  0.356800  1.0  -0.1976
  C  C88  1  0.381400  0.514900  0.409500  1.0  0.7067
  C  C89  1  0.511500  0.250000  0.406900  1.0  0.0265
  C  C90  1  0.988500  0.250000  0.406900  1.0  0.0265
  C  C91  1  0.250000  0.511500  0.406900  1.0  0.0267
  C  C92  1  0.250000  0.988500  0.406900  1.0  0.0259
  C  C93  1  0.488500  0.750000  0.593100  1.0  0.0268
  C  C94  1  0.011500  0.750000  0.593100  1.0  0.0262
  C  C95  1  0.750000  0.011500  0.593100  1.0  0.0261
  C  C96  1  0.750000  0.488500  0.593100  1.0  0.0261
  I  I97  1  0.629040  0.250000  0.864110  1.0  -0.2381
  I  I98  1  0.870960  0.250000  0.864110  1.0  -0.24
  I  I99  1  0.250000  0.629040  0.864110  1.0  -0.2378
  I  I100  1  0.250000  0.870960  0.864110  1.0  -0.2385
  I  I101  1  0.370960  0.750000  0.135890  1.0  -0.2396
  I  I102  1  0.129040  0.750000  0.135890  1.0  -0.238
  I  I103  1  0.750000  0.129040  0.135890  1.0  -0.2377
  I  I104  1  0.750000  0.370960  0.135890  1.0  -0.2383
  N  N105  1  0.603800  0.250000  0.212500  1.0  -0.2955
  N  N106  1  0.896200  0.250000  0.212500  1.0  -0.2959
  N  N107  1  0.250000  0.603800  0.212500  1.0  -0.2962
  N  N108  1  0.250000  0.896200  0.212500  1.0  -0.2967
  N  N109  1  0.396200  0.750000  0.787500  1.0  -0.2961
  N  N110  1  0.103800  0.750000  0.787500  1.0  -0.2957
  N  N111  1  0.750000  0.103800  0.787500  1.0  -0.2967
  N  N112  1  0.750000  0.396200  0.787500  1.0  -0.2959
  O  O113  1  0.483830  0.381680  0.508200  1.0  -0.5556
  O  O114  1  0.535600  0.433350  0.350600  1.0  -0.5741
  O  O115  1  0.016170  0.118320  0.508200  1.0  -0.5562
  O  O116  1  0.964400  0.066650  0.350600  1.0  -0.5738
  O  O117  1  0.118320  0.483830  0.508200  1.0  -0.5562
  O  O118  1  0.066650  0.535600  0.350600  1.0  -0.5733
  O  O119  1  0.381680  0.016170  0.508200  1.0  -0.5561
  O  O120  1  0.433350  0.964400  0.350600  1.0  -0.574
  O  O121  1  0.516170  0.881680  0.491800  1.0  -0.5565
  O  O122  1  0.464400  0.933350  0.649400  1.0  -0.5729
  O  O123  1  0.983830  0.618320  0.491800  1.0  -0.5554
  O  O124  1  0.035600  0.566650  0.649400  1.0  -0.5732
  O  O125  1  0.881680  0.983830  0.491800  1.0  -0.5561
  O  O126  1  0.933350  0.035600  0.649400  1.0  -0.5726
  O  O127  1  0.618320  0.516170  0.491800  1.0  -0.5557
  O  O128  1  0.566650  0.464400  0.649400  1.0  -0.5722
  O  O129  1  0.516170  0.618320  0.491800  1.0  -0.5562
  O  O130  1  0.464400  0.566650  0.649400  1.0  -0.5731
  O  O131  1  0.983830  0.881680  0.491800  1.0  -0.5555
  O  O132  1  0.035600  0.933350  0.649400  1.0  -0.5731
  O  O133  1  0.881680  0.516170  0.491800  1.0  -0.556
  O  O134  1  0.933350  0.464400  0.649400  1.0  -0.5729
  O  O135  1  0.618320  0.983830  0.491800  1.0  -0.5561
  O  O136  1  0.566650  0.035600  0.649400  1.0  -0.5723
  O  O137  1  0.483830  0.118320  0.508200  1.0  -0.5558
  O  O138  1  0.535600  0.066650  0.350600  1.0  -0.5738
  O  O139  1  0.016170  0.381680  0.508200  1.0  -0.5562
  O  O140  1  0.964400  0.433350  0.350600  1.0  -0.5737
  O  O141  1  0.118320  0.016170  0.508200  1.0  -0.5559
  O  O142  1  0.066650  0.964400  0.350600  1.0  -0.5732
  O  O143  1  0.381680  0.483830  0.508200  1.0  -0.5561
  O  O144  1  0.433350  0.535600  0.350600  1.0  -0.574
