# generated using pymatgen
data_Cu3H6C14I(NO4)2
_symmetry_space_group_name_H-M   'P 1'
_cell_length_a   18.12900000
_cell_length_b   18.12900000
_cell_length_c   21.84100000
_cell_angle_alpha   90.00000000
_cell_angle_beta   90.00000000
_cell_angle_gamma   90.00000000
_symmetry_Int_Tables_number   1
_chemical_formula_structural   Cu3H6C14I(NO4)2
_chemical_formula_sum   'Cu24 H48 C112 I8 N16 O64'
_cell_volume   7178.27706008
_cell_formula_units_Z   8
loop_
 _symmetry_equiv_pos_site_id
 _symmetry_equiv_pos_as_xyz
  1  'x, y, z'
loop_
 _atom_site_type_symbol
 _atom_site_label
 _atom_site_symmetry_multiplicity
 _atom_site_fract_x
 _atom_site_fract_y
 _atom_site_fract_z
 _atom_site_occupancy
 _atom_site_charge
  Cu  Cu1  1  0.500000  0.926570  0.500000  1.0  0.2445
  Cu  Cu2  1  0.000000  0.426570  0.000000  1.0  0.2445
  Cu  Cu3  1  0.500000  0.073430  0.500000  1.0  0.2441
  Cu  Cu4  1  0.000000  0.573430  0.000000  1.0  0.2441
  Cu  Cu5  1  0.073430  0.500000  0.500000  1.0  0.2471
  Cu  Cu6  1  0.573430  0.000000  0.000000  1.0  0.2471
  Cu  Cu7  1  0.926570  0.500000  0.500000  1.0  0.2466
  Cu  Cu8  1  0.426570  0.000000  0.000000  1.0  0.2466
  Cu  Cu9  1  0.788760  0.788760  0.709350  1.0  0.8909
  Cu  Cu10  1  0.288760  0.288760  0.209350  1.0  0.8909
  Cu  Cu11  1  0.211240  0.211240  0.709350  1.0  0.8916
  Cu  Cu12  1  0.711240  0.711240  0.209350  1.0  0.8916
  Cu  Cu13  1  0.211240  0.788760  0.709350  1.0  0.8916
  Cu  Cu14  1  0.711240  0.288760  0.209350  1.0  0.8916
  Cu  Cu15  1  0.788760  0.211240  0.709350  1.0  0.8908
  Cu  Cu16  1  0.288760  0.711240  0.209350  1.0  0.8908
  Cu  Cu17  1  0.211240  0.788760  0.290650  1.0  0.8911
  Cu  Cu18  1  0.711240  0.288760  0.790650  1.0  0.8911
  Cu  Cu19  1  0.788760  0.211240  0.290650  1.0  0.892
  Cu  Cu20  1  0.288760  0.711240  0.790650  1.0  0.892
  Cu  Cu21  1  0.788760  0.788760  0.290650  1.0  0.892
  Cu  Cu22  1  0.288760  0.288760  0.790650  1.0  0.892
  Cu  Cu23  1  0.211240  0.211240  0.290650  1.0  0.8919
  Cu  Cu24  1  0.711240  0.711240  0.790650  1.0  0.8919
  H  H25  1  0.608900  0.858400  0.587400  1.0  0.1002
  H  H26  1  0.108900  0.358400  0.087400  1.0  0.1002
  H  H27  1  0.391100  0.141600  0.587400  1.0  0.1009
  H  H28  1  0.891100  0.641600  0.087400  1.0  0.1009
  H  H29  1  0.141600  0.608900  0.587400  1.0  0.1007
  H  H30  1  0.641600  0.108900  0.087400  1.0  0.1007
  H  H31  1  0.858400  0.391100  0.587400  1.0  0.1018
  H  H32  1  0.358400  0.891100  0.087400  1.0  0.1018
  H  H33  1  0.391100  0.858400  0.412600  1.0  0.1009
  H  H34  1  0.891100  0.358400  0.912600  1.0  0.1009
  H  H35  1  0.608900  0.141600  0.412600  1.0  0.1008
  H  H36  1  0.108900  0.641600  0.912600  1.0  0.1008
  H  H37  1  0.858400  0.608900  0.412600  1.0  0.1015
  H  H38  1  0.358400  0.108900  0.912600  1.0  0.1015
  H  H39  1  0.141600  0.391100  0.412600  1.0  0.1025
  H  H40  1  0.641600  0.891100  0.912600  1.0  0.1025
  H  H41  1  0.391100  0.141600  0.412600  1.0  0.1014
  H  H42  1  0.891100  0.641600  0.912600  1.0  0.1014
  H  H43  1  0.608900  0.858400  0.412600  1.0  0.1008
  H  H44  1  0.108900  0.358400  0.912600  1.0  0.1008
  H  H45  1  0.858400  0.391100  0.412600  1.0  0.1023
  H  H46  1  0.358400  0.891100  0.912600  1.0  0.1023
  H  H47  1  0.141600  0.608900  0.412600  1.0  0.1015
  H  H48  1  0.641600  0.108900  0.912600  1.0  0.1015
  H  H49  1  0.608900  0.141600  0.587400  1.0  0.1001
  H  H50  1  0.108900  0.641600  0.087400  1.0  0.1001
  H  H51  1  0.391100  0.858400  0.587400  1.0  0.1005
  H  H52  1  0.891100  0.358400  0.087400  1.0  0.1005
  H  H53  1  0.141600  0.391100  0.587400  1.0  0.102
  H  H54  1  0.641600  0.891100  0.087400  1.0  0.102
  H  H55  1  0.858400  0.608900  0.587400  1.0  0.1007
  H  H56  1  0.358400  0.108900  0.087400  1.0  0.1007
  H  H57  1  0.500000  0.745400  0.718000  1.0  0.1216
  H  H58  1  0.000000  0.245400  0.218000  1.0  0.1216
  H  H59  1  0.500000  0.254600  0.718000  1.0  0.1217
  H  H60  1  0.000000  0.754600  0.218000  1.0  0.1217
  H  H61  1  0.254600  0.500000  0.718000  1.0  0.1217
  H  H62  1  0.754600  0.000000  0.218000  1.0  0.1217
  H  H63  1  0.745400  0.500000  0.718000  1.0  0.1216
  H  H64  1  0.245400  0.000000  0.218000  1.0  0.1216
  H  H65  1  0.500000  0.745400  0.282000  1.0  0.1214
  H  H66  1  0.000000  0.245400  0.782000  1.0  0.1214
  H  H67  1  0.500000  0.254600  0.282000  1.0  0.1214
  H  H68  1  0.000000  0.754600  0.782000  1.0  0.1214
  H  H69  1  0.745400  0.500000  0.282000  1.0  0.1215
  H  H70  1  0.245400  0.000000  0.782000  1.0  0.1215
  H  H71  1  0.254600  0.500000  0.282000  1.0  0.1214
  H  H72  1  0.754600  0.000000  0.782000  1.0  0.1214
  C  C73  1  0.563600  0.842300  0.604800  1.0  0.1729
  C  C74  1  0.565800  0.798500  0.656300  1.0  -0.1523
  C  C75  1  0.637000  0.779000  0.687300  1.0  0.6771
  C  C76  1  0.063600  0.342300  0.104800  1.0  0.1729
  C  C77  1  0.065800  0.298500  0.156300  1.0  -0.1523
  C  C78  1  0.137000  0.279000  0.187300  1.0  0.6771
  C  C79  1  0.436400  0.157700  0.604800  1.0  0.1732
  C  C80  1  0.434200  0.201500  0.656300  1.0  -0.1529
  C  C81  1  0.363000  0.221000  0.687300  1.0  0.6774
  C  C82  1  0.936400  0.657700  0.104800  1.0  0.1732
  C  C83  1  0.934200  0.701500  0.156300  1.0  -0.1529
  C  C84  1  0.863000  0.721000  0.187300  1.0  0.6774
  C  C85  1  0.157700  0.563600  0.604800  1.0  0.1753
  C  C86  1  0.201500  0.565800  0.656300  1.0  -0.1528
  C  C87  1  0.221000  0.637000  0.687300  1.0  0.678
  C  C88  1  0.657700  0.063600  0.104800  1.0  0.1753
  C  C89  1  0.701500  0.065800  0.156300  1.0  -0.1528
  C  C90  1  0.721000  0.137000  0.187300  1.0  0.678
  C  C91  1  0.842300  0.436400  0.604800  1.0  0.1751
  C  C92  1  0.798500  0.434200  0.656300  1.0  -0.1522
  C  C93  1  0.779000  0.363000  0.687300  1.0  0.6781
  C  C94  1  0.342300  0.936400  0.104800  1.0  0.1751
  C  C95  1  0.298500  0.934200  0.156300  1.0  -0.1522
  C  C96  1  0.279000  0.863000  0.187300  1.0  0.6781
  C  C97  1  0.436400  0.842300  0.395200  1.0  0.1732
  C  C98  1  0.434200  0.798500  0.343700  1.0  -0.1531
  C  C99  1  0.363000  0.779000  0.312700  1.0  0.6773
  C  C100  1  0.936400  0.342300  0.895200  1.0  0.1732
  C  C101  1  0.934200  0.298500  0.843700  1.0  -0.1531
  C  C102  1  0.863000  0.279000  0.812700  1.0  0.6773
  C  C103  1  0.563600  0.157700  0.395200  1.0  0.173
  C  C104  1  0.565800  0.201500  0.343700  1.0  -0.152
  C  C105  1  0.637000  0.221000  0.312700  1.0  0.6774
  C  C106  1  0.063600  0.657700  0.895200  1.0  0.173
  C  C107  1  0.065800  0.701500  0.843700  1.0  -0.152
  C  C108  1  0.137000  0.721000  0.812700  1.0  0.6774
  C  C109  1  0.842300  0.563600  0.395200  1.0  0.1747
  C  C110  1  0.798500  0.565800  0.343700  1.0  -0.1523
  C  C111  1  0.779000  0.637000  0.312700  1.0  0.6785
  C  C112  1  0.342300  0.063600  0.895200  1.0  0.1747
  C  C113  1  0.298500  0.065800  0.843700  1.0  -0.1523
  C  C114  1  0.279000  0.137000  0.812700  1.0  0.6785
  C  C115  1  0.157700  0.436400  0.395200  1.0  0.1753
  C  C116  1  0.201500  0.434200  0.343700  1.0  -0.1516
  C  C117  1  0.221000  0.363000  0.312700  1.0  0.6782
  C  C118  1  0.657700  0.936400  0.895200  1.0  0.1753
  C  C119  1  0.701500  0.934200  0.843700  1.0  -0.1516
  C  C120  1  0.721000  0.863000  0.812700  1.0  0.6782
  C  C121  1  0.436400  0.157700  0.395200  1.0  0.1731
  C  C122  1  0.434200  0.201500  0.343700  1.0  -0.1531
  C  C123  1  0.363000  0.221000  0.312700  1.0  0.6776
  C  C124  1  0.936400  0.657700  0.895200  1.0  0.1731
  C  C125  1  0.934200  0.701500  0.843700  1.0  -0.1531
  C  C126  1  0.863000  0.721000  0.812700  1.0  0.6776
  C  C127  1  0.563600  0.842300  0.395200  1.0  0.1723
  C  C128  1  0.565800  0.798500  0.343700  1.0  -0.152
  C  C129  1  0.637000  0.779000  0.312700  1.0  0.6773
  C  C130  1  0.063600  0.342300  0.895200  1.0  0.1723
  C  C131  1  0.065800  0.298500  0.843700  1.0  -0.152
  C  C132  1  0.137000  0.279000  0.812700  1.0  0.6773
  C  C133  1  0.842300  0.436400  0.395200  1.0  0.1753
  C  C134  1  0.798500  0.434200  0.343700  1.0  -0.1518
  C  C135  1  0.779000  0.363000  0.312700  1.0  0.6783
  C  C136  1  0.342300  0.936400  0.895200  1.0  0.1753
  C  C137  1  0.298500  0.934200  0.843700  1.0  -0.1518
  C  C138  1  0.279000  0.863000  0.812700  1.0  0.6783
  C  C139  1  0.157700  0.563600  0.395200  1.0  0.1741
  C  C140  1  0.201500  0.565800  0.343700  1.0  -0.1526
  C  C141  1  0.221000  0.637000  0.312700  1.0  0.6783
  C  C142  1  0.657700  0.063600  0.895200  1.0  0.1741
  C  C143  1  0.701500  0.065800  0.843700  1.0  -0.1526
  C  C144  1  0.721000  0.137000  0.812700  1.0  0.6783
  C  C145  1  0.563600  0.157700  0.604800  1.0  0.1723
  C  C146  1  0.565800  0.201500  0.656300  1.0  -0.1522
  C  C147  1  0.637000  0.221000  0.687300  1.0  0.6773
  C  C148  1  0.063600  0.657700  0.104800  1.0  0.1723
  C  C149  1  0.065800  0.701500  0.156300  1.0  -0.1522
  C  C150  1  0.137000  0.721000  0.187300  1.0  0.6773
  C  C151  1  0.436400  0.842300  0.604800  1.0  0.173
  C  C152  1  0.434200  0.798500  0.656300  1.0  -0.1532
  C  C153  1  0.363000  0.779000  0.687300  1.0  0.6772
  C  C154  1  0.936400  0.342300  0.104800  1.0  0.173
  C  C155  1  0.934200  0.298500  0.156300  1.0  -0.1532
  C  C156  1  0.863000  0.279000  0.187300  1.0  0.6772
  C  C157  1  0.157700  0.436400  0.604800  1.0  0.1747
  C  C158  1  0.201500  0.434200  0.656300  1.0  -0.152
  C  C159  1  0.221000  0.363000  0.687300  1.0  0.6779
  C  C160  1  0.657700  0.936400  0.104800  1.0  0.1747
  C  C161  1  0.701500  0.934200  0.156300  1.0  -0.152
  C  C162  1  0.721000  0.863000  0.187300  1.0  0.6779
  C  C163  1  0.842300  0.563600  0.604800  1.0  0.1747
  C  C164  1  0.798500  0.565800  0.656300  1.0  -0.1524
  C  C165  1  0.779000  0.637000  0.687300  1.0  0.6783
  C  C166  1  0.342300  0.063600  0.104800  1.0  0.1747
  C  C167  1  0.298500  0.065800  0.156300  1.0  -0.1524
  C  C168  1  0.279000  0.137000  0.187300  1.0  0.6783
  C  C169  1  0.500000  0.775900  0.682600  1.0  0.0181
  C  C170  1  0.000000  0.275900  0.182600  1.0  0.0181
  C  C171  1  0.500000  0.224100  0.682600  1.0  0.0174
  C  C172  1  0.000000  0.724100  0.182600  1.0  0.0174
  C  C173  1  0.224100  0.500000  0.682600  1.0  0.0174
  C  C174  1  0.724100  0.000000  0.182600  1.0  0.0174
  C  C175  1  0.775900  0.500000  0.682600  1.0  0.0172
  C  C176  1  0.275900  0.000000  0.182600  1.0  0.0172
  C  C177  1  0.500000  0.775900  0.317400  1.0  0.0179
  C  C178  1  0.000000  0.275900  0.817400  1.0  0.0179
  C  C179  1  0.500000  0.224100  0.317400  1.0  0.018
  C  C180  1  0.000000  0.724100  0.817400  1.0  0.018
  C  C181  1  0.775900  0.500000  0.317400  1.0  0.0177
  C  C182  1  0.275900  0.000000  0.817400  1.0  0.0177
  C  C183  1  0.224100  0.500000  0.317400  1.0  0.018
  C  C184  1  0.724100  0.000000  0.817400  1.0  0.018
  I  I185  1  0.374270  0.000000  0.500000  1.0  -0.3057
  I  I186  1  0.874270  0.500000  0.000000  1.0  -0.3057
  I  I187  1  0.625730  0.000000  0.500000  1.0  -0.3068
  I  I188  1  0.125730  0.500000  0.000000  1.0  -0.3068
  I  I189  1  0.000000  0.374270  0.500000  1.0  -0.3074
  I  I190  1  0.500000  0.874270  0.000000  1.0  -0.3074
  I  I191  1  0.000000  0.625730  0.500000  1.0  -0.3084
  I  I192  1  0.500000  0.125730  0.000000  1.0  -0.3084
  N  N193  1  0.500000  0.863400  0.577900  1.0  -0.3176
  N  N194  1  0.000000  0.363400  0.077900  1.0  -0.3176
  N  N195  1  0.500000  0.136600  0.577900  1.0  -0.318
  N  N196  1  0.000000  0.636600  0.077900  1.0  -0.318
  N  N197  1  0.136600  0.500000  0.577900  1.0  -0.3172
  N  N198  1  0.636600  0.000000  0.077900  1.0  -0.3172
  N  N199  1  0.863400  0.500000  0.577900  1.0  -0.3179
  N  N200  1  0.363400  0.000000  0.077900  1.0  -0.3179
  N  N201  1  0.500000  0.863400  0.422100  1.0  -0.3174
  N  N202  1  0.000000  0.363400  0.922100  1.0  -0.3174
  N  N203  1  0.500000  0.136600  0.422100  1.0  -0.317
  N  N204  1  0.000000  0.636600  0.922100  1.0  -0.317
  N  N205  1  0.863400  0.500000  0.422100  1.0  -0.3171
  N  N206  1  0.363400  0.000000  0.922100  1.0  -0.3171
  N  N207  1  0.136600  0.500000  0.422100  1.0  -0.3176
  N  N208  1  0.636600  0.000000  0.922100  1.0  -0.3176
  O  O209  1  0.696200  0.804400  0.664410  1.0  -0.5575
  O  O210  1  0.631700  0.740200  0.734950  1.0  -0.5842
  O  O211  1  0.196200  0.304400  0.164410  1.0  -0.5575
  O  O212  1  0.131700  0.240200  0.234950  1.0  -0.5842
  O  O213  1  0.303800  0.195600  0.664410  1.0  -0.558
  O  O214  1  0.368300  0.259800  0.734950  1.0  -0.5843
  O  O215  1  0.803800  0.695600  0.164410  1.0  -0.558
  O  O216  1  0.868300  0.759800  0.234950  1.0  -0.5843
  O  O217  1  0.195600  0.696200  0.664410  1.0  -0.5577
  O  O218  1  0.259800  0.631700  0.734950  1.0  -0.5846
  O  O219  1  0.695600  0.196200  0.164410  1.0  -0.5577
  O  O220  1  0.759800  0.131700  0.234950  1.0  -0.5846
  O  O221  1  0.804400  0.303800  0.664410  1.0  -0.5571
  O  O222  1  0.740200  0.368300  0.734950  1.0  -0.5841
  O  O223  1  0.304400  0.803800  0.164410  1.0  -0.5571
  O  O224  1  0.240200  0.868300  0.234950  1.0  -0.5841
  O  O225  1  0.303800  0.804400  0.335590  1.0  -0.5574
  O  O226  1  0.368300  0.740200  0.265050  1.0  -0.5842
  O  O227  1  0.803800  0.304400  0.835590  1.0  -0.5574
  O  O228  1  0.868300  0.240200  0.765050  1.0  -0.5842
  O  O229  1  0.696200  0.195600  0.335590  1.0  -0.5571
  O  O230  1  0.631700  0.259800  0.265050  1.0  -0.5843
  O  O231  1  0.196200  0.695600  0.835590  1.0  -0.5571
  O  O232  1  0.131700  0.759800  0.765050  1.0  -0.5843
  O  O233  1  0.804400  0.696200  0.335590  1.0  -0.5567
  O  O234  1  0.740200  0.631700  0.265050  1.0  -0.584
  O  O235  1  0.304400  0.196200  0.835590  1.0  -0.5567
  O  O236  1  0.240200  0.131700  0.765050  1.0  -0.584
  O  O237  1  0.195600  0.303800  0.335590  1.0  -0.557
  O  O238  1  0.259800  0.368300  0.265050  1.0  -0.584
  O  O239  1  0.695600  0.803800  0.835590  1.0  -0.557
  O  O240  1  0.759800  0.868300  0.765050  1.0  -0.584
  O  O241  1  0.303800  0.195600  0.335590  1.0  -0.5571
  O  O242  1  0.368300  0.259800  0.265050  1.0  -0.5851
  O  O243  1  0.803800  0.695600  0.835590  1.0  -0.5571
  O  O244  1  0.868300  0.759800  0.765050  1.0  -0.5851
  O  O245  1  0.696200  0.804400  0.335590  1.0  -0.557
  O  O246  1  0.631700  0.740200  0.265050  1.0  -0.5847
  O  O247  1  0.196200  0.304400  0.835590  1.0  -0.557
  O  O248  1  0.131700  0.240200  0.765050  1.0  -0.5847
  O  O249  1  0.804400  0.303800  0.335590  1.0  -0.5566
  O  O250  1  0.740200  0.368300  0.265050  1.0  -0.5846
  O  O251  1  0.304400  0.803800  0.835590  1.0  -0.5566
  O  O252  1  0.240200  0.868300  0.765050  1.0  -0.5846
  O  O253  1  0.195600  0.696200  0.335590  1.0  -0.5573
  O  O254  1  0.259800  0.631700  0.265050  1.0  -0.585
  O  O255  1  0.695600  0.196200  0.835590  1.0  -0.5573
  O  O256  1  0.759800  0.131700  0.765050  1.0  -0.585
  O  O257  1  0.696200  0.195600  0.664410  1.0  -0.5575
  O  O258  1  0.631700  0.259800  0.734950  1.0  -0.5842
  O  O259  1  0.196200  0.695600  0.164410  1.0  -0.5575
  O  O260  1  0.131700  0.759800  0.234950  1.0  -0.5842
  O  O261  1  0.303800  0.804400  0.664410  1.0  -0.5577
  O  O262  1  0.368300  0.740200  0.734950  1.0  -0.5846
  O  O263  1  0.803800  0.304400  0.164410  1.0  -0.5577
  O  O264  1  0.868300  0.240200  0.234950  1.0  -0.5846
  O  O265  1  0.195600  0.303800  0.664410  1.0  -0.5576
  O  O266  1  0.259800  0.368300  0.734950  1.0  -0.5842
  O  O267  1  0.695600  0.803800  0.164410  1.0  -0.5576
  O  O268  1  0.759800  0.868300  0.234950  1.0  -0.5842
  O  O269  1  0.804400  0.696200  0.664410  1.0  -0.557
  O  O270  1  0.740200  0.631700  0.734950  1.0  -0.5841
  O  O271  1  0.304400  0.196200  0.164410  1.0  -0.557
  O  O272  1  0.240200  0.131700  0.234950  1.0  -0.5841
