# generated using pymatgen
data_EuH6C13BrO6
_symmetry_space_group_name_H-M   'P 1'
_cell_length_a   9.93250000
_cell_length_b   12.70890000
_cell_length_c   16.20270000
_cell_angle_alpha   90.00000000
_cell_angle_beta   96.23600000
_cell_angle_gamma   90.00000000
_symmetry_Int_Tables_number   1
_chemical_formula_structural   EuH6C13BrO6
_chemical_formula_sum   'Eu4 H24 C52 Br4 O24'
_cell_volume   2033.18330339
_cell_formula_units_Z   4
loop_
 _symmetry_equiv_pos_site_id
 _symmetry_equiv_pos_as_xyz
  1  'x, y, z'
loop_
 _atom_site_type_symbol
 _atom_site_label
 _atom_site_symmetry_multiplicity
 _atom_site_fract_x
 _atom_site_fract_y
 _atom_site_fract_z
 _atom_site_occupancy
 _atom_site_charge
  Eu  Eu1  1  0.305900  0.043260  0.994990  1.0  2.1409
  Eu  Eu2  1  0.694100  0.543260  0.505010  1.0  2.1411
  Eu  Eu3  1  0.694100  0.956740  0.005010  1.0  2.1408
  Eu  Eu4  1  0.305900  0.456740  0.494990  1.0  2.1411
  H  H5  1  0.377200  0.179900  0.229900  1.0  0.1266
  H  H6  1  0.409200  0.293000  0.344800  1.0  0.1214
  H  H7  1  0.834000  0.201500  0.473400  1.0  0.1311
  H  H8  1  0.990600  0.075400  0.453200  1.0  0.1354
  H  H9  1  0.942100  0.949600  0.348900  1.0  0.1259
  H  H10  1  0.755400  0.964400  0.256300  1.0  0.1251
  H  H11  1  0.622800  0.679900  0.270100  1.0  0.1262
  H  H12  1  0.590800  0.793000  0.155200  1.0  0.1217
  H  H13  1  0.166000  0.701500  0.026600  1.0  0.131
  H  H14  1  0.009400  0.575400  0.046800  1.0  0.1353
  H  H15  1  0.057900  0.449600  0.151100  1.0  0.126
  H  H16  1  0.244600  0.464400  0.243700  1.0  0.1252
  H  H17  1  0.622800  0.820100  0.770100  1.0  0.1265
  H  H18  1  0.590800  0.707000  0.655200  1.0  0.1222
  H  H19  1  0.166000  0.798500  0.526600  1.0  0.1312
  H  H20  1  0.009400  0.924600  0.546800  1.0  0.1351
  H  H21  1  0.057900  0.050400  0.651100  1.0  0.127
  H  H22  1  0.244600  0.035600  0.743700  1.0  0.1255
  H  H23  1  0.377200  0.320100  0.729900  1.0  0.1263
  H  H24  1  0.409200  0.207000  0.844800  1.0  0.1218
  H  H25  1  0.834000  0.298500  0.973400  1.0  0.1312
  H  H26  1  0.990600  0.424600  0.953200  1.0  0.1354
  H  H27  1  0.942100  0.550400  0.848900  1.0  0.1262
  H  H28  1  0.755400  0.535600  0.756300  1.0  0.1253
  C  C29  1  0.554400  0.107000  0.249200  1.0  -0.1048
  C  C30  1  0.457700  0.176900  0.265000  1.0  -0.0333
  C  C31  1  0.477300  0.246100  0.334600  1.0  -0.0547
  C  C32  1  0.594700  0.244000  0.386300  1.0  -0.1199
  C  C33  1  0.696100  0.166300  0.374600  1.0  0.069
  C  C34  1  0.817300  0.155200  0.429100  1.0  -0.0986
  C  C35  1  0.909900  0.078800  0.418400  1.0  -0.1382
  C  C36  1  0.882100  0.004800  0.353900  1.0  -0.0843
  C  C37  1  0.770100  0.012800  0.299300  1.0  -0.1375
  C  C38  1  0.674300  0.094300  0.306800  1.0  0.0705
  C  C39  1  0.533500  0.051600  0.166100  1.0  0.7209
  C  C40  1  0.614900  0.329100  0.450500  1.0  0.7325
  C  C41  1  0.992600  0.988500  0.952900  1.0  0.5726
  C  C42  1  0.445600  0.607000  0.250800  1.0  -0.1054
  C  C43  1  0.542300  0.676900  0.235000  1.0  -0.0314
  C  C44  1  0.522700  0.746100  0.165400  1.0  -0.055
  C  C45  1  0.405300  0.744000  0.113700  1.0  -0.1194
  C  C46  1  0.303900  0.666300  0.125400  1.0  0.069
  C  C47  1  0.182700  0.655200  0.070900  1.0  -0.0997
  C  C48  1  0.090100  0.578800  0.081600  1.0  -0.1381
  C  C49  1  0.117900  0.504800  0.146100  1.0  -0.0847
  C  C50  1  0.229900  0.512800  0.200700  1.0  -0.137
  C  C51  1  0.325700  0.594300  0.193200  1.0  0.0708
  C  C52  1  0.466500  0.551600  0.333900  1.0  0.722
  C  C53  1  0.385100  0.829100  0.049500  1.0  0.7334
  C  C54  1  0.007400  0.488500  0.547100  1.0  0.5721
  C  C55  1  0.445600  0.893000  0.750800  1.0  -0.105
  C  C56  1  0.542300  0.823100  0.735000  1.0  -0.0313
  C  C57  1  0.522700  0.753900  0.665400  1.0  -0.0555
  C  C58  1  0.405300  0.756000  0.613700  1.0  -0.1188
  C  C59  1  0.303900  0.833700  0.625400  1.0  0.0687
  C  C60  1  0.182700  0.844800  0.570900  1.0  -0.0993
  C  C61  1  0.090100  0.921200  0.581600  1.0  -0.1379
  C  C62  1  0.117900  0.995200  0.646100  1.0  -0.0854
  C  C63  1  0.229900  0.987200  0.700700  1.0  -0.1387
  C  C64  1  0.325700  0.905700  0.693200  1.0  0.0705
  C  C65  1  0.466500  0.948400  0.833900  1.0  0.7219
  C  C66  1  0.385100  0.670900  0.549500  1.0  0.7345
  C  C67  1  0.007400  0.011500  0.047100  1.0  0.5724
  C  C68  1  0.554400  0.393000  0.749200  1.0  -0.1044
  C  C69  1  0.457700  0.323100  0.765000  1.0  -0.0332
  C  C70  1  0.477300  0.253900  0.834600  1.0  -0.0546
  C  C71  1  0.594700  0.256000  0.886300  1.0  -0.1194
  C  C72  1  0.696100  0.333700  0.874600  1.0  0.0686
  C  C73  1  0.817300  0.344800  0.929100  1.0  -0.0984
  C  C74  1  0.909900  0.421200  0.918400  1.0  -0.1379
  C  C75  1  0.882100  0.495200  0.853900  1.0  -0.0847
  C  C76  1  0.770100  0.487200  0.799300  1.0  -0.1378
  C  C77  1  0.674300  0.405700  0.806800  1.0  0.0702
  C  C78  1  0.533500  0.448400  0.666100  1.0  0.7211
  C  C79  1  0.614900  0.170900  0.950500  1.0  0.7333
  C  C80  1  0.992600  0.511500  0.452900  1.0  0.5731
  Br  Br81  1  0.219400  0.254980  0.983500  1.0  -0.4156
  Br  Br82  1  0.780600  0.754980  0.516500  1.0  -0.4153
  Br  Br83  1  0.780600  0.745020  0.016500  1.0  -0.4153
  Br  Br84  1  0.219400  0.245020  0.483500  1.0  -0.4157
  O  O85  1  0.413600  0.044100  0.132600  1.0  -0.7156
  O  O86  1  0.637200  0.022800  0.133700  1.0  -0.6173
  O  O87  1  0.733300  0.358100  0.477000  1.0  -0.6113
  O  O88  1  0.513600  0.376400  0.473100  1.0  -0.774
  O  O89  1  0.095600  0.999100  0.915900  1.0  -0.5913
  O  O90  1  0.877200  0.961900  0.920600  1.0  -0.5793
  O  O91  1  0.586400  0.544100  0.367400  1.0  -0.7157
  O  O92  1  0.362800  0.522800  0.366300  1.0  -0.6165
  O  O93  1  0.266700  0.858100  0.023000  1.0  -0.6101
  O  O94  1  0.486400  0.876400  0.026900  1.0  -0.7727
  O  O95  1  0.904400  0.499100  0.584100  1.0  -0.5909
  O  O96  1  0.122800  0.461900  0.579400  1.0  -0.58
  O  O97  1  0.586400  0.955900  0.867400  1.0  -0.7156
  O  O98  1  0.362800  0.977200  0.866300  1.0  -0.6167
  O  O99  1  0.266700  0.641900  0.523000  1.0  -0.6099
  O  O100  1  0.486400  0.623600  0.526900  1.0  -0.7728
  O  O101  1  0.904400  0.000900  0.084100  1.0  -0.5912
  O  O102  1  0.122800  0.038100  0.079400  1.0  -0.5805
  O  O103  1  0.413600  0.455900  0.632600  1.0  -0.7151
  O  O104  1  0.637200  0.477200  0.633700  1.0  -0.6175
  O  O105  1  0.733300  0.141900  0.977000  1.0  -0.6113
  O  O106  1  0.513600  0.123600  0.973100  1.0  -0.7747
  O  O107  1  0.095600  0.500900  0.415900  1.0  -0.5908
  O  O108  1  0.877200  0.538100  0.420600  1.0  -0.5787
