# generated using pymatgen
data_SmH6C13BrO6
_symmetry_space_group_name_H-M   'P 1'
_cell_length_a   9.95240000
_cell_length_b   12.67000000
_cell_length_c   16.21370000
_cell_angle_alpha   90.00000000
_cell_angle_beta   96.18000000
_cell_angle_gamma   90.00000000
_symmetry_Int_Tables_number   1
_chemical_formula_structural   SmH6C13BrO6
_chemical_formula_sum   'Sm4 H24 C52 Br4 O24'
_cell_volume   2032.61604952
_cell_formula_units_Z   4
loop_
 _symmetry_equiv_pos_site_id
 _symmetry_equiv_pos_as_xyz
  1  'x, y, z'
loop_
 _atom_site_type_symbol
 _atom_site_label
 _atom_site_symmetry_multiplicity
 _atom_site_fract_x
 _atom_site_fract_y
 _atom_site_fract_z
 _atom_site_occupancy
 _atom_site_charge
  Sm  Sm1  1  0.306340  0.043820  0.995030  1.0  2.2804
  Sm  Sm2  1  0.693660  0.543820  0.504970  1.0  2.2811
  Sm  Sm3  1  0.693660  0.956180  0.004970  1.0  2.2812
  Sm  Sm4  1  0.306340  0.456180  0.495030  1.0  2.2809
  H  H5  1  0.378100  0.179900  0.230800  1.0  0.1165
  H  H6  1  0.410500  0.294000  0.345300  1.0  0.1174
  H  H7  1  0.838000  0.202200  0.472800  1.0  0.122
  H  H8  1  0.991200  0.075100  0.452400  1.0  0.1203
  H  H9  1  0.942800  0.948900  0.347600  1.0  0.1177
  H  H10  1  0.753200  0.964400  0.256400  1.0  0.1129
  H  H11  1  0.621900  0.679900  0.269200  1.0  0.1158
  H  H12  1  0.589500  0.794000  0.154700  1.0  0.1178
  H  H13  1  0.162000  0.702200  0.027200  1.0  0.1225
  H  H14  1  0.008800  0.575100  0.047600  1.0  0.1205
  H  H15  1  0.057200  0.448900  0.152400  1.0  0.1181
  H  H16  1  0.246800  0.464400  0.243600  1.0  0.1128
  H  H17  1  0.621900  0.820100  0.769200  1.0  0.116
  H  H18  1  0.589500  0.706000  0.654700  1.0  0.1184
  H  H19  1  0.162000  0.797800  0.527200  1.0  0.1224
  H  H20  1  0.008800  0.924900  0.547600  1.0  0.1205
  H  H21  1  0.057200  0.051100  0.652400  1.0  0.1191
  H  H22  1  0.246800  0.035600  0.743600  1.0  0.113
  H  H23  1  0.378100  0.320100  0.730800  1.0  0.1164
  H  H24  1  0.410500  0.206000  0.845300  1.0  0.1172
  H  H25  1  0.838000  0.297800  0.972800  1.0  0.1223
  H  H26  1  0.991200  0.424900  0.952400  1.0  0.1205
  H  H27  1  0.942800  0.551100  0.847600  1.0  0.1184
  H  H28  1  0.753200  0.535600  0.756400  1.0  0.1132
  C  C29  1  0.554700  0.106400  0.250000  1.0  -0.1293
  C  C30  1  0.458400  0.176900  0.265800  1.0  -0.0487
  C  C31  1  0.477800  0.246400  0.335000  1.0  -0.0858
  C  C32  1  0.596500  0.242600  0.386300  1.0  -0.1312
  C  C33  1  0.697000  0.165800  0.374500  1.0  0.0613
  C  C34  1  0.820300  0.155200  0.428900  1.0  -0.1131
  C  C35  1  0.910600  0.078800  0.417700  1.0  -0.1267
  C  C36  1  0.882900  0.004200  0.353200  1.0  -0.1124
  C  C37  1  0.769000  0.013000  0.299300  1.0  -0.1231
  C  C38  1  0.674600  0.094100  0.306900  1.0  0.0519
  C  C39  1  0.533800  0.051400  0.166700  1.0  0.7246
  C  C40  1  0.617500  0.328700  0.452000  1.0  0.7258
  C  C41  1  0.992900  0.989600  0.952600  1.0  0.5552
  C  C42  1  0.445300  0.606400  0.250000  1.0  -0.1289
  C  C43  1  0.541600  0.676900  0.234200  1.0  -0.0481
  C  C44  1  0.522200  0.746400  0.165000  1.0  -0.086
  C  C45  1  0.403500  0.742600  0.113700  1.0  -0.1308
  C  C46  1  0.303000  0.665800  0.125500  1.0  0.0612
  C  C47  1  0.179700  0.655200  0.071100  1.0  -0.1139
  C  C48  1  0.089400  0.578800  0.082300  1.0  -0.1272
  C  C49  1  0.117100  0.504200  0.146800  1.0  -0.1125
  C  C50  1  0.231000  0.513000  0.200700  1.0  -0.1226
  C  C51  1  0.325400  0.594100  0.193100  1.0  0.0525
  C  C52  1  0.466200  0.551400  0.333333  1.0  0.7532
  C  C53  1  0.382500  0.828700  0.048000  1.0  0.7256
  C  C54  1  0.007100  0.489600  0.547400  1.0  0.5565
  C  C55  1  0.445300  0.893600  0.750000  1.0  -0.1287
  C  C56  1  0.541600  0.823100  0.734200  1.0  -0.0481
  C  C57  1  0.522200  0.753600  0.665000  1.0  -0.086
  C  C58  1  0.403500  0.757400  0.613700  1.0  -0.1305
  C  C59  1  0.303000  0.834200  0.625500  1.0  0.0609
  C  C60  1  0.179700  0.844800  0.571100  1.0  -0.1134
  C  C61  1  0.089400  0.921200  0.582300  1.0  -0.1273
  C  C62  1  0.117100  0.995800  0.646800  1.0  -0.1128
  C  C63  1  0.231000  0.987000  0.700700  1.0  -0.124
  C  C64  1  0.325400  0.905900  0.693100  1.0  0.0518
  C  C65  1  0.466200  0.948600  0.833300  1.0  0.7254
  C  C66  1  0.382500  0.671300  0.548000  1.0  0.7266
  C  C67  1  0.007100  0.010400  0.047400  1.0  0.5566
  C  C68  1  0.554700  0.393600  0.750000  1.0  -0.1288
  C  C69  1  0.458400  0.323100  0.765800  1.0  -0.0489
  C  C70  1  0.477800  0.253600  0.835000  1.0  -0.0852
  C  C71  1  0.596500  0.257400  0.886300  1.0  -0.1309
  C  C72  1  0.697000  0.334200  0.874500  1.0  0.061
  C  C73  1  0.820300  0.344800  0.928900  1.0  -0.1128
  C  C74  1  0.910600  0.421200  0.917700  1.0  -0.1265
  C  C75  1  0.882900  0.495800  0.853200  1.0  -0.1123
  C  C76  1  0.769000  0.487000  0.799300  1.0  -0.1235
  C  C77  1  0.674600  0.405900  0.806900  1.0  0.052
  C  C78  1  0.533800  0.448600  0.666667  1.0  0.7516
  C  C79  1  0.617500  0.171300  0.952000  1.0  0.7265
  C  C80  1  0.992900  0.510400  0.452600  1.0  0.5552
  Br  Br81  1  0.220600  0.256690  0.984200  1.0  -0.4261
  Br  Br82  1  0.779400  0.756690  0.515800  1.0  -0.4258
  Br  Br83  1  0.779400  0.743310  0.015800  1.0  -0.4255
  Br  Br84  1  0.220600  0.243310  0.484200  1.0  -0.4259
  O  O85  1  0.413000  0.044500  0.133000  1.0  -0.7179
  O  O86  1  0.636000  0.022100  0.134200  1.0  -0.6159
  O  O87  1  0.735500  0.358200  0.477500  1.0  -0.5958
  O  O88  1  0.516300  0.376900  0.473200  1.0  -0.7786
  O  O89  1  0.095300  0.999900  0.915800  1.0  -0.5555
  O  O90  1  0.877000  0.962200  0.921000  1.0  -0.5649
  O  O91  1  0.587000  0.544500  0.367000  1.0  -0.7181
  O  O92  1  0.364000  0.522100  0.365800  1.0  -0.6153
  O  O93  1  0.264500  0.858200  0.022500  1.0  -0.5943
  O  O94  1  0.483700  0.876900  0.026800  1.0  -0.7776
  O  O95  1  0.904700  0.499900  0.584200  1.0  -0.5559
  O  O96  1  0.123000  0.462200  0.579000  1.0  -0.5652
  O  O97  1  0.587000  0.955500  0.867000  1.0  -0.7179
  O  O98  1  0.364000  0.977900  0.865800  1.0  -0.6157
  O  O99  1  0.264500  0.641800  0.522500  1.0  -0.5941
  O  O100  1  0.483700  0.623100  0.526800  1.0  -0.7779
  O  O101  1  0.904700  0.000100  0.084200  1.0  -0.5555
  O  O102  1  0.123000  0.037800  0.079000  1.0  -0.5651
  O  O103  1  0.413000  0.455500  0.633000  1.0  -0.7167
  O  O104  1  0.636000  0.477900  0.634200  1.0  -0.6161
  O  O105  1  0.735500  0.141800  0.977500  1.0  -0.5955
  O  O106  1  0.516300  0.123100  0.973200  1.0  -0.7794
  O  O107  1  0.095300  0.500100  0.415800  1.0  -0.5538
  O  O108  1  0.877000  0.537800  0.421000  1.0  -0.5645
