# generated using pymatgen
data_FeAg2(C2N)8
_symmetry_space_group_name_H-M   'P 1'
_cell_length_a   15.70700000
_cell_length_b   15.70700000
_cell_length_c   7.20400000
_cell_angle_alpha   90.00000000
_cell_angle_beta   90.00000000
_cell_angle_gamma   120.00000000
_symmetry_Int_Tables_number   1
_chemical_formula_structural   FeAg2(C2N)8
_chemical_formula_sum   'Fe3 Ag6 C48 N24'
_cell_volume   1539.18500349
_cell_formula_units_Z   3
loop_
 _symmetry_equiv_pos_site_id
 _symmetry_equiv_pos_as_xyz
  1  'x, y, z'
loop_
 _atom_site_type_symbol
 _atom_site_label
 _atom_site_symmetry_multiplicity
 _atom_site_fract_x
 _atom_site_fract_y
 _atom_site_fract_z
 _atom_site_occupancy
 _atom_site_charge
  Fe  Fe1  1  0.500000  0.500000  0.500000  1.0  0.7592
  Fe  Fe2  1  0.500000  0.000000  0.500000  1.0  0.7592
  Fe  Fe3  1  0.000000  0.500000  0.500000  1.0  0.7592
  Ag  Ag4  1  0.528460  0.264320  0.999990  1.0  0.2227
  Ag  Ag5  1  0.735680  0.264140  0.999990  1.0  0.2242
  Ag  Ag6  1  0.735860  0.471540  0.999990  1.0  0.2232
  Ag  Ag7  1  0.471540  0.735680  0.000010  1.0  0.2243
  Ag  Ag8  1  0.264320  0.735860  0.000010  1.0  0.2228
  Ag  Ag9  1  0.264140  0.528460  0.000010  1.0  0.2246
  C  C10  1  0.522100  0.352300  0.207100  1.0  -0.0462
  C  C11  1  0.353100  0.522900  0.204300  1.0  0.0248
  C  C12  1  0.365500  0.283300  0.662900  1.0  0.0816
  C  C13  1  0.279000  0.205700  0.733000  1.0  0.0724
  C  C14  1  0.198500  0.217800  0.767000  1.0  0.172
  C  C15  1  0.204500  0.307500  0.730000  1.0  0.1873
  C  C16  1  0.290900  0.385100  0.659200  1.0  0.0652
  C  C17  1  0.107000  0.247000  0.755000  1.0  0.2644
  C  C18  1  0.647700  0.169800  0.207100  1.0  -0.0483
  C  C19  1  0.477100  0.830200  0.204300  1.0  0.0218
  C  C20  1  0.716700  0.082200  0.662900  1.0  0.0795
  C  C21  1  0.794300  0.073300  0.733000  1.0  0.0697
  C  C22  1  0.782200  0.980700  0.767000  1.0  0.1677
  C  C23  1  0.692500  0.897000  0.730000  1.0  0.1864
  C  C24  1  0.614900  0.905800  0.659200  1.0  0.0645
  C  C25  1  0.753000  0.860000  0.755000  1.0  0.2643
  C  C26  1  0.830200  0.477900  0.207100  1.0  -0.0459
  C  C27  1  0.169800  0.646900  0.204300  1.0  0.0213
  C  C28  1  0.917800  0.634500  0.662900  1.0  0.0805
  C  C29  1  0.926700  0.721000  0.733000  1.0  0.0701
  C  C30  1  0.019300  0.801500  0.767000  1.0  0.1692
  C  C31  1  0.103000  0.795500  0.730000  1.0  0.1875
  C  C32  1  0.094200  0.709100  0.659200  1.0  0.0644
  C  C33  1  0.140000  0.893000  0.755000  1.0  0.2611
  C  C34  1  0.477900  0.647700  0.792900  1.0  -0.0494
  C  C35  1  0.646900  0.477100  0.795700  1.0  0.0216
  C  C36  1  0.634500  0.716700  0.337100  1.0  0.0819
  C  C37  1  0.721000  0.794300  0.267000  1.0  0.0713
  C  C38  1  0.801500  0.782200  0.233000  1.0  0.1755
  C  C39  1  0.795500  0.692500  0.270000  1.0  0.1866
  C  C40  1  0.709100  0.614900  0.340800  1.0  0.0658
  C  C41  1  0.893000  0.753000  0.245000  1.0  0.2633
  C  C42  1  0.352300  0.830200  0.792900  1.0  -0.0483
  C  C43  1  0.522900  0.169800  0.795700  1.0  0.0199
  C  C44  1  0.283300  0.917800  0.337100  1.0  0.0821
  C  C45  1  0.205700  0.926700  0.267000  1.0  0.0699
  C  C46  1  0.217800  0.019300  0.233000  1.0  0.1676
  C  C47  1  0.307500  0.103000  0.270000  1.0  0.188
  C  C48  1  0.385100  0.094200  0.340800  1.0  0.0663
  C  C49  1  0.247000  0.140000  0.245000  1.0  0.2643
  C  C50  1  0.169800  0.522100  0.792900  1.0  -0.0468
  C  C51  1  0.830200  0.353100  0.795700  1.0  0.021
  C  C52  1  0.082200  0.365500  0.337100  1.0  0.0819
  C  C53  1  0.073300  0.279000  0.267000  1.0  0.0737
  C  C54  1  0.980700  0.198500  0.233000  1.0  0.1747
  C  C55  1  0.897000  0.204500  0.270000  1.0  0.184
  C  C56  1  0.905800  0.290900  0.340800  1.0  0.0632
  C  C57  1  0.860000  0.107000  0.245000  1.0  0.2618
  N  N58  1  0.515000  0.403900  0.310700  1.0  -0.4372
  N  N59  1  0.404200  0.516200  0.311900  1.0  -0.4257
  N  N60  1  0.371400  0.373000  0.625800  1.0  -0.2316
  N  N61  1  0.018500  0.223000  0.778000  1.0  -0.319
  N  N62  1  0.596100  0.111100  0.310700  1.0  -0.4364
  N  N63  1  0.483800  0.888000  0.311900  1.0  -0.4262
  N  N64  1  0.627000  0.998400  0.625800  1.0  -0.2309
  N  N65  1  0.777000  0.795500  0.778000  1.0  -0.3195
  N  N66  1  0.888900  0.485000  0.310700  1.0  -0.4377
  N  N67  1  0.112000  0.595800  0.311900  1.0  -0.4274
  N  N68  1  0.001600  0.628600  0.625800  1.0  -0.232
  N  N69  1  0.204500  0.981500  0.778000  1.0  -0.3224
  N  N70  1  0.485000  0.596100  0.689300  1.0  -0.4377
  N  N71  1  0.595800  0.483800  0.688100  1.0  -0.4275
  N  N72  1  0.628600  0.627000  0.374200  1.0  -0.2319
  N  N73  1  0.981500  0.777000  0.222000  1.0  -0.3192
  N  N74  1  0.403900  0.888900  0.689300  1.0  -0.4362
  N  N75  1  0.516200  0.112000  0.688100  1.0  -0.4273
  N  N76  1  0.373000  0.001600  0.374200  1.0  -0.2301
  N  N77  1  0.223000  0.204500  0.222000  1.0  -0.3212
  N  N78  1  0.111100  0.515000  0.689300  1.0  -0.4371
  N  N79  1  0.888000  0.404200  0.688100  1.0  -0.4263
  N  N80  1  0.998400  0.371400  0.374200  1.0  -0.2323
  N  N81  1  0.795500  0.018500  0.222000  1.0  -0.3217
