# generated using pymatgen
data_Na8Gd4H88C82N12O59
_symmetry_space_group_name_H-M   'P 1'
_cell_length_a   18.53860000
_cell_length_b   18.62360000
_cell_length_c   27.27330000
_cell_angle_alpha   92.98600000
_cell_angle_beta   107.87100000
_cell_angle_gamma   107.62400000
_symmetry_Int_Tables_number   1
_chemical_formula_structural   Na8Gd4H88C82N12O59
_chemical_formula_sum   'Na16 Gd8 H176 C164 N24 O118'
_cell_volume   8431.44150699
_cell_formula_units_Z   2
loop_
 _symmetry_equiv_pos_site_id
 _symmetry_equiv_pos_as_xyz
  1  'x, y, z'
loop_
 _atom_site_type_symbol
 _atom_site_label
 _atom_site_symmetry_multiplicity
 _atom_site_fract_x
 _atom_site_fract_y
 _atom_site_fract_z
 _atom_site_occupancy
 _atom_site_charge
  Na  Na1  1  0.637920  0.175860  0.005400  1.0  0.9454
  Na  Na2  1  0.864730  0.326550  0.002930  1.0  0.9258
  Na  Na3  1  0.825090  0.282300  0.144360  1.0  0.8971
  Na  Na4  1  0.818200  0.501900  0.051600  1.0  0.9241
  Na  Na5  1  0.741100  0.022600  0.047300  1.0  0.9375
  Na  Na6  1  0.829700  0.784500  0.145700  1.0  1.0009
  Na  Na7  1  0.668400  0.581300  0.057700  1.0  1.012
  Na  Na8  1  0.976300  0.309300  0.292200  1.0  0.8867
  Na  Na9  1  0.362080  0.824140  0.994600  1.0  0.9449
  Na  Na10  1  0.135270  0.673450  0.997070  1.0  0.9258
  Na  Na11  1  0.174910  0.717700  0.855640  1.0  0.8975
  Na  Na12  1  0.181800  0.498100  0.948400  1.0  0.9248
  Na  Na13  1  0.258900  0.977400  0.952700  1.0  0.9373
  Na  Na14  1  0.170300  0.215500  0.854300  1.0  0.9956
  Na  Na15  1  0.331600  0.418700  0.942300  1.0  0.9681
  Na  Na16  1  0.023700  0.690700  0.707800  1.0  0.9147
  Gd  Gd17  1  0.510760  0.234820  0.898610  1.0  2.1473
  Gd  Gd18  1  0.515970  0.311070  0.126270  1.0  2.1794
  Gd  Gd19  1  0.876300  0.219490  0.893690  1.0  2.1826
  Gd  Gd20  1  0.111390  0.245850  0.120510  1.0  2.1707
  Gd  Gd21  1  0.489240  0.765180  0.101390  1.0  2.1463
  Gd  Gd22  1  0.484030  0.688930  0.873730  1.0  2.1795
  Gd  Gd23  1  0.123700  0.780510  0.106310  1.0  2.1815
  Gd  Gd24  1  0.888610  0.754150  0.879490  1.0  2.1713
  H  H25  1  0.724400  0.429100  0.918500  1.0  0.0915
  H  H26  1  0.656200  0.434300  0.941900  1.0  0.1082
  H  H27  1  0.598700  0.423600  0.822800  1.0  0.0942
  H  H28  1  0.570900  0.441700  0.870900  1.0  0.0945
  H  H29  1  0.689300  0.297000  0.867200  1.0  0.0922
  H  H30  1  0.686600  0.363700  0.832300  1.0  0.0711
  H  H31  1  0.617600  0.311200  0.738700  1.0  0.1232
  H  H32  1  0.429400  0.117300  0.696700  1.0  0.1167
  H  H33  1  0.492800  0.061500  0.809700  1.0  0.0794
  H  H34  1  0.406200  0.045500  0.766500  1.0  0.075
  H  H35  1  0.393000  0.994300  0.846800  1.0  0.0824
  H  H36  1  0.382000  0.048000  0.890100  1.0  0.0853
  H  H37  1  0.298000  0.062300  0.796100  1.0  0.0911
  H  H38  1  0.341600  0.146000  0.786000  1.0  0.0991
  H  H39  1  0.384300  0.189100  0.522100  1.0  0.1207
  H  H40  1  0.392000  0.203600  0.438300  1.0  0.0866
  H  H41  1  0.631300  0.311800  0.497100  1.0  0.1264
  H  H42  1  0.626200  0.299900  0.582800  1.0  0.1118
  H  H43  1  0.583500  0.403100  0.330800  1.0  0.1101
  H  H44  1  0.404800  0.199500  0.278000  1.0  0.1356
  H  H45  1  0.348800  0.155200  0.187100  1.0  0.0847
  H  H46  1  0.334400  0.222700  0.155500  1.0  0.0921
  H  H47  1  0.301100  0.123500  0.090400  1.0  0.0919
  H  H48  1  0.368300  0.114500  0.067300  1.0  0.1171
  H  H49  1  0.463000  0.100500  0.131900  1.0  0.0948
  H  H50  1  0.434100  0.100700  0.181400  1.0  0.0922
  H  H51  1  0.620200  0.479200  0.269100  1.0  0.0888
  H  H52  1  0.541900  0.475800  0.221900  1.0  0.104
  H  H53  1  0.676600  0.374300  0.248000  1.0  0.1094
  H  H54  1  0.733800  0.455400  0.242800  1.0  0.0798
  H  H55  1  0.685800  0.495400  0.162000  1.0  0.0766
  H  H56  1  0.662900  0.544600  0.201100  1.0  0.0849
  H  H57  1  0.716900  0.997100  0.816400  1.0  0.0991
  H  H58  1  0.793800  0.003800  0.865600  1.0  0.1
  H  H59  1  0.775200  0.038500  0.933700  1.0  0.1217
  H  H60  1  0.683100  0.034000  0.910600  1.0  0.0833
  H  H61  1  0.663100  0.136400  0.858200  1.0  0.0932
  H  H62  1  0.635000  0.054400  0.823300  1.0  0.0752
  H  H63  1  0.609200  0.060700  0.732300  1.0  0.1235
  H  H64  1  0.746100  0.239000  0.690400  1.0  0.1085
  H  H65  1  0.798200  0.351800  0.801800  1.0  0.0979
  H  H66  1  0.840400  0.346700  0.759100  1.0  0.0752
  H  H67  1  0.932800  0.437300  0.841700  1.0  0.0752
  H  H68  1  0.994100  0.407300  0.883900  1.0  0.0845
  H  H69  1  0.976400  0.350300  0.789000  1.0  0.0842
  H  H70  1  0.922600  0.261300  0.777000  1.0  0.0875
  H  H71  1  0.496600  0.939300  0.569400  1.0  0.0871
  H  H72  1  0.575400  0.126100  0.514000  1.0  0.1083
  H  H73  1  0.178900  0.460100  0.126300  1.0  0.0889
  H  H74  1  0.260100  0.478300  0.174900  1.0  0.0942
  H  H75  1  0.193700  0.410000  0.058500  1.0  0.0926
  H  H76  1  0.285800  0.413400  0.079500  1.0  0.098
  H  H77  1  0.343600  0.427900  0.179400  1.0  0.0945
  H  H78  1  0.327300  0.345600  0.148600  1.0  0.0958
  H  H79  1  0.377500  0.429700  0.268700  1.0  0.1192
  H  H80  1  0.256100  0.251500  0.325000  1.0  0.1203
  H  H81  1  0.158600  0.143100  0.263100  1.0  0.074
  H  H82  1  0.186000  0.125600  0.214800  1.0  0.1035
  H  H83  1  0.014300  0.155600  0.238700  1.0  0.088
  H  H84  1  0.078900  0.238700  0.245600  1.0  0.1084
  H  H85  1  0.981800  0.077900  0.156100  1.0  0.0874
  H  H86  1  0.045700  0.047400  0.195500  1.0  0.0894
  H  H87  1  0.553200  0.469900  0.441300  1.0  0.0759
  H  H88  1  0.360300  0.467800  0.473100  1.0  0.117
  H  H89  1  0.510100  0.344700  0.972400  1.0  0.4174
  H  H90  1  0.482200  0.377100  0.925700  1.0  0.4418
  H  H91  1  0.825300  0.214800  0.049100  1.0  0.4174
  H  H92  1  0.899700  0.237700  0.089900  1.0  0.4143
  H  H93  1  0.693900  0.302800  0.092600  1.0  0.4388
  H  H94  1  0.725600  0.307600  0.052300  1.0  0.4275
  H  H95  1  0.563700  0.130000  0.076700  1.0  0.3993
  H  H96  1  0.954000  0.143700  0.968100  1.0  0.403
  H  H97  1  0.934000  0.087700  0.923800  1.0  0.4137
  H  H98  1  0.001400  0.445000  0.058700  1.0  0.4129
  H  H99  1  0.917100  0.528400  0.987800  1.0  0.4112
  H  H100  1  0.888800  0.435500  0.151500  1.0  0.4513
  H  H101  1  0.930400  0.407800  0.130400  1.0  0.4438
  H  H102  1  0.703700  0.149600  0.131300  1.0  0.4142
  H  H103  1  0.579800  0.969100  0.985600  1.0  0.435
  H  H104  1  0.828100  0.634900  0.093700  1.0  0.4408
  H  H105  1  0.791600  0.637400  0.043200  1.0  0.4379
  H  H106  1  0.673900  0.745400  0.076800  1.0  0.3753
  H  H107  1  0.766700  0.904500  0.090200  1.0  0.452
  H  H108  1  0.749800  0.881600  0.038600  1.0  0.4262
  H  H109  1  0.924000  0.104400  0.043500  1.0  0.3876
  H  H110  1  0.812800  0.337500  0.265800  1.0  0.382
  H  H111  1  0.811700  0.099800  0.155400  1.0  0.431
  H  H112  1  0.965200  0.874700  0.213600  1.0  0.4561
  H  H113  1  0.275600  0.570900  0.081500  1.0  0.092
  H  H114  1  0.343800  0.565700  0.058100  1.0  0.1086
  H  H115  1  0.401300  0.576400  0.177200  1.0  0.0945
  H  H116  1  0.429100  0.558300  0.129100  1.0  0.0951
  H  H117  1  0.310700  0.703000  0.132800  1.0  0.0925
  H  H118  1  0.313400  0.636300  0.167700  1.0  0.0715
  H  H119  1  0.382400  0.688800  0.261300  1.0  0.1236
  H  H120  1  0.570600  0.882700  0.303300  1.0  0.1168
  H  H121  1  0.507200  0.938500  0.190300  1.0  0.0794
  H  H122  1  0.593800  0.954500  0.233500  1.0  0.0753
  H  H123  1  0.607000  0.005700  0.153200  1.0  0.0833
  H  H124  1  0.618000  0.952000  0.109900  1.0  0.0844
  H  H125  1  0.702000  0.937700  0.203900  1.0  0.0916
  H  H126  1  0.658400  0.854000  0.214000  1.0  0.1
  H  H127  1  0.615700  0.810900  0.477900  1.0  0.1209
  H  H128  1  0.608000  0.796400  0.561700  1.0  0.0867
  H  H129  1  0.368700  0.688200  0.502900  1.0  0.1266
  H  H130  1  0.373800  0.700100  0.417200  1.0  0.1119
  H  H131  1  0.416500  0.596900  0.669200  1.0  0.1098
  H  H132  1  0.595200  0.800500  0.722000  1.0  0.1346
  H  H133  1  0.651200  0.844800  0.812900  1.0  0.0855
  H  H134  1  0.665600  0.777300  0.844500  1.0  0.0947
  H  H135  1  0.698900  0.876500  0.909600  1.0  0.0921
  H  H136  1  0.631700  0.885500  0.932700  1.0  0.1156
  H  H137  1  0.537000  0.899500  0.868100  1.0  0.0952
  H  H138  1  0.565900  0.899300  0.818600  1.0  0.0921
  H  H139  1  0.379800  0.520800  0.730900  1.0  0.0863
  H  H140  1  0.458100  0.524200  0.778100  1.0  0.1017
  H  H141  1  0.323400  0.625700  0.752000  1.0  0.1092
  H  H142  1  0.266200  0.544600  0.757200  1.0  0.0787
  H  H143  1  0.314200  0.504600  0.838000  1.0  0.0762
  H  H144  1  0.337100  0.455400  0.798900  1.0  0.0843
  H  H145  1  0.283100  0.002900  0.183600  1.0  0.0978
  H  H146  1  0.206200  0.996200  0.134400  1.0  0.0993
  H  H147  1  0.224800  0.961500  0.066300  1.0  0.1222
  H  H148  1  0.316900  0.966000  0.089400  1.0  0.0825
  H  H149  1  0.336900  0.863600  0.141800  1.0  0.0931
  H  H150  1  0.365000  0.945600  0.176700  1.0  0.0743
  H  H151  1  0.390800  0.939300  0.267700  1.0  0.1206
  H  H152  1  0.253900  0.761000  0.309600  1.0  0.1075
  H  H153  1  0.201800  0.648200  0.198200  1.0  0.0977
  H  H154  1  0.159600  0.653300  0.240900  1.0  0.0736
  H  H155  1  0.067200  0.562700  0.158300  1.0  0.0748
  H  H156  1  0.005900  0.592700  0.116100  1.0  0.0835
  H  H157  1  0.023600  0.649700  0.211000  1.0  0.085
  H  H158  1  0.077400  0.738700  0.223000  1.0  0.0879
  H  H159  1  0.503400  0.060700  0.430600  1.0  0.087
  H  H160  1  0.424600  0.873900  0.486000  1.0  0.1088
  H  H161  1  0.821100  0.539900  0.873700  1.0  0.0903
  H  H162  1  0.739900  0.521700  0.825100  1.0  0.0943
  H  H163  1  0.806300  0.590000  0.941500  1.0  0.0924
  H  H164  1  0.714200  0.586600  0.920500  1.0  0.0975
  H  H165  1  0.656400  0.572100  0.820600  1.0  0.0933
  H  H166  1  0.672700  0.654400  0.851400  1.0  0.0953
  H  H167  1  0.622500  0.570300  0.731300  1.0  0.1191
  H  H168  1  0.743900  0.748500  0.675000  1.0  0.122
  H  H169  1  0.841400  0.856900  0.736900  1.0  0.0774
  H  H170  1  0.814000  0.874400  0.785200  1.0  0.105
  H  H171  1  0.985700  0.844400  0.761300  1.0  0.087
  H  H172  1  0.921100  0.761300  0.754400  1.0  0.1088
  H  H173  1  0.018200  0.922100  0.843900  1.0  0.0898
  H  H174  1  0.954300  0.952600  0.804500  1.0  0.089
  H  H175  1  0.446800  0.530100  0.558700  1.0  0.0762
  H  H176  1  0.639700  0.532200  0.526900  1.0  0.117
  H  H177  1  0.489900  0.655300  0.027600  1.0  0.4147
  H  H178  1  0.517800  0.622900  0.074300  1.0  0.441
  H  H179  1  0.174700  0.785200  0.950900  1.0  0.417
  H  H180  1  0.100300  0.762300  0.910100  1.0  0.4101
  H  H181  1  0.306100  0.697200  0.907400  1.0  0.4375
  H  H182  1  0.274400  0.692400  0.947700  1.0  0.429
  H  H183  1  0.436300  0.870000  0.923300  1.0  0.3998
  H  H184  1  0.046000  0.856300  0.031900  1.0  0.4024
  H  H185  1  0.066000  0.912300  0.076200  1.0  0.4139
  H  H186  1  0.998600  0.555000  0.941300  1.0  0.4149
  H  H187  1  0.082900  0.471600  0.012200  1.0  0.4105
  H  H188  1  0.111200  0.564500  0.848500  1.0  0.4516
  H  H189  1  0.069600  0.592200  0.869600  1.0  0.4443
  H  H190  1  0.296300  0.850400  0.868700  1.0  0.4128
  H  H191  1  0.420200  0.030900  0.014400  1.0  0.4332
  H  H192  1  0.171900  0.365100  0.906300  1.0  0.4416
  H  H193  1  0.208400  0.362600  0.956800  1.0  0.4374
  H  H194  1  0.326100  0.254600  0.923200  1.0  0.3742
  H  H195  1  0.233300  0.095500  0.909800  1.0  0.4523
  H  H196  1  0.250200  0.118400  0.961400  1.0  0.4266
  H  H197  1  0.076000  0.895600  0.956500  1.0  0.3882
  H  H198  1  0.187200  0.662500  0.734200  1.0  0.3835
  H  H199  1  0.188300  0.900200  0.844600  1.0  0.4314
  H  H200  1  0.034800  0.125300  0.786400  1.0  0.4552
  C  C201  1  0.697400  0.345900  0.962800  1.0  0.7218
  C  C202  1  0.676200  0.398700  0.926000  1.0  -0.1655
  C  C203  1  0.570300  0.400200  0.846400  1.0  -0.1462
  C  C204  1  0.480800  0.350800  0.813600  1.0  0.7038
  C  C205  1  0.653500  0.321500  0.845000  1.0  -0.0859
  C  C206  1  0.589600  0.263800  0.799300  1.0  0.2213
  C  C207  1  0.581400  0.269700  0.747300  1.0  -0.1757
  C  C208  1  0.519800  0.214300  0.707900  1.0  0.1069
  C  C209  1  0.471900  0.156100  0.722700  1.0  -0.1692
  C  C210  1  0.482700  0.151200  0.774000  1.0  0.2269
  C  C211  1  0.450300  0.083900  0.794900  1.0  -0.0491
  C  C212  1  0.415800  0.045300  0.868600  1.0  -0.1055
  C  C213  1  0.506900  0.060200  0.905200  1.0  0.6902
  C  C214  1  0.318100  0.147600  0.855500  1.0  0.5926
  C  C215  1  0.339400  0.112600  0.812900  1.0  -0.1662
  C  C216  1  0.511400  0.221700  0.655400  1.0  -0.0281
  C  C217  1  0.509700  0.231400  0.611300  1.0  0.052
  C  C218  1  0.507700  0.243000  0.559200  1.0  -0.0051
  C  C219  1  0.433800  0.214500  0.517200  1.0  -0.148
  C  C220  1  0.438900  0.226500  0.468100  1.0  -0.1352
  C  C221  1  0.504800  0.267500  0.460800  1.0  0.0592
  C  C222  1  0.581700  0.290800  0.503000  1.0  -0.1334
  C  C223  1  0.578500  0.280500  0.553200  1.0  -0.1207
  C  C224  1  0.507200  0.280300  0.410100  1.0  0.0182
  C  C225  1  0.502100  0.289300  0.365200  1.0  0.079
  C  C226  1  0.497300  0.302700  0.313000  1.0  0.0437
  C  C227  1  0.543000  0.366100  0.302800  1.0  -0.1396
  C  C228  1  0.532400  0.379200  0.251000  1.0  0.1965
  C  C229  1  0.435300  0.259400  0.221200  1.0  0.2568
  C  C230  1  0.439000  0.244900  0.271800  1.0  -0.1422
  C  C231  1  0.376000  0.201700  0.174900  1.0  -0.1173
  C  C232  1  0.353600  0.150900  0.086700  1.0  -0.157
  C  C233  1  0.346300  0.219700  0.055400  1.0  0.6915
  C  C234  1  0.461800  0.133900  0.160800  1.0  -0.1215
  C  C235  1  0.547500  0.177600  0.195500  1.0  0.7503
  C  C236  1  0.577900  0.446800  0.237000  1.0  -0.0361
  C  C237  1  0.687800  0.409300  0.223100  1.0  -0.1707
  C  C238  1  0.709400  0.370800  0.182800  1.0  0.6586
  C  C239  1  0.642000  0.498000  0.174800  1.0  -0.0983
  C  C240  1  0.573300  0.501500  0.130900  1.0  0.5624
  C  C241  1  0.821000  0.063300  0.810400  1.0  0.7622
  C  C242  1  0.768600  0.033100  0.840600  1.0  -0.1011
  C  C243  1  0.739400  0.067500  0.918300  1.0  -0.1844
  C  C244  1  0.757800  0.138300  0.957000  1.0  0.7339
  C  C245  1  0.679600  0.103700  0.837000  1.0  -0.0547
  C  C246  1  0.695700  0.141900  0.792400  1.0  0.2502
  C  C247  1  0.651600  0.108200  0.740200  1.0  -0.1074
  C  C248  1  0.669700  0.143700  0.700900  1.0  0.0355
  C  C249  1  0.731400  0.212500  0.716600  1.0  -0.1133
  C  C250  1  0.773500  0.245600  0.768100  1.0  0.2248
  C  C251  1  0.825900  0.322400  0.787700  1.0  -0.1034
  C  C252  1  0.936700  0.397100  0.863700  1.0  -0.1095
  C  C253  1  0.887900  0.397300  0.901900  1.0  0.6796
  C  C254  1  0.022100  0.289300  0.848000  1.0  0.6803
  C  C255  1  0.953600  0.306200  0.804800  1.0  -0.1224
  C  C256  1  0.627600  0.110700  0.646000  1.0  0.0249
  C  C257  1  0.592500  0.078600  0.603500  1.0  -0.0196
  C  C258  1  0.544300  0.038400  0.551100  1.0  0.1117
  C  C259  1  0.499200  0.965900  0.540900  1.0  -0.1075
  C  C260  1  0.544600  0.073600  0.509100  1.0  -0.1517
  C  C261  1  0.159400  0.414200  0.190400  1.0  0.6584
  C  C262  1  0.208600  0.438000  0.154700  1.0  -0.151
  C  C263  1  0.230300  0.383500  0.077100  1.0  -0.142
  C  C264  1  0.206200  0.304600  0.048100  1.0  0.686
  C  C265  1  0.305000  0.375200  0.167500  1.0  -0.1039
  C  C266  1  0.292700  0.339400  0.213400  1.0  0.2581
  C  C267  1  0.339100  0.380200  0.263100  1.0  -0.1575
  C  C268  1  0.325200  0.342500  0.304900  1.0  0.0057
  C  C269  1  0.267600  0.273600  0.296500  1.0  -0.1373
  C  C270  1  0.224100  0.234400  0.244200  1.0  0.2051
  C  C271  1  0.166000  0.161100  0.230900  1.0  -0.0276
  C  C272  1  0.041200  0.193000  0.219900  1.0  -0.1917
  C  C273  1  0.980700  0.214300  0.179600  1.0  0.6316
  C  C274  1  0.063400  0.060300  0.126800  1.0  0.6389
  C  C275  1  0.039300  0.082300  0.169500  1.0  -0.0817
  C  C276  1  0.369000  0.384300  0.356400  1.0  0.0684
  C  C277  1  0.406700  0.418900  0.400300  1.0  -0.0353
  C  C278  1  0.454300  0.463000  0.451500  1.0  0.3247
  C  C279  1  0.530200  0.481900  0.465900  1.0  -0.0892
  C  C280  1  0.417000  0.480100  0.483500  1.0  -0.1316
  C  C281  1  0.512400  0.245900  0.028200  1.0  0.6093
  C  C282  1  0.009800  0.267100  0.024100  1.0  0.6204
  C  C283  1  0.302600  0.654100  0.037200  1.0  0.7221
  C  C284  1  0.323800  0.601300  0.074000  1.0  -0.1665
  C  C285  1  0.429700  0.599800  0.153600  1.0  -0.1475
  C  C286  1  0.519200  0.649200  0.186400  1.0  0.7038
  C  C287  1  0.346500  0.678500  0.155000  1.0  -0.0881
  C  C288  1  0.410400  0.736200  0.200700  1.0  0.2235
  C  C289  1  0.418600  0.730300  0.252700  1.0  -0.1744
  C  C290  1  0.480200  0.785700  0.292100  1.0  0.1077
  C  C291  1  0.528100  0.843900  0.277300  1.0  -0.1715
  C  C292  1  0.517300  0.848800  0.226000  1.0  0.2268
  C  C293  1  0.549700  0.916100  0.205100  1.0  -0.0467
  C  C294  1  0.584200  0.954700  0.131400  1.0  -0.103
  C  C295  1  0.493100  0.939800  0.094800  1.0  0.6862
  C  C296  1  0.681900  0.852400  0.144500  1.0  0.5945
  C  C297  1  0.660600  0.887400  0.187100  1.0  -0.1655
  C  C298  1  0.488600  0.778300  0.344600  1.0  -0.0228
  C  C299  1  0.490300  0.768600  0.388700  1.0  0.0521
  C  C300  1  0.492300  0.757000  0.440800  1.0  -0.005
  C  C301  1  0.566200  0.785500  0.482800  1.0  -0.1458
  C  C302  1  0.561100  0.773500  0.531900  1.0  -0.1336
  C  C303  1  0.495200  0.732500  0.539200  1.0  0.0569
  C  C304  1  0.418300  0.709200  0.497000  1.0  -0.1342
  C  C305  1  0.421500  0.719500  0.446800  1.0  -0.1211
  C  C306  1  0.492800  0.719700  0.589900  1.0  0.0196
  C  C307  1  0.497900  0.710700  0.634800  1.0  0.0777
  C  C308  1  0.502700  0.697300  0.687000  1.0  0.0477
  C  C309  1  0.457000  0.633900  0.697200  1.0  -0.1387
  C  C310  1  0.467600  0.620800  0.749000  1.0  0.1948
  C  C311  1  0.564700  0.740600  0.778800  1.0  0.2546
  C  C312  1  0.561000  0.755100  0.728200  1.0  -0.1449
  C  C313  1  0.624000  0.798300  0.825100  1.0  -0.115
  C  C314  1  0.646400  0.849100  0.913300  1.0  -0.1517
  C  C315  1  0.653700  0.780300  0.944600  1.0  0.6923
  C  C316  1  0.538200  0.866100  0.839200  1.0  -0.1207
  C  C317  1  0.452500  0.822400  0.804500  1.0  0.7491
  C  C318  1  0.422100  0.553200  0.763000  1.0  -0.0353
  C  C319  1  0.312200  0.590700  0.776900  1.0  -0.1674
  C  C320  1  0.290600  0.629200  0.817200  1.0  0.6581
  C  C321  1  0.358000  0.502000  0.825200  1.0  -0.0981
  C  C322  1  0.426700  0.498500  0.869100  1.0  0.5637
  C  C323  1  0.179000  0.936700  0.189600  1.0  0.7578
  C  C324  1  0.231400  0.966900  0.159400  1.0  -0.1
  C  C325  1  0.260600  0.932500  0.081700  1.0  -0.186
  C  C326  1  0.242200  0.861700  0.043000  1.0  0.7337
  C  C327  1  0.320400  0.896300  0.163000  1.0  -0.0533
  C  C328  1  0.304300  0.858100  0.207600  1.0  0.2499
  C  C329  1  0.348400  0.891800  0.259800  1.0  -0.107
  C  C330  1  0.330300  0.856300  0.299100  1.0  0.0343
  C  C331  1  0.268600  0.787500  0.283400  1.0  -0.1148
  C  C332  1  0.226500  0.754400  0.231900  1.0  0.2257
  C  C333  1  0.174100  0.677600  0.212300  1.0  -0.1005
  C  C334  1  0.063300  0.602900  0.136300  1.0  -0.1105
  C  C335  1  0.112100  0.602700  0.098100  1.0  0.6795
  C  C336  1  0.977900  0.710700  0.152000  1.0  0.6813
  C  C337  1  0.046400  0.693800  0.195200  1.0  -0.1222
  C  C338  1  0.372400  0.889300  0.354000  1.0  0.0271
  C  C339  1  0.407500  0.921400  0.396500  1.0  -0.0218
  C  C340  1  0.455700  0.961600  0.448900  1.0  0.1138
  C  C341  1  0.500800  0.034100  0.459100  1.0  -0.1083
  C  C342  1  0.455400  0.926400  0.490900  1.0  -0.1526
  C  C343  1  0.840600  0.585800  0.809600  1.0  0.6576
  C  C344  1  0.791400  0.562000  0.845300  1.0  -0.1512
  C  C345  1  0.769700  0.616500  0.922900  1.0  -0.1422
  C  C346  1  0.793800  0.695400  0.951900  1.0  0.6868
  C  C347  1  0.695000  0.624800  0.832500  1.0  -0.1041
  C  C348  1  0.707300  0.660600  0.786600  1.0  0.258
  C  C349  1  0.660900  0.619800  0.736900  1.0  -0.158
  C  C350  1  0.674800  0.657500  0.695100  1.0  0.0038
  C  C351  1  0.732400  0.726400  0.703500  1.0  -0.1392
  C  C352  1  0.775900  0.765600  0.755800  1.0  0.2047
  C  C353  1  0.834000  0.838900  0.769100  1.0  -0.0257
  C  C354  1  0.958800  0.807000  0.780100  1.0  -0.1879
  C  C355  1  0.019300  0.785700  0.820400  1.0  0.6329
  C  C356  1  0.936600  0.939700  0.873200  1.0  0.637
  C  C357  1  0.960700  0.917700  0.830500  1.0  -0.0813
  C  C358  1  0.631000  0.615700  0.643600  1.0  0.0686
  C  C359  1  0.593300  0.581100  0.599700  1.0  -0.034
  C  C360  1  0.545700  0.537000  0.548500  1.0  0.3239
  C  C361  1  0.469800  0.518100  0.534100  1.0  -0.0903
  C  C362  1  0.583000  0.519900  0.516500  1.0  -0.1339
  C  C363  1  0.487600  0.754100  0.971800  1.0  0.6087
  C  C364  1  0.990200  0.732900  0.975900  1.0  0.6204
  N  N365  1  0.611300  0.351700  0.875700  1.0  -0.2549
  N  N366  1  0.542100  0.205700  0.813500  1.0  -0.4562
  N  N367  1  0.418800  0.103500  0.836800  1.0  -0.2043
  N  N368  1  0.479400  0.323000  0.210800  1.0  -0.5092
  N  N369  1  0.416200  0.181000  0.139300  1.0  -0.1986
  N  N370  1  0.616700  0.431200  0.198700  1.0  -0.1832
  N  N371  1  0.751500  0.090500  0.869600  1.0  -0.226
  N  N372  1  0.754800  0.206800  0.806500  1.0  -0.457
  N  N373  1  0.903000  0.323100  0.831400  1.0  -0.1997
  N  N374  1  0.225500  0.376300  0.132000  1.0  -0.2195
  N  N375  1  0.238000  0.270200  0.203300  1.0  -0.5165
  N  N376  1  0.086700  0.158600  0.193900  1.0  -0.1483
  N  N377  1  0.388700  0.648300  0.124300  1.0  -0.2544
  N  N378  1  0.457900  0.794300  0.186500  1.0  -0.4554
  N  N379  1  0.581200  0.896500  0.163200  1.0  -0.204
  N  N380  1  0.520600  0.677000  0.789200  1.0  -0.5087
  N  N381  1  0.583800  0.819000  0.860700  1.0  -0.1983
  N  N382  1  0.383300  0.568800  0.801300  1.0  -0.1837
  N  N383  1  0.248500  0.909500  0.130400  1.0  -0.2272
  N  N384  1  0.245200  0.793200  0.193500  1.0  -0.4565
  N  N385  1  0.097000  0.676900  0.168600  1.0  -0.2006
  N  N386  1  0.774500  0.623700  0.868000  1.0  -0.2177
  N  N387  1  0.762000  0.729800  0.796700  1.0  -0.5169
  N  N388  1  0.913300  0.841400  0.806100  1.0  -0.1496
  O  O389  1  0.648800  0.277300  0.953560  1.0  -0.7002
  O  O390  1  0.759800  0.371700  0.001920  1.0  -0.6591
  O  O391  1  0.447800  0.292100  0.829400  1.0  -0.6217
  O  O392  1  0.448100  0.376700  0.774600  1.0  -0.588
  O  O393  1  0.553000  0.126300  0.917760  1.0  -0.6564
  O  O394  1  0.524300  0.004700  0.924300  1.0  -0.612
  O  O395  1  0.370100  0.191200  0.889400  1.0  -0.5609
  O  O396  1  0.244900  0.131000  0.846000  1.0  -0.6415
  O  O397  1  0.383900  0.285700  0.075100  1.0  -0.5809
  O  O398  1  0.298800  0.200000  0.009600  1.0  -0.6101
  O  O399  1  0.577900  0.243300  0.188400  1.0  -0.621
  O  O400  1  0.581600  0.142200  0.226500  1.0  -0.6007
  O  O401  1  0.655300  0.353200  0.135300  1.0  -0.6499
  O  O402  1  0.773200  0.356600  0.196000  1.0  -0.6137
  O  O403  1  0.585600  0.563800  0.112700  1.0  -0.6311
  O  O404  1  0.506300  0.436300  0.111200  1.0  -0.6528
  O  O405  1  0.869300  0.130900  0.825200  1.0  -0.6522
  O  O406  1  0.819000  0.019800  0.772600  1.0  -0.5973
  O  O407  1  0.795300  0.202900  0.947930  1.0  -0.7259
  O  O408  1  0.737800  0.130100  0.996840  1.0  -0.6674
  O  O409  1  0.855800  0.337000  0.914030  1.0  -0.6589
  O  O410  1  0.895900  0.462800  0.922400  1.0  -0.5781
  O  O411  1  0.006100  0.260500  0.885900  1.0  -0.6757
  O  O412  1  0.089100  0.303100  0.841100  1.0  -0.6227
  O  O413  1  0.115500  0.340700  0.183400  1.0  -0.6221
  O  O414  1  0.162300  0.463400  0.224100  1.0  -0.5905
  O  O415  1  0.207400  0.304200  0.002000  1.0  -0.6333
  O  O416  1  0.187600  0.249700  0.066300  1.0  -0.5823
  O  O417  1  0.981000  0.209900  0.130900  1.0  -0.6359
  O  O418  1  0.928500  0.234100  0.193700  1.0  -0.6965
  O  O419  1  0.106200  0.113500  0.104200  1.0  -0.6826
  O  O420  1  0.043500  0.993500  0.105600  1.0  -0.6256
  O  O421  1  0.510200  0.212700  0.984720  1.0  -0.693
  O  O422  1  0.513700  0.211300  0.067220  1.0  -0.6087
  O  O423  1  0.516200  0.316800  0.035200  1.0  -0.6604
  O  O424  1  0.507500  0.349400  0.941500  1.0  -0.8034
  O  O425  1  0.053100  0.321400  0.063400  1.0  -0.6571
  O  O426  1  0.967100  0.282000  0.982140  1.0  -0.7695
  O  O427  1  0.013500  0.198800  0.030100  1.0  -0.656
  O  O428  1  0.862300  0.251000  0.070810  1.0  -0.8379
  O  O429  1  0.711100  0.280400  0.073610  1.0  -0.8562
  O  O430  1  0.603100  0.119500  0.073400  1.0  -0.7211
  O  O431  1  0.924700  0.124600  0.937100  1.0  -0.7938
  O  O432  1  0.969700  0.415300  0.071000  1.0  -0.7126
  O  O433  1  0.925900  0.556200  0.015800  1.0  -0.7098
  O  O434  1  0.914200  0.404500  0.156000  1.0  -0.7654
  O  O435  1  0.667100  0.455000  0.056000  1.0  -0.4948
  O  O436  1  0.748000  0.165400  0.155900  1.0  -0.7373
  O  O437  1  0.601100  0.951900  0.012100  1.0  -0.6719
  O  O438  1  0.793200  0.609300  0.066100  1.0  -0.9281
  O  O439  1  0.693100  0.718300  0.062700  1.0  -0.7904
  O  O440  1  0.737900  0.697600  0.182000  1.0  -0.2914
  O  O441  1  0.772100  0.919400  0.062600  1.0  -0.7924
  O  O442  1  0.822800  0.494500  0.140300  1.0  -0.6011
  O  O443  1  0.888900  0.067600  0.048700  1.0  -0.7277
  O  O444  1  0.838000  0.329100  0.295000  1.0  -0.4975
  O  O445  1  0.826600  0.067300  0.142500  1.0  -0.6846
  O  O446  1  0.613400  0.582100  0.974800  1.0  -0.2893
  O  O447  1  0.941100  0.882500  0.183900  1.0  -0.7164
  O  O448  1  0.351200  0.722700  0.046440  1.0  -0.7003
  O  O449  1  0.240200  0.628300  0.998080  1.0  -0.6603
  O  O450  1  0.552200  0.707900  0.170600  1.0  -0.6236
  O  O451  1  0.551900  0.623300  0.225400  1.0  -0.59
  O  O452  1  0.447000  0.873700  0.082240  1.0  -0.658
  O  O453  1  0.475700  0.995300  0.075700  1.0  -0.6115
  O  O454  1  0.629900  0.808800  0.110600  1.0  -0.56
  O  O455  1  0.755100  0.869000  0.154000  1.0  -0.6411
  O  O456  1  0.616100  0.714300  0.924900  1.0  -0.5808
  O  O457  1  0.701200  0.800000  0.990400  1.0  -0.61
  O  O458  1  0.422100  0.756700  0.811600  1.0  -0.6206
  O  O459  1  0.418400  0.857800  0.773500  1.0  -0.595
  O  O460  1  0.344700  0.646800  0.864700  1.0  -0.6499
  O  O461  1  0.226800  0.643400  0.804000  1.0  -0.6125
  O  O462  1  0.414400  0.436200  0.887300  1.0  -0.6329
  O  O463  1  0.493700  0.563700  0.888800  1.0  -0.6541
  O  O464  1  0.130700  0.869100  0.174800  1.0  -0.657
  O  O465  1  0.181000  0.980200  0.227400  1.0  -0.6036
  O  O466  1  0.204700  0.797100  0.052070  1.0  -0.7273
  O  O467  1  0.262200  0.869900  0.003160  1.0  -0.6697
  O  O468  1  0.144200  0.663000  0.085970  1.0  -0.6586
  O  O469  1  0.104100  0.537200  0.077600  1.0  -0.5778
  O  O470  1  0.993900  0.739500  0.114100  1.0  -0.6756
  O  O471  1  0.910900  0.696900  0.158900  1.0  -0.6235
  O  O472  1  0.884500  0.659300  0.816600  1.0  -0.619
  O  O473  1  0.837700  0.536600  0.775900  1.0  -0.5854
  O  O474  1  0.792600  0.695800  0.998000  1.0  -0.6377
  O  O475  1  0.812400  0.750300  0.933700  1.0  -0.5829
  O  O476  1  0.019000  0.790100  0.869100  1.0  -0.6349
  O  O477  1  0.071500  0.765900  0.806300  1.0  -0.6973
  O  O478  1  0.893800  0.886500  0.895800  1.0  -0.6831
  O  O479  1  0.956500  0.006500  0.894400  1.0  -0.6243
  O  O480  1  0.489800  0.787300  0.015280  1.0  -0.6946
  O  O481  1  0.486300  0.788700  0.932780  1.0  -0.6082
  O  O482  1  0.483800  0.683200  0.964800  1.0  -0.6597
  O  O483  1  0.492500  0.650600  0.058500  1.0  -0.7985
  O  O484  1  0.946900  0.678600  0.936600  1.0  -0.6565
  O  O485  1  0.032900  0.718000  0.017860  1.0  -0.7688
  O  O486  1  0.986500  0.801200  0.969900  1.0  -0.6576
  O  O487  1  0.137700  0.749000  0.929190  1.0  -0.8373
  O  O488  1  0.288900  0.719600  0.926390  1.0  -0.8567
  O  O489  1  0.396900  0.880500  0.926600  1.0  -0.7205
  O  O490  1  0.075300  0.875400  0.062900  1.0  -0.7901
  O  O491  1  0.030300  0.584700  0.929000  1.0  -0.714
  O  O492  1  0.074100  0.443800  0.984200  1.0  -0.7105
  O  O493  1  0.085800  0.595500  0.844000  1.0  -0.766
  O  O494  1  0.332900  0.545000  0.944000  1.0  -0.4948
  O  O495  1  0.252000  0.834600  0.844100  1.0  -0.7387
  O  O496  1  0.398900  0.048100  0.987900  1.0  -0.6704
  O  O497  1  0.206800  0.390700  0.933900  1.0  -0.9285
  O  O498  1  0.306900  0.281700  0.937300  1.0  -0.7904
  O  O499  1  0.262100  0.302400  0.818000  1.0  -0.2928
  O  O500  1  0.227900  0.080600  0.937400  1.0  -0.7912
  O  O501  1  0.177200  0.505500  0.859700  1.0  -0.6024
  O  O502  1  0.111100  0.932400  0.951300  1.0  -0.7293
  O  O503  1  0.162000  0.670900  0.705000  1.0  -0.503
  O  O504  1  0.173400  0.932700  0.857500  1.0  -0.683
  O  O505  1  0.386600  0.417900  0.025200  1.0  -0.2889
  O  O506  1  0.058900  0.117500  0.816100  1.0  -0.7178
