# generated using pymatgen
data_CuH12C18(N3O2)2
_symmetry_space_group_name_H-M   'P 1'
_cell_length_a   12.33480000
_cell_length_b   9.93600000
_cell_length_c   17.82590000
_cell_angle_alpha   90.00000000
_cell_angle_beta   90.00000000
_cell_angle_gamma   90.00000000
_symmetry_Int_Tables_number   1
_chemical_formula_structural   CuH12C18(N3O2)2
_chemical_formula_sum   'Cu4 H48 C72 N24 O16'
_cell_volume   2184.71686288
_cell_formula_units_Z   4
loop_
 _symmetry_equiv_pos_site_id
 _symmetry_equiv_pos_as_xyz
  1  'x, y, z'
loop_
 _atom_site_type_symbol
 _atom_site_label
 _atom_site_symmetry_multiplicity
 _atom_site_fract_x
 _atom_site_fract_y
 _atom_site_fract_z
 _atom_site_occupancy
 _atom_site_charge
  Cu  Cu1  1  0.250000  0.500000  0.838160  1.0  0.8239
  Cu  Cu2  1  0.750000  0.000000  0.338160  1.0  0.8239
  Cu  Cu3  1  0.250000  0.000000  0.661840  1.0  0.8246
  Cu  Cu4  1  0.750000  0.500000  0.161840  1.0  0.8246
  H  H5  1  0.500900  0.391200  0.011300  1.0  0.123
  H  H6  1  0.576500  0.280300  0.112700  1.0  0.1218
  H  H7  1  0.375700  0.969800  0.079200  1.0  0.1357
  H  H8  1  0.302000  0.083100  0.977900  1.0  0.1287
  H  H9  1  0.519400  0.866700  0.301700  1.0  0.1068
  H  H10  1  0.677100  0.127900  0.183000  1.0  0.1179
  H  H11  1  0.999100  0.608800  0.011300  1.0  0.1228
  H  H12  1  0.923500  0.719700  0.112700  1.0  0.1219
  H  H13  1  0.124300  0.030200  0.079200  1.0  0.1355
  H  H14  1  0.198000  0.916900  0.977900  1.0  0.1291
  H  H15  1  0.980600  0.133300  0.301700  1.0  0.1063
  H  H16  1  0.822900  0.872100  0.183000  1.0  0.1179
  H  H17  1  0.000900  0.108800  0.511300  1.0  0.1228
  H  H18  1  0.076500  0.219700  0.612700  1.0  0.1221
  H  H19  1  0.875700  0.530200  0.579200  1.0  0.1356
  H  H20  1  0.802000  0.416900  0.477900  1.0  0.1286
  H  H21  1  0.019400  0.633300  0.801700  1.0  0.107
  H  H22  1  0.177100  0.372100  0.683000  1.0  0.1184
  H  H23  1  0.499100  0.891200  0.511300  1.0  0.1233
  H  H24  1  0.423500  0.780300  0.612700  1.0  0.1218
  H  H25  1  0.624300  0.469800  0.579200  1.0  0.1355
  H  H26  1  0.698000  0.583100  0.477900  1.0  0.1293
  H  H27  1  0.480600  0.366700  0.801700  1.0  0.1065
  H  H28  1  0.322900  0.627900  0.683000  1.0  0.1177
  H  H29  1  0.999100  0.891200  0.488700  1.0  0.1229
  H  H30  1  0.923500  0.780300  0.387300  1.0  0.1218
  H  H31  1  0.124300  0.469800  0.420800  1.0  0.136
  H  H32  1  0.198000  0.583100  0.522100  1.0  0.1294
  H  H33  1  0.980600  0.366700  0.198300  1.0  0.1066
  H  H34  1  0.822900  0.627900  0.317000  1.0  0.1173
  H  H35  1  0.500900  0.108800  0.488700  1.0  0.1228
  H  H36  1  0.576500  0.219700  0.387300  1.0  0.1217
  H  H37  1  0.375700  0.530200  0.420800  1.0  0.1358
  H  H38  1  0.302000  0.416900  0.522100  1.0  0.1286
  H  H39  1  0.519400  0.633300  0.198300  1.0  0.1073
  H  H40  1  0.677100  0.372100  0.317000  1.0  0.1179
  H  H41  1  0.499100  0.608800  0.988700  1.0  0.1229
  H  H42  1  0.423500  0.719700  0.887300  1.0  0.1216
  H  H43  1  0.624300  0.030200  0.920800  1.0  0.1358
  H  H44  1  0.698000  0.916900  0.022100  1.0  0.1292
  H  H45  1  0.480600  0.133300  0.698300  1.0  0.107
  H  H46  1  0.322900  0.872100  0.817000  1.0  0.1174
  H  H47  1  0.000900  0.391200  0.988700  1.0  0.1226
  H  H48  1  0.076500  0.280300  0.887300  1.0  0.1219
  H  H49  1  0.875700  0.969800  0.920800  1.0  0.1359
  H  H50  1  0.802000  0.083100  0.022100  1.0  0.1288
  H  H51  1  0.019400  0.866700  0.698300  1.0  0.1066
  H  H52  1  0.177100  0.127900  0.817000  1.0  0.1175
  C  C53  1  0.338500  0.321800  0.922000  1.0  0.659
  C  C54  1  0.393600  0.248100  0.984600  1.0  -0.1269
  C  C55  1  0.475500  0.306400  0.024800  1.0  0.0346
  C  C56  1  0.520700  0.240600  0.085500  1.0  -0.1811
  C  C57  1  0.482100  0.114900  0.105100  1.0  0.0758
  C  C58  1  0.401100  0.054600  0.065800  1.0  -0.1986
  C  C59  1  0.357500  0.123100  0.005300  1.0  -0.0584
  C  C60  1  0.537100  0.927600  0.264000  1.0  0.28
  C  C61  1  0.624100  0.069600  0.200900  1.0  0.1671
  C  C62  1  0.161500  0.678200  0.922000  1.0  0.6584
  C  C63  1  0.106400  0.751900  0.984600  1.0  -0.1269
  C  C64  1  0.024500  0.693600  0.024800  1.0  0.0343
  C  C65  1  0.979300  0.759400  0.085500  1.0  -0.1788
  C  C66  1  0.017900  0.885100  0.105100  1.0  0.0756
  C  C67  1  0.098900  0.945400  0.065800  1.0  -0.1968
  C  C68  1  0.142500  0.876900  0.005300  1.0  -0.0591
  C  C69  1  0.962900  0.072400  0.264000  1.0  0.2799
  C  C70  1  0.875900  0.930400  0.200900  1.0  0.167
  C  C71  1  0.838500  0.178200  0.422000  1.0  0.6587
  C  C72  1  0.893600  0.251900  0.484600  1.0  -0.1275
  C  C73  1  0.975500  0.193600  0.524800  1.0  0.0341
  C  C74  1  0.020700  0.259400  0.585500  1.0  -0.1803
  C  C75  1  0.982100  0.385100  0.605100  1.0  0.0761
  C  C76  1  0.901100  0.445400  0.565800  1.0  -0.1983
  C  C77  1  0.857500  0.376900  0.505300  1.0  -0.0586
  C  C78  1  0.037100  0.572400  0.764000  1.0  0.2785
  C  C79  1  0.124100  0.430400  0.700900  1.0  0.1665
  C  C80  1  0.661500  0.821800  0.422000  1.0  0.6587
  C  C81  1  0.606400  0.748100  0.484600  1.0  -0.1268
  C  C82  1  0.524500  0.806400  0.524800  1.0  0.0347
  C  C83  1  0.479300  0.740600  0.585500  1.0  -0.1799
  C  C84  1  0.517900  0.614900  0.605100  1.0  0.0758
  C  C85  1  0.598900  0.554600  0.565800  1.0  -0.1971
  C  C86  1  0.642500  0.623100  0.505300  1.0  -0.0589
  C  C87  1  0.462900  0.427600  0.764000  1.0  0.2805
  C  C88  1  0.375900  0.569600  0.700900  1.0  0.1672
  C  C89  1  0.161500  0.821800  0.578000  1.0  0.6583
  C  C90  1  0.106400  0.748100  0.515400  1.0  -0.1258
  C  C91  1  0.024500  0.806400  0.475200  1.0  0.0343
  C  C92  1  0.979300  0.740600  0.414500  1.0  -0.1796
  C  C93  1  0.017900  0.614900  0.394900  1.0  0.076
  C  C94  1  0.098900  0.554600  0.434200  1.0  -0.1974
  C  C95  1  0.142500  0.623100  0.494700  1.0  -0.0592
  C  C96  1  0.962900  0.427600  0.236000  1.0  0.2809
  C  C97  1  0.875900  0.569600  0.299100  1.0  0.1671
  C  C98  1  0.338500  0.178200  0.578000  1.0  0.6585
  C  C99  1  0.393600  0.251900  0.515400  1.0  -0.1262
  C  C100  1  0.475500  0.193600  0.475200  1.0  0.0336
  C  C101  1  0.520700  0.259400  0.414500  1.0  -0.1806
  C  C102  1  0.482100  0.385100  0.394900  1.0  0.076
  C  C103  1  0.401100  0.445400  0.434200  1.0  -0.1976
  C  C104  1  0.357500  0.376900  0.494700  1.0  -0.059
  C  C105  1  0.537100  0.572400  0.236000  1.0  0.2794
  C  C106  1  0.624100  0.430400  0.299100  1.0  0.1667
  C  C107  1  0.661500  0.678200  0.078000  1.0  0.6583
  C  C108  1  0.606400  0.751900  0.015400  1.0  -0.1256
  C  C109  1  0.524500  0.693600  0.975200  1.0  0.0337
  C  C110  1  0.479300  0.759400  0.914500  1.0  -0.1791
  C  C111  1  0.517900  0.885100  0.894900  1.0  0.0761
  C  C112  1  0.598900  0.945400  0.934200  1.0  -0.1966
  C  C113  1  0.642500  0.876900  0.994700  1.0  -0.0595
  C  C114  1  0.462900  0.072400  0.736000  1.0  0.2809
  C  C115  1  0.375900  0.930400  0.799100  1.0  0.1671
  C  C116  1  0.838500  0.321800  0.078000  1.0  0.6586
  C  C117  1  0.893600  0.248100  0.015400  1.0  -0.1261
  C  C118  1  0.975500  0.306400  0.975200  1.0  0.0341
  C  C119  1  0.020700  0.240600  0.914500  1.0  -0.1808
  C  C120  1  0.982100  0.114900  0.894900  1.0  0.0756
  C  C121  1  0.901100  0.054600  0.934200  1.0  -0.1986
  C  C122  1  0.857500  0.123100  0.994700  1.0  -0.0587
  C  C123  1  0.037100  0.927600  0.736000  1.0  0.2803
  C  C124  1  0.124100  0.069600  0.799100  1.0  0.167
  N  N125  1  0.528800  0.048900  0.168700  1.0  0.155
  N  N126  1  0.472000  0.955200  0.208600  1.0  -0.3702
  N  N127  1  0.633000  0.995200  0.262300  1.0  -0.3895
  N  N128  1  0.971200  0.951100  0.168700  1.0  0.153
  N  N129  1  0.028000  0.044800  0.208600  1.0  -0.3719
  N  N130  1  0.867000  0.004800  0.262300  1.0  -0.3907
  N  N131  1  0.028800  0.451100  0.668700  1.0  0.1548
  N  N132  1  0.972000  0.544800  0.708600  1.0  -0.3696
  N  N133  1  0.133000  0.504800  0.762300  1.0  -0.3898
  N  N134  1  0.471200  0.548900  0.668700  1.0  0.1533
  N  N135  1  0.528000  0.455200  0.708600  1.0  -0.3716
  N  N136  1  0.367000  0.495200  0.762300  1.0  -0.3906
  N  N137  1  0.971200  0.548900  0.331300  1.0  0.1538
  N  N138  1  0.028000  0.455200  0.291400  1.0  -0.3715
  N  N139  1  0.867000  0.495200  0.237700  1.0  -0.3911
  N  N140  1  0.528800  0.451100  0.331300  1.0  0.155
  N  N141  1  0.472000  0.544800  0.291400  1.0  -0.3691
  N  N142  1  0.633000  0.504800  0.237700  1.0  -0.3902
  N  N143  1  0.471200  0.951100  0.831300  1.0  0.1536
  N  N144  1  0.528000  0.044800  0.791400  1.0  -0.3721
  N  N145  1  0.367000  0.004800  0.737700  1.0  -0.3909
  N  N146  1  0.028800  0.048900  0.831300  1.0  0.1551
  N  N147  1  0.972000  0.955200  0.791400  1.0  -0.3695
  N  N148  1  0.133000  0.995200  0.737700  1.0  -0.3904
  O  O149  1  0.354500  0.448600  0.917220  1.0  -0.5709
  O  O150  1  0.279600  0.260000  0.877000  1.0  -0.6215
  O  O151  1  0.145500  0.551400  0.917220  1.0  -0.5685
  O  O152  1  0.220400  0.740000  0.877000  1.0  -0.6221
  O  O153  1  0.854500  0.051400  0.417220  1.0  -0.5688
  O  O154  1  0.779600  0.240000  0.377000  1.0  -0.6225
  O  O155  1  0.645500  0.948600  0.417220  1.0  -0.5705
  O  O156  1  0.720400  0.760000  0.377000  1.0  -0.6213
  O  O157  1  0.145500  0.948600  0.582780  1.0  -0.5707
  O  O158  1  0.220400  0.760000  0.623000  1.0  -0.6213
  O  O159  1  0.354500  0.051400  0.582780  1.0  -0.5691
  O  O160  1  0.279600  0.240000  0.623000  1.0  -0.6228
  O  O161  1  0.645500  0.551400  0.082780  1.0  -0.5689
  O  O162  1  0.720400  0.740000  0.123000  1.0  -0.6224
  O  O163  1  0.854500  0.448600  0.082780  1.0  -0.5708
  O  O164  1  0.779600  0.260000  0.123000  1.0  -0.6217
