# generated using pymatgen
data_Na2Ag3H9C18S3N3O8
_symmetry_space_group_name_H-M   'P 1'
_cell_length_a   12.11190000
_cell_length_b   12.55550000
_cell_length_c   12.65650000
_cell_angle_alpha   62.87400000
_cell_angle_beta   70.15100000
_cell_angle_gamma   84.07500000
_symmetry_Int_Tables_number   1
_chemical_formula_structural   Na2Ag3H9C18S3N3O8
_chemical_formula_sum   'Na4 Ag6 H18 C36 S6 N6 O16'
_cell_volume   1608.15293304
_cell_formula_units_Z   2
loop_
 _symmetry_equiv_pos_site_id
 _symmetry_equiv_pos_as_xyz
  1  'x, y, z'
loop_
 _atom_site_type_symbol
 _atom_site_label
 _atom_site_symmetry_multiplicity
 _atom_site_fract_x
 _atom_site_fract_y
 _atom_site_fract_z
 _atom_site_occupancy
 _atom_site_charge
  Na  Na1  1  0.558570  0.668250  0.907870  1.0  0.948
  Na  Na2  1  0.459280  0.873230  0.655590  1.0  0.9469
  Na  Na3  1  0.441430  0.331750  0.092130  1.0  0.9488
  Na  Na4  1  0.540720  0.126770  0.344410  1.0  0.9462
  Ag  Ag5  1  0.919220  0.618640  0.355180  1.0  0.2676
  Ag  Ag6  1  0.111560  0.457180  0.342910  1.0  0.2832
  Ag  Ag7  1  0.105820  0.670720  0.433390  1.0  0.2834
  Ag  Ag8  1  0.080780  0.381360  0.644820  1.0  0.2666
  Ag  Ag9  1  0.888440  0.542820  0.657090  1.0  0.2789
  Ag  Ag10  1  0.894180  0.329280  0.566610  1.0  0.2811
  H  H11  1  0.204500  0.953700  0.828300  1.0  0.1275
  H  H12  1  0.999600  0.946300  0.895100  1.0  0.1342
  H  H13  1  0.896600  0.823600  0.102200  1.0  0.1092
  H  H14  1  0.893600  0.325900  0.055200  1.0  0.1271
  H  H15  1  0.096800  0.342000  0.998200  1.0  0.1481
  H  H16  1  0.178400  0.394600  0.108600  1.0  0.1065
  H  H17  1  0.861600  0.122200  0.377800  1.0  0.1274
  H  H18  1  0.065100  0.125100  0.305700  1.0  0.1421
  H  H19  1  0.153800  0.949400  0.324700  1.0  0.1098
  H  H20  1  0.795500  0.046300  0.171700  1.0  0.1275
  H  H21  1  0.000400  0.053700  0.104900  1.0  0.1335
  H  H22  1  0.103400  0.176400  0.897800  1.0  0.1099
  H  H23  1  0.106400  0.674100  0.944800  1.0  0.1267
  H  H24  1  0.903200  0.658000  0.001800  1.0  0.1478
  H  H25  1  0.821600  0.605400  0.891400  1.0  0.1069
  H  H26  1  0.138400  0.877800  0.622200  1.0  0.1274
  H  H27  1  0.934900  0.874900  0.694300  1.0  0.1417
  H  H28  1  0.846200  0.050600  0.675300  1.0  0.1105
  C  C29  1  0.149900  0.758100  0.120400  1.0  0.1701
  C  C30  1  0.218600  0.835700  0.996900  1.0  -0.0671
  C  C31  1  0.351600  0.845300  0.951900  1.0  0.7377
  C  C32  1  0.161200  0.904600  0.911600  1.0  -0.0113
  C  C33  1  0.039200  0.900000  0.950800  1.0  -0.0956
  C  C34  1  0.978300  0.824700  0.074800  1.0  0.1544
  C  C35  1  0.913500  0.401800  0.261000  1.0  0.1533
  C  C36  1  0.858700  0.365800  0.200600  1.0  -0.0663
  C  C37  1  0.726400  0.342000  0.247000  1.0  0.7322
  C  C38  1  0.928200  0.346100  0.099400  1.0  -0.0123
  C  C39  1  0.048900  0.356500  0.064800  1.0  -0.1378
  C  C40  1  0.097000  0.388900  0.130900  1.0  0.1721
  C  C41  1  0.891700  0.842500  0.439700  1.0  0.1354
  C  C42  1  0.832700  0.946600  0.430700  1.0  -0.0523
  C  C43  1  0.699800  0.949100  0.474300  1.0  0.7489
  C  C44  1  0.898900  0.052500  0.382200  1.0  0.0058
  C  C45  1  0.019800  0.054200  0.340700  1.0  -0.1243
  C  C46  1  0.072200  0.948600  0.352100  1.0  0.1905
  C  C47  1  0.850100  0.241900  0.879600  1.0  0.1724
  C  C48  1  0.781400  0.164300  0.003100  1.0  -0.0677
  C  C49  1  0.648400  0.154700  0.048100  1.0  0.7405
  C  C50  1  0.838800  0.095400  0.088400  1.0  -0.0091
  C  C51  1  0.960800  0.100000  0.049200  1.0  -0.0954
  C  C52  1  0.021700  0.175300  0.925200  1.0  0.156
  C  C53  1  0.086500  0.598200  0.739000  1.0  0.1516
  C  C54  1  0.141300  0.634200  0.799400  1.0  -0.0656
  C  C55  1  0.273600  0.658000  0.753000  1.0  0.7302
  C  C56  1  0.071800  0.653900  0.900600  1.0  -0.0134
  C  C57  1  0.951100  0.643500  0.935200  1.0  -0.1376
  C  C58  1  0.903000  0.611100  0.869100  1.0  0.17
  C  C59  1  0.108300  0.157500  0.560300  1.0  0.1339
  C  C60  1  0.167300  0.053400  0.569300  1.0  -0.0509
  C  C61  1  0.300200  0.050900  0.525700  1.0  0.7494
  C  C62  1  0.101100  0.947500  0.617800  1.0  0.004
  C  C63  1  0.980200  0.945800  0.659300  1.0  -0.1246
  C  C64  1  0.927800  0.051400  0.647900  1.0  0.1896
  S  S65  1  0.218040  0.660720  0.230600  1.0  -0.3193
  S  S66  1  0.826490  0.437810  0.382140  1.0  -0.3014
  S  S67  1  0.812000  0.705060  0.500160  1.0  -0.2991
  S  S68  1  0.781960  0.339280  0.769400  1.0  -0.3176
  S  S69  1  0.173510  0.562190  0.617860  1.0  -0.2983
  S  S70  1  0.188000  0.294940  0.499840  1.0  -0.2935
  N  N71  1  0.031200  0.753100  0.157800  1.0  -0.3215
  N  N72  1  0.031500  0.412600  0.226000  1.0  -0.3264
  N  N73  1  0.010000  0.844400  0.401400  1.0  -0.3103
  N  N74  1  0.968800  0.246900  0.842200  1.0  -0.3266
  N  N75  1  0.968500  0.587400  0.774000  1.0  -0.3266
  N  N76  1  0.990000  0.155600  0.598600  1.0  -0.311
  O  O77  1  0.404400  0.809900  0.871600  1.0  -0.6787
  O  O78  1  0.400800  0.890000  0.997600  1.0  -0.4946
  O  O79  1  0.682600  0.247100  0.341800  1.0  -0.5754
  O  O80  1  0.668900  0.419600  0.183600  1.0  -0.5026
  O  O81  1  0.646000  0.948800  0.405400  1.0  -0.669
  O  O82  1  0.652000  0.957400  0.574900  1.0  -0.6019
  O  O83  1  0.555400  0.685300  0.716900  1.0  -0.5765
  O  O84  1  0.372400  0.535100  0.039400  1.0  -0.5175
  O  O85  1  0.595600  0.190100  0.128400  1.0  -0.6794
  O  O86  1  0.599200  0.110000  0.002400  1.0  -0.4956
  O  O87  1  0.317400  0.752900  0.658200  1.0  -0.5763
  O  O88  1  0.331100  0.580400  0.816400  1.0  -0.4998
  O  O89  1  0.354000  0.051200  0.594600  1.0  -0.6713
  O  O90  1  0.348000  0.042600  0.425100  1.0  -0.5977
  O  O91  1  0.444600  0.314700  0.283100  1.0  -0.5775
  O  O92  1  0.627600  0.464900  0.960600  1.0  -0.516
