# generated using pymatgen
data_Cu2H13C27NO8
_symmetry_space_group_name_H-M   'P 1'
_cell_length_a   26.22100000
_cell_length_b   26.22100000
_cell_length_c   26.02000000
_cell_angle_alpha   90.00000000
_cell_angle_beta   90.00000000
_cell_angle_gamma   120.00000000
_symmetry_Int_Tables_number   1
_chemical_formula_structural   Cu2H13C27NO8
_chemical_formula_sum   'Cu18 H117 C243 N9 O72'
_cell_volume   15493.03225227
_cell_formula_units_Z   9
loop_
 _symmetry_equiv_pos_site_id
 _symmetry_equiv_pos_as_xyz
  1  'x, y, z'
loop_
 _atom_site_type_symbol
 _atom_site_label
 _atom_site_symmetry_multiplicity
 _atom_site_fract_x
 _atom_site_fract_y
 _atom_site_fract_z
 _atom_site_occupancy
 _atom_site_charge
  Cu  Cu1  1  0.227500  0.772500  0.173670  1.0  0.9059
  Cu  Cu2  1  0.197870  0.802130  0.262030  1.0  0.9069
  Cu  Cu3  1  0.894170  0.105830  0.507000  1.0  0.9059
  Cu  Cu4  1  0.864540  0.135460  0.595360  1.0  0.9069
  Cu  Cu5  1  0.560840  0.439160  0.840340  1.0  0.9059
  Cu  Cu6  1  0.531210  0.468790  0.928700  1.0  0.9069
  Cu  Cu7  1  0.227500  0.455010  0.173670  1.0  0.9105
  Cu  Cu8  1  0.197870  0.395750  0.262030  1.0  0.9074
  Cu  Cu9  1  0.894170  0.788340  0.507000  1.0  0.9106
  Cu  Cu10  1  0.864540  0.729080  0.595360  1.0  0.9074
  Cu  Cu11  1  0.560840  0.121670  0.840340  1.0  0.9106
  Cu  Cu12  1  0.531210  0.062410  0.928700  1.0  0.9074
  Cu  Cu13  1  0.544990  0.772500  0.173670  1.0  0.9094
  Cu  Cu14  1  0.604250  0.802130  0.262030  1.0  0.9078
  Cu  Cu15  1  0.211660  0.105830  0.507000  1.0  0.9095
  Cu  Cu16  1  0.270920  0.135460  0.595360  1.0  0.9078
  Cu  Cu17  1  0.878330  0.439160  0.840340  1.0  0.9094
  Cu  Cu18  1  0.937590  0.468790  0.928700  1.0  0.9078
  H  H19  1  0.285900  0.933300  0.095100  1.0  0.1113
  H  H20  1  0.315000  0.022600  0.061700  1.0  0.1034
  H  H21  1  0.280900  0.077600  0.191500  1.0  0.1058
  H  H22  1  0.248100  0.983400  0.226300  1.0  0.1111
  H  H23  1  0.387900  0.114500  0.054000  1.0  0.1076
  H  H24  1  0.443900  0.145300  0.996100  1.0  0.1171
  H  H25  1  0.952570  0.266630  0.428430  1.0  0.1113
  H  H26  1  0.981670  0.355930  0.395030  1.0  0.1042
  H  H27  1  0.947570  0.410930  0.524830  1.0  0.1061
  H  H28  1  0.914770  0.316730  0.559630  1.0  0.1111
  H  H29  1  0.054570  0.447830  0.387330  1.0  0.1095
  H  H30  1  0.110570  0.478630  0.329430  1.0  0.1171
  H  H31  1  0.619230  0.599970  0.761770  1.0  0.1113
  H  H32  1  0.648330  0.689270  0.728370  1.0  0.1047
  H  H33  1  0.614230  0.744270  0.858170  1.0  0.1058
  H  H34  1  0.581430  0.650070  0.892970  1.0  0.1106
  H  H35  1  0.721230  0.781170  0.720670  1.0  0.1076
  H  H36  1  0.777230  0.811970  0.662770  1.0  0.117
  H  H37  1  0.066700  0.352600  0.095100  1.0  0.1115
  H  H38  1  0.977400  0.292400  0.061700  1.0  0.1037
  H  H39  1  0.922400  0.203300  0.191500  1.0  0.1066
  H  H40  1  0.016600  0.264700  0.226300  1.0  0.1116
  H  H41  1  0.885500  0.273400  0.054000  1.0  0.1086
  H  H42  1  0.854700  0.298600  0.996100  1.0  0.1177
  H  H43  1  0.733370  0.685930  0.428430  1.0  0.1115
  H  H44  1  0.644070  0.625730  0.395030  1.0  0.1041
  H  H45  1  0.589070  0.536630  0.524830  1.0  0.1066
  H  H46  1  0.683270  0.598030  0.559630  1.0  0.1116
  H  H47  1  0.552170  0.606730  0.387330  1.0  0.1067
  H  H48  1  0.521370  0.631930  0.329430  1.0  0.1177
  H  H49  1  0.400030  0.019270  0.761770  1.0  0.1118
  H  H50  1  0.310730  0.959070  0.728370  1.0  0.1041
  H  H51  1  0.255730  0.869970  0.858170  1.0  0.1066
  H  H52  1  0.349930  0.931370  0.892970  1.0  0.1109
  H  H53  1  0.218830  0.940070  0.720670  1.0  0.1065
  H  H54  1  0.188030  0.965270  0.662770  1.0  0.1176
  H  H55  1  0.647400  0.714100  0.095100  1.0  0.1114
  H  H56  1  0.707600  0.685000  0.061700  1.0  0.1049
  H  H57  1  0.796700  0.719100  0.191500  1.0  0.1064
  H  H58  1  0.735300  0.751900  0.226300  1.0  0.1097
  H  H59  1  0.726600  0.612100  0.054000  1.0  0.1076
  H  H60  1  0.701400  0.556100  0.996100  1.0  0.1184
  H  H61  1  0.314070  0.047430  0.428430  1.0  0.1114
  H  H62  1  0.374270  0.018330  0.395030  1.0  0.1044
  H  H63  1  0.463370  0.052430  0.524830  1.0  0.1062
  H  H64  1  0.401970  0.085230  0.559630  1.0  0.1097
  H  H65  1  0.393270  0.945430  0.387330  1.0  0.1076
  H  H66  1  0.368070  0.889430  0.329430  1.0  0.1184
  H  H67  1  0.980730  0.380770  0.761770  1.0  0.1118
  H  H68  1  0.040930  0.351670  0.728370  1.0  0.1039
  H  H69  1  0.130030  0.385770  0.858170  1.0  0.1064
  H  H70  1  0.068630  0.418570  0.892970  1.0  0.1103
  H  H71  1  0.059930  0.278770  0.720670  1.0  0.1076
  H  H72  1  0.034730  0.222770  0.662770  1.0  0.1184
  H  H73  1  0.066700  0.714100  0.095100  1.0  0.1115
  H  H74  1  0.977400  0.685000  0.061700  1.0  0.103
  H  H75  1  0.922400  0.719100  0.191500  1.0  0.106
  H  H76  1  0.016600  0.751900  0.226300  1.0  0.1102
  H  H77  1  0.885500  0.612100  0.054000  1.0  0.1078
  H  H78  1  0.854700  0.556100  0.996100  1.0  0.1178
  H  H79  1  0.733370  0.047430  0.428430  1.0  0.1115
  H  H80  1  0.644070  0.018330  0.395030  1.0  0.104
  H  H81  1  0.589070  0.052430  0.524830  1.0  0.1064
  H  H82  1  0.683270  0.085230  0.559630  1.0  0.1102
  H  H83  1  0.552170  0.945430  0.387330  1.0  0.1095
  H  H84  1  0.521370  0.889430  0.329430  1.0  0.1178
  H  H85  1  0.400030  0.380770  0.761770  1.0  0.1115
  H  H86  1  0.310730  0.351670  0.728370  1.0  0.1046
  H  H87  1  0.255730  0.385770  0.858170  1.0  0.106
  H  H88  1  0.349930  0.418570  0.892970  1.0  0.1096
  H  H89  1  0.218830  0.278770  0.720670  1.0  0.1078
  H  H90  1  0.188030  0.222770  0.662770  1.0  0.1177
  H  H91  1  0.647400  0.933300  0.095100  1.0  0.1107
  H  H92  1  0.707600  0.022600  0.061700  1.0  0.1036
  H  H93  1  0.796700  0.077600  0.191500  1.0  0.1062
  H  H94  1  0.735300  0.983400  0.226300  1.0  0.1114
  H  H95  1  0.726600  0.114500  0.054000  1.0  0.1092
  H  H96  1  0.701400  0.145300  0.996100  1.0  0.1175
  H  H97  1  0.314070  0.266630  0.428430  1.0  0.1107
  H  H98  1  0.374270  0.355930  0.395030  1.0  0.1039
  H  H99  1  0.463370  0.410930  0.524830  1.0  0.1062
  H  H100  1  0.401970  0.316730  0.559630  1.0  0.1114
  H  H101  1  0.393270  0.447830  0.387330  1.0  0.1072
  H  H102  1  0.368070  0.478630  0.329430  1.0  0.1175
  H  H103  1  0.980730  0.599970  0.761770  1.0  0.1111
  H  H104  1  0.040930  0.689270  0.728370  1.0  0.1042
  H  H105  1  0.130030  0.744270  0.858170  1.0  0.1062
  H  H106  1  0.068630  0.650070  0.892970  1.0  0.1108
  H  H107  1  0.059930  0.781170  0.720670  1.0  0.1071
  H  H108  1  0.034730  0.811970  0.662770  1.0  0.1174
  H  H109  1  0.285900  0.352600  0.095100  1.0  0.1117
  H  H110  1  0.315000  0.292400  0.061700  1.0  0.1049
  H  H111  1  0.280900  0.203300  0.191500  1.0  0.1068
  H  H112  1  0.248100  0.264700  0.226300  1.0  0.1102
  H  H113  1  0.387900  0.273400  0.054000  1.0  0.1069
  H  H114  1  0.443900  0.298600  0.996100  1.0  0.1181
  H  H115  1  0.952570  0.685930  0.428430  1.0  0.1117
  H  H116  1  0.981670  0.625730  0.395030  1.0  0.1044
  H  H117  1  0.947570  0.536630  0.524830  1.0  0.1064
  H  H118  1  0.914770  0.598030  0.559630  1.0  0.1102
  H  H119  1  0.054570  0.606730  0.387330  1.0  0.1069
  H  H120  1  0.110570  0.631930  0.329430  1.0  0.1181
  H  H121  1  0.619230  0.019270  0.761770  1.0  0.1122
  H  H122  1  0.648330  0.959070  0.728370  1.0  0.1041
  H  H123  1  0.614230  0.869970  0.858170  1.0  0.1068
  H  H124  1  0.581430  0.931370  0.892970  1.0  0.1108
  H  H125  1  0.721230  0.940070  0.720670  1.0  0.1069
  H  H126  1  0.777230  0.965270  0.662770  1.0  0.1181
  H  H127  1  0.532500  0.266250  0.882300  1.0  0.1186
  H  H128  1  0.199170  0.599580  0.215630  1.0  0.12
  H  H129  1  0.865830  0.932920  0.548970  1.0  0.1186
  H  H130  1  0.733750  0.266250  0.882300  1.0  0.1204
  H  H131  1  0.400420  0.599580  0.215630  1.0  0.1186
  H  H132  1  0.067080  0.932920  0.548970  1.0  0.1198
  H  H133  1  0.733750  0.467500  0.882300  1.0  0.1192
  H  H134  1  0.400420  0.800830  0.215630  1.0  0.1202
  H  H135  1  0.067080  0.134170  0.548970  1.0  0.1191
  C  C136  1  0.247600  0.890400  0.187800  1.0  0.6918
  C  C137  1  0.265640  0.950400  0.163600  1.0  -0.12
  C  C138  1  0.284800  0.962600  0.115800  1.0  -0.1242
  C  C139  1  0.302600  0.015400  0.096600  1.0  -0.1476
  C  C140  1  0.303900  0.060600  0.124400  1.0  0.1732
  C  C141  1  0.282800  0.048300  0.171500  1.0  -0.0809
  C  C142  1  0.263100  0.992100  0.192200  1.0  -0.0759
  C  C143  1  0.326600  0.118300  0.102600  1.0  0.1136
  C  C144  1  0.372800  0.139060  0.064700  1.0  -0.0663
  C  C145  1  0.455600  0.182800  0.981600  1.0  -0.1091
  C  C146  1  0.493300  0.202060  0.938100  1.0  -0.1259
  C  C147  1  0.512600  0.161700  0.916600  1.0  0.6476
  C  C148  1  0.914270  0.223730  0.521130  1.0  0.6918
  C  C149  1  0.932310  0.283730  0.496930  1.0  -0.12
  C  C150  1  0.951470  0.295930  0.449130  1.0  -0.1242
  C  C151  1  0.969270  0.348730  0.429930  1.0  -0.1476
  C  C152  1  0.970570  0.393930  0.457730  1.0  0.1732
  C  C153  1  0.949470  0.381630  0.504830  1.0  -0.0809
  C  C154  1  0.929770  0.325430  0.525530  1.0  -0.0759
  C  C155  1  0.993270  0.451630  0.435930  1.0  0.1136
  C  C156  1  0.039470  0.472390  0.398030  1.0  -0.0671
  C  C157  1  0.122270  0.516130  0.314930  1.0  -0.1091
  C  C158  1  0.159970  0.535390  0.271430  1.0  -0.1259
  C  C159  1  0.179270  0.495030  0.249930  1.0  0.6476
  C  C160  1  0.580930  0.557070  0.854470  1.0  0.6918
  C  C161  1  0.598970  0.617070  0.830270  1.0  -0.12
  C  C162  1  0.618130  0.629270  0.782470  1.0  -0.1242
  C  C163  1  0.635930  0.682070  0.763270  1.0  -0.1476
  C  C164  1  0.637230  0.727270  0.791070  1.0  0.1732
  C  C165  1  0.616130  0.714970  0.838170  1.0  -0.0809
  C  C166  1  0.596430  0.658770  0.858870  1.0  -0.0759
  C  C167  1  0.659930  0.784970  0.769270  1.0  0.1136
  C  C168  1  0.706130  0.805730  0.731370  1.0  -0.0663
  C  C169  1  0.788930  0.849470  0.648270  1.0  -0.1091
  C  C170  1  0.826630  0.868730  0.604770  1.0  -0.1258
  C  C171  1  0.845930  0.828370  0.583270  1.0  0.6481
  C  C172  1  0.109600  0.357200  0.187800  1.0  0.6908
  C  C173  1  0.049600  0.315240  0.163600  1.0  -0.1199
  C  C174  1  0.037400  0.322200  0.115800  1.0  -0.1244
  C  C175  1  0.984600  0.287200  0.096600  1.0  -0.1487
  C  C176  1  0.939400  0.243300  0.124400  1.0  0.1719
  C  C177  1  0.951700  0.234500  0.171500  1.0  -0.0815
  C  C178  1  0.007900  0.271000  0.192200  1.0  -0.0735
  C  C179  1  0.881700  0.208300  0.102600  1.0  0.1127
  C  C180  1  0.860940  0.233740  0.064700  1.0  -0.0643
  C  C181  1  0.817200  0.272800  0.981600  1.0  -0.109
  C  C182  1  0.797940  0.291240  0.938100  1.0  -0.1248
  C  C183  1  0.838300  0.350900  0.916600  1.0  0.6477
  C  C184  1  0.776270  0.690530  0.521130  1.0  0.6908
  C  C185  1  0.716270  0.648570  0.496930  1.0  -0.1199
  C  C186  1  0.704070  0.655530  0.449130  1.0  -0.1244
  C  C187  1  0.651270  0.620530  0.429930  1.0  -0.1487
  C  C188  1  0.606070  0.576630  0.457730  1.0  0.1719
  C  C189  1  0.618370  0.567830  0.504830  1.0  -0.0816
  C  C190  1  0.674570  0.604330  0.525530  1.0  -0.0735
  C  C191  1  0.548370  0.541630  0.435930  1.0  0.1127
  C  C192  1  0.527610  0.567070  0.398030  1.0  -0.0643
  C  C193  1  0.483870  0.606130  0.314930  1.0  -0.109
  C  C194  1  0.464610  0.624570  0.271430  1.0  -0.1249
  C  C195  1  0.504970  0.684230  0.249930  1.0  0.6477
  C  C196  1  0.442930  0.023870  0.854470  1.0  0.6907
  C  C197  1  0.382930  0.981910  0.830270  1.0  -0.1199
  C  C198  1  0.370730  0.988870  0.782470  1.0  -0.1244
  C  C199  1  0.317930  0.953870  0.763270  1.0  -0.1487
  C  C200  1  0.272730  0.909970  0.791070  1.0  0.1719
  C  C201  1  0.285030  0.901170  0.838170  1.0  -0.0815
  C  C202  1  0.341230  0.937670  0.858870  1.0  -0.0735
  C  C203  1  0.215030  0.874970  0.769270  1.0  0.1127
  C  C204  1  0.194270  0.900410  0.731370  1.0  -0.0643
  C  C205  1  0.150530  0.939470  0.648270  1.0  -0.109
  C  C206  1  0.131270  0.957910  0.604770  1.0  -0.1249
  C  C207  1  0.171630  0.017570  0.583270  1.0  0.6477
  C  C208  1  0.642800  0.752400  0.187800  1.0  0.6897
  C  C209  1  0.684760  0.734360  0.163600  1.0  -0.1215
  C  C210  1  0.677800  0.715200  0.115800  1.0  -0.1243
  C  C211  1  0.712800  0.697400  0.096600  1.0  -0.1462
  C  C212  1  0.756700  0.696100  0.124400  1.0  0.1737
  C  C213  1  0.765500  0.717200  0.171500  1.0  -0.0783
  C  C214  1  0.729000  0.736900  0.192200  1.0  -0.0749
  C  C215  1  0.791700  0.673400  0.102600  1.0  0.1124
  C  C216  1  0.766260  0.627200  0.064700  1.0  -0.068
  C  C217  1  0.727200  0.544400  0.981600  1.0  -0.1106
  C  C218  1  0.708760  0.506700  0.938100  1.0  -0.1252
  C  C219  1  0.649100  0.487400  0.916600  1.0  0.6478
  C  C220  1  0.309470  0.085730  0.521130  1.0  0.6896
  C  C221  1  0.351430  0.067690  0.496930  1.0  -0.1215
  C  C222  1  0.344470  0.048530  0.449130  1.0  -0.1243
  C  C223  1  0.379470  0.030730  0.429930  1.0  -0.1462
  C  C224  1  0.423370  0.029430  0.457730  1.0  0.1737
  C  C225  1  0.432170  0.050530  0.504830  1.0  -0.0782
  C  C226  1  0.395670  0.070230  0.525530  1.0  -0.0749
  C  C227  1  0.458370  0.006730  0.435930  1.0  0.1124
  C  C228  1  0.432930  0.960530  0.398030  1.0  -0.0667
  C  C229  1  0.393870  0.877730  0.314930  1.0  -0.1106
  C  C230  1  0.375430  0.840030  0.271430  1.0  -0.1252
  C  C231  1  0.315770  0.820730  0.249930  1.0  0.6478
  C  C232  1  0.976130  0.419070  0.854470  1.0  0.6898
  C  C233  1  0.018090  0.401030  0.830270  1.0  -0.1215
  C  C234  1  0.011130  0.381870  0.782470  1.0  -0.1243
  C  C235  1  0.046130  0.364070  0.763270  1.0  -0.1462
  C  C236  1  0.090030  0.362770  0.791070  1.0  0.1737
  C  C237  1  0.098830  0.383870  0.838170  1.0  -0.0783
  C  C238  1  0.062330  0.403570  0.858870  1.0  -0.0749
  C  C239  1  0.125030  0.340070  0.769270  1.0  0.1124
  C  C240  1  0.099590  0.293870  0.731370  1.0  -0.068
  C  C241  1  0.060530  0.211070  0.648270  1.0  -0.1106
  C  C242  1  0.042090  0.173370  0.604770  1.0  -0.1253
  C  C243  1  0.982430  0.154070  0.583270  1.0  0.6477
  C  C244  1  0.109600  0.752400  0.187800  1.0  0.6897
  C  C245  1  0.049600  0.734360  0.163600  1.0  -0.1188
  C  C246  1  0.037400  0.715200  0.115800  1.0  -0.124
  C  C247  1  0.984600  0.697400  0.096600  1.0  -0.1466
  C  C248  1  0.939400  0.696100  0.124400  1.0  0.1732
  C  C249  1  0.951700  0.717200  0.171500  1.0  -0.08
  C  C250  1  0.007900  0.736900  0.192200  1.0  -0.0762
  C  C251  1  0.881700  0.673400  0.102600  1.0  0.113
  C  C252  1  0.860940  0.627200  0.064700  1.0  -0.0656
  C  C253  1  0.817200  0.544400  0.981600  1.0  -0.11
  C  C254  1  0.797940  0.506700  0.938100  1.0  -0.1251
  C  C255  1  0.838300  0.487400  0.916600  1.0  0.6473
  C  C256  1  0.776270  0.085730  0.521130  1.0  0.6897
  C  C257  1  0.716270  0.067690  0.496930  1.0  -0.1188
  C  C258  1  0.704070  0.048530  0.449130  1.0  -0.124
  C  C259  1  0.651270  0.030730  0.429930  1.0  -0.1466
  C  C260  1  0.606070  0.029430  0.457730  1.0  0.1732
  C  C261  1  0.618370  0.050530  0.504830  1.0  -0.08
  C  C262  1  0.674570  0.070230  0.525530  1.0  -0.0762
  C  C263  1  0.548370  0.006730  0.435930  1.0  0.113
  C  C264  1  0.527610  0.960530  0.398030  1.0  -0.066
  C  C265  1  0.483870  0.877730  0.314930  1.0  -0.11
  C  C266  1  0.464610  0.840030  0.271430  1.0  -0.1251
  C  C267  1  0.504970  0.820730  0.249930  1.0  0.6473
  C  C268  1  0.442930  0.419070  0.854470  1.0  0.6896
  C  C269  1  0.382930  0.401030  0.830270  1.0  -0.1188
  C  C270  1  0.370730  0.381870  0.782470  1.0  -0.124
  C  C271  1  0.317930  0.364070  0.763270  1.0  -0.1466
  C  C272  1  0.272730  0.362770  0.791070  1.0  0.1732
  C  C273  1  0.285030  0.383870  0.838170  1.0  -0.08
  C  C274  1  0.341230  0.403570  0.858870  1.0  -0.0762
  C  C275  1  0.215030  0.340070  0.769270  1.0  0.113
  C  C276  1  0.194270  0.293870  0.731370  1.0  -0.0656
  C  C277  1  0.150530  0.211070  0.648270  1.0  -0.11
  C  C278  1  0.131270  0.173370  0.604770  1.0  -0.125
  C  C279  1  0.171630  0.154070  0.583270  1.0  0.6479
  C  C280  1  0.642800  0.890400  0.187800  1.0  0.6921
  C  C281  1  0.684760  0.950400  0.163600  1.0  -0.1197
  C  C282  1  0.677800  0.962600  0.115800  1.0  -0.1243
  C  C283  1  0.712800  0.015400  0.096600  1.0  -0.1483
  C  C284  1  0.756700  0.060600  0.124400  1.0  0.1734
  C  C285  1  0.765500  0.048300  0.171500  1.0  -0.0801
  C  C286  1  0.729000  0.992100  0.192200  1.0  -0.0743
  C  C287  1  0.791700  0.118300  0.102600  1.0  0.1141
  C  C288  1  0.766260  0.139060  0.064700  1.0  -0.0666
  C  C289  1  0.727200  0.182800  0.981600  1.0  -0.1095
  C  C290  1  0.708760  0.202060  0.938100  1.0  -0.1261
  C  C291  1  0.649100  0.161700  0.916600  1.0  0.6475
  C  C292  1  0.309470  0.223730  0.521130  1.0  0.6921
  C  C293  1  0.351430  0.283730  0.496930  1.0  -0.1197
  C  C294  1  0.344470  0.295930  0.449130  1.0  -0.1243
  C  C295  1  0.379470  0.348730  0.429930  1.0  -0.1483
  C  C296  1  0.423370  0.393930  0.457730  1.0  0.1734
  C  C297  1  0.432170  0.381630  0.504830  1.0  -0.0801
  C  C298  1  0.395670  0.325430  0.525530  1.0  -0.0743
  C  C299  1  0.458370  0.451630  0.435930  1.0  0.1141
  C  C300  1  0.432930  0.472390  0.398030  1.0  -0.0666
  C  C301  1  0.393870  0.516130  0.314930  1.0  -0.1095
  C  C302  1  0.375430  0.535390  0.271430  1.0  -0.1261
  C  C303  1  0.315770  0.495030  0.249930  1.0  0.6475
  C  C304  1  0.976130  0.557070  0.854470  1.0  0.692
  C  C305  1  0.018090  0.617070  0.830270  1.0  -0.1197
  C  C306  1  0.011130  0.629270  0.782470  1.0  -0.1243
  C  C307  1  0.046130  0.682070  0.763270  1.0  -0.1483
  C  C308  1  0.090030  0.727270  0.791070  1.0  0.1734
  C  C309  1  0.098830  0.714970  0.838170  1.0  -0.0801
  C  C310  1  0.062330  0.658770  0.858870  1.0  -0.0743
  C  C311  1  0.125030  0.784970  0.769270  1.0  0.1141
  C  C312  1  0.099590  0.805730  0.731370  1.0  -0.0666
  C  C313  1  0.060530  0.849470  0.648270  1.0  -0.1095
  C  C314  1  0.042090  0.868730  0.604770  1.0  -0.1261
  C  C315  1  0.982430  0.828370  0.583270  1.0  0.6475
  C  C316  1  0.247600  0.357200  0.187800  1.0  0.6902
  C  C317  1  0.265640  0.315240  0.163600  1.0  -0.1205
  C  C318  1  0.284800  0.322200  0.115800  1.0  -0.1253
  C  C319  1  0.302600  0.287200  0.096600  1.0  -0.1467
  C  C320  1  0.303900  0.243300  0.124400  1.0  0.173
  C  C321  1  0.282800  0.234500  0.171500  1.0  -0.0814
  C  C322  1  0.263100  0.271000  0.192200  1.0  -0.0748
  C  C323  1  0.326600  0.208300  0.102600  1.0  0.1124
  C  C324  1  0.372800  0.233740  0.064700  1.0  -0.0643
  C  C325  1  0.455600  0.272800  0.981600  1.0  -0.1097
  C  C326  1  0.493300  0.291240  0.938100  1.0  -0.1252
  C  C327  1  0.512600  0.350900  0.916600  1.0  0.6477
  C  C328  1  0.914270  0.690530  0.521130  1.0  0.6902
  C  C329  1  0.932310  0.648570  0.496930  1.0  -0.1205
  C  C330  1  0.951470  0.655530  0.449130  1.0  -0.1253
  C  C331  1  0.969270  0.620530  0.429930  1.0  -0.1467
  C  C332  1  0.970570  0.576630  0.457730  1.0  0.173
  C  C333  1  0.949470  0.567830  0.504830  1.0  -0.0813
  C  C334  1  0.929770  0.604330  0.525530  1.0  -0.0748
  C  C335  1  0.993270  0.541630  0.435930  1.0  0.1124
  C  C336  1  0.039470  0.567070  0.398030  1.0  -0.0625
  C  C337  1  0.122270  0.606130  0.314930  1.0  -0.1097
  C  C338  1  0.159970  0.624570  0.271430  1.0  -0.1252
  C  C339  1  0.179270  0.684230  0.249930  1.0  0.6477
  C  C340  1  0.580930  0.023870  0.854470  1.0  0.6903
  C  C341  1  0.598970  0.981910  0.830270  1.0  -0.1205
  C  C342  1  0.618130  0.988870  0.782470  1.0  -0.1253
  C  C343  1  0.635930  0.953870  0.763270  1.0  -0.1467
  C  C344  1  0.637230  0.909970  0.791070  1.0  0.173
  C  C345  1  0.616130  0.901170  0.838170  1.0  -0.0814
  C  C346  1  0.596430  0.937670  0.858870  1.0  -0.0748
  C  C347  1  0.659930  0.874970  0.769270  1.0  0.1124
  C  C348  1  0.706130  0.900410  0.731370  1.0  -0.0643
  C  C349  1  0.788930  0.939470  0.648270  1.0  -0.1097
  C  C350  1  0.826630  0.957910  0.604770  1.0  -0.1252
  C  C351  1  0.845930  0.017570  0.583270  1.0  0.6476
  C  C352  1  0.396500  0.198250  0.042800  1.0  0.1568
  C  C353  1  0.435700  0.217850  0.003300  1.0  0.0795
  C  C354  1  0.510600  0.255300  0.913400  1.0  -0.0264
  C  C355  1  0.063170  0.531580  0.376130  1.0  0.1568
  C  C356  1  0.102370  0.551180  0.336630  1.0  0.0795
  C  C357  1  0.177270  0.588630  0.246730  1.0  -0.0264
  C  C358  1  0.729830  0.864920  0.709470  1.0  0.1568
  C  C359  1  0.769030  0.884520  0.669970  1.0  0.0795
  C  C360  1  0.843930  0.921970  0.580070  1.0  -0.0263
  C  C361  1  0.801750  0.198250  0.042800  1.0  0.1556
  C  C362  1  0.782150  0.217850  0.003300  1.0  0.0796
  C  C363  1  0.744700  0.255300  0.913400  1.0  -0.0259
  C  C364  1  0.468420  0.531580  0.376130  1.0  0.1578
  C  C365  1  0.448820  0.551180  0.336630  1.0  0.0796
  C  C366  1  0.411370  0.588630  0.246730  1.0  -0.0259
  C  C367  1  0.135080  0.864920  0.709470  1.0  0.1578
  C  C368  1  0.115480  0.884520  0.669970  1.0  0.0796
  C  C369  1  0.078030  0.921970  0.580070  1.0  -0.0258
  C  C370  1  0.801750  0.603500  0.042800  1.0  0.1579
  C  C371  1  0.782150  0.564300  0.003300  1.0  0.0798
  C  C372  1  0.744700  0.489400  0.913400  1.0  -0.0253
  C  C373  1  0.468420  0.936830  0.376130  1.0  0.1579
  C  C374  1  0.448820  0.897630  0.336630  1.0  0.0798
  C  C375  1  0.411370  0.822730  0.246730  1.0  -0.0252
  C  C376  1  0.135080  0.270170  0.709470  1.0  0.1579
  C  C377  1  0.115480  0.230970  0.669970  1.0  0.0798
  C  C378  1  0.078030  0.156070  0.580070  1.0  -0.0253
  N  N379  1  0.307400  0.153700  0.122600  1.0  -0.4277
  N  N380  1  0.974070  0.487030  0.455930  1.0  -0.4258
  N  N381  1  0.640730  0.820370  0.789270  1.0  -0.4258
  N  N382  1  0.846300  0.153700  0.122600  1.0  -0.4272
  N  N383  1  0.512970  0.487030  0.455930  1.0  -0.4238
  N  N384  1  0.179630  0.820370  0.789270  1.0  -0.4254
  N  N385  1  0.846300  0.692600  0.122600  1.0  -0.4275
  N  N386  1  0.512970  0.025930  0.455930  1.0  -0.4256
  N  N387  1  0.179630  0.359270  0.789270  1.0  -0.4256
  O  O388  1  0.251030  0.854520  0.157410  1.0  -0.5871
  O  O389  1  0.225090  0.878400  0.230630  1.0  -0.5546
  O  O390  1  0.506970  0.117960  0.945900  1.0  -0.5804
  O  O391  1  0.534440  0.171160  0.871160  1.0  -0.5744
  O  O392  1  0.917700  0.187850  0.490740  1.0  -0.5871
  O  O393  1  0.891760  0.211730  0.563960  1.0  -0.5545
  O  O394  1  0.173640  0.451290  0.279230  1.0  -0.5804
  O  O395  1  0.201110  0.504490  0.204490  1.0  -0.5744
  O  O396  1  0.584360  0.521190  0.824080  1.0  -0.5876
  O  O397  1  0.558420  0.545070  0.897300  1.0  -0.5546
  O  O398  1  0.840300  0.784630  0.612570  1.0  -0.5805
  O  O399  1  0.867770  0.837830  0.537830  1.0  -0.5743
  O  O400  1  0.145480  0.396510  0.157410  1.0  -0.5874
  O  O401  1  0.121600  0.346690  0.230630  1.0  -0.5549
  O  O402  1  0.882040  0.389010  0.945900  1.0  -0.5798
  O  O403  1  0.828840  0.363280  0.871160  1.0  -0.573
  O  O404  1  0.812150  0.729840  0.490740  1.0  -0.5877
  O  O405  1  0.788270  0.680020  0.563960  1.0  -0.5548
  O  O406  1  0.548710  0.722340  0.279230  1.0  -0.5799
  O  O407  1  0.495510  0.696610  0.204490  1.0  -0.573
  O  O408  1  0.478810  0.063180  0.824080  1.0  -0.5868
  O  O409  1  0.454930  0.013360  0.897300  1.0  -0.5549
  O  O410  1  0.215370  0.055680  0.612570  1.0  -0.5799
  O  O411  1  0.162170  0.029950  0.537830  1.0  -0.573
  O  O412  1  0.603490  0.748970  0.157410  1.0  -0.5859
  O  O413  1  0.653310  0.774910  0.230630  1.0  -0.5538
  O  O414  1  0.610990  0.493030  0.945900  1.0  -0.5802
  O  O415  1  0.636720  0.465560  0.871160  1.0  -0.5727
  O  O416  1  0.270160  0.082300  0.490740  1.0  -0.5861
  O  O417  1  0.319980  0.108240  0.563960  1.0  -0.5538
  O  O418  1  0.277660  0.826360  0.279230  1.0  -0.5802
  O  O419  1  0.303390  0.798890  0.204490  1.0  -0.5727
  O  O420  1  0.936820  0.415640  0.824080  1.0  -0.5853
  O  O421  1  0.986640  0.441580  0.897300  1.0  -0.5538
  O  O422  1  0.944320  0.159700  0.612570  1.0  -0.5802
  O  O423  1  0.970050  0.132230  0.537830  1.0  -0.5728
  O  O424  1  0.145480  0.748970  0.157410  1.0  -0.5872
  O  O425  1  0.121600  0.774910  0.230630  1.0  -0.5542
  O  O426  1  0.882040  0.493030  0.945900  1.0  -0.5795
  O  O427  1  0.828840  0.465560  0.871160  1.0  -0.5729
  O  O428  1  0.812150  0.082300  0.490740  1.0  -0.5871
  O  O429  1  0.788270  0.108240  0.563960  1.0  -0.5541
  O  O430  1  0.548710  0.826360  0.279230  1.0  -0.5794
  O  O431  1  0.495510  0.798890  0.204490  1.0  -0.5729
  O  O432  1  0.478810  0.415640  0.824080  1.0  -0.5878
  O  O433  1  0.454930  0.441580  0.897300  1.0  -0.5542
  O  O434  1  0.215370  0.159700  0.612570  1.0  -0.5795
  O  O435  1  0.162170  0.132230  0.537830  1.0  -0.5729
  O  O436  1  0.603490  0.854520  0.157410  1.0  -0.5865
  O  O437  1  0.653310  0.878400  0.230630  1.0  -0.5537
  O  O438  1  0.610990  0.117960  0.945900  1.0  -0.5806
  O  O439  1  0.636720  0.171160  0.871160  1.0  -0.5741
  O  O440  1  0.270160  0.187850  0.490740  1.0  -0.5867
  O  O441  1  0.319980  0.211730  0.563960  1.0  -0.5537
  O  O442  1  0.277660  0.451290  0.279230  1.0  -0.5806
  O  O443  1  0.303390  0.504490  0.204490  1.0  -0.5741
  O  O444  1  0.936820  0.521190  0.824080  1.0  -0.5859
  O  O445  1  0.986640  0.545070  0.897300  1.0  -0.5537
  O  O446  1  0.944320  0.784630  0.612570  1.0  -0.5806
  O  O447  1  0.970050  0.837830  0.537830  1.0  -0.5741
  O  O448  1  0.251030  0.396510  0.157410  1.0  -0.5873
  O  O449  1  0.225090  0.346690  0.230630  1.0  -0.5553
  O  O450  1  0.506970  0.389010  0.945900  1.0  -0.5794
  O  O451  1  0.534440  0.363280  0.871160  1.0  -0.5735
  O  O452  1  0.917700  0.729840  0.490740  1.0  -0.5875
  O  O453  1  0.891760  0.680020  0.563960  1.0  -0.5552
  O  O454  1  0.173640  0.722340  0.279230  1.0  -0.5794
  O  O455  1  0.201110  0.696610  0.204490  1.0  -0.5735
  O  O456  1  0.584360  0.063180  0.824080  1.0  -0.5867
  O  O457  1  0.558420  0.013360  0.897300  1.0  -0.5553
  O  O458  1  0.840300  0.055680  0.612570  1.0  -0.5794
  O  O459  1  0.867770  0.029950  0.537830  1.0  -0.5735
