# generated using pymatgen
data_Cu2H13C27NO8
_symmetry_space_group_name_H-M   'P 1'
_cell_length_a   26.29280000
_cell_length_b   26.29280000
_cell_length_c   26.03600000
_cell_angle_alpha   90.00000000
_cell_angle_beta   90.00000000
_cell_angle_gamma   120.00000000
_symmetry_Int_Tables_number   1
_chemical_formula_structural   Cu2H13C27NO8
_chemical_formula_sum   'Cu18 H117 C243 N9 O72'
_cell_volume   15587.57551205
_cell_formula_units_Z   9
loop_
 _symmetry_equiv_pos_site_id
 _symmetry_equiv_pos_as_xyz
  1  'x, y, z'
loop_
 _atom_site_type_symbol
 _atom_site_label
 _atom_site_symmetry_multiplicity
 _atom_site_fract_x
 _atom_site_fract_y
 _atom_site_fract_z
 _atom_site_occupancy
 _atom_site_charge
  Cu  Cu1  1  0.439310  0.560690  0.666750  1.0  0.8846
  Cu  Cu2  1  0.468660  0.531340  0.578810  1.0  0.9017
  Cu  Cu3  1  0.105970  0.894030  0.000080  1.0  0.8846
  Cu  Cu4  1  0.135320  0.864680  0.912140  1.0  0.9017
  Cu  Cu5  1  0.772640  0.227360  0.333420  1.0  0.8846
  Cu  Cu6  1  0.801990  0.198010  0.245480  1.0  0.9017
  Cu  Cu7  1  0.439310  0.878610  0.666750  1.0  0.8885
  Cu  Cu8  1  0.468660  0.937310  0.578810  1.0  0.9042
  Cu  Cu9  1  0.105970  0.211950  0.000080  1.0  0.8885
  Cu  Cu10  1  0.135320  0.270650  0.912140  1.0  0.9042
  Cu  Cu11  1  0.772640  0.545280  0.333420  1.0  0.8885
  Cu  Cu12  1  0.801990  0.603980  0.245480  1.0  0.9044
  Cu  Cu13  1  0.121390  0.560690  0.666750  1.0  0.8885
  Cu  Cu14  1  0.062690  0.531340  0.578810  1.0  0.9038
  Cu  Cu15  1  0.788050  0.894030  0.000080  1.0  0.8885
  Cu  Cu16  1  0.729350  0.864680  0.912140  1.0  0.9038
  Cu  Cu17  1  0.454720  0.227360  0.333420  1.0  0.8885
  Cu  Cu18  1  0.396020  0.198010  0.245480  1.0  0.9041
  H  H19  1  0.218500  0.186000  0.845500  1.0  0.0903
  H  H20  1  0.344400  0.307000  0.775800  1.0  0.1013
  H  H21  1  0.373500  0.398100  0.743800  1.0  0.1173
  H  H22  1  0.279600  0.217400  0.783200  1.0  0.1082
  H  H23  1  0.423700  0.351000  0.615600  1.0  0.1106
  H  H24  1  0.388100  0.258100  0.648200  1.0  0.1002
  H  H25  1  0.885170  0.519330  0.178830  1.0  0.0903
  H  H26  1  0.011070  0.640330  0.109130  1.0  0.1013
  H  H27  1  0.040170  0.731430  0.077130  1.0  0.1183
  H  H28  1  0.946270  0.550730  0.116530  1.0  0.1082
  H  H29  1  0.090370  0.684330  0.948930  1.0  0.1106
  H  H30  1  0.054770  0.591430  0.981530  1.0  0.1002
  H  H31  1  0.551830  0.852670  0.512170  1.0  0.0903
  H  H32  1  0.677730  0.973670  0.442470  1.0  0.1013
  H  H33  1  0.706830  0.064770  0.410470  1.0  0.1173
  H  H34  1  0.612930  0.884070  0.449870  1.0  0.1093
  H  H35  1  0.757030  0.017670  0.282270  1.0  0.1106
  H  H36  1  0.721430  0.924770  0.314870  1.0  0.1001
  H  H37  1  0.814000  0.032500  0.845500  1.0  0.0891
  H  H38  1  0.693000  0.037400  0.775800  1.0  0.1011
  H  H39  1  0.601900  0.975400  0.743800  1.0  0.1184
  H  H40  1  0.782600  0.062200  0.783200  1.0  0.1096
  H  H41  1  0.649000  0.072700  0.615600  1.0  0.1102
  H  H42  1  0.741900  0.130000  0.648200  1.0  0.1003
  H  H43  1  0.480670  0.365830  0.178830  1.0  0.0891
  H  H44  1  0.359670  0.370730  0.109130  1.0  0.1011
  H  H45  1  0.268570  0.308730  0.077130  1.0  0.1172
  H  H46  1  0.449270  0.395530  0.116530  1.0  0.1096
  H  H47  1  0.315670  0.406030  0.948930  1.0  0.1102
  H  H48  1  0.408570  0.463330  0.981530  1.0  0.1003
  H  H49  1  0.147330  0.699170  0.512170  1.0  0.0891
  H  H50  1  0.026330  0.704070  0.442470  1.0  0.1017
  H  H51  1  0.935230  0.642070  0.410470  1.0  0.1184
  H  H52  1  0.115930  0.728870  0.449870  1.0  0.1086
  H  H53  1  0.982330  0.739370  0.282270  1.0  0.1108
  H  H54  1  0.075230  0.796670  0.314870  1.0  0.1004
  H  H55  1  0.967500  0.781500  0.845500  1.0  0.0901
  H  H56  1  0.962600  0.655600  0.775800  1.0  0.1016
  H  H57  1  0.024600  0.626500  0.743800  1.0  0.1187
  H  H58  1  0.937800  0.720400  0.783200  1.0  0.108
  H  H59  1  0.927300  0.576300  0.615600  1.0  0.1099
  H  H60  1  0.870000  0.611900  0.648200  1.0  0.1001
  H  H61  1  0.634170  0.114830  0.178830  1.0  0.0901
  H  H62  1  0.629270  0.988930  0.109130  1.0  0.1024
  H  H63  1  0.691270  0.959830  0.077130  1.0  0.12
  H  H64  1  0.604470  0.053730  0.116530  1.0  0.1087
  H  H65  1  0.593970  0.909630  0.948930  1.0  0.1102
  H  H66  1  0.536670  0.945230  0.981530  1.0  0.1001
  H  H67  1  0.300830  0.448170  0.512170  1.0  0.0901
  H  H68  1  0.295930  0.322270  0.442470  1.0  0.1017
  H  H69  1  0.357930  0.293170  0.410470  1.0  0.1187
  H  H70  1  0.271130  0.387070  0.449870  1.0  0.108
  H  H71  1  0.260630  0.242970  0.282270  1.0  0.1096
  H  H72  1  0.203330  0.278570  0.314870  1.0  0.1001
  H  H73  1  0.814000  0.781500  0.845500  1.0  0.0898
  H  H74  1  0.693000  0.655600  0.775800  1.0  0.1015
  H  H75  1  0.601900  0.626500  0.743800  1.0  0.1179
  H  H76  1  0.782600  0.720400  0.783200  1.0  0.1084
  H  H77  1  0.649000  0.576300  0.615600  1.0  0.1101
  H  H78  1  0.741900  0.611900  0.648200  1.0  0.1003
  H  H79  1  0.480670  0.114830  0.178830  1.0  0.0898
  H  H80  1  0.359670  0.988930  0.109130  1.0  0.1015
  H  H81  1  0.268570  0.959830  0.077130  1.0  0.1187
  H  H82  1  0.449270  0.053730  0.116530  1.0  0.1084
  H  H83  1  0.315670  0.909630  0.948930  1.0  0.1099
  H  H84  1  0.408570  0.945230  0.981530  1.0  0.1003
  H  H85  1  0.147330  0.448170  0.512170  1.0  0.0898
  H  H86  1  0.026330  0.322270  0.442470  1.0  0.1015
  H  H87  1  0.935230  0.293170  0.410470  1.0  0.1179
  H  H88  1  0.115930  0.387070  0.449870  1.0  0.1094
  H  H89  1  0.982330  0.242970  0.282270  1.0  0.1101
  H  H90  1  0.075230  0.278570  0.314870  1.0  0.1002
  H  H91  1  0.967500  0.186000  0.845500  1.0  0.0899
  H  H92  1  0.962600  0.307000  0.775800  1.0  0.1013
  H  H93  1  0.024600  0.398100  0.743800  1.0  0.1182
  H  H94  1  0.937800  0.217400  0.783200  1.0  0.1089
  H  H95  1  0.927300  0.351000  0.615600  1.0  0.11
  H  H96  1  0.870000  0.258100  0.648200  1.0  0.0999
  H  H97  1  0.634170  0.519330  0.178830  1.0  0.0899
  H  H98  1  0.629270  0.640330  0.109130  1.0  0.1015
  H  H99  1  0.691270  0.731430  0.077130  1.0  0.1173
  H  H100  1  0.604470  0.550730  0.116530  1.0  0.1089
  H  H101  1  0.593970  0.684330  0.948930  1.0  0.1098
  H  H102  1  0.536670  0.591430  0.981530  1.0  0.0999
  H  H103  1  0.300830  0.852670  0.512170  1.0  0.0899
  H  H104  1  0.295930  0.973670  0.442470  1.0  0.102
  H  H105  1  0.357930  0.064770  0.410470  1.0  0.1182
  H  H106  1  0.271130  0.884070  0.449870  1.0  0.108
  H  H107  1  0.260630  0.017670  0.282270  1.0  0.1105
  H  H108  1  0.203330  0.924770  0.314870  1.0  0.0999
  H  H109  1  0.218500  0.032500  0.845500  1.0  0.0897
  H  H110  1  0.344400  0.037400  0.775800  1.0  0.101
  H  H111  1  0.373500  0.975400  0.743800  1.0  0.1186
  H  H112  1  0.279600  0.062200  0.783200  1.0  0.1085
  H  H113  1  0.423700  0.072700  0.615600  1.0  0.1103
  H  H114  1  0.388100  0.130000  0.648200  1.0  0.1004
  H  H115  1  0.885170  0.365830  0.178830  1.0  0.0897
  H  H116  1  0.011070  0.370730  0.109130  1.0  0.1018
  H  H117  1  0.040170  0.308730  0.077130  1.0  0.12
  H  H118  1  0.946270  0.395530  0.116530  1.0  0.1089
  H  H119  1  0.090370  0.406030  0.948930  1.0  0.1107
  H  H120  1  0.054770  0.463330  0.981530  1.0  0.1004
  H  H121  1  0.551830  0.699170  0.512170  1.0  0.0897
  H  H122  1  0.677730  0.704070  0.442470  1.0  0.101
  H  H123  1  0.706830  0.642070  0.410470  1.0  0.1186
  H  H124  1  0.612930  0.728870  0.449870  1.0  0.1085
  H  H125  1  0.757030  0.739370  0.282270  1.0  0.1103
  H  H126  1  0.721430  0.796670  0.314870  1.0  0.1005
  H  H127  1  0.131600  0.065800  0.954100  1.0  0.1255
  H  H128  1  0.798270  0.399130  0.287430  1.0  0.125
  H  H129  1  0.464930  0.732470  0.620770  1.0  0.1243
  H  H130  1  0.934200  0.065800  0.954100  1.0  0.125
  H  H131  1  0.600870  0.399130  0.287430  1.0  0.124
  H  H132  1  0.267530  0.732470  0.620770  1.0  0.1252
  H  H133  1  0.934200  0.868400  0.954100  1.0  0.1255
  H  H134  1  0.600870  0.201730  0.287430  1.0  0.1252
  H  H135  1  0.267530  0.535070  0.620770  1.0  0.124
  C  C136  1  0.173800  0.132300  0.902200  1.0  -0.1343
  C  C137  1  0.208200  0.149100  0.860300  1.0  -0.0434
  C  C138  1  0.153200  0.172200  0.923300  1.0  0.6951
  C  C139  1  0.359200  0.315300  0.741700  1.0  -0.1243
  C  C140  1  0.421000  0.444300  0.654200  1.0  0.7003
  C  C141  1  0.377600  0.370200  0.723600  1.0  -0.1381
  C  C142  1  0.295500  0.193200  0.774000  1.0  -0.1423
  C  C143  1  0.360200  0.271200  0.715600  1.0  0.0572
  C  C144  1  0.406000  0.341700  0.648600  1.0  -0.1043
  C  C145  1  0.401600  0.384100  0.676300  1.0  -0.116
  C  C146  1  0.339100  0.212800  0.738700  1.0  0.2914
  C  C147  1  0.385100  0.286700  0.668300  1.0  -0.0568
  C  C148  1  0.840470  0.465630  0.235530  1.0  -0.1343
  C  C149  1  0.874870  0.482430  0.193630  1.0  -0.0436
  C  C150  1  0.819870  0.505530  0.256630  1.0  0.695
  C  C151  1  0.025870  0.648630  0.075030  1.0  -0.1243
  C  C152  1  0.087670  0.777630  0.987530  1.0  0.7003
  C  C153  1  0.044270  0.703530  0.056930  1.0  -0.1381
  C  C154  1  0.962170  0.526530  0.107330  1.0  -0.1423
  C  C155  1  0.026870  0.604530  0.048930  1.0  0.0572
  C  C156  1  0.072670  0.675030  0.981930  1.0  -0.1043
  C  C157  1  0.068270  0.717430  0.009630  1.0  -0.116
  C  C158  1  0.005770  0.546130  0.072030  1.0  0.2866
  C  C159  1  0.051770  0.620030  0.001630  1.0  -0.0568
  C  C160  1  0.507130  0.798970  0.568870  1.0  -0.1342
  C  C161  1  0.541530  0.815770  0.526970  1.0  -0.0434
  C  C162  1  0.486530  0.838870  0.589970  1.0  0.6951
  C  C163  1  0.692530  0.981970  0.408370  1.0  -0.1243
  C  C164  1  0.754330  0.110970  0.320870  1.0  0.7003
  C  C165  1  0.710930  0.036870  0.390270  1.0  -0.1379
  C  C166  1  0.628830  0.859870  0.440670  1.0  -0.1455
  C  C167  1  0.693530  0.937870  0.382270  1.0  0.0572
  C  C168  1  0.739330  0.008370  0.315270  1.0  -0.1044
  C  C169  1  0.734930  0.050770  0.342970  1.0  -0.116
  C  C170  1  0.672430  0.879470  0.405370  1.0  0.2914
  C  C171  1  0.718430  0.953370  0.334970  1.0  -0.0569
  C  C172  1  0.867700  0.041500  0.902200  1.0  -0.1344
  C  C173  1  0.850900  0.059100  0.860300  1.0  -0.0441
  C  C174  1  0.827800  0.981000  0.923300  1.0  0.6951
  C  C175  1  0.684700  0.043900  0.741700  1.0  -0.1227
  C  C176  1  0.555700  0.976700  0.654200  1.0  0.6983
  C  C177  1  0.629800  0.007400  0.723600  1.0  -0.1367
  C  C178  1  0.806800  0.102300  0.774000  1.0  -0.1463
  C  C179  1  0.728800  0.089000  0.715600  1.0  0.0574
  C  C180  1  0.658300  0.064300  0.648600  1.0  -0.1036
  C  C181  1  0.615900  0.017500  0.676300  1.0  -0.1179
  C  C182  1  0.787200  0.126300  0.738700  1.0  0.2897
  C  C183  1  0.713300  0.098400  0.668300  1.0  -0.0587
  C  C184  1  0.534370  0.374830  0.235530  1.0  -0.1345
  C  C185  1  0.517570  0.392430  0.193630  1.0  -0.0441
  C  C186  1  0.494470  0.314330  0.256630  1.0  0.6951
  C  C187  1  0.351370  0.377230  0.075030  1.0  -0.1227
  C  C188  1  0.222370  0.310030  0.987530  1.0  0.6983
  C  C189  1  0.296470  0.340730  0.056930  1.0  -0.1367
  C  C190  1  0.473470  0.435630  0.107330  1.0  -0.1463
  C  C191  1  0.395470  0.422330  0.048930  1.0  0.0574
  C  C192  1  0.324970  0.397630  0.981930  1.0  -0.1036
  C  C193  1  0.282570  0.350830  0.009630  1.0  -0.1179
  C  C194  1  0.453870  0.459630  0.072030  1.0  0.2897
  C  C195  1  0.379970  0.431730  0.001630  1.0  -0.0587
  C  C196  1  0.201030  0.708170  0.568870  1.0  -0.1344
  C  C197  1  0.184230  0.725770  0.526970  1.0  -0.0441
  C  C198  1  0.161130  0.647670  0.589970  1.0  0.6951
  C  C199  1  0.018030  0.710570  0.408370  1.0  -0.1227
  C  C200  1  0.889030  0.643370  0.320870  1.0  0.6983
  C  C201  1  0.963130  0.674070  0.390270  1.0  -0.1368
  C  C202  1  0.140130  0.768970  0.440670  1.0  -0.1463
  C  C203  1  0.062130  0.755670  0.382270  1.0  0.0574
  C  C204  1  0.991630  0.730970  0.315270  1.0  -0.1035
  C  C205  1  0.949230  0.684170  0.342970  1.0  -0.1179
  C  C206  1  0.120530  0.792970  0.405370  1.0  0.2897
  C  C207  1  0.046630  0.765070  0.334970  1.0  -0.0587
  C  C208  1  0.958500  0.826200  0.902200  1.0  -0.1348
  C  C209  1  0.940900  0.791800  0.860300  1.0  -0.0446
  C  C210  1  0.019000  0.846800  0.923300  1.0  0.6934
  C  C211  1  0.956100  0.640800  0.741700  1.0  -0.1212
  C  C212  1  0.023300  0.579000  0.654200  1.0  0.6979
  C  C213  1  0.992600  0.622400  0.723600  1.0  -0.1365
  C  C214  1  0.897700  0.704500  0.774000  1.0  -0.144
  C  C215  1  0.911000  0.639800  0.715600  1.0  0.058
  C  C216  1  0.935700  0.594000  0.648600  1.0  -0.1042
  C  C217  1  0.982500  0.598400  0.676300  1.0  -0.1168
  C  C218  1  0.873700  0.660900  0.738700  1.0  0.2839
  C  C219  1  0.901600  0.614900  0.668300  1.0  -0.0538
  C  C220  1  0.625170  0.159530  0.235530  1.0  -0.1348
  C  C221  1  0.607570  0.125130  0.193630  1.0  -0.0445
  C  C222  1  0.685670  0.180130  0.256630  1.0  0.6934
  C  C223  1  0.622770  0.974130  0.075030  1.0  -0.1212
  C  C224  1  0.689970  0.912330  0.987530  1.0  0.6979
  C  C225  1  0.659270  0.955730  0.056930  1.0  -0.1365
  C  C226  1  0.564370  0.037830  0.107330  1.0  -0.14
  C  C227  1  0.577670  0.973130  0.048930  1.0  0.058
  C  C228  1  0.602370  0.927330  0.981930  1.0  -0.1042
  C  C229  1  0.649170  0.931730  0.009630  1.0  -0.1168
  C  C230  1  0.540370  0.994230  0.072030  1.0  0.2897
  C  C231  1  0.568270  0.948230  0.001630  1.0  -0.0538
  C  C232  1  0.291830  0.492870  0.568870  1.0  -0.1348
  C  C233  1  0.274230  0.458470  0.526970  1.0  -0.0446
  C  C234  1  0.352330  0.513470  0.589970  1.0  0.6934
  C  C235  1  0.289430  0.307470  0.408370  1.0  -0.1212
  C  C236  1  0.356630  0.245670  0.320870  1.0  0.6979
  C  C237  1  0.325930  0.289070  0.390270  1.0  -0.1364
  C  C238  1  0.231030  0.371170  0.440670  1.0  -0.14
  C  C239  1  0.244330  0.306470  0.382270  1.0  0.058
  C  C240  1  0.269030  0.260670  0.315270  1.0  -0.1043
  C  C241  1  0.315830  0.265070  0.342970  1.0  -0.1169
  C  C242  1  0.207030  0.327570  0.405370  1.0  0.2839
  C  C243  1  0.234930  0.281570  0.334970  1.0  -0.0539
  C  C244  1  0.867700  0.826200  0.902200  1.0  -0.1344
  C  C245  1  0.850900  0.791800  0.860300  1.0  -0.0448
  C  C246  1  0.827800  0.846800  0.923300  1.0  0.694
  C  C247  1  0.684700  0.640800  0.741700  1.0  -0.1216
  C  C248  1  0.555700  0.579000  0.654200  1.0  0.6982
  C  C249  1  0.629800  0.622400  0.723600  1.0  -0.1365
  C  C250  1  0.806800  0.704500  0.774000  1.0  -0.143
  C  C251  1  0.728800  0.639800  0.715600  1.0  0.0591
  C  C252  1  0.658300  0.594000  0.648600  1.0  -0.1041
  C  C253  1  0.615900  0.598400  0.676300  1.0  -0.1176
  C  C254  1  0.787200  0.660900  0.738700  1.0  0.2902
  C  C255  1  0.713300  0.614900  0.668300  1.0  -0.0549
  C  C256  1  0.534370  0.159530  0.235530  1.0  -0.1343
  C  C257  1  0.517570  0.125130  0.193630  1.0  -0.0448
  C  C258  1  0.494470  0.180130  0.256630  1.0  0.694
  C  C259  1  0.351370  0.974130  0.075030  1.0  -0.1216
  C  C260  1  0.222370  0.912330  0.987530  1.0  0.6982
  C  C261  1  0.296470  0.955730  0.056930  1.0  -0.1365
  C  C262  1  0.473470  0.037830  0.107330  1.0  -0.143
  C  C263  1  0.395470  0.973130  0.048930  1.0  0.0591
  C  C264  1  0.324970  0.927330  0.981930  1.0  -0.1041
  C  C265  1  0.282570  0.931730  0.009630  1.0  -0.1176
  C  C266  1  0.453870  0.994230  0.072030  1.0  0.2852
  C  C267  1  0.379970  0.948230  0.001630  1.0  -0.0549
  C  C268  1  0.201030  0.492870  0.568870  1.0  -0.1343
  C  C269  1  0.184230  0.458470  0.526970  1.0  -0.0448
  C  C270  1  0.161130  0.513470  0.589970  1.0  0.694
  C  C271  1  0.018030  0.307470  0.408370  1.0  -0.1216
  C  C272  1  0.889030  0.245670  0.320870  1.0  0.6982
  C  C273  1  0.963130  0.289070  0.390270  1.0  -0.1363
  C  C274  1  0.140130  0.371170  0.440670  1.0  -0.1463
  C  C275  1  0.062130  0.306470  0.382270  1.0  0.0591
  C  C276  1  0.991630  0.260670  0.315270  1.0  -0.1042
  C  C277  1  0.949230  0.265070  0.342970  1.0  -0.1176
  C  C278  1  0.120530  0.327570  0.405370  1.0  0.2902
  C  C279  1  0.046630  0.281570  0.334970  1.0  -0.055
  C  C280  1  0.958500  0.132300  0.902200  1.0  -0.1352
  C  C281  1  0.940900  0.149100  0.860300  1.0  -0.0429
  C  C282  1  0.019000  0.172200  0.923300  1.0  0.6949
  C  C283  1  0.956100  0.315300  0.741700  1.0  -0.1219
  C  C284  1  0.023300  0.444300  0.654200  1.0  0.7002
  C  C285  1  0.992600  0.370200  0.723600  1.0  -0.1382
  C  C286  1  0.897700  0.193200  0.774000  1.0  -0.1451
  C  C287  1  0.911000  0.271200  0.715600  1.0  0.0572
  C  C288  1  0.935700  0.341700  0.648600  1.0  -0.1043
  C  C289  1  0.982500  0.384100  0.676300  1.0  -0.1157
  C  C290  1  0.873700  0.212800  0.738700  1.0  0.2912
  C  C291  1  0.901600  0.286700  0.668300  1.0  -0.0555
  C  C292  1  0.625170  0.465630  0.235530  1.0  -0.1352
  C  C293  1  0.607570  0.482430  0.193630  1.0  -0.0429
  C  C294  1  0.685670  0.505530  0.256630  1.0  0.6949
  C  C295  1  0.622770  0.648630  0.075030  1.0  -0.1219
  C  C296  1  0.689970  0.777630  0.987530  1.0  0.7002
  C  C297  1  0.659270  0.703530  0.056930  1.0  -0.1382
  C  C298  1  0.564370  0.526530  0.107330  1.0  -0.1451
  C  C299  1  0.577670  0.604530  0.048930  1.0  0.0572
  C  C300  1  0.602370  0.675030  0.981930  1.0  -0.1043
  C  C301  1  0.649170  0.717430  0.009630  1.0  -0.1157
  C  C302  1  0.540370  0.546130  0.072030  1.0  0.2912
  C  C303  1  0.568270  0.620030  0.001630  1.0  -0.0555
  C  C304  1  0.291830  0.798970  0.568870  1.0  -0.1352
  C  C305  1  0.274230  0.815770  0.526970  1.0  -0.0429
  C  C306  1  0.352330  0.838870  0.589970  1.0  0.6949
  C  C307  1  0.289430  0.981970  0.408370  1.0  -0.1219
  C  C308  1  0.356630  0.110970  0.320870  1.0  0.7002
  C  C309  1  0.325930  0.036870  0.390270  1.0  -0.1382
  C  C310  1  0.231030  0.859870  0.440670  1.0  -0.1451
  C  C311  1  0.244330  0.937870  0.382270  1.0  0.0572
  C  C312  1  0.269030  0.008370  0.315270  1.0  -0.1043
  C  C313  1  0.315830  0.050770  0.342970  1.0  -0.1157
  C  C314  1  0.207030  0.879470  0.405370  1.0  0.2912
  C  C315  1  0.234930  0.953370  0.334970  1.0  -0.0555
  C  C316  1  0.173800  0.041500  0.902200  1.0  -0.1339
  C  C317  1  0.208200  0.059100  0.860300  1.0  -0.0431
  C  C318  1  0.153200  0.981000  0.923300  1.0  0.6949
  C  C319  1  0.359200  0.043900  0.741700  1.0  -0.1243
  C  C320  1  0.421000  0.976700  0.654200  1.0  0.6985
  C  C321  1  0.377600  0.007400  0.723600  1.0  -0.1368
  C  C322  1  0.295500  0.102300  0.774000  1.0  -0.146
  C  C323  1  0.360200  0.089000  0.715600  1.0  0.0576
  C  C324  1  0.406000  0.064300  0.648600  1.0  -0.1035
  C  C325  1  0.401600  0.017500  0.676300  1.0  -0.1177
  C  C326  1  0.339100  0.126300  0.738700  1.0  0.2848
  C  C327  1  0.385100  0.098400  0.668300  1.0  -0.0593
  C  C328  1  0.840470  0.374830  0.235530  1.0  -0.1339
  C  C329  1  0.874870  0.392430  0.193630  1.0  -0.043
  C  C330  1  0.819870  0.314330  0.256630  1.0  0.6949
  C  C331  1  0.025870  0.377230  0.075030  1.0  -0.1243
  C  C332  1  0.087670  0.310030  0.987530  1.0  0.6985
  C  C333  1  0.044270  0.340730  0.056930  1.0  -0.1368
  C  C334  1  0.962170  0.435630  0.107330  1.0  -0.1418
  C  C335  1  0.026870  0.422330  0.048930  1.0  0.0576
  C  C336  1  0.072670  0.397630  0.981930  1.0  -0.1035
  C  C337  1  0.068270  0.350830  0.009630  1.0  -0.1177
  C  C338  1  0.005770  0.459630  0.072030  1.0  0.2904
  C  C339  1  0.051770  0.431730  0.001630  1.0  -0.0593
  C  C340  1  0.507130  0.708170  0.568870  1.0  -0.1339
  C  C341  1  0.541530  0.725770  0.526970  1.0  -0.0431
  C  C342  1  0.486530  0.647670  0.589970  1.0  0.6949
  C  C343  1  0.692530  0.710570  0.408370  1.0  -0.1243
  C  C344  1  0.754330  0.643370  0.320870  1.0  0.6985
  C  C345  1  0.710930  0.674070  0.390270  1.0  -0.1367
  C  C346  1  0.628830  0.768970  0.440670  1.0  -0.1427
  C  C347  1  0.693530  0.755670  0.382270  1.0  0.0576
  C  C348  1  0.739330  0.730970  0.315270  1.0  -0.1036
  C  C349  1  0.734930  0.684170  0.342970  1.0  -0.1178
  C  C350  1  0.672430  0.792970  0.405370  1.0  0.2848
  C  C351  1  0.718430  0.765070  0.334970  1.0  -0.0594
  C  C352  1  0.155800  0.077900  0.924400  1.0  0.0294
  C  C353  1  0.230200  0.115100  0.836500  1.0  0.0282
  C  C354  1  0.272400  0.136200  0.798000  1.0  0.0156
  C  C355  1  0.822470  0.411230  0.257730  1.0  0.0294
  C  C356  1  0.896870  0.448430  0.169830  1.0  0.0282
  C  C357  1  0.939070  0.469530  0.131330  1.0  0.0137
  C  C358  1  0.489130  0.744570  0.591070  1.0  0.0294
  C  C359  1  0.563530  0.781770  0.503170  1.0  0.0282
  C  C360  1  0.605730  0.802870  0.464670  1.0  0.0158
  C  C361  1  0.922100  0.077900  0.924400  1.0  0.03
  C  C362  1  0.884900  0.115100  0.836500  1.0  0.0279
  C  C363  1  0.863800  0.136200  0.798000  1.0  0.0174
  C  C364  1  0.588770  0.411230  0.257730  1.0  0.03
  C  C365  1  0.551570  0.448430  0.169830  1.0  0.0279
  C  C366  1  0.530470  0.469530  0.131330  1.0  0.0174
  C  C367  1  0.255430  0.744570  0.591070  1.0  0.03
  C  C368  1  0.218230  0.781770  0.503170  1.0  0.0279
  C  C369  1  0.197130  0.802870  0.464670  1.0  0.0176
  C  C370  1  0.922100  0.844200  0.924400  1.0  0.0309
  C  C371  1  0.884900  0.769800  0.836500  1.0  0.0285
  C  C372  1  0.863800  0.727600  0.798000  1.0  0.0156
  C  C373  1  0.588770  0.177530  0.257730  1.0  0.0309
  C  C374  1  0.551570  0.103130  0.169830  1.0  0.0285
  C  C375  1  0.530470  0.060930  0.131330  1.0  0.0138
  C  C376  1  0.255430  0.510870  0.591070  1.0  0.0309
  C  C377  1  0.218230  0.436470  0.503170  1.0  0.0285
  C  C378  1  0.197130  0.394270  0.464670  1.0  0.0159
  N  N379  1  0.359800  0.179900  0.719500  1.0  -0.4299
  N  N380  1  0.026470  0.513230  0.052830  1.0  -0.4309
  N  N381  1  0.693130  0.846570  0.386170  1.0  -0.4306
  N  N382  1  0.820100  0.179900  0.719500  1.0  -0.4248
  N  N383  1  0.486770  0.513230  0.052830  1.0  -0.425
  N  N384  1  0.153430  0.846570  0.386170  1.0  -0.4315
  N  N385  1  0.820100  0.640200  0.719500  1.0  -0.4323
  N  N386  1  0.486770  0.973530  0.052830  1.0  -0.4332
  N  N387  1  0.153430  0.306870  0.386170  1.0  -0.4337
  O  O388  1  0.441300  0.454390  0.610240  1.0  -0.561
  O  O389  1  0.132300  0.161100  0.967810  1.0  -0.565
  O  O390  1  0.158800  0.213060  0.895080  1.0  -0.5813
  O  O391  1  0.416000  0.479510  0.683160  1.0  -0.5809
  O  O392  1  0.107970  0.787720  0.943570  1.0  -0.5611
  O  O393  1  0.798970  0.494430  0.301140  1.0  -0.565
  O  O394  1  0.825470  0.546390  0.228410  1.0  -0.5813
  O  O395  1  0.082670  0.812840  0.016490  1.0  -0.5807
  O  O396  1  0.774630  0.121060  0.276910  1.0  -0.5611
  O  O397  1  0.465630  0.827770  0.634480  1.0  -0.565
  O  O398  1  0.492130  0.879730  0.561750  1.0  -0.5813
  O  O399  1  0.749330  0.146180  0.349830  1.0  -0.5809
  O  O400  1  0.545610  0.986910  0.610240  1.0  -0.5624
  O  O401  1  0.838900  0.971200  0.967810  1.0  -0.5639
  O  O402  1  0.786940  0.945740  0.895080  1.0  -0.5813
  O  O403  1  0.520490  0.936490  0.683160  1.0  -0.5819
  O  O404  1  0.212280  0.320240  0.943570  1.0  -0.5624
  O  O405  1  0.505570  0.304530  0.301140  1.0  -0.5639
  O  O406  1  0.453610  0.279070  0.228410  1.0  -0.5813
  O  O407  1  0.187160  0.269820  0.016490  1.0  -0.5813
  O  O408  1  0.878940  0.653580  0.276910  1.0  -0.5612
  O  O409  1  0.172230  0.637870  0.634480  1.0  -0.5639
  O  O410  1  0.120270  0.612410  0.561750  1.0  -0.5813
  O  O411  1  0.853820  0.603160  0.349830  1.0  -0.5818
  O  O412  1  0.013090  0.558700  0.610240  1.0  -0.5602
  O  O413  1  0.028800  0.867700  0.967810  1.0  -0.5656
  O  O414  1  0.054260  0.841200  0.895080  1.0  -0.5822
  O  O415  1  0.063510  0.584000  0.683160  1.0  -0.5803
  O  O416  1  0.679760  0.892030  0.943570  1.0  -0.5602
  O  O417  1  0.695470  0.201030  0.301140  1.0  -0.5656
  O  O418  1  0.720930  0.174530  0.228410  1.0  -0.5822
  O  O419  1  0.730180  0.917330  0.016490  1.0  -0.581
  O  O420  1  0.346420  0.225370  0.276910  1.0  -0.5613
  O  O421  1  0.362130  0.534370  0.634480  1.0  -0.5656
  O  O422  1  0.387590  0.507870  0.561750  1.0  -0.5822
  O  O423  1  0.396840  0.250670  0.349830  1.0  -0.5803
  O  O424  1  0.545610  0.558700  0.610240  1.0  -0.5613
  O  O425  1  0.838900  0.867700  0.967810  1.0  -0.5639
  O  O426  1  0.786940  0.841200  0.895080  1.0  -0.5817
  O  O427  1  0.520490  0.584000  0.683160  1.0  -0.5804
  O  O428  1  0.212280  0.892030  0.943570  1.0  -0.5613
  O  O429  1  0.505570  0.201030  0.301140  1.0  -0.5639
  O  O430  1  0.453610  0.174530  0.228410  1.0  -0.5817
  O  O431  1  0.187160  0.917330  0.016490  1.0  -0.5803
  O  O432  1  0.878940  0.225370  0.276910  1.0  -0.5613
  O  O433  1  0.172230  0.534370  0.634480  1.0  -0.5639
  O  O434  1  0.120270  0.507870  0.561750  1.0  -0.5817
  O  O435  1  0.853820  0.250670  0.349830  1.0  -0.5804
  O  O436  1  0.013090  0.454390  0.610240  1.0  -0.5604
  O  O437  1  0.028800  0.161100  0.967810  1.0  -0.5655
  O  O438  1  0.054260  0.213060  0.895080  1.0  -0.5823
  O  O439  1  0.063510  0.479510  0.683160  1.0  -0.5806
  O  O440  1  0.679760  0.787720  0.943570  1.0  -0.5604
  O  O441  1  0.695470  0.494430  0.301140  1.0  -0.5655
  O  O442  1  0.720930  0.546390  0.228410  1.0  -0.5823
  O  O443  1  0.730180  0.812840  0.016490  1.0  -0.5807
  O  O444  1  0.346420  0.121060  0.276910  1.0  -0.5597
  O  O445  1  0.362130  0.827770  0.634480  1.0  -0.5655
  O  O446  1  0.387590  0.879730  0.561750  1.0  -0.5823
  O  O447  1  0.396840  0.146180  0.349830  1.0  -0.5805
  O  O448  1  0.441300  0.986910  0.610240  1.0  -0.5607
  O  O449  1  0.132300  0.971200  0.967810  1.0  -0.5654
  O  O450  1  0.158800  0.945740  0.895080  1.0  -0.582
  O  O451  1  0.416000  0.936490  0.683160  1.0  -0.5818
  O  O452  1  0.107970  0.320240  0.943570  1.0  -0.5607
  O  O453  1  0.798970  0.304530  0.301140  1.0  -0.5654
  O  O454  1  0.825470  0.279070  0.228410  1.0  -0.582
  O  O455  1  0.082670  0.269820  0.016490  1.0  -0.5829
  O  O456  1  0.774630  0.653580  0.276910  1.0  -0.5621
  O  O457  1  0.465630  0.637870  0.634480  1.0  -0.5654
  O  O458  1  0.492130  0.612410  0.561750  1.0  -0.582
  O  O459  1  0.749330  0.603160  0.349830  1.0  -0.5818
