# generated using pymatgen
data_Cd2SiH16(C7O2)4
_symmetry_space_group_name_H-M   'P 1'
_cell_length_a   14.18690000
_cell_length_b   14.86230000
_cell_length_c   14.86230000
_cell_angle_alpha   76.80640000
_cell_angle_beta   63.57100000
_cell_angle_gamma   116.42900000
_symmetry_Int_Tables_number   1
_chemical_formula_structural   Cd2SiH16(C7O2)4
_chemical_formula_sum   'Cd4 Si2 H32 C56 O16'
_cell_volume   2128.31370869
_cell_formula_units_Z   2
loop_
 _symmetry_equiv_pos_site_id
 _symmetry_equiv_pos_as_xyz
  1  'x, y, z'
loop_
 _atom_site_type_symbol
 _atom_site_label
 _atom_site_symmetry_multiplicity
 _atom_site_fract_x
 _atom_site_fract_y
 _atom_site_fract_z
 _atom_site_occupancy
 _atom_site_charge
  Cd  Cd1  1  0.750000  0.435940  0.935940  1.0  1.0189
  Cd  Cd2  1  0.250000  0.564060  0.064060  1.0  1.0185
  Cd  Cd3  1  0.000000  0.500000  0.000000  1.0  0.9239
  Cd  Cd4  1  0.500000  0.500000  0.000000  1.0  0.9239
  Si  Si5  1  0.250000  0.206780  0.706780  1.0  0.9249
  Si  Si6  1  0.750000  0.793220  0.293220  1.0  0.9255
  H  H7  1  0.097500  0.039900  0.664700  1.0  0.1082
  H  H8  1  0.980400  0.839700  0.734100  1.0  0.1196
  H  H9  1  0.041800  0.797400  0.975200  1.0  0.0913
  H  H10  1  0.160500  0.998300  0.904100  1.0  0.1018
  H  H11  1  0.289300  0.417600  0.703200  1.0  0.0978
  H  H12  1  0.153100  0.472000  0.773600  1.0  0.1154
  H  H13  1  0.827200  0.152000  0.895800  1.0  0.1204
  H  H14  1  0.961100  0.096700  0.825500  1.0  0.1036
  H  H15  1  0.402500  0.164700  0.539900  1.0  0.1073
  H  H16  1  0.519600  0.234100  0.339700  1.0  0.12
  H  H17  1  0.458200  0.475200  0.297400  1.0  0.091
  H  H18  1  0.339500  0.404100  0.498300  1.0  0.1019
  H  H19  1  0.210700  0.203200  0.917600  1.0  0.1001
  H  H20  1  0.346900  0.273600  0.972000  1.0  0.1154
  H  H21  1  0.672800  0.395800  0.652000  1.0  0.12
  H  H22  1  0.538900  0.325500  0.596700  1.0  0.1062
  H  H23  1  0.902500  0.960100  0.335300  1.0  0.1077
  H  H24  1  0.019600  0.160300  0.265900  1.0  0.1196
  H  H25  1  0.958200  0.202600  0.024800  1.0  0.0909
  H  H26  1  0.839500  0.001700  0.095900  1.0  0.1023
  H  H27  1  0.710700  0.582400  0.296800  1.0  0.0992
  H  H28  1  0.846900  0.528000  0.226400  1.0  0.116
  H  H29  1  0.172800  0.848000  0.104200  1.0  0.1208
  H  H30  1  0.038900  0.903300  0.174500  1.0  0.1044
  H  H31  1  0.597500  0.835300  0.460100  1.0  0.1075
  H  H32  1  0.480400  0.765900  0.660300  1.0  0.1206
  H  H33  1  0.541800  0.524800  0.702600  1.0  0.0906
  H  H34  1  0.660500  0.595900  0.501700  1.0  0.1027
  H  H35  1  0.789300  0.796800  0.082400  1.0  0.0991
  H  H36  1  0.653100  0.726400  0.028000  1.0  0.1154
  H  H37  1  0.327200  0.604200  0.348000  1.0  0.1201
  H  H38  1  0.461100  0.674500  0.403300  1.0  0.1067
  C  C39  1  0.145130  0.042670  0.774710  1.0  -0.2849
  C  C40  1  0.088000  0.991280  0.727280  1.0  -0.0433
  C  C41  1  0.018100  0.871920  0.768320  1.0  -0.0598
  C  C42  1  0.003070  0.799250  0.859450  1.0  -0.1231
  C  C43  1  0.054600  0.846940  0.910540  1.0  -0.0499
  C  C44  1  0.124900  0.966900  0.868100  1.0  -0.024
  C  C45  1  0.931170  0.669570  0.902770  1.0  0.7316
  C  C46  1  0.139760  0.249910  0.758130  1.0  -0.3358
  C  C47  1  0.195400  0.362920  0.742520  1.0  -0.0381
  C  C48  1  0.114450  0.395650  0.784050  1.0  -0.0241
  C  C49  1  0.977850  0.317120  0.840520  1.0  -0.1222
  C  C50  1  0.921230  0.206010  0.856410  1.0  -0.0512
  C  C51  1  0.001100  0.173050  0.815050  1.0  -0.0154
  C  C52  1  0.890110  0.351510  0.889510  1.0  0.6811
  C  C53  1  0.354870  0.274710  0.542670  1.0  -0.2875
  C  C54  1  0.412000  0.227280  0.491280  1.0  -0.0394
  C  C55  1  0.481900  0.268320  0.371920  1.0  -0.0555
  C  C56  1  0.496930  0.359450  0.299250  1.0  -0.1226
  C  C57  1  0.445400  0.410540  0.346940  1.0  -0.0515
  C  C58  1  0.375100  0.368100  0.466900  1.0  -0.0229
  C  C59  1  0.568830  0.402770  0.169570  1.0  0.7349
  C  C60  1  0.360240  0.258130  0.749910  1.0  -0.3341
  C  C61  1  0.304600  0.242520  0.862920  1.0  -0.0351
  C  C62  1  0.385550  0.284050  0.895650  1.0  -0.0208
  C  C63  1  0.522150  0.340520  0.817120  1.0  -0.1207
  C  C64  1  0.578770  0.356410  0.706010  1.0  -0.0567
  C  C65  1  0.498900  0.315050  0.673050  1.0  -0.0216
  C  C66  1  0.609890  0.389510  0.851510  1.0  0.6844
  C  C67  1  0.854870  0.957330  0.225290  1.0  -0.2832
  C  C68  1  0.912000  0.008720  0.272720  1.0  -0.0457
  C  C69  1  0.981900  0.128080  0.231680  1.0  -0.0627
  C  C70  1  0.996930  0.200750  0.140550  1.0  -0.1237
  C  C71  1  0.945400  0.153060  0.089460  1.0  -0.048
  C  C72  1  0.875100  0.033100  0.131900  1.0  -0.0236
  C  C73  1  0.068830  0.330430  0.097230  1.0  0.732
  C  C74  1  0.860240  0.750090  0.241870  1.0  -0.3335
  C  C75  1  0.804600  0.637080  0.257480  1.0  -0.0343
  C  C76  1  0.885550  0.604350  0.215950  1.0  -0.0253
  C  C77  1  0.022150  0.682880  0.159480  1.0  -0.1221
  C  C78  1  0.078770  0.793990  0.143590  1.0  -0.054
  C  C79  1  0.998900  0.826950  0.184950  1.0  -0.0156
  C  C80  1  0.109890  0.648490  0.110490  1.0  0.6818
  C  C81  1  0.645130  0.725290  0.457330  1.0  -0.2872
  C  C82  1  0.588000  0.772720  0.508720  1.0  -0.0425
  C  C83  1  0.518100  0.731680  0.628080  1.0  -0.058
  C  C84  1  0.503070  0.640550  0.700750  1.0  -0.1247
  C  C85  1  0.554600  0.589460  0.653060  1.0  -0.0519
  C  C86  1  0.624900  0.631900  0.533100  1.0  -0.0211
  C  C87  1  0.431170  0.597230  0.830430  1.0  0.7338
  C  C88  1  0.639760  0.741870  0.250090  1.0  -0.3329
  C  C89  1  0.695400  0.757480  0.137080  1.0  -0.0377
  C  C90  1  0.614450  0.715950  0.104350  1.0  -0.0216
  C  C91  1  0.477850  0.659480  0.182880  1.0  -0.1191
  C  C92  1  0.421230  0.643590  0.293990  1.0  -0.0538
  C  C93  1  0.501100  0.684950  0.326950  1.0  -0.0174
  C  C94  1  0.390110  0.610490  0.148490  1.0  0.6843
  O  O95  1  0.874480  0.629610  0.858690  1.0  -0.6205
  O  O96  1  0.930730  0.609480  0.976340  1.0  -0.6718
  O  O97  1  0.940750  0.448050  0.886430  1.0  -0.6631
  O  O98  1  0.770290  0.286770  0.928570  1.0  -0.5842
  O  O99  1  0.625520  0.358690  0.129610  1.0  -0.6188
  O  O100  1  0.569270  0.476340  0.109480  1.0  -0.6717
  O  O101  1  0.559250  0.386430  0.948050  1.0  -0.6653
  O  O102  1  0.729710  0.428570  0.786770  1.0  -0.585
  O  O103  1  0.125520  0.370390  0.141310  1.0  -0.6221
  O  O104  1  0.069270  0.390520  0.023660  1.0  -0.6722
  O  O105  1  0.059250  0.551950  0.113570  1.0  -0.6631
  O  O106  1  0.229710  0.713230  0.071430  1.0  -0.5852
  O  O107  1  0.374480  0.641310  0.870390  1.0  -0.6189
  O  O108  1  0.430730  0.523660  0.890520  1.0  -0.6719
  O  O109  1  0.440750  0.613570  0.051950  1.0  -0.6641
  O  O110  1  0.270290  0.571430  0.213230  1.0  -0.5851
