# generated using pymatgen
data_Mn2SiH16(C7O2)4
_symmetry_space_group_name_H-M   'P 1'
_cell_length_a   13.88200000
_cell_length_b   14.73120000
_cell_length_c   14.73120000
_cell_angle_alpha   77.92900000
_cell_angle_beta   63.41770000
_cell_angle_gamma   116.58200000
_symmetry_Int_Tables_number   1
_chemical_formula_structural   Mn2SiH16(C7O2)4
_chemical_formula_sum   'Mn4 Si2 H32 C56 O16'
_cell_volume   2069.74988197
_cell_formula_units_Z   2
loop_
 _symmetry_equiv_pos_site_id
 _symmetry_equiv_pos_as_xyz
  1  'x, y, z'
loop_
 _atom_site_type_symbol
 _atom_site_label
 _atom_site_symmetry_multiplicity
 _atom_site_fract_x
 _atom_site_fract_y
 _atom_site_fract_z
 _atom_site_occupancy
 _atom_site_charge
  Mn  Mn1  1  0.750000  0.435200  0.935200  1.0  1.001
  Mn  Mn2  1  0.250000  0.564800  0.064800  1.0  1.0021
  Mn  Mn3  1  0.000000  0.500000  0.000000  1.0  1.074
  Mn  Mn4  1  0.500000  0.500000  0.000000  1.0  1.074
  Si  Si5  1  0.250000  0.203080  0.703080  1.0  0.9166
  Si  Si6  1  0.750000  0.796920  0.296920  1.0  0.9177
  H  H7  1  0.101900  0.029700  0.657100  1.0  0.1064
  H  H8  1  0.986400  0.828500  0.729500  1.0  0.1144
  H  H9  1  0.046400  0.801400  0.974600  1.0  0.0915
  H  H10  1  0.161600  0.002200  0.902200  1.0  0.0946
  H  H11  1  0.285600  0.412200  0.704800  1.0  0.0908
  H  H12  1  0.147400  0.467000  0.778200  1.0  0.1119
  H  H13  1  0.816000  0.145900  0.897500  1.0  0.1158
  H  H14  1  0.955300  0.090600  0.825000  1.0  0.1009
  H  H15  1  0.398100  0.157100  0.529700  1.0  0.105
  H  H16  1  0.513600  0.229500  0.328500  1.0  0.1152
  H  H17  1  0.453600  0.474600  0.301400  1.0  0.0905
  H  H18  1  0.338400  0.402200  0.502200  1.0  0.0929
  H  H19  1  0.214400  0.204800  0.912200  1.0  0.0929
  H  H20  1  0.352600  0.278200  0.967000  1.0  0.1114
  H  H21  1  0.684000  0.397500  0.645900  1.0  0.1151
  H  H22  1  0.544700  0.325000  0.590600  1.0  0.1022
  H  H23  1  0.898100  0.970300  0.342900  1.0  0.1061
  H  H24  1  0.013600  0.171500  0.270500  1.0  0.1147
  H  H25  1  0.953600  0.198600  0.025400  1.0  0.0907
  H  H26  1  0.838400  0.997800  0.097800  1.0  0.0952
  H  H27  1  0.714400  0.587800  0.295200  1.0  0.0921
  H  H28  1  0.852600  0.533000  0.221800  1.0  0.1119
  H  H29  1  0.184000  0.854100  0.102500  1.0  0.1163
  H  H30  1  0.044700  0.909400  0.175000  1.0  0.1004
  H  H31  1  0.601900  0.842900  0.470300  1.0  0.1054
  H  H32  1  0.486400  0.770500  0.671500  1.0  0.1157
  H  H33  1  0.546400  0.525400  0.698600  1.0  0.0897
  H  H34  1  0.661600  0.597800  0.497800  1.0  0.0932
  H  H35  1  0.785600  0.795200  0.087800  1.0  0.092
  H  H36  1  0.647400  0.721800  0.033000  1.0  0.1113
  H  H37  1  0.316000  0.602500  0.354100  1.0  0.1157
  H  H38  1  0.455300  0.675000  0.409400  1.0  0.1022
  C  C39  1  0.147260  0.039220  0.770220  1.0  -0.328
  C  C40  1  0.091850  0.983920  0.721400  1.0  -0.0359
  C  C41  1  0.022650  0.863840  0.764620  1.0  -0.0568
  C  C42  1  0.005920  0.794850  0.858650  1.0  -0.1376
  C  C43  1  0.058040  0.847740  0.909400  1.0  -0.0361
  C  C44  1  0.127030  0.967720  0.865760  1.0  -0.0272
  C  C45  1  0.935430  0.665540  0.904120  1.0  0.7192
  C  C46  1  0.134970  0.244980  0.758360  1.0  -0.351
  C  C47  1  0.190030  0.357430  0.744710  1.0  -0.0482
  C  C48  1  0.108080  0.390310  0.788190  1.0  -0.0368
  C  C49  1  0.968070  0.311130  0.846630  1.0  -0.1321
  C  C50  1  0.911200  0.199610  0.859310  1.0  -0.0614
  C  C51  1  0.994640  0.167100  0.815640  1.0  0.0044
  C  C52  1  0.878500  0.344910  0.897610  1.0  0.6658
  C  C53  1  0.352740  0.270220  0.539220  1.0  -0.3314
  C  C54  1  0.408150  0.221400  0.483920  1.0  -0.0343
  C  C55  1  0.477350  0.264620  0.363840  1.0  -0.0526
  C  C56  1  0.494080  0.358650  0.294850  1.0  -0.1379
  C  C57  1  0.441960  0.409400  0.347740  1.0  -0.0385
  C  C58  1  0.372970  0.365760  0.467720  1.0  -0.0246
  C  C59  1  0.564570  0.404120  0.165540  1.0  0.7221
  C  C60  1  0.365030  0.258360  0.744980  1.0  -0.3494
  C  C61  1  0.309970  0.244710  0.857430  1.0  -0.0441
  C  C62  1  0.391920  0.288190  0.890310  1.0  -0.0332
  C  C63  1  0.531930  0.346630  0.811130  1.0  -0.133
  C  C64  1  0.588800  0.359310  0.699610  1.0  -0.0645
  C  C65  1  0.505360  0.315640  0.667100  1.0  -0.0018
  C  C66  1  0.621500  0.397610  0.844910  1.0  0.6675
  C  C67  1  0.852740  0.960780  0.229780  1.0  -0.3275
  C  C68  1  0.908150  0.016080  0.278600  1.0  -0.0382
  C  C69  1  0.977350  0.136160  0.235380  1.0  -0.0589
  C  C70  1  0.994080  0.205150  0.141350  1.0  -0.1387
  C  C71  1  0.941960  0.152260  0.090600  1.0  -0.0354
  C  C72  1  0.872970  0.032280  0.134240  1.0  -0.0274
  C  C73  1  0.064570  0.334460  0.095880  1.0  0.7188
  C  C74  1  0.865030  0.755020  0.241640  1.0  -0.3501
  C  C75  1  0.809970  0.642570  0.255290  1.0  -0.0431
  C  C76  1  0.891920  0.609690  0.211810  1.0  -0.0398
  C  C77  1  0.031930  0.688870  0.153370  1.0  -0.1332
  C  C78  1  0.088800  0.800390  0.140690  1.0  -0.0603
  C  C79  1  0.005360  0.832900  0.184360  1.0  0.0044
  C  C80  1  0.121500  0.655090  0.102390  1.0  0.6673
  C  C81  1  0.647260  0.729780  0.460780  1.0  -0.3308
  C  C82  1  0.591850  0.778600  0.516080  1.0  -0.0374
  C  C83  1  0.522650  0.735380  0.636160  1.0  -0.054
  C  C84  1  0.505920  0.641350  0.705150  1.0  -0.139
  C  C85  1  0.558040  0.590600  0.652260  1.0  -0.0394
  C  C86  1  0.627030  0.634240  0.532280  1.0  -0.023
  C  C87  1  0.435430  0.595880  0.834460  1.0  0.7228
  C  C88  1  0.634970  0.741640  0.255020  1.0  -0.3481
  C  C89  1  0.690030  0.755290  0.142570  1.0  -0.0473
  C  C90  1  0.608080  0.711810  0.109690  1.0  -0.0345
  C  C91  1  0.468070  0.653370  0.188870  1.0  -0.1318
  C  C92  1  0.411200  0.640690  0.300390  1.0  -0.0627
  C  C93  1  0.494640  0.684360  0.332900  1.0  0.0018
  C  C94  1  0.378500  0.602390  0.155090  1.0  0.6687
  O  O95  1  0.870820  0.618060  0.867640  1.0  -0.5989
  O  O96  1  0.943260  0.611580  0.975080  1.0  -0.6412
  O  O97  1  0.929790  0.441550  0.898530  1.0  -0.6716
  O  O98  1  0.757130  0.283050  0.934930  1.0  -0.5523
  O  O99  1  0.629180  0.367640  0.118060  1.0  -0.5979
  O  O100  1  0.556740  0.475080  0.111580  1.0  -0.6407
  O  O101  1  0.570210  0.398530  0.941550  1.0  -0.6712
  O  O102  1  0.742870  0.434930  0.783050  1.0  -0.5535
  O  O103  1  0.129180  0.381940  0.132360  1.0  -0.5978
  O  O104  1  0.056740  0.388420  0.024920  1.0  -0.6409
  O  O105  1  0.070210  0.558450  0.101470  1.0  -0.6724
  O  O106  1  0.242870  0.716950  0.065070  1.0  -0.5516
  O  O107  1  0.370820  0.632360  0.881940  1.0  -0.5992
  O  O108  1  0.443260  0.524920  0.888420  1.0  -0.6411
  O  O109  1  0.429790  0.601470  0.058450  1.0  -0.6724
  O  O110  1  0.257130  0.565070  0.216950  1.0  -0.5528
