# generated using pymatgen
data_Cd3Si2H32(C7O2)8
_symmetry_space_group_name_H-M   'P 1'
_cell_length_a   15.62060000
_cell_length_b   15.90540000
_cell_length_c   22.84960000
_cell_angle_alpha   90.00000000
_cell_angle_beta   90.00000000
_cell_angle_gamma   119.41000000
_symmetry_Int_Tables_number   1
_chemical_formula_structural   Cd3Si2H32(C7O2)8
_chemical_formula_sum   'Cd6 Si4 H64 C112 O32'
_cell_volume   4945.41727182
_cell_formula_units_Z   2
loop_
 _symmetry_equiv_pos_site_id
 _symmetry_equiv_pos_as_xyz
  1  'x, y, z'
loop_
 _atom_site_type_symbol
 _atom_site_label
 _atom_site_symmetry_multiplicity
 _atom_site_fract_x
 _atom_site_fract_y
 _atom_site_fract_z
 _atom_site_occupancy
 _atom_site_charge
  Cd  Cd1  1  0.320810  0.171240  0.370030  1.0  1.0862
  Cd  Cd2  1  0.679190  0.828760  0.870030  1.0  1.0852
  Cd  Cd3  1  0.850430  0.171240  0.129960  1.0  1.0858
  Cd  Cd4  1  0.149570  0.828760  0.629970  1.0  1.0851
  Cd  Cd5  1  0.235050  0.000000  0.500000  1.0  0.9007
  Cd  Cd6  1  0.764950  0.000000  0.000000  1.0  0.9003
  Si  Si7  1  0.832910  0.195280  0.551030  1.0  0.9207
  Si  Si8  1  0.167090  0.804720  0.051030  1.0  0.9202
  Si  Si9  1  0.362370  0.195280  0.948970  1.0  0.9206
  Si  Si10  1  0.637630  0.804720  0.448970  1.0  0.9203
  H  H11  1  0.993600  0.163400  0.582400  1.0  0.1043
  H  H12  1  0.120000  0.154000  0.535300  1.0  0.1447
  H  H13  1  0.996100  0.149000  0.378900  1.0  0.1328
  H  H14  1  0.869100  0.158200  0.426200  1.0  0.1056
  H  H15  1  0.805100  0.321200  0.634000  1.0  0.1208
  H  H16  1  0.882900  0.486800  0.653800  1.0  0.1349
  H  H17  1  0.079300  0.535600  0.524400  1.0  0.1257
  H  H18  1  0.001600  0.370000  0.504600  1.0  0.1262
  H  H19  1  0.687200  0.002800  0.586000  1.0  0.1097
  H  H20  1  0.655100  0.903600  0.667700  1.0  0.1274
  H  H21  1  0.861100  0.132000  0.759200  1.0  0.1272
  H  H22  1  0.899500  0.228800  0.673900  1.0  0.117
  H  H23  1  0.624300  0.109200  0.580600  1.0  0.1236
  H  H24  1  0.482900  0.090800  0.533800  1.0  0.1201
  H  H25  1  0.639100  0.201200  0.384700  1.0  0.1253
  H  H26  1  0.780500  0.219600  0.431600  1.0  0.1343
  H  H27  1  0.006400  0.836600  0.082400  1.0  0.1056
  H  H28  1  0.880000  0.846000  0.035300  1.0  0.145
  H  H29  1  0.003900  0.851000  0.878900  1.0  0.1331
  H  H30  1  0.130900  0.841800  0.926200  1.0  0.1051
  H  H31  1  0.194900  0.678800  0.134000  1.0  0.1206
  H  H32  1  0.117100  0.513200  0.153800  1.0  0.1345
  H  H33  1  0.920700  0.464400  0.024400  1.0  0.1253
  H  H34  1  0.998400  0.630000  0.004600  1.0  0.1279
  H  H35  1  0.312800  0.997200  0.086000  1.0  0.1101
  H  H36  1  0.344900  0.096400  0.167700  1.0  0.1275
  H  H37  1  0.138900  0.868000  0.259200  1.0  0.1276
  H  H38  1  0.100500  0.771200  0.173900  1.0  0.1174
  H  H39  1  0.375700  0.890800  0.080600  1.0  0.1233
  H  H40  1  0.517100  0.909200  0.033800  1.0  0.1204
  H  H41  1  0.360900  0.798800  0.884700  1.0  0.1254
  H  H42  1  0.219500  0.780400  0.931600  1.0  0.1333
  H  H43  1  0.169800  0.163400  0.917600  1.0  0.1048
  H  H44  1  0.034000  0.154000  0.964700  1.0  0.1448
  H  H45  1  0.152900  0.149000  0.121100  1.0  0.1324
  H  H46  1  0.289100  0.158200  0.073800  1.0  0.1037
  H  H47  1  0.516100  0.321200  0.866000  1.0  0.121
  H  H48  1  0.603900  0.486800  0.846200  1.0  0.1352
  H  H49  1  0.456300  0.535600  0.975600  1.0  0.1263
  H  H50  1  0.368400  0.370000  0.995400  1.0  0.1267
  H  H51  1  0.315600  0.002800  0.914000  1.0  0.1098
  H  H52  1  0.248500  0.903600  0.832300  1.0  0.1277
  H  H53  1  0.270900  0.132000  0.740800  1.0  0.1269
  H  H54  1  0.329300  0.228800  0.826100  1.0  0.1174
  H  H55  1  0.484900  0.109200  0.919400  1.0  0.1253
  H  H56  1  0.607900  0.090800  0.966200  1.0  0.1201
  H  H57  1  0.562100  0.201200  0.115300  1.0  0.1257
  H  H58  1  0.439100  0.219600  0.068400  1.0  0.1344
  H  H59  1  0.830200  0.836600  0.417600  1.0  0.1045
  H  H60  1  0.966000  0.846000  0.464700  1.0  0.1451
  H  H61  1  0.847100  0.851000  0.621100  1.0  0.1325
  H  H62  1  0.710900  0.841800  0.573800  1.0  0.1038
  H  H63  1  0.483900  0.678800  0.366000  1.0  0.1205
  H  H64  1  0.396100  0.513200  0.346200  1.0  0.1345
  H  H65  1  0.543700  0.464400  0.475600  1.0  0.1261
  H  H66  1  0.631600  0.630000  0.495400  1.0  0.1279
  H  H67  1  0.684400  0.997200  0.414000  1.0  0.1099
  H  H68  1  0.751500  0.096400  0.332300  1.0  0.1276
  H  H69  1  0.729100  0.868000  0.240800  1.0  0.127
  H  H70  1  0.670700  0.771200  0.326100  1.0  0.1173
  H  H71  1  0.515100  0.890800  0.419400  1.0  0.125
  H  H72  1  0.392100  0.909200  0.466200  1.0  0.1201
  H  H73  1  0.437900  0.798800  0.615300  1.0  0.1256
  H  H74  1  0.560900  0.780400  0.568400  1.0  0.134
  C  C75  1  0.918190  0.167180  0.509070  1.0  -0.1747
  C  C76  1  0.994100  0.161200  0.540800  1.0  -0.0231
  C  C77  1  0.067200  0.152000  0.513600  1.0  -0.1427
  C  C78  1  0.061710  0.139820  0.452560  1.0  -0.0765
  C  C79  1  0.993500  0.149000  0.420400  1.0  -0.0806
  C  C80  1  0.920100  0.158200  0.448800  1.0  -0.0325
  C  C81  1  0.144990  0.133980  0.423200  1.0  0.7162
  C  C82  1  0.896000  0.330000  0.567450  1.0  -0.2759
  C  C83  1  0.860760  0.364720  0.611770  1.0  -0.0154
  C  C84  1  0.906950  0.463100  0.623530  1.0  -0.0758
  C  C85  1  0.988370  0.526740  0.590960  1.0  -0.0955
  C  C86  1  0.023610  0.492020  0.546640  1.0  -0.0631
  C  C87  1  0.977420  0.393640  0.534890  1.0  -0.0354
  C  C88  1  0.046030  0.634660  0.604000  1.0  0.6698
  C  C89  1  0.802160  0.124320  0.620700  1.0  -0.3299
  C  C90  1  0.725320  0.028240  0.620500  1.0  -0.0501
  C  C91  1  0.704110  0.969820  0.669500  1.0  -0.0332
  C  C92  1  0.755290  0.009180  0.721650  1.0  -0.0885
  C  C93  1  0.827090  0.104780  0.723700  1.0  -0.0472
  C  C94  1  0.850160  0.162720  0.672400  1.0  -0.006
  C  C95  1  0.731330  0.946860  0.775450  1.0  0.6996
  C  C96  1  0.715690  0.166140  0.510510  1.0  -0.3157
  C  C97  1  0.627310  0.127860  0.540860  1.0  -0.0394
  C  C98  1  0.543300  0.116880  0.513030  1.0  -0.0208
  C  C99  1  0.547670  0.144200  0.454840  1.0  -0.1043
  C  C100  1  0.636050  0.182480  0.424480  1.0  -0.0346
  C  C101  1  0.720050  0.193440  0.452320  1.0  -0.0552
  C  C102  1  0.456670  0.135340  0.426200  1.0  0.6807
  C  C103  1  0.081810  0.832820  0.009070  1.0  -0.1748
  C  C104  1  0.005900  0.838800  0.040800  1.0  -0.0215
  C  C105  1  0.932800  0.848000  0.013600  1.0  -0.1443
  C  C106  1  0.938290  0.860180  0.952560  1.0  -0.076
  C  C107  1  0.006500  0.851000  0.920400  1.0  -0.0787
  C  C108  1  0.079900  0.841800  0.948800  1.0  -0.0327
  C  C109  1  0.855010  0.866020  0.923200  1.0  0.717
  C  C110  1  0.104000  0.670000  0.067450  1.0  -0.2761
  C  C111  1  0.139240  0.635280  0.111770  1.0  -0.0147
  C  C112  1  0.093050  0.536900  0.123530  1.0  -0.0744
  C  C113  1  0.011630  0.473260  0.090960  1.0  -0.095
  C  C114  1  0.976390  0.507980  0.046640  1.0  -0.0616
  C  C115  1  0.022580  0.606360  0.034890  1.0  -0.0346
  C  C116  1  0.953970  0.365340  0.104000  1.0  0.6704
  C  C117  1  0.197840  0.875680  0.120700  1.0  -0.3302
  C  C118  1  0.274680  0.971760  0.120500  1.0  -0.0496
  C  C119  1  0.295890  0.030180  0.169500  1.0  -0.0308
  C  C120  1  0.244710  0.990820  0.221650  1.0  -0.0896
  C  C121  1  0.172910  0.895220  0.223700  1.0  -0.0485
  C  C122  1  0.149840  0.837280  0.172400  1.0  -0.006
  C  C123  1  0.268670  0.053140  0.275450  1.0  0.6994
  C  C124  1  0.284310  0.833860  0.010510  1.0  -0.3142
  C  C125  1  0.372690  0.872140  0.040860  1.0  -0.0387
  C  C126  1  0.456700  0.883120  0.013030  1.0  -0.0193
  C  C127  1  0.452330  0.855800  0.954840  1.0  -0.1048
  C  C128  1  0.363950  0.817520  0.924480  1.0  -0.0346
  C  C129  1  0.279950  0.806560  0.952320  1.0  -0.0564
  C  C130  1  0.543330  0.864660  0.926200  1.0  0.6812
  C  C131  1  0.248990  0.167180  0.990930  1.0  -0.1752
  C  C132  1  0.167100  0.161200  0.959200  1.0  -0.0225
  C  C133  1  0.084800  0.152000  0.986400  1.0  -0.1427
  C  C134  1  0.078110  0.139820  0.047440  1.0  -0.0764
  C  C135  1  0.155500  0.149000  0.079600  1.0  -0.0804
  C  C136  1  0.238100  0.158200  0.051200  1.0  -0.032
  C  C137  1  0.988990  0.133980  0.076800  1.0  0.7161
  C  C138  1  0.434000  0.330000  0.932550  1.0  -0.2761
  C  C139  1  0.503960  0.364720  0.888230  1.0  -0.0139
  C  C140  1  0.556150  0.463100  0.876470  1.0  -0.0762
  C  C141  1  0.538370  0.526740  0.909040  1.0  -0.0954
  C  C142  1  0.468410  0.492020  0.953360  1.0  -0.0615
  C  C143  1  0.416220  0.393640  0.965110  1.0  -0.0358
  C  C144  1  0.588630  0.634660  0.896000  1.0  0.6693
  C  C145  1  0.322160  0.124320  0.879300  1.0  -0.3288
  C  C146  1  0.302920  0.028240  0.879500  1.0  -0.0495
  C  C147  1  0.265710  0.969820  0.830500  1.0  -0.0323
  C  C148  1  0.253890  0.009180  0.778350  1.0  -0.0905
  C  C149  1  0.277690  0.104780  0.776300  1.0  -0.049
  C  C150  1  0.312560  0.162720  0.827600  1.0  -0.0051
  C  C151  1  0.215530  0.946860  0.724550  1.0  0.6992
  C  C152  1  0.450450  0.166140  0.989490  1.0  -0.3132
  C  C153  1  0.500550  0.127860  0.959140  1.0  -0.0373
  C  C154  1  0.573580  0.116880  0.986970  1.0  -0.0207
  C  C155  1  0.596530  0.144200  0.045160  1.0  -0.1047
  C  C156  1  0.546430  0.182480  0.075520  1.0  -0.0346
  C  C157  1  0.473390  0.193440  0.047680  1.0  -0.0559
  C  C158  1  0.678670  0.135340  0.073800  1.0  0.6803
  C  C159  1  0.751010  0.832820  0.490930  1.0  -0.1744
  C  C160  1  0.832900  0.838800  0.459200  1.0  -0.023
  C  C161  1  0.915200  0.848000  0.486400  1.0  -0.1431
  C  C162  1  0.921890  0.860180  0.547440  1.0  -0.0768
  C  C163  1  0.844500  0.851000  0.579600  1.0  -0.0809
  C  C164  1  0.761900  0.841800  0.551200  1.0  -0.0318
  C  C165  1  0.011010  0.866020  0.576800  1.0  0.7167
  C  C166  1  0.566000  0.670000  0.432550  1.0  -0.2774
  C  C167  1  0.496040  0.635280  0.388230  1.0  -0.015
  C  C168  1  0.443850  0.536900  0.376470  1.0  -0.0748
  C  C169  1  0.461630  0.473260  0.409040  1.0  -0.0955
  C  C170  1  0.531590  0.507980  0.453360  1.0  -0.0614
  C  C171  1  0.583780  0.606360  0.465110  1.0  -0.0339
  C  C172  1  0.411370  0.365340  0.396000  1.0  0.67
  C  C173  1  0.677840  0.875680  0.379300  1.0  -0.3272
  C  C174  1  0.697080  0.971760  0.379500  1.0  -0.0497
  C  C175  1  0.734290  0.030180  0.330500  1.0  -0.0312
  C  C176  1  0.746110  0.990820  0.278350  1.0  -0.0897
  C  C177  1  0.722310  0.895220  0.276300  1.0  -0.0508
  C  C178  1  0.687440  0.837280  0.327600  1.0  -0.006
  C  C179  1  0.784470  0.053140  0.224550  1.0  0.6997
  C  C180  1  0.549550  0.833860  0.489490  1.0  -0.3148
  C  C181  1  0.499450  0.872140  0.459140  1.0  -0.0375
  C  C182  1  0.426420  0.883120  0.486970  1.0  -0.0208
  C  C183  1  0.403470  0.855800  0.545160  1.0  -0.1053
  C  C184  1  0.453570  0.817520  0.575520  1.0  -0.0366
  C  C185  1  0.526610  0.806560  0.547680  1.0  -0.056
  C  C186  1  0.321330  0.864660  0.573800  1.0  0.68
  O  O187  1  0.187720  0.096440  0.450100  1.0  -0.7897
  O  O188  1  0.173980  0.171540  0.373640  1.0  -0.555
  O  O189  1  0.087500  0.693600  0.561800  1.0  -0.5893
  O  O190  1  0.044730  0.661060  0.656000  1.0  -0.6229
  O  O191  1  0.755700  0.986600  0.824560  1.0  -0.5556
  O  O192  1  0.687000  0.857400  0.769800  1.0  -0.5594
  O  O193  1  0.467290  0.171780  0.375230  1.0  -0.5739
  O  O194  1  0.376600  0.099800  0.450110  1.0  -0.7445
  O  O195  1  0.812280  0.903560  0.950100  1.0  -0.7918
  O  O196  1  0.826020  0.828460  0.873640  1.0  -0.5538
  O  O197  1  0.912500  0.306400  0.061800  1.0  -0.589
  O  O198  1  0.955270  0.338940  0.156000  1.0  -0.6223
  O  O199  1  0.244300  0.013400  0.324560  1.0  -0.5553
  O  O200  1  0.313000  0.142600  0.269800  1.0  -0.5646
  O  O201  1  0.532710  0.828220  0.875230  1.0  -0.5734
  O  O202  1  0.623400  0.900200  0.950110  1.0  -0.7432
  O  O203  1  0.908720  0.096440  0.049900  1.0  -0.7916
  O  O204  1  0.997560  0.171540  0.126360  1.0  -0.5586
  O  O205  1  0.606100  0.693600  0.938200  1.0  -0.5901
  O  O206  1  0.616330  0.661060  0.844000  1.0  -0.6214
  O  O207  1  0.230900  0.986600  0.675440  1.0  -0.5523
  O  O208  1  0.170400  0.857400  0.730200  1.0  -0.5577
  O  O209  1  0.704490  0.171780  0.124770  1.0  -0.5744
  O  O210  1  0.723200  0.099800  0.049890  1.0  -0.7437
  O  O211  1  0.091280  0.903560  0.549900  1.0  -0.7905
  O  O212  1  0.002440  0.828460  0.626360  1.0  -0.559
  O  O213  1  0.393900  0.306400  0.438200  1.0  -0.5887
  O  O214  1  0.383670  0.338940  0.344000  1.0  -0.6226
  O  O215  1  0.769100  0.013400  0.175440  1.0  -0.5529
  O  O216  1  0.829600  0.142600  0.230200  1.0  -0.5634
  O  O217  1  0.295510  0.828220  0.624770  1.0  -0.5744
  O  O218  1  0.276800  0.900200  0.549890  1.0  -0.7443
