# generated using pymatgen
data_Zn3Si2H32(C7O2)8
_symmetry_space_group_name_H-M   'P 1'
_cell_length_a   14.15290000
_cell_length_b   23.40600000
_cell_length_c   23.83250000
_cell_angle_alpha   90.00000000
_cell_angle_beta   90.00000000
_cell_angle_gamma   90.00000000
_symmetry_Int_Tables_number   1
_chemical_formula_structural   Zn3Si2H32(C7O2)8
_chemical_formula_sum   'Zn12 Si8 H128 C224 O64'
_cell_volume   7894.82014239
_cell_formula_units_Z   4
loop_
 _symmetry_equiv_pos_site_id
 _symmetry_equiv_pos_as_xyz
  1  'x, y, z'
loop_
 _atom_site_type_symbol
 _atom_site_label
 _atom_site_symmetry_multiplicity
 _atom_site_fract_x
 _atom_site_fract_y
 _atom_site_fract_z
 _atom_site_occupancy
 _atom_site_charge
  Zn  Zn1  1  0.439630  0.138420  0.985990  1.0  1.0317
  Zn  Zn2  1  0.060370  0.361580  0.985990  1.0  1.0308
  Zn  Zn3  1  0.060370  0.138420  0.514010  1.0  1.0313
  Zn  Zn4  1  0.439630  0.361580  0.514010  1.0  1.0309
  Zn  Zn5  1  0.560370  0.861580  0.014010  1.0  1.0304
  Zn  Zn6  1  0.939630  0.638420  0.014010  1.0  1.0315
  Zn  Zn7  1  0.939630  0.861580  0.485990  1.0  1.0312
  Zn  Zn8  1  0.560370  0.638420  0.485990  1.0  1.0315
  Zn  Zn9  1  0.000000  0.500000  0.000000  1.0  1.1225
  Zn  Zn10  1  0.500000  0.000000  0.000000  1.0  1.1225
  Zn  Zn11  1  0.500000  0.500000  0.500000  1.0  1.1225
  Zn  Zn12  1  0.000000  0.000000  0.500000  1.0  1.1225
  Si  Si13  1  0.437800  0.485830  0.860330  1.0  0.9204
  Si  Si14  1  0.062200  0.014170  0.860330  1.0  0.9207
  Si  Si15  1  0.062200  0.485830  0.639670  1.0  0.9212
  Si  Si16  1  0.437800  0.014170  0.639670  1.0  0.9213
  Si  Si17  1  0.562200  0.514170  0.139670  1.0  0.9213
  Si  Si18  1  0.937800  0.985830  0.139670  1.0  0.9211
  Si  Si19  1  0.937800  0.514170  0.360330  1.0  0.9208
  Si  Si20  1  0.562200  0.985830  0.360330  1.0  0.9205
  H  H21  1  0.289100  0.408500  0.895600  1.0  0.109
  H  H22  1  0.281200  0.316100  0.932900  1.0  0.115
  H  H23  1  0.567200  0.309900  0.939300  1.0  0.1174
  H  H24  1  0.575100  0.402300  0.902100  1.0  0.1104
  H  H25  1  0.636200  0.471600  0.825400  1.0  0.1119
  H  H26  1  0.781800  0.498000  0.862300  1.0  0.1171
  H  H27  1  0.650800  0.605800  0.968500  1.0  0.1145
  H  H28  1  0.505900  0.576300  0.935600  1.0  0.1015
  H  H29  1  0.292000  0.562500  0.811500  1.0  0.1073
  H  H30  1  0.161900  0.612900  0.846100  1.0  0.1255
  H  H31  1  0.220500  0.557700  0.001700  1.0  0.1126
  H  H32  1  0.353800  0.510500  0.968900  1.0  0.1003
  H  H33  1  0.360200  0.396900  0.787000  1.0  0.1092
  H  H34  1  0.359000  0.379400  0.690500  1.0  0.1102
  H  H35  1  0.494300  0.527900  0.662600  1.0  0.1092
  H  H36  1  0.497300  0.546300  0.758600  1.0  0.1179
  H  H37  1  0.210900  0.091500  0.895600  1.0  0.1099
  H  H38  1  0.218800  0.183900  0.932900  1.0  0.1155
  H  H39  1  0.932800  0.190100  0.939300  1.0  0.1176
  H  H40  1  0.924900  0.097700  0.902100  1.0  0.1083
  H  H41  1  0.863800  0.028400  0.825400  1.0  0.1122
  H  H42  1  0.718200  0.002000  0.862300  1.0  0.1174
  H  H43  1  0.849200  0.894200  0.968500  1.0  0.1144
  H  H44  1  0.994100  0.923700  0.935600  1.0  0.1017
  H  H45  1  0.208000  0.937500  0.811500  1.0  0.1079
  H  H46  1  0.338100  0.887100  0.846100  1.0  0.1242
  H  H47  1  0.279500  0.942300  0.001700  1.0  0.1124
  H  H48  1  0.146200  0.989500  0.968900  1.0  0.1005
  H  H49  1  0.139800  0.103100  0.787000  1.0  0.1096
  H  H50  1  0.141000  0.120600  0.690500  1.0  0.1108
  H  H51  1  0.005700  0.972100  0.662600  1.0  0.1088
  H  H52  1  0.002700  0.953700  0.758600  1.0  0.1171
  H  H53  1  0.210900  0.408500  0.604400  1.0  0.109
  H  H54  1  0.218800  0.316100  0.567100  1.0  0.1157
  H  H55  1  0.932800  0.309900  0.560700  1.0  0.1178
  H  H56  1  0.924900  0.402300  0.597900  1.0  0.1095
  H  H57  1  0.863800  0.471600  0.674600  1.0  0.1107
  H  H58  1  0.718200  0.498000  0.637700  1.0  0.1175
  H  H59  1  0.849200  0.605800  0.531500  1.0  0.1143
  H  H60  1  0.994100  0.576300  0.564400  1.0  0.1019
  H  H61  1  0.208000  0.562500  0.688500  1.0  0.1074
  H  H62  1  0.338100  0.612900  0.653900  1.0  0.1249
  H  H63  1  0.279500  0.557700  0.498300  1.0  0.1129
  H  H64  1  0.146200  0.510500  0.531100  1.0  0.1004
  H  H65  1  0.139800  0.396900  0.713000  1.0  0.1103
  H  H66  1  0.141000  0.379400  0.809500  1.0  0.1101
  H  H67  1  0.005700  0.527900  0.837400  1.0  0.1088
  H  H68  1  0.002700  0.546300  0.741400  1.0  0.1178
  H  H69  1  0.289100  0.091500  0.604400  1.0  0.1101
  H  H70  1  0.281200  0.183900  0.567100  1.0  0.1149
  H  H71  1  0.567200  0.190100  0.560700  1.0  0.1176
  H  H72  1  0.575100  0.097700  0.597900  1.0  0.1099
  H  H73  1  0.636200  0.028400  0.674600  1.0  0.1116
  H  H74  1  0.781800  0.002000  0.637700  1.0  0.1171
  H  H75  1  0.650800  0.894200  0.531500  1.0  0.1147
  H  H76  1  0.505900  0.923700  0.564400  1.0  0.1015
  H  H77  1  0.292000  0.937500  0.688500  1.0  0.1074
  H  H78  1  0.161900  0.887100  0.653900  1.0  0.1247
  H  H79  1  0.220500  0.942300  0.498300  1.0  0.113
  H  H80  1  0.353800  0.989500  0.531100  1.0  0.1001
  H  H81  1  0.360200  0.103100  0.713000  1.0  0.1088
  H  H82  1  0.359000  0.120600  0.809500  1.0  0.1103
  H  H83  1  0.494300  0.972100  0.837400  1.0  0.1089
  H  H84  1  0.497300  0.953700  0.741400  1.0  0.1175
  H  H85  1  0.710900  0.591500  0.104400  1.0  0.11
  H  H86  1  0.718800  0.683900  0.067100  1.0  0.1153
  H  H87  1  0.432800  0.690100  0.060700  1.0  0.1176
  H  H88  1  0.424900  0.597700  0.097900  1.0  0.1088
  H  H89  1  0.363800  0.528400  0.174600  1.0  0.1116
  H  H90  1  0.218200  0.502000  0.137700  1.0  0.1171
  H  H91  1  0.349200  0.394200  0.031500  1.0  0.1149
  H  H92  1  0.494100  0.423700  0.064400  1.0  0.1019
  H  H93  1  0.708000  0.437500  0.188500  1.0  0.1076
  H  H94  1  0.838100  0.387100  0.153900  1.0  0.1245
  H  H95  1  0.779500  0.442300  0.998300  1.0  0.113
  H  H96  1  0.646200  0.489500  0.031100  1.0  0.1
  H  H97  1  0.639800  0.603100  0.213000  1.0  0.11
  H  H98  1  0.641000  0.620600  0.309500  1.0  0.1105
  H  H99  1  0.505700  0.472100  0.337400  1.0  0.1089
  H  H100  1  0.502700  0.453700  0.241400  1.0  0.1171
  H  H101  1  0.789100  0.908500  0.104400  1.0  0.1096
  H  H102  1  0.781200  0.816100  0.067100  1.0  0.115
  H  H103  1  0.067200  0.809900  0.060700  1.0  0.1177
  H  H104  1  0.075100  0.902300  0.097900  1.0  0.1105
  H  H105  1  0.136200  0.971600  0.174600  1.0  0.1115
  H  H106  1  0.281800  0.998000  0.137700  1.0  0.1174
  H  H107  1  0.150800  0.105800  0.031500  1.0  0.1153
  H  H108  1  0.005900  0.076300  0.064400  1.0  0.1018
  H  H109  1  0.792000  0.062500  0.188500  1.0  0.1075
  H  H110  1  0.661900  0.112900  0.153900  1.0  0.1252
  H  H111  1  0.720500  0.057700  0.998300  1.0  0.1131
  H  H112  1  0.853800  0.010500  0.031100  1.0  0.1004
  H  H113  1  0.860200  0.896900  0.213000  1.0  0.1095
  H  H114  1  0.859000  0.879400  0.309500  1.0  0.1101
  H  H115  1  0.994300  0.027900  0.337400  1.0  0.1086
  H  H116  1  0.997300  0.046300  0.241400  1.0  0.1177
  H  H117  1  0.789100  0.591500  0.395600  1.0  0.11
  H  H118  1  0.781200  0.683900  0.432900  1.0  0.115
  H  H119  1  0.067200  0.690100  0.439300  1.0  0.1173
  H  H120  1  0.075100  0.597700  0.402100  1.0  0.1101
  H  H121  1  0.136200  0.528400  0.325400  1.0  0.1121
  H  H122  1  0.281800  0.502000  0.362300  1.0  0.1171
  H  H123  1  0.150800  0.394200  0.468500  1.0  0.1144
  H  H124  1  0.005900  0.423700  0.435600  1.0  0.1014
  H  H125  1  0.792000  0.437500  0.311500  1.0  0.1078
  H  H126  1  0.661900  0.387100  0.346100  1.0  0.1241
  H  H127  1  0.720500  0.442300  0.501700  1.0  0.1121
  H  H128  1  0.853800  0.489500  0.468900  1.0  0.1003
  H  H129  1  0.860200  0.603100  0.287000  1.0  0.1084
  H  H130  1  0.859000  0.620600  0.190500  1.0  0.1105
  H  H131  1  0.994300  0.472100  0.162600  1.0  0.1093
  H  H132  1  0.997300  0.453700  0.258600  1.0  0.1176
  H  H133  1  0.710900  0.908500  0.395600  1.0  0.1087
  H  H134  1  0.718800  0.816100  0.432900  1.0  0.1157
  H  H135  1  0.432800  0.809900  0.439300  1.0  0.1177
  H  H136  1  0.424900  0.902300  0.402100  1.0  0.1095
  H  H137  1  0.363800  0.971600  0.325400  1.0  0.1099
  H  H138  1  0.218200  0.998000  0.362300  1.0  0.1175
  H  H139  1  0.349200  0.105800  0.468500  1.0  0.1144
  H  H140  1  0.494100  0.076300  0.435600  1.0  0.1017
  H  H141  1  0.708000  0.062500  0.311500  1.0  0.1072
  H  H142  1  0.838100  0.112900  0.346100  1.0  0.1254
  H  H143  1  0.779500  0.057700  0.501700  1.0  0.1129
  H  H144  1  0.646200  0.010500  0.468900  1.0  0.1004
  H  H145  1  0.639800  0.896900  0.287000  1.0  0.1099
  H  H146  1  0.641000  0.879400  0.190500  1.0  0.1102
  H  H147  1  0.505700  0.027900  0.162600  1.0  0.1091
  H  H148  1  0.502700  0.046300  0.258600  1.0  0.1178
  C  C149  1  0.432800  0.414100  0.895400  1.0  -0.3404
  C  C150  1  0.345500  0.388500  0.904500  1.0  -0.0445
  C  C151  1  0.340800  0.333600  0.926600  1.0  -0.016
  C  C152  1  0.423400  0.304300  0.939600  1.0  -0.1301
  C  C153  1  0.510700  0.329900  0.930500  1.0  -0.0367
  C  C154  1  0.515400  0.384800  0.908300  1.0  -0.0281
  C  C155  1  0.419000  0.243500  0.961900  1.0  0.6928
  C  C156  1  0.553900  0.519940  0.878050  1.0  -0.2585
  C  C157  1  0.638700  0.497800  0.855830  1.0  -0.0478
  C  C158  1  0.725600  0.513700  0.877590  1.0  -0.101
  C  C159  1  0.731100  0.551660  0.920680  1.0  -0.0724
  C  C160  1  0.647600  0.576840  0.940640  1.0  -0.0606
  C  C161  1  0.561700  0.560000  0.920280  1.0  -0.0415
  C  C162  1  0.822500  0.564900  0.949110  1.0  0.7163
  C  C163  1  0.336600  0.529750  0.886120  1.0  -0.2997
  C  C164  1  0.277900  0.561100  0.850480  1.0  -0.0277
  C  C165  1  0.199500  0.590380  0.870660  1.0  -0.0689
  C  C166  1  0.177000  0.586280  0.926610  1.0  -0.0661
  C  C167  1  0.234700  0.558090  0.962700  1.0  -0.0643
  C  C168  1  0.314000  0.529980  0.943110  1.0  -0.0663
  C  C169  1  0.086500  0.611640  0.947260  1.0  0.6974
  C  C170  1  0.430700  0.472850  0.783430  1.0  -0.3269
  C  C171  1  0.388400  0.423600  0.762070  1.0  -0.0216
  C  C172  1  0.387200  0.413400  0.704430  1.0  -0.0338
  C  C173  1  0.426400  0.452040  0.667170  1.0  -0.1389
  C  C174  1  0.467200  0.501150  0.687830  1.0  -0.0136
  C  C175  1  0.469400  0.512000  0.745160  1.0  -0.0283
  C  C176  1  0.427500  0.439100  0.605400  1.0  0.7082
  C  C177  1  0.067200  0.085900  0.895400  1.0  -0.3404
  C  C178  1  0.154500  0.111500  0.904500  1.0  -0.043
  C  C179  1  0.159200  0.166400  0.926600  1.0  -0.0154
  C  C180  1  0.076600  0.195700  0.939600  1.0  -0.1297
  C  C181  1  0.989300  0.170100  0.930500  1.0  -0.0369
  C  C182  1  0.984600  0.115200  0.908300  1.0  -0.0242
  C  C183  1  0.081000  0.256500  0.961900  1.0  0.6919
  C  C184  1  0.946100  0.980060  0.878050  1.0  -0.2578
  C  C185  1  0.861300  0.002200  0.855830  1.0  -0.0473
  C  C186  1  0.774400  0.986300  0.877590  1.0  -0.1015
  C  C187  1  0.768900  0.948340  0.920680  1.0  -0.0727
  C  C188  1  0.852400  0.923160  0.940640  1.0  -0.0615
  C  C189  1  0.938300  0.940000  0.920280  1.0  -0.0394
  C  C190  1  0.677500  0.935100  0.949110  1.0  0.7154
  C  C191  1  0.163400  0.970250  0.886120  1.0  -0.2948
  C  C192  1  0.222100  0.938900  0.850480  1.0  -0.0265
  C  C193  1  0.300500  0.909620  0.870660  1.0  -0.0709
  C  C194  1  0.323000  0.913720  0.926610  1.0  -0.0654
  C  C195  1  0.265300  0.941910  0.962700  1.0  -0.064
  C  C196  1  0.186000  0.970020  0.943110  1.0  -0.0667
  C  C197  1  0.413500  0.888360  0.947260  1.0  0.6985
  C  C198  1  0.069300  0.027150  0.783430  1.0  -0.3252
  C  C199  1  0.111600  0.076400  0.762070  1.0  -0.022
  C  C200  1  0.112800  0.086600  0.704430  1.0  -0.0334
  C  C201  1  0.073600  0.047960  0.667170  1.0  -0.1385
  C  C202  1  0.032800  0.998850  0.687830  1.0  -0.0145
  C  C203  1  0.030600  0.988000  0.745160  1.0  -0.0255
  C  C204  1  0.072500  0.060900  0.605400  1.0  0.7075
  C  C205  1  0.067200  0.414100  0.604600  1.0  -0.3407
  C  C206  1  0.154500  0.388500  0.595500  1.0  -0.043
  C  C207  1  0.159200  0.333600  0.573400  1.0  -0.0166
  C  C208  1  0.076600  0.304300  0.560400  1.0  -0.1301
  C  C209  1  0.989300  0.329900  0.569500  1.0  -0.0358
  C  C210  1  0.984600  0.384800  0.591700  1.0  -0.026
  C  C211  1  0.081000  0.243500  0.538100  1.0  0.692
  C  C212  1  0.946100  0.519940  0.621950  1.0  -0.2583
  C  C213  1  0.861300  0.497800  0.644170  1.0  -0.0488
  C  C214  1  0.774400  0.513700  0.622410  1.0  -0.1009
  C  C215  1  0.768900  0.551660  0.579320  1.0  -0.0737
  C  C216  1  0.852400  0.576840  0.559360  1.0  -0.0611
  C  C217  1  0.938300  0.560000  0.579720  1.0  -0.0389
  C  C218  1  0.677500  0.564900  0.550890  1.0  0.7151
  C  C219  1  0.163400  0.529750  0.613880  1.0  -0.2991
  C  C220  1  0.222100  0.561100  0.649520  1.0  -0.0291
  C  C221  1  0.300500  0.590380  0.629340  1.0  -0.0671
  C  C222  1  0.323000  0.586280  0.573390  1.0  -0.0662
  C  C223  1  0.265300  0.558090  0.537300  1.0  -0.073
  C  C224  1  0.186000  0.529980  0.556890  1.0  -0.0697
  C  C225  1  0.413500  0.611640  0.552740  1.0  0.6977
  C  C226  1  0.069300  0.472850  0.716570  1.0  -0.3254
  C  C227  1  0.111600  0.423600  0.737930  1.0  -0.0209
  C  C228  1  0.112800  0.413400  0.795570  1.0  -0.0351
  C  C229  1  0.073600  0.452040  0.832830  1.0  -0.1376
  C  C230  1  0.032800  0.501150  0.812170  1.0  -0.0149
  C  C231  1  0.030600  0.512000  0.754840  1.0  -0.026
  C  C232  1  0.072500  0.439100  0.894600  1.0  0.709
  C  C233  1  0.432800  0.085900  0.604600  1.0  -0.3401
  C  C234  1  0.345500  0.111500  0.595500  1.0  -0.0442
  C  C235  1  0.340800  0.166400  0.573400  1.0  -0.0164
  C  C236  1  0.423400  0.195700  0.560400  1.0  -0.1298
  C  C237  1  0.510700  0.170100  0.569500  1.0  -0.0365
  C  C238  1  0.515400  0.115200  0.591700  1.0  -0.0249
  C  C239  1  0.419000  0.256500  0.538100  1.0  0.6943
  C  C240  1  0.553900  0.980060  0.621950  1.0  -0.2582
  C  C241  1  0.638700  0.002200  0.644170  1.0  -0.0466
  C  C242  1  0.725600  0.986300  0.622410  1.0  -0.0997
  C  C243  1  0.731100  0.948340  0.579320  1.0  -0.0732
  C  C244  1  0.647600  0.923160  0.559360  1.0  -0.0651
  C  C245  1  0.561700  0.940000  0.579720  1.0  -0.0404
  C  C246  1  0.822500  0.935100  0.550890  1.0  0.7141
  C  C247  1  0.336600  0.970250  0.613880  1.0  -0.3009
  C  C248  1  0.277900  0.938900  0.649520  1.0  -0.0299
  C  C249  1  0.199500  0.909620  0.629340  1.0  -0.0702
  C  C250  1  0.177000  0.913720  0.573390  1.0  -0.0661
  C  C251  1  0.234700  0.941910  0.537300  1.0  -0.0716
  C  C252  1  0.314000  0.970020  0.556890  1.0  -0.0693
  C  C253  1  0.086500  0.888360  0.552740  1.0  0.6976
  C  C254  1  0.430700  0.027150  0.716570  1.0  -0.3278
  C  C255  1  0.388400  0.076400  0.737930  1.0  -0.0216
  C  C256  1  0.387200  0.086600  0.795570  1.0  -0.0357
  C  C257  1  0.426400  0.047960  0.832830  1.0  -0.1381
  C  C258  1  0.467200  0.998850  0.812170  1.0  -0.0136
  C  C259  1  0.469400  0.988000  0.754840  1.0  -0.0263
  C  C260  1  0.427500  0.060900  0.894600  1.0  0.7103
  C  C261  1  0.567200  0.585900  0.104600  1.0  -0.3401
  C  C262  1  0.654500  0.611500  0.095500  1.0  -0.0424
  C  C263  1  0.659200  0.666400  0.073400  1.0  -0.0159
  C  C264  1  0.576600  0.695700  0.060400  1.0  -0.1298
  C  C265  1  0.489300  0.670100  0.069500  1.0  -0.0367
  C  C266  1  0.484600  0.615200  0.091700  1.0  -0.0253
  C  C267  1  0.581000  0.756500  0.038100  1.0  0.6921
  C  C268  1  0.446100  0.480060  0.121950  1.0  -0.2578
  C  C269  1  0.361300  0.502200  0.144170  1.0  -0.0486
  C  C270  1  0.274400  0.486300  0.122410  1.0  -0.1017
  C  C271  1  0.268900  0.448340  0.079320  1.0  -0.0734
  C  C272  1  0.352400  0.423160  0.059360  1.0  -0.0624
  C  C273  1  0.438300  0.440000  0.079720  1.0  -0.0403
  C  C274  1  0.177500  0.435100  0.050890  1.0  0.7156
  C  C275  1  0.663400  0.470250  0.113880  1.0  -0.3014
  C  C276  1  0.722100  0.438900  0.149520  1.0  -0.0291
  C  C277  1  0.800500  0.409620  0.129340  1.0  -0.0708
  C  C278  1  0.823000  0.413720  0.073390  1.0  -0.0657
  C  C279  1  0.765300  0.441910  0.037300  1.0  -0.0697
  C  C280  1  0.686000  0.470020  0.056890  1.0  -0.0692
  C  C281  1  0.913500  0.388360  0.052740  1.0  0.698
  C  C282  1  0.569300  0.527150  0.216570  1.0  -0.3257
  C  C283  1  0.611600  0.576400  0.237930  1.0  -0.0214
  C  C284  1  0.612800  0.586600  0.295570  1.0  -0.0331
  C  C285  1  0.573600  0.547960  0.332830  1.0  -0.1369
  C  C286  1  0.532800  0.498850  0.312170  1.0  -0.0146
  C  C287  1  0.530600  0.488000  0.254840  1.0  -0.0254
  C  C288  1  0.572500  0.560900  0.394600  1.0  0.709
  C  C289  1  0.932800  0.914100  0.104600  1.0  -0.3405
  C  C290  1  0.845500  0.888500  0.095500  1.0  -0.0444
  C  C291  1  0.840800  0.833600  0.073400  1.0  -0.016
  C  C292  1  0.923400  0.804300  0.060400  1.0  -0.1298
  C  C293  1  0.010700  0.829900  0.069500  1.0  -0.037
  C  C294  1  0.015400  0.884800  0.091700  1.0  -0.0287
  C  C295  1  0.919000  0.743500  0.038100  1.0  0.6917
  C  C296  1  0.053900  0.019940  0.121950  1.0  -0.2581
  C  C297  1  0.138700  0.997800  0.144170  1.0  -0.0491
  C  C298  1  0.225600  0.013700  0.122410  1.0  -0.099
  C  C299  1  0.231100  0.051660  0.079320  1.0  -0.0738
  C  C300  1  0.147600  0.076840  0.059360  1.0  -0.0648
  C  C301  1  0.061700  0.060000  0.079720  1.0  -0.0411
  C  C302  1  0.322500  0.064900  0.050890  1.0  0.715
  C  C303  1  0.836600  0.029750  0.113880  1.0  -0.2991
  C  C304  1  0.777900  0.061100  0.149520  1.0  -0.0274
  C  C305  1  0.699500  0.090380  0.129340  1.0  -0.0677
  C  C306  1  0.677000  0.086280  0.073390  1.0  -0.0666
  C  C307  1  0.734700  0.058090  0.037300  1.0  -0.0698
  C  C308  1  0.814000  0.029980  0.056890  1.0  -0.0701
  C  C309  1  0.586500  0.111640  0.052740  1.0  0.6971
  C  C310  1  0.930700  0.972850  0.216570  1.0  -0.3276
  C  C311  1  0.888400  0.923600  0.237930  1.0  -0.0213
  C  C312  1  0.887200  0.913400  0.295570  1.0  -0.0342
  C  C313  1  0.926400  0.952040  0.332830  1.0  -0.1386
  C  C314  1  0.967200  0.001150  0.312170  1.0  -0.0134
  C  C315  1  0.969400  0.012000  0.254840  1.0  -0.0271
  C  C316  1  0.927500  0.939100  0.394600  1.0  0.7102
  C  C317  1  0.932800  0.585900  0.395400  1.0  -0.3404
  C  C318  1  0.845500  0.611500  0.404500  1.0  -0.0446
  C  C319  1  0.840800  0.666400  0.426600  1.0  -0.0161
  C  C320  1  0.923400  0.695700  0.439600  1.0  -0.1301
  C  C321  1  0.010700  0.670100  0.430500  1.0  -0.0357
  C  C322  1  0.015400  0.615200  0.408300  1.0  -0.0242
  C  C323  1  0.919000  0.756500  0.461900  1.0  0.6949
  C  C324  1  0.053900  0.480060  0.378050  1.0  -0.2587
  C  C325  1  0.138700  0.502200  0.355830  1.0  -0.048
  C  C326  1  0.225600  0.486300  0.377590  1.0  -0.1013
  C  C327  1  0.231100  0.448340  0.420680  1.0  -0.0725
  C  C328  1  0.147600  0.423160  0.440640  1.0  -0.0612
  C  C329  1  0.061700  0.440000  0.420280  1.0  -0.0403
  C  C330  1  0.322500  0.435100  0.449110  1.0  0.7149
  C  C331  1  0.836600  0.470250  0.386120  1.0  -0.3007
  C  C332  1  0.777900  0.438900  0.350480  1.0  -0.0287
  C  C333  1  0.699500  0.409620  0.370660  1.0  -0.0701
  C  C334  1  0.677000  0.413720  0.426610  1.0  -0.0658
  C  C335  1  0.734700  0.441910  0.462700  1.0  -0.0714
  C  C336  1  0.814000  0.470020  0.443110  1.0  -0.0692
  C  C337  1  0.586500  0.388360  0.447260  1.0  0.6987
  C  C338  1  0.930700  0.527150  0.283430  1.0  -0.3267
  C  C339  1  0.888400  0.576400  0.262070  1.0  -0.0226
  C  C340  1  0.887200  0.586600  0.204430  1.0  -0.0337
  C  C341  1  0.926400  0.547960  0.167170  1.0  -0.1386
  C  C342  1  0.967200  0.498850  0.187830  1.0  -0.0141
  C  C343  1  0.969400  0.488000  0.245160  1.0  -0.0269
  C  C344  1  0.927500  0.560900  0.105400  1.0  0.7086
  C  C345  1  0.567200  0.914100  0.395400  1.0  -0.3408
  C  C346  1  0.654500  0.888500  0.404500  1.0  -0.0432
  C  C347  1  0.659200  0.833600  0.426600  1.0  -0.0163
  C  C348  1  0.576600  0.804300  0.439600  1.0  -0.1301
  C  C349  1  0.489300  0.829900  0.430500  1.0  -0.0363
  C  C350  1  0.484600  0.884800  0.408300  1.0  -0.0252
  C  C351  1  0.581000  0.743500  0.461900  1.0  0.6921
  C  C352  1  0.446100  0.019940  0.378050  1.0  -0.258
  C  C353  1  0.361300  0.997800  0.355830  1.0  -0.047
  C  C354  1  0.274400  0.013700  0.377590  1.0  -0.1011
  C  C355  1  0.268900  0.051660  0.420680  1.0  -0.072
  C  C356  1  0.352400  0.076840  0.440640  1.0  -0.0609
  C  C357  1  0.438300  0.060000  0.420280  1.0  -0.0378
  C  C358  1  0.177500  0.064900  0.449110  1.0  0.7169
  C  C359  1  0.663400  0.029750  0.386120  1.0  -0.2932
  C  C360  1  0.722100  0.061100  0.350480  1.0  -0.0282
  C  C361  1  0.800500  0.090380  0.370660  1.0  -0.0684
  C  C362  1  0.823000  0.086280  0.426610  1.0  -0.066
  C  C363  1  0.765300  0.058090  0.462700  1.0  -0.0755
  C  C364  1  0.686000  0.029980  0.443110  1.0  -0.0698
  C  C365  1  0.913500  0.111640  0.447260  1.0  0.6985
  C  C366  1  0.569300  0.972850  0.283430  1.0  -0.3253
  C  C367  1  0.611600  0.923600  0.262070  1.0  -0.021
  C  C368  1  0.612800  0.913400  0.204430  1.0  -0.0365
  C  C369  1  0.573600  0.952040  0.167170  1.0  -0.1407
  C  C370  1  0.532800  0.001150  0.187830  1.0  -0.0144
  C  C371  1  0.530600  0.012000  0.245160  1.0  -0.0268
  C  C372  1  0.572500  0.939100  0.105400  1.0  0.7073
  O  O373  1  0.342200  0.223000  0.976000  1.0  -0.6371
  O  O374  1  0.491300  0.214800  0.967000  1.0  -0.5659
  O  O375  1  0.882800  0.525370  0.951090  1.0  -0.6009
  O  O376  1  0.832790  0.614650  0.968070  1.0  -0.5908
  O  O377  1  0.047200  0.651010  0.922390  1.0  -0.5186
  O  O378  1  0.051600  0.590720  0.993030  1.0  -0.6676
  O  O379  1  0.414300  0.389000  0.590500  1.0  -0.5896
  O  O380  1  0.442800  0.480510  0.573690  1.0  -0.6108
  O  O381  1  0.157800  0.277000  0.976000  1.0  -0.6379
  O  O382  1  0.008700  0.285200  0.967000  1.0  -0.5642
  O  O383  1  0.617200  0.974630  0.951090  1.0  -0.6001
  O  O384  1  0.667210  0.885350  0.968070  1.0  -0.5909
  O  O385  1  0.452800  0.848990  0.922390  1.0  -0.5179
  O  O386  1  0.448400  0.909280  0.993030  1.0  -0.6676
  O  O387  1  0.085700  0.111000  0.590500  1.0  -0.5893
  O  O388  1  0.057200  0.019490  0.573690  1.0  -0.6108
  O  O389  1  0.157800  0.223000  0.524000  1.0  -0.6383
  O  O390  1  0.008700  0.214800  0.533000  1.0  -0.5643
  O  O391  1  0.617200  0.525370  0.548910  1.0  -0.6002
  O  O392  1  0.667210  0.614650  0.531930  1.0  -0.5898
  O  O393  1  0.452800  0.651010  0.577610  1.0  -0.5187
  O  O394  1  0.448400  0.590720  0.506970  1.0  -0.6673
  O  O395  1  0.085700  0.389000  0.909500  1.0  -0.5899
  O  O396  1  0.057200  0.480510  0.926310  1.0  -0.6099
  O  O397  1  0.342200  0.277000  0.524000  1.0  -0.6376
  O  O398  1  0.491300  0.285200  0.533000  1.0  -0.5664
  O  O399  1  0.882800  0.974630  0.548910  1.0  -0.6
  O  O400  1  0.832790  0.885350  0.531930  1.0  -0.5927
  O  O401  1  0.047200  0.848990  0.577610  1.0  -0.5196
  O  O402  1  0.051600  0.909280  0.506970  1.0  -0.6664
  O  O403  1  0.414300  0.111000  0.909500  1.0  -0.5896
  O  O404  1  0.442800  0.019490  0.926310  1.0  -0.6094
  O  O405  1  0.657800  0.777000  0.024000  1.0  -0.6383
  O  O406  1  0.508700  0.785200  0.033000  1.0  -0.5643
  O  O407  1  0.117200  0.474630  0.048910  1.0  -0.5996
  O  O408  1  0.167210  0.385350  0.031930  1.0  -0.5925
  O  O409  1  0.952800  0.348990  0.077610  1.0  -0.5194
  O  O410  1  0.948400  0.409280  0.006970  1.0  -0.6667
  O  O411  1  0.585700  0.611000  0.409500  1.0  -0.5903
  O  O412  1  0.557200  0.519490  0.426310  1.0  -0.6096
  O  O413  1  0.842200  0.723000  0.024000  1.0  -0.638
  O  O414  1  0.991300  0.714800  0.033000  1.0  -0.5657
  O  O415  1  0.382800  0.025370  0.048910  1.0  -0.6006
  O  O416  1  0.332790  0.114650  0.031930  1.0  -0.5897
  O  O417  1  0.547200  0.151010  0.077610  1.0  -0.5181
  O  O418  1  0.551600  0.090720  0.006970  1.0  -0.6668
  O  O419  1  0.914300  0.889000  0.409500  1.0  -0.5903
  O  O420  1  0.942800  0.980510  0.426310  1.0  -0.6094
  O  O421  1  0.842200  0.777000  0.476000  1.0  -0.6368
  O  O422  1  0.991300  0.785200  0.467000  1.0  -0.5667
  O  O423  1  0.382800  0.474630  0.451090  1.0  -0.6008
  O  O424  1  0.332790  0.385350  0.468070  1.0  -0.5913
  O  O425  1  0.547200  0.348990  0.422390  1.0  -0.5188
  O  O426  1  0.551600  0.409280  0.493030  1.0  -0.6672
  O  O427  1  0.914300  0.611000  0.090500  1.0  -0.5886
  O  O428  1  0.942800  0.519490  0.073690  1.0  -0.6108
  O  O429  1  0.657800  0.723000  0.476000  1.0  -0.6382
  O  O430  1  0.508700  0.714800  0.467000  1.0  -0.5643
  O  O431  1  0.117200  0.025370  0.451090  1.0  -0.6006
  O  O432  1  0.167210  0.114650  0.468070  1.0  -0.5907
  O  O433  1  0.952800  0.151010  0.422390  1.0  -0.5189
  O  O434  1  0.948400  0.090720  0.493030  1.0  -0.668
  O  O435  1  0.585700  0.889000  0.090500  1.0  -0.5893
  O  O436  1  0.557200  0.980510  0.073690  1.0  -0.6112
