# generated using pymatgen
data_Cu2SiH16(C7O2)4
_symmetry_space_group_name_H-M   'P 1'
_cell_length_a   12.37100000
_cell_length_b   12.37100000
_cell_length_c   24.06890000
_cell_angle_alpha   90.00000000
_cell_angle_beta   90.00000000
_cell_angle_gamma   90.00000000
_symmetry_Int_Tables_number   1
_chemical_formula_structural   Cu2SiH16(C7O2)4
_chemical_formula_sum   'Cu4 Si2 H32 C56 O16'
_cell_volume   3683.54395306
_cell_formula_units_Z   2
loop_
 _symmetry_equiv_pos_site_id
 _symmetry_equiv_pos_as_xyz
  1  'x, y, z'
loop_
 _atom_site_type_symbol
 _atom_site_label
 _atom_site_symmetry_multiplicity
 _atom_site_fract_x
 _atom_site_fract_y
 _atom_site_fract_z
 _atom_site_occupancy
 _atom_site_charge
  Cu  Cu1  1  0.892600  0.500000  0.000000  1.0  0.8695
  Cu  Cu2  1  0.107400  0.500000  0.000000  1.0  0.8707
  Cu  Cu3  1  0.500000  0.892600  0.500000  1.0  0.8709
  Cu  Cu4  1  0.500000  0.107400  0.500000  1.0  0.8708
  Si  Si5  1  0.000000  0.000000  0.750000  1.0  1.1014
  Si  Si6  1  0.000000  0.000000  0.250000  1.0  1.1014
  H  H7  1  0.837400  0.870000  0.804900  1.0  0.1019
  H  H8  1  0.840600  0.733500  0.872700  1.0  0.0946
  H  H9  1  0.162600  0.130000  0.804900  1.0  0.1019
  H  H10  1  0.159400  0.266500  0.872700  1.0  0.0945
  H  H11  1  0.130000  0.837400  0.304900  1.0  0.1021
  H  H12  1  0.266500  0.840600  0.372700  1.0  0.0943
  H  H13  1  0.870000  0.162600  0.304900  1.0  0.1028
  H  H14  1  0.733500  0.159400  0.372700  1.0  0.0942
  H  H15  1  0.162600  0.870000  0.195100  1.0  0.1018
  H  H16  1  0.159400  0.733500  0.127300  1.0  0.0946
  H  H17  1  0.837400  0.130000  0.195100  1.0  0.1017
  H  H18  1  0.840600  0.266500  0.127300  1.0  0.0949
  H  H19  1  0.870000  0.837400  0.695100  1.0  0.1025
  H  H20  1  0.733500  0.840600  0.627300  1.0  0.0943
  H  H21  1  0.130000  0.162600  0.695100  1.0  0.1023
  H  H22  1  0.266500  0.159400  0.627300  1.0  0.0945
  H  H23  1  0.162600  0.130000  0.195100  1.0  0.1017
  H  H24  1  0.159400  0.266500  0.127300  1.0  0.0951
  H  H25  1  0.837400  0.870000  0.195100  1.0  0.1015
  H  H26  1  0.840600  0.733500  0.127300  1.0  0.0947
  H  H27  1  0.870000  0.162600  0.695100  1.0  0.1026
  H  H28  1  0.733500  0.159400  0.627300  1.0  0.0946
  H  H29  1  0.130000  0.837400  0.695100  1.0  0.102
  H  H30  1  0.266500  0.840600  0.627300  1.0  0.0945
  H  H31  1  0.837400  0.130000  0.804900  1.0  0.1019
  H  H32  1  0.840600  0.266500  0.872700  1.0  0.0945
  H  H33  1  0.162600  0.870000  0.804900  1.0  0.1019
  H  H34  1  0.159400  0.733500  0.872700  1.0  0.0943
  H  H35  1  0.130000  0.162600  0.304900  1.0  0.1026
  H  H36  1  0.266500  0.159400  0.372700  1.0  0.0942
  H  H37  1  0.870000  0.837400  0.304900  1.0  0.1024
  H  H38  1  0.733500  0.840600  0.372700  1.0  0.0942
  C  C39  1  0.904400  0.843200  0.818300  1.0  -0.0794
  C  C40  1  0.906800  0.762900  0.859500  1.0  -0.0569
  C  C41  1  0.095600  0.156800  0.818300  1.0  -0.0789
  C  C42  1  0.093200  0.237100  0.859500  1.0  -0.0566
  C  C43  1  0.156800  0.904400  0.318300  1.0  -0.0793
  C  C44  1  0.237100  0.906800  0.359500  1.0  -0.0591
  C  C45  1  0.843200  0.095600  0.318300  1.0  -0.0789
  C  C46  1  0.762900  0.093200  0.359500  1.0  -0.059
  C  C47  1  0.095600  0.843200  0.181700  1.0  -0.078
  C  C48  1  0.093200  0.762900  0.140500  1.0  -0.0571
  C  C49  1  0.904400  0.156800  0.181700  1.0  -0.0794
  C  C50  1  0.906800  0.237100  0.140500  1.0  -0.0576
  C  C51  1  0.843200  0.904400  0.681700  1.0  -0.0782
  C  C52  1  0.762900  0.906800  0.640500  1.0  -0.0598
  C  C53  1  0.156800  0.095600  0.681700  1.0  -0.0791
  C  C54  1  0.237100  0.093200  0.640500  1.0  -0.0583
  C  C55  1  0.095600  0.156800  0.181700  1.0  -0.0792
  C  C56  1  0.093200  0.237100  0.140500  1.0  -0.0575
  C  C57  1  0.904400  0.843200  0.181700  1.0  -0.0803
  C  C58  1  0.906800  0.762900  0.140500  1.0  -0.0574
  C  C59  1  0.843200  0.095600  0.681700  1.0  -0.08
  C  C60  1  0.762900  0.093200  0.640500  1.0  -0.0595
  C  C61  1  0.156800  0.904400  0.681700  1.0  -0.0804
  C  C62  1  0.237100  0.906800  0.640500  1.0  -0.0598
  C  C63  1  0.904400  0.156800  0.818300  1.0  -0.0809
  C  C64  1  0.906800  0.237100  0.859500  1.0  -0.0576
  C  C65  1  0.095600  0.843200  0.818300  1.0  -0.0798
  C  C66  1  0.093200  0.762900  0.859500  1.0  -0.0561
  C  C67  1  0.156800  0.095600  0.318300  1.0  -0.0808
  C  C68  1  0.237100  0.093200  0.359500  1.0  -0.0579
  C  C69  1  0.843200  0.904400  0.318300  1.0  -0.0794
  C  C70  1  0.762900  0.906800  0.359500  1.0  -0.059
  C  C71  1  0.000000  0.882600  0.797700  1.0  -0.2324
  C  C72  1  0.000000  0.726800  0.880600  1.0  -0.1266
  C  C73  1  0.000000  0.641900  0.926800  1.0  0.6709
  C  C74  1  0.000000  0.117400  0.797700  1.0  -0.2323
  C  C75  1  0.000000  0.273200  0.880600  1.0  -0.1276
  C  C76  1  0.000000  0.358100  0.926800  1.0  0.6713
  C  C77  1  0.117400  0.000000  0.297700  1.0  -0.2329
  C  C78  1  0.273200  0.000000  0.380600  1.0  -0.129
  C  C79  1  0.358100  0.000000  0.426800  1.0  0.6717
  C  C80  1  0.882600  0.000000  0.297700  1.0  -0.2321
  C  C81  1  0.726800  0.000000  0.380600  1.0  -0.1287
  C  C82  1  0.641900  0.000000  0.426800  1.0  0.6718
  C  C83  1  0.000000  0.882600  0.202300  1.0  -0.2327
  C  C84  1  0.000000  0.726800  0.119400  1.0  -0.128
  C  C85  1  0.000000  0.641900  0.073200  1.0  0.6705
  C  C86  1  0.000000  0.117400  0.202300  1.0  -0.2319
  C  C87  1  0.000000  0.273200  0.119400  1.0  -0.1281
  C  C88  1  0.000000  0.358100  0.073200  1.0  0.671
  C  C89  1  0.882600  0.000000  0.702300  1.0  -0.2319
  C  C90  1  0.726800  0.000000  0.619400  1.0  -0.1294
  C  C91  1  0.641900  0.000000  0.573200  1.0  0.6714
  C  C92  1  0.117400  0.000000  0.702300  1.0  -0.2331
  C  C93  1  0.273200  0.000000  0.619400  1.0  -0.1296
  C  C94  1  0.358100  0.000000  0.573200  1.0  0.6713
  O  O95  1  0.909200  0.612200  0.943170  1.0  -0.5692
  O  O96  1  0.090800  0.387800  0.943170  1.0  -0.5691
  O  O97  1  0.387800  0.909200  0.443170  1.0  -0.5706
  O  O98  1  0.612200  0.090800  0.443170  1.0  -0.5691
  O  O99  1  0.090800  0.612200  0.056830  1.0  -0.5692
  O  O100  1  0.909200  0.387800  0.056830  1.0  -0.5694
  O  O101  1  0.612200  0.909200  0.556830  1.0  -0.5701
  O  O102  1  0.387800  0.090800  0.556830  1.0  -0.5699
  O  O103  1  0.090800  0.387800  0.056830  1.0  -0.5693
  O  O104  1  0.909200  0.612200  0.056830  1.0  -0.5691
  O  O105  1  0.612200  0.090800  0.556830  1.0  -0.5692
  O  O106  1  0.387800  0.909200  0.556830  1.0  -0.5706
  O  O107  1  0.909200  0.387800  0.943170  1.0  -0.5693
  O  O108  1  0.090800  0.612200  0.943170  1.0  -0.5691
  O  O109  1  0.387800  0.090800  0.443170  1.0  -0.5696
  O  O110  1  0.612200  0.909200  0.443170  1.0  -0.5702
