# generated using pymatgen
data_Zn3Si2H32(C7O2)8
_symmetry_space_group_name_H-M   'P 1'
_cell_length_a   13.70100000
_cell_length_b   14.34410000
_cell_length_c   24.53470000
_cell_angle_alpha   78.36860000
_cell_angle_beta   73.78650000
_cell_angle_gamma   61.47220000
_symmetry_Int_Tables_number   1
_chemical_formula_structural   Zn3Si2H32(C7O2)8
_chemical_formula_sum   'Zn6 Si4 H64 C112 O32'
_cell_volume   4054.50868119
_cell_formula_units_Z   2
loop_
 _symmetry_equiv_pos_site_id
 _symmetry_equiv_pos_as_xyz
  1  'x, y, z'
loop_
 _atom_site_type_symbol
 _atom_site_label
 _atom_site_symmetry_multiplicity
 _atom_site_fract_x
 _atom_site_fract_y
 _atom_site_fract_z
 _atom_site_occupancy
 _atom_site_charge
  Zn  Zn1  1  0.691250  0.083070  0.956330  1.0  1.0615
  Zn  Zn2  1  0.730650  0.416930  0.543670  1.0  1.0618
  Zn  Zn3  1  0.308750  0.916930  0.043670  1.0  1.0621
  Zn  Zn4  1  0.269350  0.583070  0.456330  1.0  1.0607
  Zn  Zn5  1  0.500000  0.000000  0.000000  1.0  1.1453
  Zn  Zn6  1  0.500000  0.500000  0.500000  1.0  1.1454
  Si  Si7  1  0.070800  0.448630  0.827210  1.0  0.9532
  Si  Si8  1  0.346640  0.051370  0.672790  1.0  0.9531
  Si  Si9  1  0.929200  0.551370  0.172790  1.0  0.953
  Si  Si10  1  0.653360  0.948630  0.327210  1.0  0.9532
  H  H11  1  0.053200  0.663500  0.810100  1.0  0.1075
  H  H12  1  0.931200  0.824200  0.852000  1.0  0.1186
  H  H13  1  0.733600  0.690100  0.952300  1.0  0.1025
  H  H14  1  0.855500  0.529500  0.910300  1.0  0.1059
  H  H15  1  0.868500  0.477300  0.795100  1.0  0.1179
  H  H16  1  0.757000  0.386800  0.815400  1.0  0.1224
  H  H17  1  0.979900  0.150000  0.904200  1.0  0.1192
  H  H18  1  0.091300  0.240500  0.883900  1.0  0.1054
  H  H19  1  0.270700  0.239400  0.829800  1.0  0.1009
  H  H20  1  0.419800  0.156200  0.877000  1.0  0.0981
  H  H21  1  0.305400  0.427500  0.951900  1.0  0.1234
  H  H22  1  0.149800  0.505500  0.908900  1.0  0.0963
  H  H23  1  0.257900  0.491800  0.762800  1.0  0.1094
  H  H24  1  0.332000  0.525700  0.668300  1.0  0.1204
  H  H25  1  0.084200  0.501600  0.622000  1.0  0.1222
  H  H26  1  0.016600  0.459400  0.716800  1.0  0.1
  H  H27  1  0.526800  0.836500  0.689900  1.0  0.1093
  H  H28  1  0.607400  0.675800  0.648000  1.0  0.118
  H  H29  1  0.376000  0.809900  0.547700  1.0  0.1031
  H  H30  1  0.295300  0.970500  0.589700  1.0  0.1075
  H  H31  1  0.140900  0.022700  0.704900  1.0  0.1185
  H  H32  1  0.959200  0.113200  0.684600  1.0  0.1234
  H  H33  1  0.034100  0.350000  0.595800  1.0  0.1193
  H  H34  1  0.215700  0.259500  0.616100  1.0  0.1067
  H  H35  1  0.339900  0.260600  0.670200  1.0  0.1
  H  H36  1  0.453000  0.343800  0.623000  1.0  0.0989
  H  H37  1  0.684800  0.072500  0.548100  1.0  0.1235
  H  H38  1  0.564200  0.994500  0.591100  1.0  0.0947
  H  H39  1  0.512500  0.008200  0.737200  1.0  0.1086
  H  H40  1  0.526000  0.974300  0.831700  1.0  0.1202
  H  H41  1  0.207800  0.998400  0.878000  1.0  0.1221
  H  H42  1  0.192800  0.040600  0.783200  1.0  0.0999
  H  H43  1  0.946800  0.336500  0.189900  1.0  0.1069
  H  H44  1  0.068800  0.175800  0.148000  1.0  0.1179
  H  H45  1  0.266400  0.309900  0.047700  1.0  0.1028
  H  H46  1  0.144500  0.470500  0.089700  1.0  0.1058
  H  H47  1  0.131500  0.522700  0.204900  1.0  0.1172
  H  H48  1  0.243000  0.613200  0.184600  1.0  0.1225
  H  H49  1  0.020100  0.850000  0.095800  1.0  0.1191
  H  H50  1  0.908700  0.759500  0.116100  1.0  0.1054
  H  H51  1  0.729300  0.760600  0.170200  1.0  0.1013
  H  H52  1  0.580200  0.843800  0.123000  1.0  0.0987
  H  H53  1  0.694600  0.572500  0.048100  1.0  0.1232
  H  H54  1  0.850200  0.494500  0.091100  1.0  0.0965
  H  H55  1  0.742100  0.508200  0.237200  1.0  0.1086
  H  H56  1  0.668000  0.474300  0.331700  1.0  0.1205
  H  H57  1  0.915800  0.498400  0.378000  1.0  0.1227
  H  H58  1  0.983400  0.540600  0.283200  1.0  0.1004
  H  H59  1  0.473200  0.163500  0.310100  1.0  0.1086
  H  H60  1  0.392600  0.324200  0.352000  1.0  0.1182
  H  H61  1  0.624000  0.190100  0.452300  1.0  0.1036
  H  H62  1  0.704700  0.029500  0.410300  1.0  0.1073
  H  H63  1  0.859100  0.977300  0.295100  1.0  0.1184
  H  H64  1  0.040800  0.886800  0.315400  1.0  0.1236
  H  H65  1  0.965900  0.650000  0.404200  1.0  0.1193
  H  H66  1  0.784300  0.740500  0.383900  1.0  0.1062
  H  H67  1  0.660100  0.739400  0.329800  1.0  0.1
  H  H68  1  0.547000  0.656200  0.377000  1.0  0.0985
  H  H69  1  0.315200  0.927500  0.451900  1.0  0.124
  H  H70  1  0.435800  0.005500  0.408900  1.0  0.0941
  H  H71  1  0.487500  0.991800  0.262800  1.0  0.1083
  H  H72  1  0.474000  0.025700  0.168300  1.0  0.1197
  H  H73  1  0.792200  0.001600  0.122000  1.0  0.1233
  H  H74  1  0.807200  0.959400  0.216800  1.0  0.1
  C  C75  1  0.965760  0.581440  0.856240  1.0  -0.3046
  C  C76  1  0.988270  0.668960  0.838900  1.0  -0.0361
  C  C77  1  0.915920  0.764360  0.863800  1.0  -0.055
  C  C78  1  0.820960  0.772180  0.906100  1.0  -0.1174
  C  C79  1  0.798440  0.684720  0.923400  1.0  -0.0288
  C  C80  1  0.870890  0.589320  0.898500  1.0  -0.0148
  C  C81  1  0.746850  0.877530  0.934770  1.0  0.7319
  C  C82  1  0.990370  0.367490  0.837570  1.0  -0.3411
  C  C83  1  0.891000  0.410980  0.817220  1.0  -0.0515
  C  C84  1  0.824900  0.357100  0.829300  1.0  -0.049
  C  C85  1  0.858010  0.259910  0.861670  1.0  -0.1264
  C  C86  1  0.957300  0.216400  0.882000  1.0  -0.0639
  C  C87  1  0.023500  0.270200  0.870000  1.0  -0.0425
  C  C88  1  0.784300  0.204000  0.877600  1.0  0.6503
  C  C89  1  0.193040  0.381670  0.865050  1.0  -0.3222
  C  C90  1  0.276000  0.277200  0.855600  1.0  -0.0376
  C  C91  1  0.365860  0.227980  0.883300  1.0  -0.0269
  C  C92  1  0.378680  0.281260  0.919980  1.0  -0.1323
  C  C93  1  0.297400  0.387800  0.928200  1.0  -0.0951
  C  C94  1  0.205700  0.434500  0.901700  1.0  -0.0191
  C  C95  1  0.476510  0.229310  0.948670  1.0  0.6518
  C  C96  1  0.128610  0.473600  0.750180  1.0  -0.317
  C  C97  1  0.222500  0.492920  0.734280  1.0  -0.0445
  C  C98  1  0.266400  0.513860  0.677940  1.0  -0.0355
  C  C99  1  0.216320  0.517810  0.635550  1.0  -0.1488
  C  C100  1  0.120700  0.498500  0.650500  1.0  -0.0761
  C  C101  1  0.079700  0.475100  0.707100  1.0  -0.018
  C  C102  1  0.267660  0.534770  0.574310  1.0  0.7138
  C  C103  1  0.403440  0.918560  0.643760  1.0  -0.3047
  C  C104  1  0.496130  0.831040  0.661100  1.0  -0.0362
  C  C105  1  0.544080  0.735640  0.636200  1.0  -0.0563
  C  C106  1  0.499240  0.727820  0.593900  1.0  -0.1177
  C  C107  1  0.406560  0.815280  0.576600  1.0  -0.031
  C  C108  1  0.358710  0.910680  0.601500  1.0  -0.0171
  C  C109  1  0.559150  0.622470  0.565230  1.0  0.7316
  C  C110  1  0.195430  0.132510  0.662430  1.0  -0.3445
  C  C111  1  0.119200  0.089020  0.682780  1.0  -0.0519
  C  C112  1  0.011300  0.142900  0.670700  1.0  -0.0472
  C  C113  1  0.979590  0.240090  0.638330  1.0  -0.1271
  C  C114  1  0.055700  0.283600  0.618000  1.0  -0.0667
  C  C115  1  0.163700  0.229800  0.630000  1.0  -0.0468
  C  C116  1  0.865900  0.296000  0.622400  1.0  0.6502
  C  C117  1  0.439760  0.118330  0.634950  1.0  -0.3222
  C  C118  1  0.408800  0.222800  0.644400  1.0  -0.037
  C  C119  1  0.477140  0.272020  0.616700  1.0  -0.026
  C  C120  1  0.579920  0.218740  0.580020  1.0  -0.1307
  C  C121  1  0.613400  0.112200  0.571800  1.0  -0.0922
  C  C122  1  0.541900  0.065500  0.598300  1.0  -0.0186
  C  C123  1  0.654490  0.270690  0.551330  1.0  0.6513
  C  C124  1  0.352390  0.026400  0.749820  1.0  -0.3165
  C  C125  1  0.449700  0.007080  0.765720  1.0  -0.044
  C  C126  1  0.458200  0.986140  0.822060  1.0  -0.0361
  C  C127  1  0.369680  0.982190  0.864450  1.0  -0.1515
  C  C128  1  0.269700  0.001500  0.849500  1.0  -0.0764
  C  C129  1  0.261900  0.024900  0.792900  1.0  -0.0148
  C  C130  1  0.376740  0.965230  0.925690  1.0  0.7118
  C  C131  1  0.034240  0.418560  0.143760  1.0  -0.3039
  C  C132  1  0.011730  0.331040  0.161100  1.0  -0.0353
  C  C133  1  0.084080  0.235640  0.136200  1.0  -0.0569
  C  C134  1  0.179040  0.227820  0.093900  1.0  -0.118
  C  C135  1  0.201560  0.315280  0.076600  1.0  -0.0302
  C  C136  1  0.129110  0.410680  0.101500  1.0  -0.0155
  C  C137  1  0.253150  0.122470  0.065230  1.0  0.7295
  C  C138  1  0.009630  0.632510  0.162430  1.0  -0.341
  C  C139  1  0.109000  0.589020  0.182780  1.0  -0.0518
  C  C140  1  0.175100  0.642900  0.170700  1.0  -0.0489
  C  C141  1  0.141990  0.740090  0.138330  1.0  -0.1268
  C  C142  1  0.042700  0.783600  0.118000  1.0  -0.0658
  C  C143  1  0.976500  0.729800  0.130000  1.0  -0.0436
  C  C144  1  0.215700  0.796000  0.122400  1.0  0.6511
  C  C145  1  0.806960  0.618330  0.134950  1.0  -0.3213
  C  C146  1  0.724000  0.722800  0.144400  1.0  -0.0364
  C  C147  1  0.634140  0.772020  0.116700  1.0  -0.0286
  C  C148  1  0.621320  0.718740  0.080020  1.0  -0.1326
  C  C149  1  0.702600  0.612200  0.071800  1.0  -0.0938
  C  C150  1  0.794300  0.565500  0.098300  1.0  -0.0192
  C  C151  1  0.523490  0.770690  0.051330  1.0  0.6523
  C  C152  1  0.871390  0.526400  0.249820  1.0  -0.3164
  C  C153  1  0.777500  0.507080  0.265720  1.0  -0.0452
  C  C154  1  0.733600  0.486140  0.322060  1.0  -0.0351
  C  C155  1  0.783680  0.482190  0.364450  1.0  -0.1499
  C  C156  1  0.879300  0.501500  0.349500  1.0  -0.0753
  C  C157  1  0.920300  0.524900  0.292900  1.0  -0.0168
  C  C158  1  0.732340  0.465230  0.425690  1.0  0.7121
  C  C159  1  0.596560  0.081440  0.356240  1.0  -0.3044
  C  C160  1  0.503870  0.168960  0.338900  1.0  -0.0362
  C  C161  1  0.455920  0.264360  0.363800  1.0  -0.0564
  C  C162  1  0.500760  0.272180  0.406100  1.0  -0.1179
  C  C163  1  0.593440  0.184720  0.423400  1.0  -0.0312
  C  C164  1  0.641290  0.089320  0.398500  1.0  -0.0174
  C  C165  1  0.440850  0.377530  0.434770  1.0  0.7318
  C  C166  1  0.804570  0.867490  0.337570  1.0  -0.3452
  C  C167  1  0.880800  0.910980  0.317220  1.0  -0.0513
  C  C168  1  0.988700  0.857100  0.329300  1.0  -0.0469
  C  C169  1  0.020410  0.759910  0.361670  1.0  -0.1275
  C  C170  1  0.944300  0.716400  0.382000  1.0  -0.0652
  C  C171  1  0.836300  0.770200  0.370000  1.0  -0.0487
  C  C172  1  0.134100  0.704000  0.377600  1.0  0.6518
  C  C173  1  0.560240  0.881670  0.365050  1.0  -0.3219
  C  C174  1  0.591200  0.777200  0.355600  1.0  -0.0369
  C  C175  1  0.522860  0.727980  0.383300  1.0  -0.0262
  C  C176  1  0.420080  0.781260  0.419980  1.0  -0.1312
  C  C177  1  0.386600  0.887800  0.428200  1.0  -0.0922
  C  C178  1  0.458100  0.934500  0.401700  1.0  -0.0184
  C  C179  1  0.345510  0.729310  0.448670  1.0  0.6522
  C  C180  1  0.647610  0.973600  0.250180  1.0  -0.3172
  C  C181  1  0.550300  0.992920  0.234280  1.0  -0.0427
  C  C182  1  0.541800  0.013860  0.177940  1.0  -0.0356
  C  C183  1  0.630320  0.017810  0.135550  1.0  -0.1508
  C  C184  1  0.730300  0.998500  0.150500  1.0  -0.0749
  C  C185  1  0.738100  0.975100  0.207100  1.0  -0.0138
  C  C186  1  0.623260  0.034770  0.074310  1.0  0.7118
  O  O187  1  0.776690  0.949420  0.918200  1.0  -0.573
  O  O188  1  0.661300  0.882600  0.972200  1.0  -0.6053
  O  O189  1  0.707200  0.225200  0.853400  1.0  -0.4618
  O  O190  1  0.789800  0.151000  0.927000  1.0  -0.5955
  O  O191  1  0.539260  0.127060  0.944220  1.0  -0.662
  O  O192  1  0.497890  0.281360  0.973660  1.0  -0.5031
  O  O193  1  0.364750  0.531530  0.565170  1.0  -0.6254
  O  O194  1  0.212610  0.550210  0.537370  1.0  -0.5786
  O  O195  1  0.644310  0.550580  0.581800  1.0  -0.5737
  O  O196  1  0.516100  0.617400  0.527800  1.0  -0.6054
  O  O197  1  0.785800  0.274800  0.646600  1.0  -0.4611
  O  O198  1  0.867800  0.349000  0.573000  1.0  -0.5937
  O  O199  1  0.610540  0.372940  0.555780  1.0  -0.6601
  O  O200  1  0.752910  0.218640  0.526340  1.0  -0.5004
  O  O201  1  0.461450  0.968470  0.934830  1.0  -0.6238
  O  O202  1  0.300190  0.949790  0.962630  1.0  -0.5766
  O  O203  1  0.223310  0.050580  0.081800  1.0  -0.572
  O  O204  1  0.338700  0.117400  0.027800  1.0  -0.6063
  O  O205  1  0.292800  0.774800  0.146600  1.0  -0.4612
  O  O206  1  0.210200  0.849000  0.073000  1.0  -0.5945
  O  O207  1  0.460740  0.872940  0.055780  1.0  -0.6615
  O  O208  1  0.502110  0.718640  0.026340  1.0  -0.5009
  O  O209  1  0.635250  0.468470  0.434830  1.0  -0.6235
  O  O210  1  0.787390  0.449790  0.462630  1.0  -0.5755
  O  O211  1  0.355690  0.449420  0.418200  1.0  -0.5724
  O  O212  1  0.483900  0.382600  0.472200  1.0  -0.6068
  O  O213  1  0.214200  0.725200  0.353400  1.0  -0.4596
  O  O214  1  0.132200  0.651000  0.427000  1.0  -0.5935
  O  O215  1  0.389460  0.627060  0.444220  1.0  -0.6611
  O  O216  1  0.247090  0.781360  0.473660  1.0  -0.4997
  O  O217  1  0.538550  0.031530  0.065170  1.0  -0.6222
  O  O218  1  0.699810  0.050210  0.037370  1.0  -0.5749
