# generated using pymatgen
data_Mn3H36C60N12Cl5
_symmetry_space_group_name_H-M   'P 1'
_cell_length_a   17.44210000
_cell_length_b   17.44210000
_cell_length_c   26.68200000
_cell_angle_alpha   90.03260000
_cell_angle_beta   90.03260000
_cell_angle_gamma   98.72120000
_symmetry_Int_Tables_number   1
_chemical_formula_structural   Mn3H36C60N12Cl5
_chemical_formula_sum   'Mn12 H144 C240 N48 Cl20'
_cell_volume   8023.52344837
_cell_formula_units_Z   4
loop_
 _symmetry_equiv_pos_site_id
 _symmetry_equiv_pos_as_xyz
  1  'x, y, z'
loop_
 _atom_site_type_symbol
 _atom_site_label
 _atom_site_symmetry_multiplicity
 _atom_site_fract_x
 _atom_site_fract_y
 _atom_site_fract_z
 _atom_site_occupancy
 _atom_site_charge
  Mn  Mn1  1  0.768400  0.730800  0.249530  1.0  0.8702
  Mn  Mn2  1  0.269200  0.231600  0.250470  1.0  0.8712
  Mn  Mn3  1  0.231600  0.269200  0.750470  1.0  0.8711
  Mn  Mn4  1  0.730800  0.768400  0.749530  1.0  0.8708
  Mn  Mn5  1  0.500000  0.500000  0.500000  1.0  0.8638
  Mn  Mn6  1  0.500000  0.500000  0.000000  1.0  0.8638
  Mn  Mn7  1  0.000000  0.000000  0.500000  1.0  0.9036
  Mn  Mn8  1  0.000000  0.000000  0.000000  1.0  0.9036
  Mn  Mn9  1  0.000000  0.500000  0.500000  1.0  0.9785
  Mn  Mn10  1  0.500000  0.000000  0.000000  1.0  0.9785
  Mn  Mn11  1  0.500000  0.000000  0.500000  1.0  0.7567
  Mn  Mn12  1  0.000000  0.500000  0.000000  1.0  0.7567
  H  H13  1  0.666500  0.407900  0.359800  1.0  0.1224
  H  H14  1  0.571300  0.292500  0.379900  1.0  0.1268
  H  H15  1  0.644400  0.776200  0.481400  1.0  0.1143
  H  H16  1  0.703100  0.704500  0.416500  1.0  0.1251
  H  H17  1  0.671000  0.634400  0.331600  1.0  0.0891
  H  H18  1  0.889100  0.620700  0.300500  1.0  0.0878
  H  H19  1  0.895000  0.532600  0.364100  1.0  0.1105
  H  H20  1  0.786900  0.496500  0.415400  1.0  0.1235
  H  H21  1  0.498500  0.819300  0.504400  1.0  0.0852
  H  H22  1  0.594100  0.970500  0.603500  1.0  0.0845
  H  H23  1  0.634500  0.873900  0.651400  1.0  0.1206
  H  H24  1  0.605200  0.743800  0.624700  1.0  0.1185
  H  H25  1  0.062100  0.810700  0.636200  1.0  0.1103
  H  H26  1  0.189000  0.888400  0.617000  1.0  0.1219
  H  H27  1  0.712600  0.884200  0.509200  1.0  0.1092
  H  H28  1  0.773600  0.812600  0.574200  1.0  0.1142
  H  H29  1  0.319300  0.978900  0.502900  1.0  0.0904
  H  H30  1  0.465300  0.047300  0.611700  1.0  0.0813
  H  H31  1  0.366300  0.069700  0.663700  1.0  0.1178
  H  H32  1  0.237000  0.045200  0.634600  1.0  0.1224
  H  H33  1  0.846600  0.855600  0.663600  1.0  0.0872
  H  H34  1  0.811100  0.635100  0.700700  1.0  0.0828
  H  H35  1  0.897200  0.605000  0.640900  1.0  0.1146
  H  H36  1  0.955600  0.702800  0.586600  1.0  0.1111
  H  H37  1  0.875000  0.265800  0.604400  1.0  0.1268
  H  H38  1  0.775400  0.353000  0.602800  1.0  0.1192
  H  H39  1  0.757100  0.630700  0.524800  1.0  0.1198
  H  H40  1  0.843700  0.724300  0.472900  1.0  0.121
  H  H41  1  0.679100  0.479700  0.505100  1.0  0.0875
  H  H42  1  0.539600  0.490000  0.619000  1.0  0.076
  H  H43  1  0.640700  0.496100  0.675200  1.0  0.1171
  H  H44  1  0.767500  0.497900  0.645200  1.0  0.1184
  H  H45  1  0.017700  0.816700  0.490400  1.0  0.0804
  H  H46  1  0.973800  0.955400  0.382000  1.0  0.0746
  H  H47  1  0.943900  0.851700  0.327400  1.0  0.1141
  H  H48  1  0.948400  0.725800  0.356400  1.0  0.1041
  H  H49  1  0.592100  0.333500  0.140200  1.0  0.1224
  H  H50  1  0.707500  0.428700  0.120100  1.0  0.128
  H  H51  1  0.223800  0.355600  0.018600  1.0  0.1145
  H  H52  1  0.295500  0.296900  0.083500  1.0  0.1254
  H  H53  1  0.365600  0.329000  0.168400  1.0  0.0905
  H  H54  1  0.379300  0.110900  0.199500  1.0  0.0878
  H  H55  1  0.467400  0.105000  0.135900  1.0  0.1114
  H  H56  1  0.503500  0.213100  0.084600  1.0  0.1247
  H  H57  1  0.180700  0.501500  0.995600  1.0  0.0843
  H  H58  1  0.029500  0.405900  0.896500  1.0  0.0827
  H  H59  1  0.126100  0.365500  0.848600  1.0  0.1202
  H  H60  1  0.256200  0.394800  0.875300  1.0  0.1178
  H  H61  1  0.189300  0.937900  0.863800  1.0  0.1101
  H  H62  1  0.111600  0.811000  0.883000  1.0  0.1206
  H  H63  1  0.115800  0.287400  0.990800  1.0  0.1102
  H  H64  1  0.187400  0.226400  0.925800  1.0  0.1135
  H  H65  1  0.021100  0.680700  0.997100  1.0  0.0902
  H  H66  1  0.952700  0.534700  0.888300  1.0  0.0822
  H  H67  1  0.930300  0.633700  0.836300  1.0  0.1177
  H  H68  1  0.954800  0.763000  0.865400  1.0  0.1224
  H  H69  1  0.144400  0.153400  0.836400  1.0  0.0848
  H  H70  1  0.364900  0.188900  0.799300  1.0  0.0835
  H  H71  1  0.395000  0.102800  0.859100  1.0  0.1136
  H  H72  1  0.297200  0.044400  0.913400  1.0  0.1094
  H  H73  1  0.734200  0.125000  0.895600  1.0  0.127
  H  H74  1  0.647000  0.224600  0.897200  1.0  0.1183
  H  H75  1  0.369300  0.242900  0.975200  1.0  0.1198
  H  H76  1  0.275700  0.156300  0.027100  1.0  0.1194
  H  H77  1  0.520300  0.320900  0.994900  1.0  0.0872
  H  H78  1  0.510000  0.460400  0.881000  1.0  0.0752
  H  H79  1  0.503900  0.359300  0.824800  1.0  0.1167
  H  H80  1  0.502100  0.232500  0.854800  1.0  0.1183
  H  H81  1  0.183300  0.982300  0.009600  1.0  0.0807
  H  H82  1  0.044600  0.026200  0.118000  1.0  0.0754
  H  H83  1  0.148300  0.056100  0.172600  1.0  0.114
  H  H84  1  0.274200  0.051600  0.143600  1.0  0.1048
  H  H85  1  0.333500  0.592100  0.640200  1.0  0.1238
  H  H86  1  0.428700  0.707500  0.620100  1.0  0.1278
  H  H87  1  0.355600  0.223800  0.518600  1.0  0.1137
  H  H88  1  0.296900  0.295500  0.583500  1.0  0.1252
  H  H89  1  0.329000  0.365600  0.668400  1.0  0.0904
  H  H90  1  0.110900  0.379300  0.699500  1.0  0.0874
  H  H91  1  0.105000  0.467400  0.635900  1.0  0.1114
  H  H92  1  0.213100  0.503500  0.584600  1.0  0.1234
  H  H93  1  0.501500  0.180700  0.495600  1.0  0.0849
  H  H94  1  0.405900  0.029500  0.396500  1.0  0.0847
  H  H95  1  0.365500  0.126100  0.348600  1.0  0.1206
  H  H96  1  0.394800  0.256200  0.375300  1.0  0.1184
  H  H97  1  0.937900  0.189300  0.363800  1.0  0.1097
  H  H98  1  0.811000  0.111600  0.383000  1.0  0.1219
  H  H99  1  0.287400  0.115800  0.490800  1.0  0.1096
  H  H100  1  0.226400  0.187400  0.425800  1.0  0.113
  H  H101  1  0.680700  0.021100  0.497100  1.0  0.0912
  H  H102  1  0.534700  0.952700  0.388300  1.0  0.0819
  H  H103  1  0.633700  0.930300  0.336300  1.0  0.1175
  H  H104  1  0.763000  0.954800  0.365400  1.0  0.1219
  H  H105  1  0.153400  0.144400  0.336400  1.0  0.0861
  H  H106  1  0.188900  0.364900  0.299300  1.0  0.0835
  H  H107  1  0.102800  0.395000  0.359100  1.0  0.1146
  H  H108  1  0.044400  0.297200  0.413400  1.0  0.1097
  H  H109  1  0.125000  0.734200  0.395600  1.0  0.1265
  H  H110  1  0.224600  0.647000  0.397200  1.0  0.119
  H  H111  1  0.242900  0.369300  0.475200  1.0  0.1198
  H  H112  1  0.156300  0.275700  0.527100  1.0  0.1208
  H  H113  1  0.320900  0.520300  0.494900  1.0  0.0866
  H  H114  1  0.460400  0.510000  0.381000  1.0  0.076
  H  H115  1  0.359300  0.503900  0.324800  1.0  0.1166
  H  H116  1  0.232500  0.502100  0.354800  1.0  0.1188
  H  H117  1  0.982300  0.183300  0.509600  1.0  0.0804
  H  H118  1  0.026200  0.044600  0.618000  1.0  0.0753
  H  H119  1  0.056100  0.148300  0.672600  1.0  0.1144
  H  H120  1  0.051600  0.274200  0.643600  1.0  0.1044
  H  H121  1  0.407900  0.666500  0.859800  1.0  0.1218
  H  H122  1  0.292500  0.571300  0.879900  1.0  0.128
  H  H123  1  0.776200  0.644400  0.981400  1.0  0.1141
  H  H124  1  0.704500  0.703100  0.916500  1.0  0.1251
  H  H125  1  0.634400  0.671000  0.831600  1.0  0.089
  H  H126  1  0.620700  0.889100  0.800500  1.0  0.0883
  H  H127  1  0.532600  0.895000  0.864100  1.0  0.1115
  H  H128  1  0.496500  0.786900  0.915400  1.0  0.1238
  H  H129  1  0.819300  0.498500  0.004400  1.0  0.0846
  H  H130  1  0.970500  0.594100  0.103500  1.0  0.0825
  H  H131  1  0.873900  0.634500  0.151400  1.0  0.1197
  H  H132  1  0.743800  0.605200  0.124700  1.0  0.1174
  H  H133  1  0.810700  0.062100  0.136200  1.0  0.1118
  H  H134  1  0.888400  0.189000  0.117000  1.0  0.1213
  H  H135  1  0.884200  0.712600  0.009200  1.0  0.1096
  H  H136  1  0.812600  0.773600  0.074200  1.0  0.1137
  H  H137  1  0.978900  0.319300  0.002900  1.0  0.0914
  H  H138  1  0.047300  0.465300  0.111700  1.0  0.0829
  H  H139  1  0.069700  0.366300  0.163700  1.0  0.118
  H  H140  1  0.045200  0.237000  0.134600  1.0  0.1233
  H  H141  1  0.855600  0.846600  0.163600  1.0  0.0851
  H  H142  1  0.635100  0.811100  0.200700  1.0  0.0829
  H  H143  1  0.605000  0.897200  0.140900  1.0  0.1132
  H  H144  1  0.702800  0.955600  0.086600  1.0  0.1098
  H  H145  1  0.265800  0.875000  0.104400  1.0  0.1275
  H  H146  1  0.353000  0.775400  0.102800  1.0  0.1186
  H  H147  1  0.630700  0.757100  0.024800  1.0  0.1204
  H  H148  1  0.724300  0.843700  0.972900  1.0  0.1216
  H  H149  1  0.479700  0.679100  0.005100  1.0  0.0873
  H  H150  1  0.490000  0.539600  0.119000  1.0  0.0754
  H  H151  1  0.496100  0.640700  0.175200  1.0  0.1161
  H  H152  1  0.497900  0.767500  0.145200  1.0  0.1177
  H  H153  1  0.816700  0.017700  0.990400  1.0  0.0805
  H  H154  1  0.955400  0.973800  0.882000  1.0  0.0749
  H  H155  1  0.851700  0.943900  0.827400  1.0  0.1136
  H  H156  1  0.725800  0.948400  0.856400  1.0  0.1041
  C  C157  1  0.609740  0.467500  0.415340  1.0  0.1663
  C  C158  1  0.626380  0.405140  0.384060  1.0  -0.1513
  C  C159  1  0.575080  0.342060  0.395260  1.0  -0.1571
  C  C160  1  0.472710  0.636430  0.565330  1.0  0.1411
  C  C161  1  0.531520  0.688320  0.540900  1.0  -0.0724
  C  C162  1  0.572840  0.669200  0.499270  1.0  0.1913
  C  C163  1  0.630970  0.722510  0.474100  1.0  -0.1498
  C  C164  1  0.662810  0.683630  0.438770  1.0  -0.1786
  C  C165  1  0.625490  0.604930  0.440260  1.0  0.132
  C  C166  1  0.647390  0.543590  0.411860  1.0  -0.105
  C  C167  1  0.716570  0.562350  0.378920  1.0  0.0617
  C  C168  1  0.717190  0.613770  0.338870  1.0  0.176
  C  C169  1  0.844380  0.605420  0.320440  1.0  0.151
  C  C170  1  0.848540  0.553460  0.358490  1.0  -0.1224
  C  C171  1  0.784620  0.531800  0.388530  1.0  -0.0836
  C  C172  1  0.549640  0.768180  0.560700  1.0  0.0887
  C  C173  1  0.526950  0.830030  0.534640  1.0  0.1603
  C  C174  1  0.582330  0.918270  0.592440  1.0  0.1575
  C  C175  1  0.606580  0.861220  0.621190  1.0  -0.1429
  C  C176  1  0.589580  0.784420  0.605260  1.0  -0.0951
  C  C177  1  0.014670  0.879930  0.581950  1.0  0.1801
  C  C178  1  0.071460  0.851740  0.612610  1.0  -0.1606
  C  C179  1  0.140690  0.893950  0.602050  1.0  -0.1534
  C  C180  1  0.128140  0.948760  0.564140  1.0  0.1706
  C  C181  1  0.186260  0.003000  0.542910  1.0  -0.0866
  C  C182  1  0.173740  0.051620  0.503170  1.0  0.2221
  C  C183  1  0.765850  0.892190  0.518310  1.0  -0.1727
  C  C184  1  0.799220  0.853120  0.553710  1.0  -0.168
  C  C185  1  0.879770  0.883470  0.555010  1.0  0.15
  C  C186  1  0.934860  0.853920  0.584320  1.0  -0.102
  C  C187  1  0.264930  0.011350  0.564440  1.0  0.087
  C  C188  1  0.328460  0.998120  0.536050  1.0  0.1546
  C  C189  1  0.413590  0.037410  0.599490  1.0  0.1628
  C  C190  1  0.355200  0.051000  0.630630  1.0  -0.1329
  C  C191  1  0.278710  0.037090  0.613350  1.0  -0.0777
  C  C192  1  0.905360  0.789080  0.618470  1.0  0.0658
  C  C193  1  0.855730  0.803950  0.658250  1.0  0.1634
  C  C194  1  0.836580  0.675620  0.680210  1.0  0.1453
  C  C195  1  0.886680  0.656720  0.643990  1.0  -0.1149
  C  C196  1  0.921370  0.714290  0.612260  1.0  -0.0759
  C  C197  1  0.944870  0.352570  0.559870  1.0  0.2063
  C  C198  1  0.879280  0.314780  0.588270  1.0  -0.1575
  C  C199  1  0.825080  0.362540  0.587450  1.0  -0.1726
  C  C200  1  0.856070  0.430430  0.559310  1.0  0.1507
  C  C201  1  0.816400  0.492820  0.549210  1.0  -0.0695
  C  C202  1  0.845880  0.557160  0.520560  1.0  0.1925
  C  C203  1  0.806790  0.624250  0.512490  1.0  -0.1734
  C  C204  1  0.854120  0.675380  0.484410  1.0  -0.1628
  C  C205  1  0.924000  0.641860  0.475110  1.0  0.1817
  C  C206  1  0.988110  0.678790  0.447980  1.0  -0.1024
  C  C207  1  0.736820  0.489360  0.571300  1.0  0.0715
  C  C208  1  0.671850  0.484170  0.540170  1.0  0.1686
  C  C209  1  0.590440  0.489600  0.606380  1.0  0.1657
  C  C210  1  0.650400  0.493680  0.640260  1.0  -0.1195
  C  C211  1  0.724980  0.494240  0.622630  1.0  -0.0584
  C  C212  1  0.982630  0.757490  0.426960  1.0  0.0819
  C  C213  1  0.001310  0.823370  0.456950  1.0  0.1661
  C  C214  1  0.976450  0.904550  0.393860  1.0  0.1646
  C  C215  1  0.958270  0.843130  0.361100  1.0  -0.132
  C  C216  1  0.961150  0.768850  0.378240  1.0  -0.0674
  C  C217  1  0.532500  0.390260  0.084660  1.0  0.1637
  C  C218  1  0.594860  0.373620  0.115940  1.0  -0.1493
  C  C219  1  0.657940  0.424920  0.104740  1.0  -0.1533
  C  C220  1  0.363570  0.527290  0.934670  1.0  0.1416
  C  C221  1  0.311680  0.468480  0.959100  1.0  -0.0721
  C  C222  1  0.330800  0.427160  0.000730  1.0  0.1926
  C  C223  1  0.277490  0.369030  0.025900  1.0  -0.1512
  C  C224  1  0.316370  0.337190  0.061230  1.0  -0.1788
  C  C225  1  0.395070  0.374510  0.059740  1.0  0.1317
  C  C226  1  0.456410  0.352610  0.088140  1.0  -0.1068
  C  C227  1  0.437650  0.283430  0.121080  1.0  0.062
  C  C228  1  0.386230  0.282810  0.161130  1.0  0.1757
  C  C229  1  0.394580  0.155620  0.179560  1.0  0.1489
  C  C230  1  0.446540  0.151460  0.141510  1.0  -0.1234
  C  C231  1  0.468200  0.215380  0.111470  1.0  -0.0822
  C  C232  1  0.231820  0.450360  0.939300  1.0  0.0897
  C  C233  1  0.169970  0.473050  0.965360  1.0  0.1585
  C  C234  1  0.081730  0.417670  0.907560  1.0  0.1609
  C  C235  1  0.138780  0.393420  0.878810  1.0  -0.141
  C  C236  1  0.215580  0.410420  0.894740  1.0  -0.0925
  C  C237  1  0.120070  0.985330  0.918050  1.0  0.1816
  C  C238  1  0.148260  0.928540  0.887390  1.0  -0.1594
  C  C239  1  0.106050  0.859310  0.897950  1.0  -0.1541
  C  C240  1  0.051240  0.871860  0.935860  1.0  0.1704
  C  C241  1  0.997000  0.813740  0.957090  1.0  -0.0855
  C  C242  1  0.948380  0.826260  0.996830  1.0  0.2227
  C  C243  1  0.107810  0.234150  0.981690  1.0  -0.1713
  C  C244  1  0.146880  0.200780  0.946290  1.0  -0.1651
  C  C245  1  0.116530  0.120230  0.944990  1.0  0.1486
  C  C246  1  0.146080  0.065140  0.915680  1.0  -0.1014
  C  C247  1  0.988650  0.735070  0.935560  1.0  0.0866
  C  C248  1  0.001880  0.671540  0.963950  1.0  0.1582
  C  C249  1  0.962590  0.586410  0.900510  1.0  0.1612
  C  C250  1  0.949000  0.644800  0.869370  1.0  -0.1334
  C  C251  1  0.962910  0.721290  0.886650  1.0  -0.076
  C  C252  1  0.210920  0.094640  0.881530  1.0  0.0666
  C  C253  1  0.196050  0.144270  0.841750  1.0  0.1641
  C  C254  1  0.324380  0.163420  0.819790  1.0  0.146
  C  C255  1  0.343280  0.113320  0.856010  1.0  -0.1173
  C  C256  1  0.285710  0.078630  0.887740  1.0  -0.0757
  C  C257  1  0.647430  0.055130  0.940130  1.0  0.2061
  C  C258  1  0.685220  0.120720  0.911730  1.0  -0.1576
  C  C259  1  0.637460  0.174920  0.912550  1.0  -0.1693
  C  C260  1  0.569570  0.143930  0.940690  1.0  0.1509
  C  C261  1  0.507180  0.183600  0.950790  1.0  -0.0694
  C  C262  1  0.442840  0.154120  0.979440  1.0  0.1909
  C  C263  1  0.375750  0.193210  0.987510  1.0  -0.1721
  C  C264  1  0.324620  0.145880  0.015590  1.0  -0.1642
  C  C265  1  0.358140  0.076000  0.024890  1.0  0.1811
  C  C266  1  0.321210  0.011890  0.052020  1.0  -0.1045
  C  C267  1  0.510640  0.263180  0.928700  1.0  0.0704
  C  C268  1  0.515830  0.328150  0.959830  1.0  0.1687
  C  C269  1  0.510400  0.409560  0.893620  1.0  0.1635
  C  C270  1  0.506320  0.349600  0.859740  1.0  -0.1166
  C  C271  1  0.505760  0.275020  0.877370  1.0  -0.061
  C  C272  1  0.242510  0.017370  0.073040  1.0  0.0806
  C  C273  1  0.176630  0.998690  0.043050  1.0  0.1648
  C  C274  1  0.095450  0.023550  0.106140  1.0  0.1656
  C  C275  1  0.156870  0.041730  0.138900  1.0  -0.1345
  C  C276  1  0.231150  0.038850  0.121760  1.0  -0.0695
  C  C277  1  0.390260  0.532500  0.584660  1.0  0.1652
  C  C278  1  0.373620  0.594860  0.615940  1.0  -0.1538
  C  C279  1  0.424920  0.657940  0.604740  1.0  -0.1554
  C  C280  1  0.527290  0.363570  0.434670  1.0  0.1415
  C  C281  1  0.468480  0.311680  0.459100  1.0  -0.0713
  C  C282  1  0.427160  0.330800  0.500730  1.0  0.1918
  C  C283  1  0.369030  0.277490  0.525900  1.0  -0.149
  C  C284  1  0.337190  0.316370  0.561230  1.0  -0.1771
  C  C285  1  0.374510  0.395070  0.559740  1.0  0.1318
  C  C286  1  0.352610  0.456410  0.588140  1.0  -0.1063
  C  C287  1  0.283430  0.437650  0.621080  1.0  0.0621
  C  C288  1  0.282810  0.386230  0.661130  1.0  0.1754
  C  C289  1  0.155620  0.394580  0.679560  1.0  0.1485
  C  C290  1  0.151460  0.446540  0.641510  1.0  -0.124
  C  C291  1  0.215380  0.468200  0.611470  1.0  -0.0856
  C  C292  1  0.450360  0.231820  0.439300  1.0  0.0893
  C  C293  1  0.473050  0.169970  0.465360  1.0  0.1609
  C  C294  1  0.417670  0.081730  0.407560  1.0  0.1579
  C  C295  1  0.393420  0.138780  0.378810  1.0  -0.1421
  C  C296  1  0.410420  0.215580  0.394740  1.0  -0.093
  C  C297  1  0.985330  0.120070  0.418050  1.0  0.1806
  C  C298  1  0.928540  0.148260  0.387390  1.0  -0.1564
  C  C299  1  0.859310  0.106050  0.397950  1.0  -0.1546
  C  C300  1  0.871860  0.051240  0.435860  1.0  0.1704
  C  C301  1  0.813740  0.997000  0.457090  1.0  -0.0859
  C  C302  1  0.826260  0.948380  0.496830  1.0  0.2215
  C  C303  1  0.234150  0.107810  0.481690  1.0  -0.1738
  C  C304  1  0.200780  0.146880  0.446290  1.0  -0.166
  C  C305  1  0.120230  0.116530  0.444990  1.0  0.1485
  C  C306  1  0.065140  0.146080  0.415680  1.0  -0.1
  C  C307  1  0.735070  0.988650  0.435560  1.0  0.0844
  C  C308  1  0.671540  0.001880  0.463950  1.0  0.1546
  C  C309  1  0.586410  0.962590  0.400510  1.0  0.1626
  C  C310  1  0.644800  0.949000  0.369370  1.0  -0.1322
  C  C311  1  0.721290  0.962910  0.386650  1.0  -0.0747
  C  C312  1  0.094640  0.210920  0.381530  1.0  0.0653
  C  C313  1  0.144270  0.196050  0.341750  1.0  0.1636
  C  C314  1  0.163420  0.324380  0.319790  1.0  0.1454
  C  C315  1  0.113320  0.343280  0.356010  1.0  -0.1164
  C  C316  1  0.078630  0.285710  0.387740  1.0  -0.0764
  C  C317  1  0.055130  0.647430  0.440130  1.0  0.206
  C  C318  1  0.120720  0.685220  0.411730  1.0  -0.157
  C  C319  1  0.174920  0.637460  0.412550  1.0  -0.172
  C  C320  1  0.143930  0.569570  0.440690  1.0  0.1502
  C  C321  1  0.183600  0.507180  0.450790  1.0  -0.0676
  C  C322  1  0.154120  0.442840  0.479440  1.0  0.1911
  C  C323  1  0.193210  0.375750  0.487510  1.0  -0.1744
  C  C324  1  0.145880  0.324620  0.515590  1.0  -0.164
  C  C325  1  0.076000  0.358140  0.524890  1.0  0.1805
  C  C326  1  0.011890  0.321210  0.552020  1.0  -0.1035
  C  C327  1  0.263180  0.510640  0.428700  1.0  0.0709
  C  C328  1  0.328150  0.515830  0.459830  1.0  0.1672
  C  C329  1  0.409560  0.510400  0.393620  1.0  0.1655
  C  C330  1  0.349600  0.506320  0.359740  1.0  -0.119
  C  C331  1  0.275020  0.505760  0.377370  1.0  -0.0568
  C  C332  1  0.017370  0.242510  0.573040  1.0  0.0806
  C  C333  1  0.998690  0.176630  0.543050  1.0  0.1656
  C  C334  1  0.023550  0.095450  0.606140  1.0  0.1651
  C  C335  1  0.041730  0.156870  0.638900  1.0  -0.1335
  C  C336  1  0.038850  0.231150  0.621760  1.0  -0.0698
  C  C337  1  0.467500  0.609740  0.915340  1.0  0.1645
  C  C338  1  0.405140  0.626380  0.884060  1.0  -0.1475
  C  C339  1  0.342060  0.575080  0.895260  1.0  -0.1539
  C  C340  1  0.636430  0.472710  0.065330  1.0  0.1434
  C  C341  1  0.688320  0.531520  0.040900  1.0  -0.0727
  C  C342  1  0.669200  0.572840  0.999270  1.0  0.1915
  C  C343  1  0.722510  0.630970  0.974100  1.0  -0.1511
  C  C344  1  0.683630  0.662810  0.938770  1.0  -0.1799
  C  C345  1  0.604930  0.625490  0.940260  1.0  0.1319
  C  C346  1  0.543590  0.647390  0.911860  1.0  -0.1044
  C  C347  1  0.562350  0.716570  0.878920  1.0  0.061
  C  C348  1  0.613770  0.717190  0.838870  1.0  0.177
  C  C349  1  0.605420  0.844380  0.820440  1.0  0.1505
  C  C350  1  0.553460  0.848540  0.858490  1.0  -0.1199
  C  C351  1  0.531800  0.784620  0.888530  1.0  -0.0813
  C  C352  1  0.768180  0.549640  0.060700  1.0  0.089
  C  C353  1  0.830030  0.526950  0.034640  1.0  0.1586
  C  C354  1  0.918270  0.582330  0.092440  1.0  0.1614
  C  C355  1  0.861220  0.606580  0.121190  1.0  -0.1415
  C  C356  1  0.784420  0.589580  0.105260  1.0  -0.096
  C  C357  1  0.879930  0.014670  0.081950  1.0  0.1801
  C  C358  1  0.851740  0.071460  0.112610  1.0  -0.162
  C  C359  1  0.893950  0.140690  0.102050  1.0  -0.1554
  C  C360  1  0.948760  0.128140  0.064140  1.0  0.1685
  C  C361  1  0.003000  0.186260  0.042910  1.0  -0.0854
  C  C362  1  0.051620  0.173740  0.003170  1.0  0.2223
  C  C363  1  0.892190  0.765850  0.018310  1.0  -0.1719
  C  C364  1  0.853120  0.799220  0.053710  1.0  -0.1667
  C  C365  1  0.883470  0.879770  0.055010  1.0  0.1501
  C  C366  1  0.853920  0.934860  0.084320  1.0  -0.103
  C  C367  1  0.011350  0.264930  0.064440  1.0  0.0867
  C  C368  1  0.998120  0.328460  0.036050  1.0  0.1557
  C  C369  1  0.037410  0.413590  0.099490  1.0  0.1614
  C  C370  1  0.051000  0.355200  0.130630  1.0  -0.134
  C  C371  1  0.037090  0.278710  0.113350  1.0  -0.0764
  C  C372  1  0.789080  0.905360  0.118470  1.0  0.0665
  C  C373  1  0.803950  0.855730  0.158250  1.0  0.1629
  C  C374  1  0.675620  0.836580  0.180210  1.0  0.1464
  C  C375  1  0.656720  0.886680  0.143990  1.0  -0.1188
  C  C376  1  0.714290  0.921370  0.112260  1.0  -0.0788
  C  C377  1  0.352570  0.944870  0.059870  1.0  0.2056
  C  C378  1  0.314780  0.879280  0.088270  1.0  -0.1597
  C  C379  1  0.362540  0.825080  0.087450  1.0  -0.1693
  C  C380  1  0.430430  0.856070  0.059310  1.0  0.1511
  C  C381  1  0.492820  0.816400  0.049210  1.0  -0.0677
  C  C382  1  0.557160  0.845880  0.020560  1.0  0.191
  C  C383  1  0.624250  0.806790  0.012490  1.0  -0.1718
  C  C384  1  0.675380  0.854120  0.984410  1.0  -0.1637
  C  C385  1  0.641860  0.924000  0.975110  1.0  0.1808
  C  C386  1  0.678790  0.988110  0.947980  1.0  -0.1034
  C  C387  1  0.489360  0.736820  0.071300  1.0  0.0716
  C  C388  1  0.484170  0.671850  0.040170  1.0  0.1684
  C  C389  1  0.489600  0.590440  0.106380  1.0  0.1663
  C  C390  1  0.493680  0.650400  0.140260  1.0  -0.1162
  C  C391  1  0.494240  0.724980  0.122630  1.0  -0.0606
  C  C392  1  0.757490  0.982630  0.926960  1.0  0.0826
  C  C393  1  0.823370  0.001310  0.956950  1.0  0.1639
  C  C394  1  0.904550  0.976450  0.893860  1.0  0.1644
  C  C395  1  0.843130  0.958270  0.861100  1.0  -0.1327
  C  C396  1  0.768850  0.961150  0.878240  1.0  -0.0668
  N  N397  1  0.451120  0.559580  0.553160  1.0  -0.3659
  N  N398  1  0.568020  0.596960  0.477260  1.0  -0.4374
  N  N399  1  0.779460  0.635660  0.310080  1.0  -0.3642
  N  N400  1  0.542960  0.903880  0.549820  1.0  -0.3455
  N  N401  1  0.050430  0.938570  0.551480  1.0  -0.3508
  N  N402  1  0.104500  0.056280  0.479780  1.0  -0.4397
  N  N403  1  0.401600  0.010760  0.552440  1.0  -0.3365
  N  N404  1  0.821460  0.748020  0.688360  1.0  -0.3486
  N  N405  1  0.929930  0.423810  0.542420  1.0  -0.4194
  N  N406  1  0.917110  0.569850  0.497260  1.0  -0.4024
  N  N407  1  0.599160  0.485140  0.557340  1.0  -0.3566
  N  N408  1  0.997240  0.896020  0.440920  1.0  -0.3574
  N  N409  1  0.440420  0.548880  0.946840  1.0  -0.3649
  N  N410  1  0.403040  0.431980  0.022740  1.0  -0.4441
  N  N411  1  0.364340  0.220540  0.189920  1.0  -0.3627
  N  N412  1  0.096120  0.457040  0.950180  1.0  -0.3464
  N  N413  1  0.061430  0.949570  0.948520  1.0  -0.35
  N  N414  1  0.943720  0.895500  0.020220  1.0  -0.4383
  N  N415  1  0.989240  0.598400  0.947560  1.0  -0.3376
  N  N416  1  0.251980  0.178540  0.811640  1.0  -0.3497
  N  N417  1  0.576190  0.070070  0.957580  1.0  -0.4202
  N  N418  1  0.430150  0.082890  0.002740  1.0  -0.4019
  N  N419  1  0.514860  0.400840  0.942660  1.0  -0.3572
  N  N420  1  0.103980  0.002760  0.059080  1.0  -0.3575
  N  N421  1  0.548880  0.440420  0.446840  1.0  -0.3649
  N  N422  1  0.431980  0.403040  0.522740  1.0  -0.4385
  N  N423  1  0.220540  0.364340  0.689920  1.0  -0.3652
  N  N424  1  0.457040  0.096120  0.450180  1.0  -0.3433
  N  N425  1  0.949570  0.061430  0.448520  1.0  -0.3504
  N  N426  1  0.895500  0.943720  0.520220  1.0  -0.4425
  N  N427  1  0.598400  0.989240  0.447560  1.0  -0.3371
  N  N428  1  0.178540  0.251980  0.311640  1.0  -0.3486
  N  N429  1  0.070070  0.576190  0.457580  1.0  -0.4202
  N  N430  1  0.082890  0.430150  0.502740  1.0  -0.4051
  N  N431  1  0.400840  0.514860  0.442660  1.0  -0.3561
  N  N432  1  0.002760  0.103980  0.559080  1.0  -0.3553
  N  N433  1  0.559580  0.451120  0.053160  1.0  -0.3661
  N  N434  1  0.596960  0.568020  0.977260  1.0  -0.4399
  N  N435  1  0.635660  0.779460  0.810080  1.0  -0.3597
  N  N436  1  0.903880  0.542960  0.049820  1.0  -0.344
  N  N437  1  0.938570  0.050430  0.051480  1.0  -0.3511
  N  N438  1  0.056280  0.104500  0.979780  1.0  -0.4371
  N  N439  1  0.010760  0.401600  0.052440  1.0  -0.3388
  N  N440  1  0.748020  0.821460  0.188360  1.0  -0.3494
  N  N441  1  0.423810  0.929930  0.042420  1.0  -0.4195
  N  N442  1  0.569850  0.917110  0.997260  1.0  -0.4047
  N  N443  1  0.485140  0.599160  0.057340  1.0  -0.3572
  N  N444  1  0.896020  0.997240  0.940920  1.0  -0.3575
  Cl  Cl445  1  0.049240  0.575600  0.579000  1.0  -0.5797
  Cl  Cl446  1  0.665760  0.648220  0.208050  1.0  -0.5157
  Cl  Cl447  1  0.904110  0.739910  0.230730  1.0  -0.4922
  Cl  Cl448  1  0.727900  0.807840  0.314750  1.0  -0.54
  Cl  Cl449  1  0.587010  0.101750  0.548810  1.0  -0.5542
  Cl  Cl450  1  0.424400  0.950760  0.921000  1.0  -0.5801
  Cl  Cl451  1  0.351780  0.334240  0.291950  1.0  -0.5138
  Cl  Cl452  1  0.260090  0.095890  0.269270  1.0  -0.4922
  Cl  Cl453  1  0.192160  0.272100  0.185250  1.0  -0.5394
  Cl  Cl454  1  0.898250  0.412990  0.951190  1.0  -0.5584
  Cl  Cl455  1  0.950760  0.424400  0.421000  1.0  -0.5807
  Cl  Cl456  1  0.334240  0.351780  0.791950  1.0  -0.5131
  Cl  Cl457  1  0.095890  0.260090  0.769270  1.0  -0.4937
  Cl  Cl458  1  0.272100  0.192160  0.685250  1.0  -0.54
  Cl  Cl459  1  0.412990  0.898250  0.451190  1.0  -0.5569
  Cl  Cl460  1  0.575600  0.049240  0.079000  1.0  -0.579
  Cl  Cl461  1  0.648220  0.665760  0.708050  1.0  -0.5161
  Cl  Cl462  1  0.739910  0.904110  0.730730  1.0  -0.4921
  Cl  Cl463  1  0.807840  0.727900  0.814750  1.0  -0.5404
  Cl  Cl464  1  0.101750  0.587010  0.048810  1.0  -0.555
