# generated using pymatgen
data_TmH7C16(NO4)2
_symmetry_space_group_name_H-M   'P 1'
_cell_length_a   5.01560000
_cell_length_b   18.67500000
_cell_length_c   22.79600000
_cell_angle_alpha   90.00000000
_cell_angle_beta   95.41000000
_cell_angle_gamma   90.00000000
_symmetry_Int_Tables_number   1
_chemical_formula_structural   TmH7C16(NO4)2
_chemical_formula_sum   'Tm4 H28 C64 N8 O32'
_cell_volume   2125.70638381
_cell_formula_units_Z   4
loop_
 _symmetry_equiv_pos_site_id
 _symmetry_equiv_pos_as_xyz
  1  'x, y, z'
loop_
 _atom_site_type_symbol
 _atom_site_label
 _atom_site_symmetry_multiplicity
 _atom_site_fract_x
 _atom_site_fract_y
 _atom_site_fract_z
 _atom_site_occupancy
 _atom_site_charge
  Tm  Tm1  1  0.777150  0.431470  0.345980  1.0  2.1769
  Tm  Tm2  1  0.722850  0.931470  0.154020  1.0  2.1769
  Tm  Tm3  1  0.222850  0.568530  0.654020  1.0  2.1778
  Tm  Tm4  1  0.277150  0.068530  0.845980  1.0  2.1782
  H  H5  1  0.729200  0.441000  0.516200  1.0  0.101
  H  H6  1  0.584700  0.312600  0.651000  1.0  0.1178
  H  H7  1  0.104400  0.305500  0.499600  1.0  0.1157
  H  H8  1  0.392200  0.036900  0.666200  1.0  0.0986
  H  H9  1  0.640300  0.135000  0.524700  1.0  0.1219
  H  H10  1  0.016400  0.172100  0.685400  1.0  0.1068
  H  H11  1  0.059000  0.983000  0.557000  1.0  0.3593
  H  H12  1  0.770800  0.941000  0.983800  1.0  0.1014
  H  H13  1  0.915300  0.812600  0.849000  1.0  0.118
  H  H14  1  0.395600  0.805500  0.000400  1.0  0.1168
  H  H15  1  0.107800  0.536900  0.833800  1.0  0.0981
  H  H16  1  0.859700  0.635000  0.975300  1.0  0.1212
  H  H17  1  0.483600  0.672100  0.814600  1.0  0.1064
  H  H18  1  0.441000  0.483000  0.943000  1.0  0.359
  H  H19  1  0.270800  0.559000  0.483800  1.0  0.1012
  H  H20  1  0.415300  0.687400  0.349000  1.0  0.1182
  H  H21  1  0.895600  0.694500  0.500400  1.0  0.1165
  H  H22  1  0.607800  0.963100  0.333800  1.0  0.0966
  H  H23  1  0.359700  0.865000  0.475300  1.0  0.1212
  H  H24  1  0.983600  0.827900  0.314600  1.0  0.1064
  H  H25  1  0.941000  0.017000  0.443000  1.0  0.3581
  H  H26  1  0.229200  0.059000  0.016200  1.0  0.1007
  H  H27  1  0.084700  0.187400  0.151000  1.0  0.1177
  H  H28  1  0.604400  0.194500  0.999600  1.0  0.1157
  H  H29  1  0.892200  0.463100  0.166200  1.0  0.0973
  H  H30  1  0.140300  0.365000  0.024700  1.0  0.1221
  H  H31  1  0.516400  0.327900  0.185400  1.0  0.1077
  H  H32  1  0.559000  0.517000  0.057000  1.0  0.3589
  C  C33  1  0.321200  0.404400  0.438300  1.0  0.7284
  C  C34  1  0.403300  0.377600  0.499100  1.0  -0.1393
  C  C35  1  0.624800  0.406400  0.532400  1.0  -0.0107
  C  C36  1  0.690000  0.383200  0.590300  1.0  -0.1575
  C  C37  1  0.540600  0.328700  0.612700  1.0  -0.0779
  C  C38  1  0.326300  0.298000  0.578700  1.0  0.1894
  C  C39  1  0.253300  0.324100  0.521900  1.0  -0.0196
  C  C40  1  0.906700  0.419100  0.629800  1.0  0.7211
  C  C41  1  0.736400  0.091200  0.751600  1.0  0.7396
  C  C42  1  0.707800  0.102600  0.686100  1.0  -0.1398
  C  C43  1  0.510500  0.067700  0.649800  1.0  0.0078
  C  C44  1  0.488700  0.078400  0.589400  1.0  -0.1731
  C  C45  1  0.658300  0.126600  0.565100  1.0  -0.1064
  C  C46  1  0.855000  0.162400  0.600900  1.0  0.1988
  C  C47  1  0.881700  0.149400  0.661400  1.0  -0.0147
  C  C48  1  0.279800  0.042400  0.549600  1.0  0.6702
  C  C49  1  0.178800  0.904400  0.061700  1.0  0.7263
  C  C50  1  0.096700  0.877600  0.000900  1.0  -0.1394
  C  C51  1  0.875200  0.906400  0.967600  1.0  -0.0112
  C  C52  1  0.810000  0.883200  0.909700  1.0  -0.1574
  C  C53  1  0.959400  0.828700  0.887300  1.0  -0.0777
  C  C54  1  0.173700  0.798000  0.921300  1.0  0.1896
  C  C55  1  0.246700  0.824100  0.978100  1.0  -0.019
  C  C56  1  0.593300  0.919100  0.870200  1.0  0.7193
  C  C57  1  0.763600  0.591200  0.748400  1.0  0.74
  C  C58  1  0.792200  0.602600  0.813900  1.0  -0.1389
  C  C59  1  0.989500  0.567700  0.850200  1.0  0.0064
  C  C60  1  0.011300  0.578400  0.910600  1.0  -0.1729
  C  C61  1  0.841700  0.626600  0.934900  1.0  -0.1052
  C  C62  1  0.645000  0.662400  0.899100  1.0  0.1982
  C  C63  1  0.618300  0.649400  0.838600  1.0  -0.0139
  C  C64  1  0.220200  0.542400  0.950400  1.0  0.6715
  C  C65  1  0.678800  0.595600  0.561700  1.0  0.7263
  C  C66  1  0.596700  0.622400  0.500900  1.0  -0.1391
  C  C67  1  0.375200  0.593600  0.467600  1.0  -0.0113
  C  C68  1  0.310000  0.616800  0.409700  1.0  -0.159
  C  C69  1  0.459400  0.671300  0.387300  1.0  -0.0778
  C  C70  1  0.673700  0.702000  0.421300  1.0  0.1892
  C  C71  1  0.746700  0.675900  0.478100  1.0  -0.0188
  C  C72  1  0.093300  0.580900  0.370200  1.0  0.7194
  C  C73  1  0.263600  0.908800  0.248400  1.0  0.7404
  C  C74  1  0.292200  0.897400  0.313900  1.0  -0.1386
  C  C75  1  0.489500  0.932300  0.350200  1.0  0.0086
  C  C76  1  0.511300  0.921600  0.410600  1.0  -0.1733
  C  C77  1  0.341700  0.873400  0.434900  1.0  -0.1049
  C  C78  1  0.145000  0.837600  0.399100  1.0  0.1984
  C  C79  1  0.118300  0.850600  0.338600  1.0  -0.0143
  C  C80  1  0.720200  0.957600  0.450400  1.0  0.671
  C  C81  1  0.821200  0.095600  0.938300  1.0  0.7301
  C  C82  1  0.903300  0.122400  0.999100  1.0  -0.1394
  C  C83  1  0.124800  0.093600  0.032400  1.0  -0.0102
  C  C84  1  0.190000  0.116800  0.090300  1.0  -0.1575
  C  C85  1  0.040600  0.171300  0.112700  1.0  -0.078
  C  C86  1  0.826300  0.202000  0.078700  1.0  0.1892
  C  C87  1  0.753300  0.175900  0.021900  1.0  -0.0187
  C  C88  1  0.406700  0.080900  0.129800  1.0  0.721
  C  C89  1  0.236400  0.408800  0.251600  1.0  0.7396
  C  C90  1  0.207800  0.397400  0.186100  1.0  -0.1399
  C  C91  1  0.010500  0.432300  0.149800  1.0  0.0085
  C  C92  1  0.988700  0.421600  0.089400  1.0  -0.1733
  C  C93  1  0.158300  0.373400  0.065100  1.0  -0.1054
  C  C94  1  0.355000  0.337600  0.100900  1.0  0.1989
  C  C95  1  0.381700  0.350600  0.161400  1.0  -0.0152
  C  C96  1  0.779800  0.457600  0.049600  1.0  0.6697
  N  N97  1  0.182500  0.244100  0.606300  1.0  -0.1736
  N  N98  1  0.010200  0.213200  0.572000  1.0  -0.1569
  N  N99  1  0.317500  0.744100  0.893700  1.0  -0.173
  N  N100  1  0.489800  0.713200  0.928000  1.0  -0.1585
  N  N101  1  0.817500  0.755900  0.393700  1.0  -0.1724
  N  N102  1  0.989800  0.786800  0.428000  1.0  -0.1588
  N  N103  1  0.682500  0.255900  0.106300  1.0  -0.1729
  N  N104  1  0.510200  0.286800  0.072000  1.0  -0.157
  O  O105  1  0.088400  0.390100  0.416540  1.0  -0.6759
  O  O106  1  0.489600  0.438500  0.411750  1.0  -0.7084
  O  O107  1  0.033000  0.469500  0.608750  1.0  -0.6328
  O  O108  1  0.944700  0.397300  0.682370  1.0  -0.5708
  O  O109  1  0.948800  0.111700  0.779600  1.0  -0.7014
  O  O110  1  0.544200  0.061700  0.773490  1.0  -0.7097
  O  O111  1  0.137100  0.995200  0.573600  1.0  -0.721
  O  O112  1  0.247800  0.058800  0.496450  1.0  -0.5633
  O  O113  1  0.411600  0.890100  0.083460  1.0  -0.6765
  O  O114  1  0.010400  0.938500  0.088250  1.0  -0.7091
  O  O115  1  0.467000  0.969500  0.891250  1.0  -0.632
  O  O116  1  0.555300  0.897300  0.817630  1.0  -0.5704
  O  O117  1  0.551200  0.611700  0.720400  1.0  -0.7022
  O  O118  1  0.955800  0.561700  0.726510  1.0  -0.7097
  O  O119  1  0.362900  0.495200  0.926400  1.0  -0.7179
  O  O120  1  0.252200  0.558800  0.003550  1.0  -0.5641
  O  O121  1  0.911600  0.609900  0.583460  1.0  -0.6767
  O  O122  1  0.510400  0.561500  0.588250  1.0  -0.7101
  O  O123  1  0.967000  0.530500  0.391250  1.0  -0.632
  O  O124  1  0.055300  0.602700  0.317630  1.0  -0.5708
  O  O125  1  0.051200  0.888300  0.220400  1.0  -0.7034
  O  O126  1  0.455800  0.938300  0.226510  1.0  -0.7097
  O  O127  1  0.862900  0.004800  0.426400  1.0  -0.7181
  O  O128  1  0.752200  0.941200  0.503550  1.0  -0.5633
  O  O129  1  0.588400  0.109900  0.916540  1.0  -0.6758
  O  O130  1  0.989600  0.061500  0.911750  1.0  -0.7096
  O  O131  1  0.533000  0.030500  0.108750  1.0  -0.6332
  O  O132  1  0.444700  0.102700  0.182370  1.0  -0.5711
  O  O133  1  0.448800  0.388300  0.279600  1.0  -0.7013
  O  O134  1  0.044200  0.438300  0.273490  1.0  -0.7093
  O  O135  1  0.637100  0.504800  0.073600  1.0  -0.7214
  O  O136  1  0.747800  0.441200  0.996450  1.0  -0.5633
