# generated using pymatgen
data_Nd2H10C21(NO4)3
_symmetry_space_group_name_H-M   'P 1'
_cell_length_a   17.35300000
_cell_length_b   30.45300000
_cell_length_c   17.51100000
_cell_angle_alpha   90.00000000
_cell_angle_beta   119.54700000
_cell_angle_gamma   90.00000000
_symmetry_Int_Tables_number   1
_chemical_formula_structural   Nd2H10C21(NO4)3
_chemical_formula_sum   'Nd16 H80 C168 N24 O96'
_cell_volume   8050.27324333
_cell_formula_units_Z   8
loop_
 _symmetry_equiv_pos_site_id
 _symmetry_equiv_pos_as_xyz
  1  'x, y, z'
loop_
 _atom_site_type_symbol
 _atom_site_label
 _atom_site_symmetry_multiplicity
 _atom_site_fract_x
 _atom_site_fract_y
 _atom_site_fract_z
 _atom_site_occupancy
 _atom_site_charge
  Nd  Nd1  1  0.994330  0.928550  0.304360  1.0  2.2536
  Nd  Nd2  1  0.690200  0.929280  0.194020  1.0  2.264
  Nd  Nd3  1  0.496220  0.928100  0.305220  1.0  2.263
  Nd  Nd4  1  0.189380  0.926870  0.193590  1.0  2.2641
  Nd  Nd5  1  0.005670  0.428550  0.695640  1.0  2.253
  Nd  Nd6  1  0.309800  0.429280  0.805980  1.0  2.268
  Nd  Nd7  1  0.503780  0.428100  0.694780  1.0  2.2627
  Nd  Nd8  1  0.810620  0.426870  0.806410  1.0  2.2651
  Nd  Nd9  1  0.005670  0.071450  0.695640  1.0  2.2532
  Nd  Nd10  1  0.309800  0.070720  0.805980  1.0  2.2679
  Nd  Nd11  1  0.503780  0.071900  0.694780  1.0  2.2629
  Nd  Nd12  1  0.810620  0.073130  0.806410  1.0  2.2649
  Nd  Nd13  1  0.994330  0.571450  0.304360  1.0  2.2531
  Nd  Nd14  1  0.690200  0.570720  0.194020  1.0  2.2641
  Nd  Nd15  1  0.496220  0.571900  0.305220  1.0  2.2632
  Nd  Nd16  1  0.189380  0.573130  0.193590  1.0  2.2644
  H  H17  1  0.937900  0.789000  0.342200  1.0  0.1031
  H  H18  1  0.630900  0.787300  0.391900  1.0  0.1047
  H  H19  1  0.452400  0.789000  0.352500  1.0  0.0834
  H  H20  1  0.123100  0.787200  0.396200  1.0  0.1096
  H  H21  1  0.836400  0.062700  0.093400  1.0  0.1047
  H  H22  1  0.713700  0.089900  0.969600  1.0  0.1155
  H  H23  1  0.568100  0.011300  0.033200  1.0  0.0777
  H  H24  1  0.758200  0.911300  0.468300  1.0  0.105
  H  H25  1  0.752500  0.939800  0.590700  1.0  0.1034
  H  H26  1  0.957200  0.997300  0.525800  1.0  0.0997
  H  H27  1  0.738400  0.064400  0.401600  1.0  0.1133
  H  H28  1  0.738600  0.089000  0.529700  1.0  0.0922
  H  H29  1  0.547800  0.002500  0.481200  1.0  0.0912
  H  H30  1  0.333500  0.064100  0.093700  1.0  0.1235
  H  H31  1  0.208600  0.087600  0.972400  1.0  0.0577
  H  H32  1  0.067500  0.003900  0.025200  1.0  0.0954
  H  H33  1  0.228700  0.785400  0.124700  1.0  0.0888
  H  H34  1  0.734500  0.786200  0.098600  1.0  0.1132
  H  H35  1  0.595300  0.787800  0.141200  1.0  0.1074
  H  H36  1  0.098400  0.786600  0.156500  1.0  0.0761
  H  H37  1  0.062100  0.289000  0.657800  1.0  0.1028
  H  H38  1  0.369100  0.287300  0.608100  1.0  0.1051
  H  H39  1  0.547600  0.289000  0.647500  1.0  0.0839
  H  H40  1  0.876900  0.287200  0.603800  1.0  0.1105
  H  H41  1  0.163600  0.562700  0.906600  1.0  0.1048
  H  H42  1  0.286300  0.589900  0.030400  1.0  0.1155
  H  H43  1  0.431900  0.511300  0.966800  1.0  0.0769
  H  H44  1  0.241800  0.411300  0.531700  1.0  0.1062
  H  H45  1  0.247500  0.439800  0.409300  1.0  0.1026
  H  H46  1  0.042800  0.497300  0.474200  1.0  0.0999
  H  H47  1  0.261600  0.564400  0.598400  1.0  0.1133
  H  H48  1  0.261400  0.589000  0.470300  1.0  0.0934
  H  H49  1  0.452200  0.502500  0.518800  1.0  0.0911
  H  H50  1  0.666500  0.564100  0.906300  1.0  0.1241
  H  H51  1  0.791400  0.587600  0.027600  1.0  0.0574
  H  H52  1  0.932500  0.503900  0.974800  1.0  0.0961
  H  H53  1  0.771300  0.285400  0.875300  1.0  0.0882
  H  H54  1  0.265500  0.286200  0.901400  1.0  0.1136
  H  H55  1  0.404700  0.287800  0.858800  1.0  0.1068
  H  H56  1  0.901600  0.286600  0.843500  1.0  0.0771
  H  H57  1  0.062100  0.211000  0.657800  1.0  0.1041
  H  H58  1  0.369100  0.212700  0.608100  1.0  0.105
  H  H59  1  0.547600  0.211000  0.647500  1.0  0.0836
  H  H60  1  0.876900  0.212800  0.603800  1.0  0.1106
  H  H61  1  0.163600  0.937300  0.906600  1.0  0.1051
  H  H62  1  0.286300  0.910100  0.030400  1.0  0.115
  H  H63  1  0.431900  0.988700  0.966800  1.0  0.0772
  H  H64  1  0.241800  0.088700  0.531700  1.0  0.1056
  H  H65  1  0.247500  0.060200  0.409300  1.0  0.1028
  H  H66  1  0.042800  0.002700  0.474200  1.0  0.0996
  H  H67  1  0.261600  0.935600  0.598400  1.0  0.1132
  H  H68  1  0.261400  0.911000  0.470300  1.0  0.0932
  H  H69  1  0.452200  0.997500  0.518800  1.0  0.092
  H  H70  1  0.666500  0.935900  0.906300  1.0  0.1232
  H  H71  1  0.791400  0.912400  0.027600  1.0  0.0574
  H  H72  1  0.932500  0.996100  0.974800  1.0  0.0962
  H  H73  1  0.771300  0.214600  0.875300  1.0  0.0878
  H  H74  1  0.265500  0.213800  0.901400  1.0  0.1136
  H  H75  1  0.404700  0.212200  0.858800  1.0  0.1069
  H  H76  1  0.901600  0.213400  0.843500  1.0  0.0772
  H  H77  1  0.937900  0.711000  0.342200  1.0  0.1047
  H  H78  1  0.630900  0.712700  0.391900  1.0  0.1044
  H  H79  1  0.452400  0.711000  0.352500  1.0  0.0834
  H  H80  1  0.123100  0.712800  0.396200  1.0  0.1093
  H  H81  1  0.836400  0.437300  0.093400  1.0  0.1047
  H  H82  1  0.713700  0.410100  0.969600  1.0  0.1149
  H  H83  1  0.568100  0.488700  0.033200  1.0  0.0781
  H  H84  1  0.758200  0.588700  0.468300  1.0  0.1052
  H  H85  1  0.752500  0.560200  0.590700  1.0  0.1031
  H  H86  1  0.957200  0.502700  0.525800  1.0  0.0998
  H  H87  1  0.738400  0.435600  0.401600  1.0  0.1125
  H  H88  1  0.738600  0.411000  0.529700  1.0  0.0929
  H  H89  1  0.547800  0.497500  0.481200  1.0  0.0917
  H  H90  1  0.333500  0.435900  0.093700  1.0  0.1231
  H  H91  1  0.208600  0.412400  0.972400  1.0  0.0577
  H  H92  1  0.067500  0.496100  0.025200  1.0  0.0956
  H  H93  1  0.228700  0.714600  0.124700  1.0  0.0885
  H  H94  1  0.734500  0.713800  0.098600  1.0  0.1133
  H  H95  1  0.595300  0.712200  0.141200  1.0  0.1077
  H  H96  1  0.098400  0.713400  0.156500  1.0  0.0769
  C  C97  1  0.841700  0.843600  0.232500  1.0  0.7014
  C  C98  1  0.896100  0.773400  0.293800  1.0  -0.1123
  C  C99  1  0.835600  0.794000  0.223700  1.0  -0.1263
  C  C100  1  0.606600  0.844160  0.264300  1.0  0.7142
  C  C101  1  0.603400  0.796100  0.262800  1.0  -0.1318
  C  C102  1  0.620200  0.772040  0.341600  1.0  -0.0885
  C  C103  1  0.339800  0.845760  0.235800  1.0  0.6815
  C  C104  1  0.407400  0.774200  0.305000  1.0  -0.0902
  C  C105  1  0.346800  0.796620  0.240800  1.0  -0.0734
  C  C106  1  0.104300  0.844810  0.267100  1.0  0.714
  C  C107  1  0.106900  0.795200  0.269600  1.0  -0.1538
  C  C108  1  0.116900  0.771700  0.347700  1.0  -0.1067
  C  C109  1  0.847700  0.991100  0.190500  1.0  0.6158
  C  C110  1  0.771500  0.015250  0.119500  1.0  0.1576
  C  C111  1  0.780700  0.050590  0.074700  1.0  -0.1171
  C  C112  1  0.708000  0.067700  0.003100  1.0  -0.0386
  C  C113  1  0.624300  0.050600  0.981900  1.0  -0.1281
  C  C114  1  0.622810  0.018600  0.039000  1.0  0.1686
  C  C115  1  0.540400  0.066000  0.904300  1.0  0.688
  C  C116  1  0.864400  0.937600  0.402200  1.0  0.7217
  C  C117  1  0.853600  0.953290  0.477800  1.0  -0.1628
  C  C118  1  0.794300  0.934600  0.500300  1.0  -0.0663
  C  C119  1  0.790600  0.952100  0.573500  1.0  -0.0746
  C  C120  1  0.843700  0.987600  0.619600  1.0  0.0599
  C  C121  1  0.912100  0.987150  0.535300  1.0  0.2282
  C  C122  1  0.836200  0.009200  0.689700  1.0  0.5877
  C  C123  1  0.661700  0.990300  0.310800  1.0  0.6624
  C  C124  1  0.655100  0.015800  0.381500  1.0  0.1284
  C  C125  1  0.703600  0.050800  0.421500  1.0  -0.1166
  C  C126  1  0.700300  0.066600  0.496400  1.0  -0.0611
  C  C127  1  0.642600  0.049900  0.520600  1.0  -0.1103
  C  C128  1  0.589600  0.013930  0.468200  1.0  0.1584
  C  C129  1  0.639100  0.065970  0.597100  1.0  0.7153
  C  C130  1  0.348400  0.987160  0.188300  1.0  0.7003
  C  C131  1  0.270400  0.011400  0.122300  1.0  0.1565
  C  C132  1  0.279300  0.050420  0.075500  1.0  -0.1544
  C  C133  1  0.203900  0.064620  0.005000  1.0  -0.0568
  C  C134  1  0.121800  0.048000  0.978000  1.0  -0.0468
  C  C135  1  0.121800  0.013420  0.032700  1.0  0.1532
  C  C136  1  0.038800  0.063100  0.906600  1.0  0.6942
  C  C137  1  0.275500  0.770730  0.170800  1.0  0.0728
  C  C138  1  0.774800  0.770900  0.148400  1.0  0.0715
  C  C139  1  0.598500  0.772490  0.188700  1.0  0.093
  C  C140  1  0.102100  0.772000  0.204800  1.0  0.1075
  C  C141  1  0.158300  0.343600  0.767500  1.0  0.7014
  C  C142  1  0.103900  0.273400  0.706200  1.0  -0.1107
  C  C143  1  0.164400  0.294000  0.776300  1.0  -0.1262
  C  C144  1  0.393400  0.344160  0.735700  1.0  0.7144
  C  C145  1  0.396600  0.296100  0.737200  1.0  -0.1316
  C  C146  1  0.379800  0.272040  0.658400  1.0  -0.0866
  C  C147  1  0.660200  0.345760  0.764200  1.0  0.6815
  C  C148  1  0.592600  0.274200  0.695000  1.0  -0.0887
  C  C149  1  0.653200  0.296620  0.759200  1.0  -0.0726
  C  C150  1  0.895700  0.344810  0.732900  1.0  0.7139
  C  C151  1  0.893100  0.295200  0.730400  1.0  -0.1536
  C  C152  1  0.883100  0.271700  0.652300  1.0  -0.1055
  C  C153  1  0.152300  0.491100  0.809500  1.0  0.617
  C  C154  1  0.228500  0.515250  0.880500  1.0  0.1573
  C  C155  1  0.219300  0.550590  0.925300  1.0  -0.1168
  C  C156  1  0.292000  0.567700  0.996900  1.0  -0.038
  C  C157  1  0.375700  0.550600  0.018100  1.0  -0.1291
  C  C158  1  0.377190  0.518600  0.961000  1.0  0.1673
  C  C159  1  0.459600  0.566000  0.095700  1.0  0.6874
  C  C160  1  0.135600  0.437600  0.597800  1.0  0.722
  C  C161  1  0.146400  0.453290  0.522200  1.0  -0.1642
  C  C162  1  0.205700  0.434600  0.499700  1.0  -0.0655
  C  C163  1  0.209400  0.452100  0.426500  1.0  -0.0738
  C  C164  1  0.156300  0.487600  0.380400  1.0  0.0594
  C  C165  1  0.087900  0.487150  0.464700  1.0  0.2282
  C  C166  1  0.163800  0.509200  0.310300  1.0  0.5881
  C  C167  1  0.338300  0.490300  0.689200  1.0  0.6627
  C  C168  1  0.344900  0.515800  0.618500  1.0  0.1271
  C  C169  1  0.296400  0.550800  0.578500  1.0  -0.1177
  C  C170  1  0.299700  0.566600  0.503600  1.0  -0.0591
  C  C171  1  0.357400  0.549900  0.479400  1.0  -0.1107
  C  C172  1  0.410400  0.513930  0.531800  1.0  0.1585
  C  C173  1  0.360900  0.565970  0.402900  1.0  0.7155
  C  C174  1  0.651600  0.487160  0.811700  1.0  0.701
  C  C175  1  0.729600  0.511400  0.877700  1.0  0.1551
  C  C176  1  0.720700  0.550420  0.924500  1.0  -0.1532
  C  C177  1  0.796100  0.564620  0.995000  1.0  -0.0581
  C  C178  1  0.878200  0.548000  0.022000  1.0  -0.0464
  C  C179  1  0.878200  0.513420  0.967300  1.0  0.1516
  C  C180  1  0.961200  0.563100  0.093400  1.0  0.6948
  C  C181  1  0.724500  0.270730  0.829200  1.0  0.0703
  C  C182  1  0.225200  0.270900  0.851600  1.0  0.068
  C  C183  1  0.401500  0.272490  0.811300  1.0  0.0923
  C  C184  1  0.897900  0.272000  0.795200  1.0  0.107
  C  C185  1  0.158300  0.156400  0.767500  1.0  0.7008
  C  C186  1  0.103900  0.226600  0.706200  1.0  -0.1102
  C  C187  1  0.164400  0.206000  0.776300  1.0  0.037
  C  C188  1  0.393400  0.155840  0.735700  1.0  0.7129
  C  C189  1  0.396600  0.203900  0.737200  1.0  -0.0296
  C  C190  1  0.379800  0.227960  0.658400  1.0  -0.0865
  C  C191  1  0.660200  0.154240  0.764200  1.0  0.6817
  C  C192  1  0.592600  0.225800  0.695000  1.0  -0.0847
  C  C193  1  0.653200  0.203380  0.759200  1.0  0.041
  C  C194  1  0.895700  0.155190  0.732900  1.0  0.7121
  C  C195  1  0.893100  0.204800  0.730400  1.0  -0.0479
  C  C196  1  0.883100  0.228300  0.652300  1.0  -0.1062
  C  C197  1  0.152300  0.008900  0.809500  1.0  0.6159
  C  C198  1  0.228500  0.984750  0.880500  1.0  0.156
  C  C199  1  0.219300  0.949410  0.925300  1.0  -0.1161
  C  C200  1  0.292000  0.932300  0.996900  1.0  -0.0376
  C  C201  1  0.375700  0.949400  0.018100  1.0  -0.13
  C  C202  1  0.377190  0.981400  0.961000  1.0  0.1679
  C  C203  1  0.459600  0.934000  0.095700  1.0  0.6866
  C  C204  1  0.135600  0.062400  0.597800  1.0  0.7206
  C  C205  1  0.146400  0.046710  0.522200  1.0  -0.1621
  C  C206  1  0.205700  0.065400  0.499700  1.0  -0.0653
  C  C207  1  0.209400  0.047900  0.426500  1.0  -0.0746
  C  C208  1  0.156300  0.012400  0.380400  1.0  0.0594
  C  C209  1  0.087900  0.012850  0.464700  1.0  0.2284
  C  C210  1  0.163800  0.990800  0.310300  1.0  0.5884
  C  C211  1  0.338300  0.009700  0.689200  1.0  0.6628
  C  C212  1  0.344900  0.984200  0.618500  1.0  0.1277
  C  C213  1  0.296400  0.949200  0.578500  1.0  -0.1172
  C  C214  1  0.299700  0.933400  0.503600  1.0  -0.0615
  C  C215  1  0.357400  0.950100  0.479400  1.0  -0.1104
  C  C216  1  0.410400  0.986070  0.531800  1.0  0.1584
  C  C217  1  0.360900  0.934030  0.402900  1.0  0.7151
  C  C218  1  0.651600  0.012840  0.811700  1.0  0.6997
  C  C219  1  0.729600  0.988600  0.877700  1.0  0.155
  C  C220  1  0.720700  0.949580  0.924500  1.0  -0.1537
  C  C221  1  0.796100  0.935380  0.995000  1.0  -0.056
  C  C222  1  0.878200  0.952000  0.022000  1.0  -0.0463
  C  C223  1  0.878200  0.986580  0.967300  1.0  0.1519
  C  C224  1  0.961200  0.936900  0.093400  1.0  0.6946
  C  C225  1  0.841700  0.656400  0.232500  1.0  0.7009
  C  C226  1  0.896100  0.726600  0.293800  1.0  -0.1111
  C  C227  1  0.835600  0.706000  0.223700  1.0  0.0369
  C  C228  1  0.606600  0.655840  0.264300  1.0  0.7128
  C  C229  1  0.603400  0.703900  0.262800  1.0  -0.03
  C  C230  1  0.620200  0.727960  0.341600  1.0  -0.0874
  C  C231  1  0.339800  0.654240  0.235800  1.0  0.6814
  C  C232  1  0.407400  0.725800  0.305000  1.0  -0.086
  C  C233  1  0.346800  0.703380  0.240800  1.0  0.0407
  C  C234  1  0.104300  0.655190  0.267100  1.0  0.7116
  C  C235  1  0.106900  0.704800  0.269600  1.0  -0.0486
  C  C236  1  0.116900  0.728300  0.347700  1.0  -0.1064
  C  C237  1  0.847700  0.508900  0.190500  1.0  0.6157
  C  C238  1  0.771500  0.484750  0.119500  1.0  0.1565
  C  C239  1  0.780700  0.449410  0.074700  1.0  -0.1168
  C  C240  1  0.708000  0.432300  0.003100  1.0  -0.0383
  C  C241  1  0.624300  0.449400  0.981900  1.0  -0.13
  C  C242  1  0.622810  0.481400  0.039000  1.0  0.1693
  C  C243  1  0.540400  0.434000  0.904300  1.0  0.6871
  C  C244  1  0.864400  0.562400  0.402200  1.0  0.7215
  C  C245  1  0.853600  0.546710  0.477800  1.0  -0.1612
  C  C246  1  0.794300  0.565400  0.500300  1.0  -0.0674
  C  C247  1  0.790600  0.547900  0.573500  1.0  -0.074
  C  C248  1  0.843700  0.512400  0.619600  1.0  0.0589
  C  C249  1  0.912100  0.512850  0.535300  1.0  0.2276
  C  C250  1  0.836200  0.490800  0.689700  1.0  0.5871
  C  C251  1  0.661700  0.509700  0.310800  1.0  0.6617
  C  C252  1  0.655100  0.484200  0.381500  1.0  0.1282
  C  C253  1  0.703600  0.449200  0.421500  1.0  -0.1152
  C  C254  1  0.700300  0.433400  0.496400  1.0  -0.0615
  C  C255  1  0.642600  0.450100  0.520600  1.0  -0.1103
  C  C256  1  0.589600  0.486070  0.468200  1.0  0.1585
  C  C257  1  0.639100  0.434030  0.597100  1.0  0.7158
  C  C258  1  0.348400  0.512840  0.188300  1.0  0.6997
  C  C259  1  0.270400  0.488600  0.122300  1.0  0.1569
  C  C260  1  0.279300  0.449580  0.075500  1.0  -0.1542
  C  C261  1  0.203900  0.435380  0.005000  1.0  -0.0553
  C  C262  1  0.121800  0.452000  0.978000  1.0  -0.0473
  C  C263  1  0.121800  0.486580  0.032700  1.0  0.154
  C  C264  1  0.038800  0.436900  0.906600  1.0  0.6945
  N  N265  1  0.695100  0.997670  0.101200  1.0  -0.4089
  N  N266  1  0.904800  0.003680  0.597900  1.0  -0.3951
  N  N267  1  0.595800  0.995320  0.401000  1.0  -0.4794
  N  N268  1  0.195000  0.993930  0.094100  1.0  -0.3947
  N  N269  1  0.774800  0.729100  0.148400  1.0  -0.206
  N  N270  1  0.598500  0.727510  0.188700  1.0  -0.3551
  N  N271  1  0.275500  0.729270  0.170800  1.0  -0.3066
  N  N272  1  0.102100  0.728000  0.204800  1.0  -0.1495
  N  N273  1  0.304900  0.497670  0.898800  1.0  -0.4085
  N  N274  1  0.095200  0.503680  0.402100  1.0  -0.3942
  N  N275  1  0.404200  0.495320  0.599000  1.0  -0.4764
  N  N276  1  0.805000  0.493930  0.905900  1.0  -0.3948
  N  N277  1  0.225200  0.229100  0.851600  1.0  -0.2092
  N  N278  1  0.401500  0.227510  0.811300  1.0  -0.3565
  N  N279  1  0.724500  0.229270  0.829200  1.0  -0.3062
  N  N280  1  0.897900  0.228000  0.795200  1.0  -0.1502
  N  N281  1  0.304900  0.002330  0.898800  1.0  -0.4093
  N  N282  1  0.095200  0.996320  0.402100  1.0  -0.3938
  N  N283  1  0.404200  0.004680  0.599000  1.0  -0.4802
  N  N284  1  0.805000  0.006070  0.905900  1.0  -0.3977
  N  N285  1  0.695100  0.502330  0.101200  1.0  -0.4086
  N  N286  1  0.904800  0.496320  0.597900  1.0  -0.3931
  N  N287  1  0.595800  0.504680  0.401000  1.0  -0.4803
  N  N288  1  0.195000  0.506070  0.094100  1.0  -0.397
  O  O289  1  0.906500  0.859980  0.302500  1.0  -0.6463
  O  O290  1  0.783900  0.865430  0.170300  1.0  -0.6444
  O  O291  1  0.632100  0.863630  0.215700  1.0  -0.7476
  O  O292  1  0.591700  0.863740  0.318600  1.0  -0.7055
  O  O293  1  0.411600  0.863140  0.284300  1.0  -0.7106
  O  O294  1  0.268600  0.860920  0.184600  1.0  -0.6544
  O  O295  1  0.125000  0.861430  0.216600  1.0  -0.7059
  O  O296  1  0.092800  0.865920  0.322400  1.0  -0.7407
  O  O297  1  0.929400  0.002610  0.216700  1.0  -0.6586
  O  O298  1  0.833100  0.954790  0.215600  1.0  -0.7519
  O  O299  1  0.541200  0.087570  0.844800  1.0  -0.6978
  O  O300  1  0.465500  0.055800  0.901600  1.0  -0.708
  O  O301  1  0.928300  0.948900  0.396300  1.0  -0.6016
  O  O302  1  0.796900  0.914660  0.345900  1.0  -0.7028
  O  O303  1  0.880400  0.046920  0.715900  1.0  -0.7495
  O  O304  1  0.787500  0.998790  0.719800  1.0  -0.6208
  O  O305  1  0.711900  0.003920  0.282900  1.0  -0.6806
  O  O306  1  0.620900  0.954790  0.282600  1.0  -0.7772
  O  O307  1  0.700800  0.086210  0.655400  1.0  -0.6783
  O  O308  1  0.571000  0.053490  0.604100  1.0  -0.7067
  O  O309  1  0.425400  0.000360  0.210900  1.0  -0.6653
  O  O310  1  0.330800  0.952980  0.214600  1.0  -0.6687
  O  O311  1  0.047200  0.086700  0.847600  1.0  -0.7222
  O  O312  1  0.966600  0.054870  0.902500  1.0  -0.6922
  O  O313  1  0.093500  0.359980  0.697500  1.0  -0.6455
  O  O314  1  0.216100  0.365430  0.829700  1.0  -0.6449
  O  O315  1  0.367900  0.363630  0.784300  1.0  -0.7469
  O  O316  1  0.408300  0.363740  0.681400  1.0  -0.7055
  O  O317  1  0.588400  0.363140  0.715700  1.0  -0.7122
  O  O318  1  0.731400  0.360920  0.815400  1.0  -0.653
  O  O319  1  0.875000  0.361430  0.783400  1.0  -0.7048
  O  O320  1  0.907200  0.365920  0.677600  1.0  -0.7407
  O  O321  1  0.070600  0.502610  0.783300  1.0  -0.6545
  O  O322  1  0.166900  0.454790  0.784400  1.0  -0.7523
  O  O323  1  0.458800  0.587570  0.155200  1.0  -0.6976
  O  O324  1  0.534500  0.555800  0.098400  1.0  -0.7088
  O  O325  1  0.071700  0.448900  0.603700  1.0  -0.6007
  O  O326  1  0.203100  0.414660  0.654100  1.0  -0.7037
  O  O327  1  0.119600  0.546920  0.284100  1.0  -0.7487
  O  O328  1  0.212500  0.498790  0.280200  1.0  -0.6215
  O  O329  1  0.288100  0.503920  0.717100  1.0  -0.6814
  O  O330  1  0.379100  0.454790  0.717400  1.0  -0.7777
  O  O331  1  0.299200  0.586210  0.344600  1.0  -0.6772
  O  O332  1  0.429000  0.553490  0.395900  1.0  -0.7066
  O  O333  1  0.574600  0.500360  0.789100  1.0  -0.6644
  O  O334  1  0.669200  0.452980  0.785400  1.0  -0.6687
  O  O335  1  0.952800  0.586700  0.152400  1.0  -0.7228
  O  O336  1  0.033400  0.554870  0.097500  1.0  -0.6926
  O  O337  1  0.093500  0.140020  0.697500  1.0  -0.6455
  O  O338  1  0.216100  0.134570  0.829700  1.0  -0.6443
  O  O339  1  0.367900  0.136370  0.784300  1.0  -0.7461
  O  O340  1  0.408300  0.136260  0.681400  1.0  -0.705
  O  O341  1  0.588400  0.136860  0.715700  1.0  -0.7122
  O  O342  1  0.731400  0.139080  0.815400  1.0  -0.6536
  O  O343  1  0.875000  0.138570  0.783400  1.0  -0.705
  O  O344  1  0.907200  0.134080  0.677600  1.0  -0.7408
  O  O345  1  0.070600  0.997390  0.783300  1.0  -0.6535
  O  O346  1  0.166900  0.045210  0.784400  1.0  -0.752
  O  O347  1  0.458800  0.912430  0.155200  1.0  -0.6964
  O  O348  1  0.534500  0.944200  0.098400  1.0  -0.7081
  O  O349  1  0.071700  0.051100  0.603700  1.0  -0.6008
  O  O350  1  0.203100  0.085340  0.654100  1.0  -0.7049
  O  O351  1  0.119600  0.953080  0.284100  1.0  -0.7498
  O  O352  1  0.212500  0.001210  0.280200  1.0  -0.623
  O  O353  1  0.288100  0.996080  0.717100  1.0  -0.6796
  O  O354  1  0.379100  0.045210  0.717400  1.0  -0.7773
  O  O355  1  0.299200  0.913790  0.344600  1.0  -0.6769
  O  O356  1  0.429000  0.946510  0.395900  1.0  -0.7064
  O  O357  1  0.574600  0.999640  0.789100  1.0  -0.663
  O  O358  1  0.669200  0.047020  0.785400  1.0  -0.669
  O  O359  1  0.952800  0.913300  0.152400  1.0  -0.7219
  O  O360  1  0.033400  0.945130  0.097500  1.0  -0.6922
  O  O361  1  0.906500  0.640020  0.302500  1.0  -0.6458
  O  O362  1  0.783900  0.634570  0.170300  1.0  -0.6436
  O  O363  1  0.632100  0.636370  0.215700  1.0  -0.7471
  O  O364  1  0.591700  0.636260  0.318600  1.0  -0.7054
  O  O365  1  0.411600  0.636860  0.284300  1.0  -0.7106
  O  O366  1  0.268600  0.639080  0.184600  1.0  -0.6544
  O  O367  1  0.125000  0.638570  0.216600  1.0  -0.7061
  O  O368  1  0.092800  0.634080  0.322400  1.0  -0.7407
  O  O369  1  0.929400  0.497390  0.216700  1.0  -0.6573
  O  O370  1  0.833100  0.545210  0.215600  1.0  -0.7526
  O  O371  1  0.541200  0.412430  0.844800  1.0  -0.6977
  O  O372  1  0.465500  0.444200  0.901600  1.0  -0.7077
  O  O373  1  0.928300  0.551100  0.396300  1.0  -0.6017
  O  O374  1  0.796900  0.585340  0.345900  1.0  -0.703
  O  O375  1  0.880400  0.453080  0.715900  1.0  -0.7499
  O  O376  1  0.787500  0.501210  0.719800  1.0  -0.6235
  O  O377  1  0.711900  0.496080  0.282900  1.0  -0.679
  O  O378  1  0.620900  0.545210  0.282600  1.0  -0.7763
  O  O379  1  0.700800  0.413790  0.655400  1.0  -0.6777
  O  O380  1  0.571000  0.446510  0.604100  1.0  -0.7063
  O  O381  1  0.425400  0.499640  0.210900  1.0  -0.664
  O  O382  1  0.330800  0.547020  0.214600  1.0  -0.6695
  O  O383  1  0.047200  0.413300  0.847600  1.0  -0.7219
  O  O384  1  0.966600  0.445130  0.902500  1.0  -0.6916
