# generated using pymatgen
data_CdNiH4(C3O4)2
_symmetry_space_group_name_H-M   'P 1'
_cell_length_a   12.68350000
_cell_length_b   12.68350000
_cell_length_c   12.68350000
_cell_angle_alpha   83.97690000
_cell_angle_beta   83.97690000
_cell_angle_gamma   83.97690000
_symmetry_Int_Tables_number   1
_chemical_formula_structural   CdNiH4(C3O4)2
_chemical_formula_sum   'Cd6 Ni6 H24 C36 O48'
_cell_volume   2008.82439458
_cell_formula_units_Z   6
loop_
 _symmetry_equiv_pos_site_id
 _symmetry_equiv_pos_as_xyz
  1  'x, y, z'
loop_
 _atom_site_type_symbol
 _atom_site_label
 _atom_site_symmetry_multiplicity
 _atom_site_fract_x
 _atom_site_fract_y
 _atom_site_fract_z
 _atom_site_occupancy
 _atom_site_charge
  Cd  Cd1  1  0.487950  0.012050  0.750000  1.0  1.0425
  Cd  Cd2  1  0.750000  0.487950  0.012050  1.0  1.0449
  Cd  Cd3  1  0.012050  0.750000  0.487950  1.0  1.0436
  Cd  Cd4  1  0.512050  0.987950  0.250000  1.0  1.0438
  Cd  Cd5  1  0.250000  0.512050  0.987950  1.0  1.0444
  Cd  Cd6  1  0.987950  0.250000  0.512050  1.0  1.0435
  Ni  Ni7  1  0.470690  0.750000  0.029310  1.0  0.7628
  Ni  Ni8  1  0.029310  0.470690  0.750000  1.0  0.7637
  Ni  Ni9  1  0.750000  0.029310  0.470690  1.0  0.7568
  Ni  Ni10  1  0.529310  0.250000  0.970690  1.0  0.7634
  Ni  Ni11  1  0.970690  0.529310  0.250000  1.0  0.76
  Ni  Ni12  1  0.250000  0.970690  0.529310  1.0  0.7604
  H  H13  1  0.565200  0.636600  0.808400  1.0  0.1806
  H  H14  1  0.485600  0.653500  0.720200  1.0  0.1896
  H  H15  1  0.808400  0.565200  0.636600  1.0  0.1789
  H  H16  1  0.720200  0.485600  0.653500  1.0  0.1935
  H  H17  1  0.636600  0.808400  0.565200  1.0  0.1804
  H  H18  1  0.653500  0.720200  0.485600  1.0  0.1909
  H  H19  1  0.863400  0.934800  0.691600  1.0  0.1793
  H  H20  1  0.846500  0.014400  0.779800  1.0  0.1919
  H  H21  1  0.934800  0.691600  0.863400  1.0  0.1826
  H  H22  1  0.014400  0.779800  0.846500  1.0  0.1915
  H  H23  1  0.691600  0.863400  0.934800  1.0  0.1791
  H  H24  1  0.779800  0.846500  0.014400  1.0  0.1906
  H  H25  1  0.434800  0.363400  0.191600  1.0  0.1809
  H  H26  1  0.514400  0.346500  0.279800  1.0  0.1913
  H  H27  1  0.191600  0.434800  0.363400  1.0  0.1787
  H  H28  1  0.279800  0.514400  0.346500  1.0  0.1919
  H  H29  1  0.363400  0.191600  0.434800  1.0  0.1799
  H  H30  1  0.346500  0.279800  0.514400  1.0  0.1909
  H  H31  1  0.136600  0.065200  0.308400  1.0  0.179
  H  H32  1  0.153500  0.985600  0.220200  1.0  0.1898
  H  H33  1  0.065200  0.308400  0.136600  1.0  0.1821
  H  H34  1  0.985600  0.220200  0.153500  1.0  0.1918
  H  H35  1  0.308400  0.136600  0.065200  1.0  0.1803
  H  H36  1  0.220200  0.153500  0.985600  1.0  0.1912
  C  C37  1  0.492370  0.788270  0.793670  1.0  0.773
  C  C38  1  0.495300  0.668800  0.791800  1.0  -0.4307
  C  C39  1  0.411820  0.617620  0.868920  1.0  0.8201
  C  C40  1  0.793670  0.492370  0.788270  1.0  0.7775
  C  C41  1  0.791800  0.495300  0.668800  1.0  -0.4323
  C  C42  1  0.868920  0.411820  0.617620  1.0  0.8207
  C  C43  1  0.788270  0.793670  0.492370  1.0  0.7717
  C  C44  1  0.668800  0.791800  0.495300  1.0  -0.4328
  C  C45  1  0.617620  0.868920  0.411820  1.0  0.8251
  C  C46  1  0.711730  0.007630  0.706330  1.0  0.7728
  C  C47  1  0.831200  0.004700  0.708200  1.0  -0.4323
  C  C48  1  0.882380  0.088180  0.631080  1.0  0.8188
  C  C49  1  0.007630  0.706330  0.711730  1.0  0.7804
  C  C50  1  0.004700  0.708200  0.831200  1.0  -0.4347
  C  C51  1  0.088180  0.631080  0.882380  1.0  0.8223
  C  C52  1  0.706330  0.711730  0.007630  1.0  0.7722
  C  C53  1  0.708200  0.831200  0.004700  1.0  -0.4335
  C  C54  1  0.631080  0.882380  0.088180  1.0  0.8243
  C  C55  1  0.507630  0.211730  0.206330  1.0  0.7732
  C  C56  1  0.504700  0.331200  0.208200  1.0  -0.4355
  C  C57  1  0.588180  0.382380  0.131080  1.0  0.8184
  C  C58  1  0.206330  0.507630  0.211730  1.0  0.7795
  C  C59  1  0.208200  0.504700  0.331200  1.0  -0.4318
  C  C60  1  0.131080  0.588180  0.382380  1.0  0.8196
  C  C61  1  0.211730  0.206330  0.507630  1.0  0.7718
  C  C62  1  0.331200  0.208200  0.504700  1.0  -0.4334
  C  C63  1  0.382380  0.131080  0.588180  1.0  0.8242
  C  C64  1  0.288270  0.992370  0.293670  1.0  0.7723
  C  C65  1  0.168800  0.995300  0.291800  1.0  -0.4323
  C  C66  1  0.117620  0.911820  0.368920  1.0  0.8191
  C  C67  1  0.992370  0.293670  0.288270  1.0  0.7791
  C  C68  1  0.995300  0.291800  0.168800  1.0  -0.4318
  C  C69  1  0.911820  0.368920  0.117620  1.0  0.822
  C  C70  1  0.293670  0.288270  0.992370  1.0  0.7716
  C  C71  1  0.291800  0.168800  0.995300  1.0  -0.4319
  C  C72  1  0.368920  0.117620  0.911820  1.0  0.826
  O  O73  1  0.493430  0.844590  0.705150  1.0  -0.6182
  O  O74  1  0.491740  0.830150  0.879050  1.0  -0.6255
  O  O75  1  0.357520  0.553520  0.834920  1.0  -0.563
  O  O76  1  0.399050  0.637910  0.964570  1.0  -0.638
  O  O77  1  0.705150  0.493430  0.844590  1.0  -0.6124
  O  O78  1  0.879050  0.491740  0.830150  1.0  -0.6249
  O  O79  1  0.834920  0.357520  0.553520  1.0  -0.5633
  O  O80  1  0.964570  0.399050  0.637910  1.0  -0.6324
  O  O81  1  0.844590  0.705150  0.493430  1.0  -0.6144
  O  O82  1  0.830150  0.879050  0.491740  1.0  -0.6241
  O  O83  1  0.553520  0.834920  0.357520  1.0  -0.561
  O  O84  1  0.637910  0.964570  0.399050  1.0  -0.6387
  O  O85  1  0.655410  0.006570  0.794850  1.0  -0.6113
  O  O86  1  0.669850  0.008260  0.620950  1.0  -0.6245
  O  O87  1  0.946480  0.142480  0.665080  1.0  -0.5641
  O  O88  1  0.862090  0.100950  0.535430  1.0  -0.6376
  O  O89  1  0.006570  0.794850  0.655410  1.0  -0.6142
  O  O90  1  0.008260  0.620950  0.669850  1.0  -0.6252
  O  O91  1  0.142480  0.665080  0.946480  1.0  -0.5625
  O  O92  1  0.100950  0.535430  0.862090  1.0  -0.635
  O  O93  1  0.794850  0.655410  0.006570  1.0  -0.615
  O  O94  1  0.620950  0.669850  0.008260  1.0  -0.6243
  O  O95  1  0.665080  0.946480  0.142480  1.0  -0.5611
  O  O96  1  0.535430  0.862090  0.100950  1.0  -0.6346
  O  O97  1  0.506570  0.155410  0.294850  1.0  -0.6158
  O  O98  1  0.508260  0.169850  0.120950  1.0  -0.6252
  O  O99  1  0.642480  0.446480  0.165080  1.0  -0.5634
  O  O100  1  0.600950  0.362090  0.035430  1.0  -0.6362
  O  O101  1  0.294850  0.506570  0.155410  1.0  -0.6126
  O  O102  1  0.120950  0.508260  0.169850  1.0  -0.6249
  O  O103  1  0.165080  0.642480  0.446480  1.0  -0.5646
  O  O104  1  0.035430  0.600950  0.362090  1.0  -0.6341
  O  O105  1  0.155410  0.294850  0.506570  1.0  -0.6135
  O  O106  1  0.169850  0.120950  0.508260  1.0  -0.624
  O  O107  1  0.446480  0.165080  0.642480  1.0  -0.5598
  O  O108  1  0.362090  0.035430  0.600950  1.0  -0.6367
  O  O109  1  0.344590  0.993430  0.205150  1.0  -0.614
  O  O110  1  0.330150  0.991740  0.379050  1.0  -0.6241
  O  O111  1  0.053520  0.857520  0.334920  1.0  -0.5627
  O  O112  1  0.137910  0.899050  0.464570  1.0  -0.6373
  O  O113  1  0.993430  0.205150  0.344590  1.0  -0.615
  O  O114  1  0.991740  0.379050  0.330150  1.0  -0.6265
  O  O115  1  0.857520  0.334920  0.053520  1.0  -0.5622
  O  O116  1  0.899050  0.464570  0.137910  1.0  -0.6375
  O  O117  1  0.205150  0.344590  0.993430  1.0  -0.6145
  O  O118  1  0.379050  0.330150  0.991740  1.0  -0.6233
  O  O119  1  0.334920  0.053520  0.857520  1.0  -0.562
  O  O120  1  0.464570  0.137910  0.899050  1.0  -0.6336
