# generated using pymatgen
data_Zn4H36C66O13
_symmetry_space_group_name_H-M   'P 1'
_cell_length_a   19.55600000
_cell_length_b   16.33000000
_cell_length_c   25.57300000
_cell_angle_alpha   90.00000000
_cell_angle_beta   91.09700000
_cell_angle_gamma   90.00000000
_symmetry_Int_Tables_number   1
_chemical_formula_structural   Zn4H36C66O13
_chemical_formula_sum   'Zn16 H144 C264 O52'
_cell_volume   8165.22742155
_cell_formula_units_Z   4
loop_
 _symmetry_equiv_pos_site_id
 _symmetry_equiv_pos_as_xyz
  1  'x, y, z'
loop_
 _atom_site_type_symbol
 _atom_site_label
 _atom_site_symmetry_multiplicity
 _atom_site_fract_x
 _atom_site_fract_y
 _atom_site_fract_z
 _atom_site_occupancy
 _atom_site_charge
  Zn  Zn1  1  0.333333  0.224270  0.177480  1.0  1.0867
  Zn  Zn2  1  0.251140  0.135610  0.262960  1.0  1.0633
  Zn  Zn3  1  0.171050  0.208920  0.162230  1.0  1.0401
  Zn  Zn4  1  0.243480  0.321720  0.255200  1.0  1.0182
  Zn  Zn5  1  0.666667  0.724270  0.322520  1.0  1.086
  Zn  Zn6  1  0.748860  0.635610  0.237040  1.0  1.0635
  Zn  Zn7  1  0.828950  0.708920  0.337770  1.0  1.04
  Zn  Zn8  1  0.756520  0.821720  0.244800  1.0  1.0175
  Zn  Zn9  1  0.666667  0.775730  0.822520  1.0  1.0868
  Zn  Zn10  1  0.748860  0.864390  0.737040  1.0  1.0636
  Zn  Zn11  1  0.828950  0.791080  0.837770  1.0  1.04
  Zn  Zn12  1  0.756520  0.678280  0.744800  1.0  1.0179
  Zn  Zn13  1  0.333333  0.275730  0.677480  1.0  1.0868
  Zn  Zn14  1  0.251140  0.364390  0.762960  1.0  1.0635
  Zn  Zn15  1  0.171050  0.291080  0.662230  1.0  1.0399
  Zn  Zn16  1  0.243480  0.178280  0.755200  1.0  1.0184
  H  H17  1  0.429600  0.618700  0.998200  1.0  0.1039
  H  H18  1  0.626600  0.540400  0.158000  1.0  0.1118
  H  H19  1  0.225200  0.155100  0.516300  1.0  0.1062
  H  H20  1  0.984200  0.819600  0.361600  1.0  0.1198
  H  H21  1  0.590500  0.382600  0.516200  1.0  0.0868
  H  H22  1  0.179700  0.941200  0.300800  1.0  0.1085
  H  H23  1  0.403100  0.483500  0.299000  1.0  0.1124
  H  H24  1  0.199700  0.014300  0.390100  1.0  0.114
  H  H25  1  0.485100  0.389800  0.559900  1.0  0.1304
  H  H26  1  0.163900  0.036400  0.476400  1.0  0.1135
  H  H27  1  0.356900  0.377400  0.373800  1.0  0.0971
  H  H28  1  0.228200  0.141500  0.426200  1.0  0.1084
  H  H29  1  0.489700  0.380700  0.376900  1.0  0.1235
  H  H30  1  0.352200  0.396800  0.551800  1.0  0.1046
  H  H31  1  0.288800  0.532100  0.546400  1.0  0.1337
  H  H32  1  0.700100  0.412600  0.140000  1.0  0.1239
  H  H33  1  0.525800  0.687800  0.018400  1.0  0.0861
  H  H34  1  0.496000  0.265900  0.102700  1.0  0.1342
  H  H35  1  0.228900  0.661900  0.287300  1.0  0.1126
  H  H36  1  0.002100  0.054700  0.192200  1.0  0.1044
  H  H37  1  0.907000  0.978100  0.215600  1.0  0.104
  H  H38  1  0.232500  0.800300  0.280700  1.0  0.1248
  H  H39  1  0.247500  0.631000  0.404600  1.0  0.1052
  H  H40  1  0.999000  0.893600  0.449100  1.0  0.1322
  H  H41  1  0.500000  0.558500  0.316000  1.0  0.0947
  H  H42  1  0.064000  0.984400  0.502800  1.0  0.0934
  H  H43  1  0.602600  0.640700  0.085800  1.0  0.1023
  H  H44  1  0.399700  0.499400  0.044200  1.0  0.1367
  H  H45  1  0.238600  0.636100  0.494500  1.0  0.1161
  H  H46  1  0.427800  0.401000  0.120900  1.0  0.1005
  H  H47  1  0.602300  0.201400  0.102100  1.0  0.0957
  H  H48  1  0.039300  0.676900  0.350400  1.0  0.1157
  H  H49  1  0.592500  0.368300  0.426000  1.0  0.1167
  H  H50  1  0.297100  0.517900  0.365400  1.0  0.0967
  H  H51  1  0.131900  0.596500  0.322400  1.0  0.112
  H  H52  1  0.703100  0.273000  0.117900  1.0  0.1008
  H  H53  1  0.570400  0.118700  0.501800  1.0  0.1042
  H  H54  1  0.373400  0.040400  0.342000  1.0  0.1113
  H  H55  1  0.774800  0.655100  0.983700  1.0  0.1053
  H  H56  1  0.015800  0.319600  0.138400  1.0  0.12
  H  H57  1  0.409500  0.882600  0.983800  1.0  0.0865
  H  H58  1  0.820300  0.441200  0.199200  1.0  0.1076
  H  H59  1  0.596900  0.983500  0.201000  1.0  0.1122
  H  H60  1  0.800300  0.514300  0.109900  1.0  0.1144
  H  H61  1  0.514900  0.889800  0.940100  1.0  0.1307
  H  H62  1  0.836100  0.536400  0.023600  1.0  0.1136
  H  H63  1  0.643100  0.877400  0.126200  1.0  0.097
  H  H64  1  0.771800  0.641500  0.073800  1.0  0.1085
  H  H65  1  0.510300  0.880700  0.123100  1.0  0.1237
  H  H66  1  0.647800  0.896800  0.948200  1.0  0.1058
  H  H67  1  0.711200  0.032100  0.953600  1.0  0.1332
  H  H68  1  0.299900  0.912600  0.360000  1.0  0.1235
  H  H69  1  0.474200  0.187800  0.481600  1.0  0.0859
  H  H70  1  0.504000  0.765900  0.397300  1.0  0.134
  H  H71  1  0.771100  0.161900  0.212700  1.0  0.1125
  H  H72  1  0.997900  0.554700  0.307800  1.0  0.1052
  H  H73  1  0.093000  0.478100  0.284400  1.0  0.1039
  H  H74  1  0.767500  0.300300  0.219300  1.0  0.1246
  H  H75  1  0.752500  0.131000  0.095400  1.0  0.1044
  H  H76  1  0.001000  0.393600  0.050900  1.0  0.1316
  H  H77  1  0.500000  0.058500  0.184000  1.0  0.0957
  H  H78  1  0.936000  0.484400  0.997200  1.0  0.0926
  H  H79  1  0.397400  0.140700  0.414200  1.0  0.1022
  H  H80  1  0.600300  0.999400  0.455800  1.0  0.1367
  H  H81  1  0.761400  0.136100  0.005500  1.0  0.1155
  H  H82  1  0.572200  0.901000  0.379100  1.0  0.0995
  H  H83  1  0.397700  0.701400  0.397900  1.0  0.0953
  H  H84  1  0.960700  0.176900  0.149600  1.0  0.1146
  H  H85  1  0.407500  0.868300  0.074000  1.0  0.1163
  H  H86  1  0.702900  0.017900  0.134600  1.0  0.0966
  H  H87  1  0.868100  0.096500  0.177600  1.0  0.112
  H  H88  1  0.296900  0.773000  0.382100  1.0  0.1016
  H  H89  1  0.570400  0.381300  0.001800  1.0  0.1042
  H  H90  1  0.373400  0.459600  0.842000  1.0  0.1112
  H  H91  1  0.774800  0.844900  0.483700  1.0  0.1055
  H  H92  1  0.015800  0.180400  0.638400  1.0  0.1203
  H  H93  1  0.409500  0.617400  0.483800  1.0  0.0869
  H  H94  1  0.820300  0.058800  0.699200  1.0  0.1074
  H  H95  1  0.596900  0.516500  0.701000  1.0  0.1123
  H  H96  1  0.800300  0.985700  0.609900  1.0  0.1147
  H  H97  1  0.514900  0.610200  0.440100  1.0  0.1307
  H  H98  1  0.836100  0.963600  0.523600  1.0  0.1133
  H  H99  1  0.643100  0.622600  0.626200  1.0  0.0969
  H  H100  1  0.771800  0.858500  0.573800  1.0  0.1082
  H  H101  1  0.510300  0.619300  0.623100  1.0  0.1235
  H  H102  1  0.647800  0.603200  0.448200  1.0  0.1055
  H  H103  1  0.711200  0.467900  0.453600  1.0  0.133
  H  H104  1  0.299900  0.587400  0.860000  1.0  0.1238
  H  H105  1  0.474200  0.312200  0.981600  1.0  0.0861
  H  H106  1  0.504000  0.734100  0.897300  1.0  0.1349
  H  H107  1  0.771100  0.338100  0.712700  1.0  0.1125
  H  H108  1  0.997900  0.945300  0.807800  1.0  0.1053
  H  H109  1  0.093000  0.021900  0.784400  1.0  0.1039
  H  H110  1  0.767500  0.199700  0.719300  1.0  0.1249
  H  H111  1  0.752500  0.369000  0.595400  1.0  0.1052
  H  H112  1  0.001000  0.106400  0.550900  1.0  0.1319
  H  H113  1  0.500000  0.441500  0.684000  1.0  0.0958
  H  H114  1  0.936000  0.015600  0.497200  1.0  0.0925
  H  H115  1  0.397400  0.359300  0.914200  1.0  0.1021
  H  H116  1  0.600300  0.500600  0.955800  1.0  0.1365
  H  H117  1  0.761400  0.363900  0.505500  1.0  0.1147
  H  H118  1  0.572200  0.599000  0.879100  1.0  0.0991
  H  H119  1  0.397700  0.798600  0.897900  1.0  0.0947
  H  H120  1  0.960700  0.323100  0.649600  1.0  0.1147
  H  H121  1  0.407500  0.631700  0.574000  1.0  0.1158
  H  H122  1  0.702900  0.482100  0.634600  1.0  0.0967
  H  H123  1  0.868100  0.403500  0.677600  1.0  0.1116
  H  H124  1  0.296900  0.727000  0.882100  1.0  0.1003
  H  H125  1  0.429600  0.881300  0.498200  1.0  0.1037
  H  H126  1  0.626600  0.959600  0.658000  1.0  0.1122
  H  H127  1  0.225200  0.344900  0.016300  1.0  0.1059
  H  H128  1  0.984200  0.680400  0.861600  1.0  0.1192
  H  H129  1  0.590500  0.117400  0.016200  1.0  0.0865
  H  H130  1  0.179700  0.558800  0.800800  1.0  0.1085
  H  H131  1  0.403100  0.016500  0.799000  1.0  0.1124
  H  H132  1  0.199700  0.485700  0.890100  1.0  0.1142
  H  H133  1  0.485100  0.110200  0.059900  1.0  0.1303
  H  H134  1  0.163900  0.463600  0.976400  1.0  0.1137
  H  H135  1  0.356900  0.122600  0.873800  1.0  0.0971
  H  H136  1  0.228200  0.358500  0.926200  1.0  0.1088
  H  H137  1  0.489700  0.119300  0.876900  1.0  0.1234
  H  H138  1  0.352200  0.103200  0.051800  1.0  0.1048
  H  H139  1  0.288800  0.967900  0.046400  1.0  0.1339
  H  H140  1  0.700100  0.087400  0.640000  1.0  0.1242
  H  H141  1  0.525800  0.812200  0.518400  1.0  0.086
  H  H142  1  0.496000  0.234100  0.602700  1.0  0.1351
  H  H143  1  0.228900  0.838100  0.787300  1.0  0.1126
  H  H144  1  0.002100  0.445300  0.692200  1.0  0.1042
  H  H145  1  0.907000  0.521900  0.715600  1.0  0.1039
  H  H146  1  0.232500  0.699700  0.780700  1.0  0.125
  H  H147  1  0.247500  0.869000  0.904600  1.0  0.1047
  H  H148  1  0.999000  0.606400  0.949100  1.0  0.132
  H  H149  1  0.500000  0.941500  0.816000  1.0  0.095
  H  H150  1  0.064000  0.515600  0.002800  1.0  0.0933
  H  H151  1  0.602600  0.859300  0.585800  1.0  0.1019
  H  H152  1  0.399700  0.000600  0.544200  1.0  0.137
  H  H153  1  0.238600  0.863900  0.994500  1.0  0.1152
  H  H154  1  0.427800  0.099000  0.620900  1.0  0.1003
  H  H155  1  0.602300  0.298600  0.602100  1.0  0.095
  H  H156  1  0.039300  0.823100  0.850400  1.0  0.1154
  H  H157  1  0.592500  0.131700  0.926000  1.0  0.1167
  H  H158  1  0.297100  0.982100  0.865400  1.0  0.0966
  H  H159  1  0.131900  0.903500  0.822400  1.0  0.1112
  H  H160  1  0.703100  0.227000  0.617900  1.0  0.1017
  C  C161  1  0.370000  0.389100  0.219100  1.0  0.7225
  C  C162  1  0.123200  0.936600  0.370600  1.0  -0.0159
  C  C163  1  0.458400  0.599600  0.025900  1.0  -0.1184
  C  C164  1  0.123800  0.064700  0.233400  1.0  0.6979
  C  C165  1  0.275800  0.237400  0.354400  1.0  0.6895
  C  C166  1  0.611100  0.585000  0.263100  1.0  0.7247
  C  C167  1  0.475900  0.461100  0.186000  1.0  -0.0269
  C  C168  1  0.427700  0.450000  0.223800  1.0  -0.0561
  C  C169  1  0.139400  0.822900  0.312200  1.0  0.0102
  C  C170  1  0.535000  0.378000  0.124400  1.0  0.0052
  C  C171  1  0.014000  0.900200  0.298600  1.0  -0.0149
  C  C172  1  0.068500  0.006200  0.246500  1.0  -0.0895
  C  C173  1  0.073400  0.941500  0.283500  1.0  -0.0071
  C  C174  1  0.583100  0.510000  0.150600  1.0  -0.1057
  C  C175  1  0.952700  0.911000  0.272300  1.0  -0.1393
  C  C176  1  0.315700  0.310500  0.437600  1.0  -0.0054
  C  C177  1  0.284600  0.256800  0.522100  1.0  -0.0395
  C  C178  1  0.537100  0.507100  0.198200  1.0  -0.0047
  C  C179  1  0.249700  0.194000  0.496400  1.0  -0.0335
  C  C180  1  0.060600  0.904000  0.386900  1.0  -0.0037
  C  C181  1  0.026600  0.846000  0.348200  1.0  -0.1038
  C  C182  1  0.548700  0.381400  0.496600  1.0  -0.1159
  C  C183  1  0.137100  0.915100  0.314000  1.0  -0.1059
  C  C184  1  0.319200  0.465700  0.485000  1.0  -0.0002
  C  C185  1  0.437000  0.488400  0.273100  1.0  -0.0625
  C  C186  1  0.596000  0.419200  0.137000  1.0  -0.0212
  C  C187  1  0.159600  0.988500  0.402400  1.0  -0.0822
  C  C188  1  0.281900  0.246600  0.412500  1.0  -0.0864
  C  C189  1  0.316500  0.315000  0.492000  1.0  -0.077
  C  C190  1  0.486100  0.386100  0.522900  1.0  -0.1047
  C  C191  1  0.137300  0.003300  0.453200  1.0  -0.1595
  C  C192  1  0.355300  0.381200  0.412800  1.0  -0.1055
  C  C193  1  0.482000  0.504300  0.094700  1.0  0.0007
  C  C194  1  0.249900  0.187000  0.442800  1.0  -0.0472
  C  C195  1  0.489000  0.378800  0.414000  1.0  -0.0815
  C  C196  1  0.353400  0.392200  0.512800  1.0  -0.105
  C  C197  1  0.289800  0.529400  0.509400  1.0  -0.1046
  C  C198  1  0.080900  0.785000  0.331400  1.0  0.0042
  C  C199  1  0.659100  0.382700  0.133500  1.0  -0.0559
  C  C200  1  0.515000  0.639900  0.037700  1.0  -0.0934
  C  C201  1  0.536700  0.295400  0.110900  1.0  -0.1186
  C  C202  1  0.191300  0.693700  0.298800  1.0  -0.0915
  C  C203  1  0.006000  0.016000  0.219800  1.0  -0.0594
  C  C204  1  0.545700  0.539300  0.246800  1.0  -0.0721
  C  C205  1  0.949400  0.969300  0.233600  1.0  -0.0867
  C  C206  1  0.284100  0.257400  0.580300  1.0  0.7191
  C  C207  1  0.193500  0.774700  0.295100  1.0  -0.0845
  C  C208  1  0.265200  0.587700  0.425600  1.0  -0.1064
  C  C209  1  0.039400  0.918400  0.436400  1.0  -0.0898
  C  C210  1  0.494500  0.532000  0.283100  1.0  -0.0253
  C  C211  1  0.079600  0.971600  0.468800  1.0  -0.1158
  C  C212  1  0.560500  0.613500  0.078600  1.0  -0.0972
  C  C213  1  0.439900  0.529200  0.053500  1.0  -0.1327
  C  C214  1  0.261100  0.591300  0.478500  1.0  -0.108
  C  C215  1  0.471200  0.431100  0.129200  1.0  -0.1084
  C  C216  1  0.599900  0.258200  0.110000  1.0  -0.111
  C  C217  1  0.078300  0.702400  0.336000  1.0  -0.0167
  C  C218  1  0.550200  0.375100  0.443100  1.0  -0.1104
  C  C219  1  0.295300  0.520400  0.402500  1.0  -0.0953
  C  C220  1  0.427700  0.379700  0.439800  1.0  -0.0277
  C  C221  1  0.887800  0.865300  0.281900  1.0  0.6824
  C  C222  1  0.322400  0.457700  0.431300  1.0  0.0641
  C  C223  1  0.425400  0.385100  0.492700  1.0  -0.0045
  C  C224  1  0.541000  0.549300  0.105800  1.0  0.0242
  C  C225  1  0.133400  0.654500  0.319600  1.0  -0.1235
  C  C226  1  0.660500  0.300600  0.120100  1.0  -0.1151
  C  C227  1  0.630000  0.889100  0.280900  1.0  0.7225
  C  C228  1  0.876800  0.436600  0.129400  1.0  -0.0159
  C  C229  1  0.541600  0.099600  0.474100  1.0  -0.1169
  C  C230  1  0.876200  0.564700  0.266600  1.0  0.6975
  C  C231  1  0.724200  0.737400  0.145600  1.0  0.6901
  C  C232  1  0.388900  0.085000  0.236900  1.0  0.7252
  C  C233  1  0.524100  0.961100  0.314000  1.0  -0.025
  C  C234  1  0.572300  0.950000  0.276200  1.0  -0.0573
  C  C235  1  0.860600  0.322900  0.187800  1.0  0.0114
  C  C236  1  0.465000  0.878000  0.375600  1.0  0.005
  C  C237  1  0.986000  0.400200  0.201400  1.0  -0.0119
  C  C238  1  0.931500  0.506200  0.253500  1.0  -0.0897
  C  C239  1  0.926600  0.441500  0.216500  1.0  -0.0072
  C  C240  1  0.416900  0.010000  0.349400  1.0  -0.1059
  C  C241  1  0.047300  0.411000  0.227700  1.0  -0.1394
  C  C242  1  0.684300  0.810500  0.062400  1.0  -0.0034
  C  C243  1  0.715400  0.756800  0.977900  1.0  -0.0414
  C  C244  1  0.462900  0.007100  0.301800  1.0  -0.0028
  C  C245  1  0.750300  0.694000  0.003600  1.0  -0.0349
  C  C246  1  0.939400  0.404000  0.113100  1.0  -0.0053
  C  C247  1  0.973400  0.346000  0.151800  1.0  -0.1032
  C  C248  1  0.451300  0.881400  0.003400  1.0  -0.1141
  C  C249  1  0.862900  0.415100  0.186000  1.0  -0.1056
  C  C250  1  0.680800  0.965700  0.015000  1.0  1e-04
  C  C251  1  0.563000  0.988400  0.226900  1.0  -0.0621
  C  C252  1  0.404000  0.919200  0.363000  1.0  -0.021
  C  C253  1  0.840400  0.488500  0.097600  1.0  -0.0813
  C  C254  1  0.718100  0.746600  0.087500  1.0  -0.0865
  C  C255  1  0.683500  0.815000  0.008000  1.0  -0.0772
  C  C256  1  0.513900  0.886100  0.977100  1.0  -0.1052
  C  C257  1  0.862700  0.503300  0.046800  1.0  -0.1585
  C  C258  1  0.644700  0.881200  0.087200  1.0  -0.1059
  C  C259  1  0.518000  0.004300  0.405300  1.0  -0.0006
  C  C260  1  0.750100  0.687000  0.057200  1.0  -0.0475
  C  C261  1  0.511000  0.878800  0.086000  1.0  -0.0834
  C  C262  1  0.646600  0.892200  0.987200  1.0  -0.1063
  C  C263  1  0.710200  0.029400  0.990600  1.0  -0.1063
  C  C264  1  0.919100  0.285000  0.168600  1.0  0.0043
  C  C265  1  0.340900  0.882700  0.366500  1.0  -0.0556
  C  C266  1  0.485000  0.139900  0.462300  1.0  -0.094
  C  C267  1  0.463300  0.795400  0.389100  1.0  -0.1176
  C  C268  1  0.808700  0.193700  0.201200  1.0  -0.092
  C  C269  1  0.994000  0.516000  0.280200  1.0  -0.0597
  C  C270  1  0.454300  0.039300  0.253200  1.0  -0.072
  C  C271  1  0.050600  0.469300  0.266400  1.0  -0.0875
  C  C272  1  0.715900  0.757400  0.919700  1.0  0.7203
  C  C273  1  0.806500  0.274700  0.204900  1.0  -0.0845
  C  C274  1  0.734800  0.087700  0.074400  1.0  -0.1054
  C  C275  1  0.960600  0.418400  0.063600  1.0  -0.0901
  C  C276  1  0.505500  0.032000  0.216900  1.0  -0.0256
  C  C277  1  0.920400  0.471600  0.031200  1.0  -0.1161
  C  C278  1  0.439500  0.113500  0.421400  1.0  -0.0992
  C  C279  1  0.560100  0.029200  0.446500  1.0  -0.1292
  C  C280  1  0.738900  0.091300  0.021500  1.0  -0.1042
  C  C281  1  0.528800  0.931100  0.370800  1.0  -0.1078
  C  C282  1  0.400100  0.758200  0.390000  1.0  -0.1117
  C  C283  1  0.921700  0.202400  0.164000  1.0  -0.0145
  C  C284  1  0.449800  0.875100  0.056900  1.0  -0.1132
  C  C285  1  0.704700  0.020400  0.097500  1.0  -0.0962
  C  C286  1  0.572300  0.879700  0.060200  1.0  -0.0296
  C  C287  1  0.112200  0.365300  0.218100  1.0  0.6816
  C  C288  1  0.677600  0.957700  0.068700  1.0  0.0645
  C  C289  1  0.574600  0.885100  0.007300  1.0  -0.0041
  C  C290  1  0.459000  0.049300  0.394200  1.0  0.0235
  C  C291  1  0.866600  0.154500  0.180400  1.0  -0.1235
  C  C292  1  0.339500  0.800600  0.379900  1.0  -0.1147
  C  C293  1  0.630000  0.610900  0.780900  1.0  0.7229
  C  C294  1  0.876800  0.063400  0.629400  1.0  -0.0167
  C  C295  1  0.541600  0.400400  0.974100  1.0  -0.1162
  C  C296  1  0.876200  0.935300  0.766600  1.0  0.6974
  C  C297  1  0.724200  0.762600  0.645600  1.0  0.6903
  C  C298  1  0.388900  0.415000  0.736900  1.0  0.7252
  C  C299  1  0.524100  0.538900  0.814000  1.0  -0.0251
  C  C300  1  0.572300  0.550000  0.776200  1.0  -0.0574
  C  C301  1  0.860600  0.177100  0.687800  1.0  0.0115
  C  C302  1  0.465000  0.622000  0.875600  1.0  0.0051
  C  C303  1  0.986000  0.099800  0.701400  1.0  -0.0118
  C  C304  1  0.931500  0.993800  0.753500  1.0  -0.0911
  C  C305  1  0.926600  0.058500  0.716500  1.0  -0.0075
  C  C306  1  0.416900  0.490000  0.849400  1.0  -0.1055
  C  C307  1  0.047300  0.089000  0.727700  1.0  -0.1395
  C  C308  1  0.684300  0.689500  0.562400  1.0  -0.0038
  C  C309  1  0.715400  0.743200  0.477900  1.0  -0.0408
  C  C310  1  0.462900  0.492900  0.801800  1.0  -0.0038
  C  C311  1  0.750300  0.806000  0.503600  1.0  -0.0352
  C  C312  1  0.939400  0.096000  0.613100  1.0  -0.0051
  C  C313  1  0.973400  0.154000  0.651800  1.0  -0.1031
  C  C314  1  0.451300  0.618600  0.503400  1.0  -0.1142
  C  C315  1  0.862900  0.084900  0.686000  1.0  -0.1046
  C  C316  1  0.680800  0.534300  0.515000  1.0  0.0004
  C  C317  1  0.563000  0.511600  0.726900  1.0  -0.0621
  C  C318  1  0.404000  0.580800  0.863000  1.0  -0.0207
  C  C319  1  0.840400  0.011500  0.597600  1.0  -0.0815
  C  C320  1  0.718100  0.753400  0.587500  1.0  -0.0858
  C  C321  1  0.683500  0.685000  0.508000  1.0  -0.0774
  C  C322  1  0.513900  0.613900  0.477100  1.0  -0.1049
  C  C323  1  0.862700  0.996700  0.546800  1.0  -0.1593
  C  C324  1  0.644700  0.618800  0.587200  1.0  -0.1061
  C  C325  1  0.518000  0.495700  0.905300  1.0  -0.0012
  C  C326  1  0.750100  0.813000  0.557200  1.0  -0.0468
  C  C327  1  0.511000  0.621200  0.586000  1.0  -0.0839
  C  C328  1  0.646600  0.607800  0.487200  1.0  -0.1064
  C  C329  1  0.710200  0.470600  0.490600  1.0  -0.1057
  C  C330  1  0.919100  0.215000  0.668600  1.0  0.005
  C  C331  1  0.340900  0.617300  0.866500  1.0  -0.0561
  C  C332  1  0.485000  0.360100  0.962300  1.0  -0.0938
  C  C333  1  0.463300  0.704600  0.889100  1.0  -0.1176
  C  C334  1  0.808700  0.306300  0.701200  1.0  -0.0929
  C  C335  1  0.994000  0.984000  0.780200  1.0  -0.0597
  C  C336  1  0.454300  0.460700  0.753200  1.0  -0.0732
  C  C337  1  0.050600  0.030700  0.766400  1.0  -0.0873
  C  C338  1  0.715900  0.742600  0.419700  1.0  0.7203
  C  C339  1  0.806500  0.225300  0.704900  1.0  -0.0844
  C  C340  1  0.734800  0.412300  0.574400  1.0  -0.1037
  C  C341  1  0.960600  0.081600  0.563600  1.0  -0.0896
  C  C342  1  0.505500  0.468000  0.716900  1.0  -0.0261
  C  C343  1  0.920400  0.028400  0.531200  1.0  -0.1156
  C  C344  1  0.439500  0.386500  0.921400  1.0  -0.099
  C  C345  1  0.560100  0.470800  0.946500  1.0  -0.1276
  C  C346  1  0.738900  0.408700  0.521500  1.0  -0.1048
  C  C347  1  0.528800  0.568900  0.870800  1.0  -0.1077
  C  C348  1  0.400100  0.741800  0.890000  1.0  -0.1123
  C  C349  1  0.921700  0.297600  0.664000  1.0  -0.0124
  C  C350  1  0.449800  0.624900  0.556900  1.0  -0.114
  C  C351  1  0.704700  0.479600  0.597500  1.0  -0.0961
  C  C352  1  0.572300  0.620300  0.560200  1.0  -0.0296
  C  C353  1  0.112200  0.134700  0.718100  1.0  0.6826
  C  C354  1  0.677600  0.542300  0.568700  1.0  0.0649
  C  C355  1  0.574600  0.614900  0.507300  1.0  -0.0039
  C  C356  1  0.459000  0.450700  0.894200  1.0  0.0243
  C  C357  1  0.866600  0.345500  0.680400  1.0  -0.1233
  C  C358  1  0.339500  0.699400  0.879900  1.0  -0.1153
  C  C359  1  0.370000  0.110900  0.719100  1.0  0.7229
  C  C360  1  0.123200  0.563400  0.870600  1.0  -0.0162
  C  C361  1  0.458400  0.900400  0.525900  1.0  -0.1182
  C  C362  1  0.123800  0.435300  0.733400  1.0  0.6976
  C  C363  1  0.275800  0.262600  0.854400  1.0  0.6896
  C  C364  1  0.611100  0.915000  0.763100  1.0  0.7245
  C  C365  1  0.475900  0.038900  0.686000  1.0  -0.0271
  C  C366  1  0.427700  0.050000  0.723800  1.0  -0.0565
  C  C367  1  0.139400  0.677100  0.812200  1.0  0.0109
  C  C368  1  0.535000  0.122000  0.624400  1.0  0.0053
  C  C369  1  0.014000  0.599800  0.798600  1.0  -0.0151
  C  C370  1  0.068500  0.493800  0.746500  1.0  -0.0896
  C  C371  1  0.073400  0.558500  0.783500  1.0  -0.0069
  C  C372  1  0.583100  0.990000  0.650600  1.0  -0.1054
  C  C373  1  0.952700  0.589000  0.772300  1.0  -0.1391
  C  C374  1  0.315700  0.189500  0.937600  1.0  -0.0052
  C  C375  1  0.284600  0.243200  0.022100  1.0  -0.039
  C  C376  1  0.537100  0.992900  0.698200  1.0  -0.0048
  C  C377  1  0.249700  0.306000  0.996400  1.0  -0.034
  C  C378  1  0.060600  0.596000  0.886900  1.0  -0.0034
  C  C379  1  0.026600  0.654000  0.848200  1.0  -0.1046
  C  C380  1  0.548700  0.118600  0.996600  1.0  -0.1161
  C  C381  1  0.137100  0.584900  0.814000  1.0  -0.105
  C  C382  1  0.319200  0.034300  0.985000  1.0  -0.0002
  C  C383  1  0.437000  0.011600  0.773100  1.0  -0.0621
  C  C384  1  0.596000  0.080800  0.637000  1.0  -0.0213
  C  C385  1  0.159600  0.511500  0.902400  1.0  -0.0826
  C  C386  1  0.281900  0.253400  0.912500  1.0  -0.0863
  C  C387  1  0.316500  0.185000  0.992000  1.0  -0.0777
  C  C388  1  0.486100  0.113900  0.022900  1.0  -0.105
  C  C389  1  0.137300  0.496700  0.953200  1.0  -0.1602
  C  C390  1  0.355300  0.118800  0.912800  1.0  -0.1056
  C  C391  1  0.482000  0.995700  0.594700  1.0  -0.0003
  C  C392  1  0.249900  0.313000  0.942800  1.0  -0.0477
  C  C393  1  0.489000  0.121200  0.914000  1.0  -0.0821
  C  C394  1  0.353400  0.107800  0.012800  1.0  -0.105
  C  C395  1  0.289800  0.970600  0.009400  1.0  -0.1047
  C  C396  1  0.080900  0.715000  0.831400  1.0  0.0048
  C  C397  1  0.659100  0.117300  0.633500  1.0  -0.0561
  C  C398  1  0.515000  0.860100  0.537700  1.0  -0.093
  C  C399  1  0.536700  0.204600  0.610900  1.0  -0.1183
  C  C400  1  0.191300  0.806300  0.798800  1.0  -0.0916
  C  C401  1  0.006000  0.484000  0.719800  1.0  -0.0593
  C  C402  1  0.545700  0.960700  0.746800  1.0  -0.0726
  C  C403  1  0.949400  0.530700  0.733600  1.0  -0.0867
  C  C404  1  0.284100  0.242600  0.080300  1.0  0.7192
  C  C405  1  0.193500  0.725300  0.795100  1.0  -0.0851
  C  C406  1  0.265200  0.912300  0.925600  1.0  -0.1054
  C  C407  1  0.039400  0.581600  0.936400  1.0  -0.0908
  C  C408  1  0.494500  0.968000  0.783100  1.0  -0.0248
  C  C409  1  0.079600  0.528400  0.968800  1.0  -0.1154
  C  C410  1  0.560500  0.886500  0.578600  1.0  -0.0976
  C  C411  1  0.439900  0.970800  0.553500  1.0  -0.1327
  C  C412  1  0.261100  0.908700  0.978500  1.0  -0.1094
  C  C413  1  0.471200  0.068900  0.629200  1.0  -0.1085
  C  C414  1  0.599900  0.241800  0.610000  1.0  -0.1111
  C  C415  1  0.078300  0.797600  0.836000  1.0  -0.0159
  C  C416  1  0.550200  0.124900  0.943100  1.0  -0.111
  C  C417  1  0.295300  0.979600  0.902500  1.0  -0.0947
  C  C418  1  0.427700  0.120300  0.939800  1.0  -0.0274
  C  C419  1  0.887800  0.634700  0.781900  1.0  0.6825
  C  C420  1  0.322400  0.042300  0.931300  1.0  0.064
  C  C421  1  0.425400  0.114900  0.992700  1.0  -0.0045
  C  C422  1  0.541000  0.950700  0.605800  1.0  0.0247
  C  C423  1  0.133400  0.845500  0.819600  1.0  -0.1236
  C  C424  1  0.660500  0.199400  0.620100  1.0  -0.1155
  O  O425  1  0.385400  0.327300  0.194100  1.0  -0.5953
  O  O426  1  0.315000  0.404300  0.240800  1.0  -0.5819
  O  O427  1  0.664800  0.568500  0.242100  1.0  -0.5702
  O  O428  1  0.269900  0.167500  0.335700  1.0  -0.5979
  O  O429  1  0.273400  0.303400  0.329200  1.0  -0.5991
  O  O430  1  0.837400  0.890800  0.255700  1.0  -0.5789
  O  O431  1  0.339300  0.281600  0.602800  1.0  -0.6005
  O  O432  1  0.248700  0.222900  0.214100  1.0  -1.2186
  O  O433  1  0.112400  0.122100  0.202200  1.0  -0.6492
  O  O434  1  0.180600  0.054900  0.258300  1.0  -0.5825
  O  O435  1  0.234300  0.228700  0.603800  1.0  -0.6656
  O  O436  1  0.601700  0.639600  0.296200  1.0  -0.6066
  O  O437  1  0.888100  0.807000  0.313500  1.0  -0.6156
  O  O438  1  0.614600  0.827300  0.305900  1.0  -0.5947
  O  O439  1  0.685000  0.904300  0.259200  1.0  -0.5811
  O  O440  1  0.335200  0.068500  0.257900  1.0  -0.5715
  O  O441  1  0.730100  0.667500  0.164300  1.0  -0.598
  O  O442  1  0.726600  0.803400  0.170800  1.0  -0.5993
  O  O443  1  0.162600  0.390800  0.244300  1.0  -0.5798
  O  O444  1  0.660700  0.781600  0.897200  1.0  -0.5988
  O  O445  1  0.751300  0.722900  0.285900  1.0  -1.2189
  O  O446  1  0.887600  0.622100  0.297800  1.0  -0.6492
  O  O447  1  0.819400  0.554900  0.241700  1.0  -0.5837
  O  O448  1  0.765700  0.728700  0.896200  1.0  -0.6682
  O  O449  1  0.398300  0.139600  0.203800  1.0  -0.6069
  O  O450  1  0.111900  0.307000  0.186500  1.0  -0.6118
  O  O451  1  0.614600  0.672700  0.805900  1.0  -0.5948
  O  O452  1  0.685000  0.595700  0.759200  1.0  -0.5811
  O  O453  1  0.335200  0.431500  0.757900  1.0  -0.5713
  O  O454  1  0.730100  0.832500  0.664300  1.0  -0.5975
  O  O455  1  0.726600  0.696600  0.670800  1.0  -0.5989
  O  O456  1  0.162600  0.109200  0.744300  1.0  -0.5796
  O  O457  1  0.660700  0.718400  0.397200  1.0  -0.5994
  O  O458  1  0.751300  0.777100  0.785900  1.0  -1.2191
  O  O459  1  0.887600  0.877900  0.797800  1.0  -0.6486
  O  O460  1  0.819400  0.945100  0.741700  1.0  -0.5836
  O  O461  1  0.765700  0.771300  0.396200  1.0  -0.6694
  O  O462  1  0.398300  0.360400  0.703800  1.0  -0.6063
  O  O463  1  0.111900  0.193000  0.686500  1.0  -0.6124
  O  O464  1  0.385400  0.172700  0.694100  1.0  -0.5954
  O  O465  1  0.315000  0.095700  0.740800  1.0  -0.5823
  O  O466  1  0.664800  0.931500  0.742100  1.0  -0.571
  O  O467  1  0.269900  0.332500  0.835700  1.0  -0.5978
  O  O468  1  0.273400  0.196600  0.829200  1.0  -0.5993
  O  O469  1  0.837400  0.609200  0.755700  1.0  -0.5793
  O  O470  1  0.339300  0.218400  0.102800  1.0  -0.6001
  O  O471  1  0.248700  0.277100  0.714100  1.0  -1.2186
  O  O472  1  0.112400  0.377900  0.702200  1.0  -0.6483
  O  O473  1  0.180600  0.445100  0.758300  1.0  -0.582
  O  O474  1  0.234300  0.271300  0.103800  1.0  -0.6664
  O  O475  1  0.601700  0.860400  0.796200  1.0  -0.6056
  O  O476  1  0.888100  0.693000  0.813500  1.0  -0.6162
