# generated using pymatgen
data_Zn2H19C33O7
_symmetry_space_group_name_H-M   'P 1'
_cell_length_a   21.89800000
_cell_length_b   22.14900000
_cell_length_c   24.66300000
_cell_angle_alpha   109.97800000
_cell_angle_beta   109.83500000
_cell_angle_gamma   104.48900000
_symmetry_Int_Tables_number   1
_chemical_formula_structural   Zn2H19C33O7
_chemical_formula_sum   'Zn16 H152 C264 O56'
_cell_volume   9625.73997141
_cell_formula_units_Z   8
loop_
 _symmetry_equiv_pos_site_id
 _symmetry_equiv_pos_as_xyz
  1  'x, y, z'
loop_
 _atom_site_type_symbol
 _atom_site_label
 _atom_site_symmetry_multiplicity
 _atom_site_fract_x
 _atom_site_fract_y
 _atom_site_fract_z
 _atom_site_occupancy
 _atom_site_charge
  Zn  Zn1  1  0.125390  0.575070  0.125560  1.0  1.0632
  Zn  Zn2  1  0.967430  0.549530  0.030840  1.0  1.0446
  Zn  Zn3  1  0.056490  0.971180  0.488000  1.0  1.0721
  Zn  Zn4  1  0.971260  0.991890  0.366750  1.0  1.0634
  Zn  Zn5  1  0.544280  0.971980  0.964880  1.0  1.0502
  Zn  Zn6  1  0.610620  0.134030  0.059920  1.0  1.0608
  Zn  Zn7  1  0.373240  0.476590  0.519760  1.0  1.0773
  Zn  Zn8  1  0.468910  0.422340  0.444700  1.0  1.1364
  Zn  Zn9  1  0.874610  0.424930  0.874440  1.0  1.0635
  Zn  Zn10  1  0.032570  0.450470  0.969160  1.0  1.0477
  Zn  Zn11  1  0.943510  0.028820  0.512000  1.0  1.0695
  Zn  Zn12  1  0.028740  0.008110  0.633250  1.0  1.0631
  Zn  Zn13  1  0.455720  0.028020  0.035120  1.0  1.0471
  Zn  Zn14  1  0.389380  0.865970  0.940080  1.0  1.0609
  Zn  Zn15  1  0.626760  0.523410  0.480240  1.0  1.0784
  Zn  Zn16  1  0.531090  0.577660  0.555300  1.0  1.1324
  H  H17  1  0.210000  0.675600  0.366800  1.0  0.1152
  H  H18  1  0.230500  0.697500  0.472500  1.0  0.1002
  H  H19  1  0.231100  0.798300  0.542700  1.0  0.0998
  H  H20  1  0.204600  0.878700  0.506900  1.0  0.1033
  H  H21  1  0.180900  0.716800  0.277100  1.0  0.1137
  H  H22  1  0.172900  0.913600  0.413100  1.0  0.1018
  H  H23  1  0.278400  0.792800  0.261800  1.0  0.1155
  H  H24  1  0.352100  0.903700  0.285600  1.0  0.108
  H  H25  1  0.351600  0.004800  0.358400  1.0  0.1038
  H  H26  1  0.270200  0.993600  0.401700  1.0  0.1247
  H  H27  1  0.943000  0.793900  0.231400  1.0  0.1002
  H  H28  1  0.946300  0.694700  0.163000  1.0  0.1033
  H  H29  1  0.267600  0.132100  0.663800  1.0  0.1267
  H  H30  1  0.388700  0.168900  0.729300  1.0  0.1033
  H  H31  1  0.470200  0.280300  0.759500  1.0  0.0963
  H  H32  1  0.429800  0.356500  0.727800  1.0  0.1222
  H  H33  1  0.166700  0.160200  0.601800  1.0  0.1098
  H  H34  1  0.325100  0.380200  0.666200  1.0  0.0954
  H  H35  1  0.255800  0.438500  0.718000  1.0  0.1078
  H  H36  1  0.161100  0.425000  0.742700  1.0  0.104
  H  H37  1  0.085400  0.313900  0.718000  1.0  0.1008
  H  H38  1  0.099300  0.213500  0.659600  1.0  0.1068
  H  H39  1  0.221000  0.274800  0.435000  1.0  0.1049
  H  H40  1  0.137600  0.164200  0.401000  1.0  0.1079
  H  H41  1  0.882800  0.205100  0.416900  1.0  0.1301
  H  H42  1  0.908700  0.317100  0.424600  1.0  0.1016
  H  H43  1  0.837100  0.334900  0.343000  1.0  0.0964
  H  H44  1  0.736700  0.240700  0.252700  1.0  0.1125
  H  H45  1  0.796600  0.074600  0.354900  1.0  0.1054
  H  H46  1  0.652400  0.108100  0.193800  1.0  0.0985
  H  H47  1  0.693800  0.029000  0.380400  1.0  0.1147
  H  H48  1  0.574400  0.005400  0.358200  1.0  0.1152
  H  H49  1  0.502800  0.023800  0.277300  1.0  0.095
  H  H50  1  0.546500  0.061900  0.214100  1.0  0.1142
  H  H51  1  0.738000  0.950800  0.084600  1.0  0.1089
  H  H52  1  0.815100  0.939300  0.167600  1.0  0.1172
  H  H53  1  0.493200  0.329500  0.949900  1.0  0.128
  H  H54  1  0.488500  0.437800  0.961700  1.0  0.1006
  H  H55  1  0.567300  0.514800  0.947900  1.0  0.0922
  H  H56  1  0.653000  0.486800  0.920700  1.0  0.1257
  H  H57  1  0.555100  0.243900  0.925500  1.0  0.1099
  H  H58  1  0.707500  0.396400  0.893200  1.0  0.1019
  H  H59  1  0.661000  0.303900  0.773800  1.0  0.1222
  H  H60  1  0.580400  0.191900  0.688200  1.0  0.107
  H  H61  1  0.503900  0.114300  0.704700  1.0  0.0961
  H  H62  1  0.505400  0.147600  0.807100  1.0  0.1245
  H  H63  1  0.862900  0.372100  0.063200  1.0  0.113
  H  H64  1  0.787200  0.295100  0.081200  1.0  0.1028
  H  H65  1  0.425700  0.480000  0.735600  1.0  0.1267
  H  H66  1  0.467900  0.478300  0.836100  1.0  0.0873
  H  H67  1  0.474300  0.563100  0.927100  1.0  0.0949
  H  H68  1  0.431500  0.648800  0.918800  1.0  0.1204
  H  H69  1  0.364700  0.533800  0.666667  1.0  0.1006
  H  H70  1  0.372100  0.699900  0.845600  1.0  0.0914
  H  H71  1  0.229200  0.485700  0.606700  1.0  0.129
  H  H72  1  0.123700  0.487500  0.610700  1.0  0.0944
  H  H73  1  0.127000  0.567700  0.702900  1.0  0.1148
  H  H74  1  0.237100  0.652000  0.792400  1.0  0.1249
  H  H75  1  0.523500  0.833900  0.787700  1.0  0.0973
  H  H76  1  0.522700  0.749900  0.698800  1.0  0.1213
  H  H77  1  0.285400  0.367600  0.068500  1.0  0.1206
  H  H78  1  0.387600  0.347100  0.079200  1.0  0.1075
  H  H79  1  0.445700  0.326100  0.164000  1.0  0.0829
  H  H80  1  0.402700  0.323500  0.239100  1.0  0.1098
  H  H81  1  0.192900  0.379100  0.112500  1.0  0.0909
  H  H82  1  0.306800  0.334700  0.278200  1.0  0.0981
  H  H83  1  0.192200  0.225800  0.237500  1.0  0.1256
  H  H84  1  0.074800  0.153800  0.160400  1.0  0.1128
  H  H85  1  0.019100  0.175400  0.075600  1.0  0.1039
  H  H86  1  0.078300  0.272800  0.068100  1.0  0.1269
  H  H87  1  0.309600  0.560800  0.388800  1.0  0.109
  H  H88  1  0.257600  0.585100  0.304700  1.0  0.0949
  H  H89  1  0.922100  0.920700  0.411600  1.0  0.338
  H  H90  1  0.506000  0.941000  0.038000  1.0  0.4523
  H  H91  1  0.475000  0.460000  0.557000  1.0  0.4602
  H  H92  1  0.008000  0.455000  0.061000  1.0  0.202
  H  H93  1  0.790000  0.324400  0.633200  1.0  0.1158
  H  H94  1  0.769500  0.302500  0.527500  1.0  0.1003
  H  H95  1  0.768900  0.201700  0.457300  1.0  0.0994
  H  H96  1  0.795400  0.121300  0.493100  1.0  0.1039
  H  H97  1  0.819100  0.283200  0.722900  1.0  0.1137
  H  H98  1  0.827100  0.086400  0.586900  1.0  0.1014
  H  H99  1  0.721600  0.207200  0.738200  1.0  0.1148
  H  H100  1  0.647900  0.096300  0.714400  1.0  0.1083
  H  H101  1  0.648400  0.995200  0.641600  1.0  0.104
  H  H102  1  0.729800  0.006400  0.598300  1.0  0.1247
  H  H103  1  0.057000  0.206100  0.768600  1.0  0.0999
  H  H104  1  0.053700  0.305300  0.837000  1.0  0.1034
  H  H105  1  0.732400  0.867900  0.336200  1.0  0.1274
  H  H106  1  0.611300  0.831100  0.270700  1.0  0.1033
  H  H107  1  0.529800  0.719700  0.240500  1.0  0.0957
  H  H108  1  0.570200  0.643500  0.272200  1.0  0.1215
  H  H109  1  0.833300  0.839800  0.398200  1.0  0.1097
  H  H110  1  0.674900  0.619800  0.333800  1.0  0.0958
  H  H111  1  0.744200  0.561500  0.282000  1.0  0.1082
  H  H112  1  0.838900  0.575000  0.257300  1.0  0.1039
  H  H113  1  0.914600  0.686100  0.282000  1.0  0.101
  H  H114  1  0.900700  0.786500  0.340400  1.0  0.1065
  H  H115  1  0.779000  0.725200  0.565000  1.0  0.1043
  H  H116  1  0.862400  0.835800  0.599000  1.0  0.1082
  H  H117  1  0.117200  0.794900  0.583100  1.0  0.131
  H  H118  1  0.091300  0.682900  0.575400  1.0  0.1017
  H  H119  1  0.162900  0.665100  0.657000  1.0  0.0973
  H  H120  1  0.263300  0.759300  0.747300  1.0  0.1133
  H  H121  1  0.203400  0.925400  0.645100  1.0  0.1045
  H  H122  1  0.347600  0.891900  0.806200  1.0  0.0995
  H  H123  1  0.306200  0.971000  0.619600  1.0  0.1149
  H  H124  1  0.425600  0.994600  0.641800  1.0  0.1145
  H  H125  1  0.497200  0.976200  0.722700  1.0  0.095
  H  H126  1  0.453500  0.938100  0.785900  1.0  0.1142
  H  H127  1  0.262000  0.049200  0.915400  1.0  0.1093
  H  H128  1  0.184900  0.060700  0.832400  1.0  0.1177
  H  H129  1  0.506800  0.670500  0.050100  1.0  0.1283
  H  H130  1  0.511500  0.562200  0.038300  1.0  0.1002
  H  H131  1  0.432700  0.485200  0.052100  1.0  0.0909
  H  H132  1  0.347000  0.513200  0.079300  1.0  0.1255
  H  H133  1  0.444900  0.756100  0.074500  1.0  0.1103
  H  H134  1  0.292500  0.603600  0.106800  1.0  0.1022
  H  H135  1  0.339000  0.696100  0.226200  1.0  0.1229
  H  H136  1  0.419600  0.808100  0.311800  1.0  0.1074
  H  H137  1  0.496100  0.885700  0.295300  1.0  0.0958
  H  H138  1  0.494600  0.852400  0.192900  1.0  0.1244
  H  H139  1  0.137100  0.627900  0.936800  1.0  0.1137
  H  H140  1  0.212800  0.704900  0.918800  1.0  0.1029
  H  H141  1  0.574300  0.520000  0.264400  1.0  0.1284
  H  H142  1  0.532100  0.521700  0.163900  1.0  0.0875
  H  H143  1  0.525700  0.436900  0.072900  1.0  0.0943
  H  H144  1  0.568500  0.351200  0.081200  1.0  0.1216
  H  H145  1  0.635300  0.466200  0.333400  1.0  0.1005
  H  H146  1  0.627900  0.300100  0.154400  1.0  0.0918
  H  H147  1  0.770800  0.514300  0.393300  1.0  0.129
  H  H148  1  0.876300  0.512500  0.389300  1.0  0.0945
  H  H149  1  0.873000  0.432300  0.297100  1.0  0.1136
  H  H150  1  0.762900  0.348000  0.207600  1.0  0.1247
  H  H151  1  0.476500  0.166100  0.212300  1.0  0.0971
  H  H152  1  0.477300  0.250100  0.301200  1.0  0.1211
  H  H153  1  0.714600  0.632400  0.931500  1.0  0.1204
  H  H154  1  0.612400  0.652900  0.920800  1.0  0.1077
  H  H155  1  0.554300  0.673900  0.836000  1.0  0.0829
  H  H156  1  0.597300  0.676500  0.760900  1.0  0.1091
  H  H157  1  0.807100  0.620900  0.887500  1.0  0.0915
  H  H158  1  0.693200  0.665300  0.721800  1.0  0.0983
  H  H159  1  0.807800  0.774200  0.762500  1.0  0.1249
  H  H160  1  0.925200  0.846200  0.839600  1.0  0.1118
  H  H161  1  0.980900  0.824600  0.924400  1.0  0.1032
  H  H162  1  0.921700  0.727200  0.931900  1.0  0.1273
  H  H163  1  0.690400  0.439200  0.611200  1.0  0.1086
  H  H164  1  0.742400  0.414900  0.695300  1.0  0.0949
  H  H165  1  0.077900  0.079300  0.588400  1.0  0.3375
  H  H166  1  0.494000  0.059000  0.962000  1.0  0.4527
  H  H167  1  0.525000  0.540000  0.443000  1.0  0.4618
  H  H168  1  0.992000  0.545000  0.939000  1.0  0.2025
  C  C169  1  0.208700  0.716800  0.394600  1.0  -0.1043
  C  C170  1  0.221400  0.730300  0.457900  1.0  -0.1134
  C  C171  1  0.221000  0.789800  0.499500  1.0  -0.1234
  C  C172  1  0.205800  0.837900  0.478400  1.0  -0.0855
  C  C173  1  0.192300  0.825400  0.414700  1.0  0.0044
  C  C174  1  0.194100  0.764500  0.372780  1.0  -0.0088
  C  C175  1  0.179600  0.760000  0.306730  1.0  -0.1149
  C  C176  1  0.174400  0.870500  0.383460  1.0  -0.1137
  C  C177  1  0.231800  0.827400  0.317500  1.0  0.0037
  C  C178  1  0.277500  0.833800  0.290300  1.0  -0.0782
  C  C179  1  0.321100  0.899100  0.304500  1.0  -0.0703
  C  C180  1  0.320000  0.959300  0.347200  1.0  -0.0925
  C  C181  1  0.272200  0.952800  0.373900  1.0  -0.0538
  C  C182  1  0.229300  0.887600  0.359000  1.0  -0.0053
  C  C183  1  0.107570  0.762770  0.279970  1.0  -0.0084
  C  C184  1  0.104030  0.822060  0.321670  1.0  -0.0769
  C  C185  1  0.043130  0.834130  0.304780  1.0  -0.1167
  C  C186  1  0.985130  0.786060  0.244550  1.0  -0.0542
  C  C187  1  0.987350  0.727410  0.203550  1.0  -0.0481
  C  C188  1  0.048940  0.714930  0.220310  1.0  -0.1913
  C  C189  1  0.048210  0.651930  0.171020  1.0  0.7316
  C  C190  1  0.034710  0.894050  0.347410  1.0  0.7169
  C  C191  1  0.277700  0.223160  0.658580  1.0  0.0268
  C  C192  1  0.300700  0.177900  0.677200  1.0  -0.0463
  C  C193  1  0.372200  0.199500  0.715400  1.0  -0.1136
  C  C194  1  0.420700  0.265900  0.733800  1.0  -0.0972
  C  C195  1  0.396800  0.310900  0.714900  1.0  -0.0142
  C  C196  1  0.325300  0.289650  0.677310  1.0  -0.0034
  C  C197  1  0.201560  0.208350  0.615840  1.0  -0.1126
  C  C198  1  0.289990  0.331860  0.651430  1.0  -0.115
  C  C199  1  0.186020  0.266930  0.654670  1.0  0.0342
  C  C200  1  0.233390  0.333710  0.672840  1.0  0.0045
  C  C201  1  0.224000  0.392700  0.705920  1.0  -0.0789
  C  C202  1  0.168100  0.384600  0.721200  1.0  -0.1164
  C  C203  1  0.122300  0.318800  0.705600  1.0  -0.1361
  C  C204  1  0.131000  0.259200  0.671370  1.0  -0.0726
  C  C205  1  0.202500  0.220090  0.557780  1.0  -0.0272
  C  C206  1  0.252100  0.287150  0.577650  1.0  -0.0483
  C  C207  1  0.259600  0.308500  0.532200  1.0  -0.0723
  C  C208  1  0.216500  0.261300  0.466600  1.0  -0.0515
  C  C209  1  0.167200  0.195400  0.446300  1.0  -0.0792
  C  C210  1  0.160700  0.174140  0.491960  1.0  -0.0708
  C  C211  1  0.105730  0.102040  0.466410  1.0  0.6985
  C  C212  1  0.312900  0.378600  0.549600  1.0  0.6992
  C  C213  1  0.790600  0.157180  0.331780  1.0  0.0046
  C  C214  1  0.852000  0.212300  0.384200  1.0  -0.1103
  C  C215  1  0.867500  0.278000  0.387800  1.0  -0.1295
  C  C216  1  0.824900  0.288900  0.339400  1.0  -0.161
  C  C217  1  0.765500  0.233800  0.286700  1.0  -0.0308
  C  C218  1  0.747500  0.168050  0.283100  1.0  0.0068
  C  C219  1  0.764700  0.081390  0.319530  1.0  -0.1124
  C  C220  1  0.684460  0.100820  0.228720  1.0  -0.1197
  C  C221  1  0.689700  0.060940  0.311130  1.0  -0.0253
  C  C222  1  0.663900  0.036200  0.347270  1.0  -0.097
  C  C223  1  0.593000  0.022100  0.334000  1.0  -0.1207
  C  C224  1  0.550700  0.032700  0.285800  1.0  -0.09
  C  C225  1  0.576900  0.056400  0.248400  1.0  -0.1153
  C  C226  1  0.646800  0.071400  0.262260  1.0  -0.0282
  C  C227  1  0.760080  0.039890  0.253030  1.0  -0.0141
  C  C228  1  0.717060  0.050800  0.203700  1.0  -0.0457
  C  C229  1  0.709180  0.018440  0.140560  1.0  -0.0399
  C  C230  1  0.744760  0.974780  0.127690  1.0  -0.078
  C  C231  1  0.788910  0.966410  0.176400  1.0  -0.1187
  C  C232  1  0.795840  0.997950  0.239990  1.0  -0.0632
  C  C233  1  0.842700  0.986460  0.291980  1.0  0.7165
  C  C234  1  0.663510  0.027780  0.086500  1.0  0.7701
  C  C235  1  0.576630  0.344310  0.929030  1.0  -0.0006
  C  C236  1  0.525700  0.361200  0.944240  1.0  -0.0759
  C  C237  1  0.523000  0.425500  0.951090  1.0  -0.1326
  C  C238  1  0.569800  0.471100  0.942650  1.0  -0.0922
  C  C239  1  0.621000  0.454750  0.926450  1.0  -0.1421
  C  C240  1  0.623990  0.390500  0.919000  1.0  0.0029
  C  C241  1  0.588390  0.277560  0.919000  1.0  -0.1179
  C  C242  1  0.674080  0.362910  0.899680  1.0  -0.114
  C  C243  1  0.581810  0.245950  0.850410  1.0  -0.0181
  C  C244  1  0.627480  0.292010  0.839600  1.0  -0.0133
  C  C245  1  0.628600  0.272200  0.779560  1.0  -0.1086
  C  C246  1  0.581700  0.206300  0.729690  1.0  -0.0898
  C  C247  1  0.536100  0.160200  0.739700  1.0  -0.1183
  C  C248  1  0.536430  0.180000  0.800800  1.0  -0.105
  C  C249  1  0.694140  0.281510  0.012710  1.0  -0.0425
  C  C250  1  0.666510  0.301490  0.965090  1.0  -0.0345
  C  C251  1  0.712190  0.345680  0.953030  1.0  -0.025
  C  C252  1  0.784450  0.370880  0.988200  1.0  -0.1105
  C  C253  1  0.812690  0.353240  0.037310  1.0  -0.103
  C  C254  1  0.767390  0.307980  0.048450  1.0  -0.0624
  C  C255  1  0.649550  0.232560  0.027770  1.0  0.7002
  C  C256  1  0.834190  0.413070  0.972160  1.0  0.7232
  C  C257  1  0.400350  0.563250  0.767090  1.0  0.0121
  C  C258  1  0.425900  0.513470  0.772080  1.0  -0.15
  C  C259  1  0.452000  0.513480  0.832340  1.0  -0.0981
  C  C260  1  0.455000  0.563400  0.886410  1.0  -0.1164
  C  C261  1  0.429920  0.614400  0.881820  1.0  -0.0551
  C  C262  1  0.402560  0.613650  0.821850  1.0  0.0112
  C  C263  1  0.367360  0.570520  0.705790  1.0  -0.1143
  C  C264  1  0.370670  0.663900  0.806830  1.0  -0.1083
  C  C265  1  0.294700  0.567120  0.698300  1.0  0.0026
  C  C266  1  0.230900  0.518900  0.644500  1.0  -0.0866
  C  C267  1  0.168600  0.520500  0.647300  1.0  -0.1268
  C  C268  1  0.170300  0.568600  0.702000  1.0  -0.1216
  C  C269  1  0.235000  0.617800  0.755000  1.0  -0.1218
  C  C270  1  0.296800  0.616200  0.752400  1.0  -0.0008
  C  C271  1  0.411220  0.645080  0.722320  1.0  -0.0386
  C  C272  1  0.413190  0.696420  0.777310  1.0  -0.0298
  C  C273  1  0.453290  0.766470  0.799890  1.0  -0.0757
  C  C274  1  0.494370  0.785410  0.770610  1.0  -0.0657
  C  C275  1  0.494010  0.735830  0.717550  1.0  -0.089
  C  C276  1  0.450520  0.664690  0.692240  1.0  -0.0531
  C  C277  1  0.449500  0.612900  0.632590  1.0  0.7238
  C  C278  1  0.453860  0.824450  0.855140  1.0  0.7041
  C  C279  1  0.283900  0.357480  0.147560  1.0  -0.0002
  C  C280  1  0.309400  0.358600  0.102910  1.0  -0.0732
  C  C281  1  0.369800  0.346600  0.109300  1.0  -0.1131
  C  C282  1  0.404000  0.334000  0.159500  1.0  -0.0865
  C  C283  1  0.378500  0.332600  0.204800  1.0  -0.091
  C  C284  1  0.318200  0.344540  0.198710  1.0  -0.0047
  C  C285  1  0.218500  0.369890  0.148880  1.0  -0.1024
  C  C286  1  0.281900  0.344790  0.242270  1.0  -0.1131
  C  C287  1  0.172300  0.306500  0.147600  1.0  0.0129
  C  C288  1  0.205800  0.292300  0.198200  1.0  0.0366
  C  C289  1  0.169400  0.235300  0.203000  1.0  -0.0721
  C  C290  1  0.100500  0.193100  0.157500  1.0  -0.1374
  C  C291  1  0.067200  0.206300  0.107400  1.0  -0.1194
  C  C292  1  0.102100  0.263300  0.102300  1.0  -0.062
  C  C293  1  0.245750  0.431320  0.216490  1.0  -0.0216
  C  C294  1  0.279420  0.416600  0.267620  1.0  -0.0439
  C  C295  1  0.304000  0.464910  0.331900  1.0  -0.0659
  C  C296  1  0.294300  0.527900  0.345060  1.0  -0.0829
  C  C297  1  0.262800  0.541900  0.294980  1.0  -0.0581
  C  C298  1  0.238220  0.493630  0.229620  1.0  -0.1381
  C  C299  1  0.205310  0.513590  0.178200  1.0  0.6735
  C  C300  1  0.341750  0.454950  0.388920  1.0  0.7372
  C  C301  1  0.791300  0.283200  0.605400  1.0  -0.1037
  C  C302  1  0.778600  0.269700  0.542100  1.0  -0.112
  C  C303  1  0.779000  0.210200  0.500500  1.0  -0.1229
  C  C304  1  0.794200  0.162100  0.521600  1.0  -0.0841
  C  C305  1  0.807700  0.174600  0.585300  1.0  0.0034
  C  C306  1  0.805900  0.235500  0.627220  1.0  -0.0103
  C  C307  1  0.820400  0.240000  0.693270  1.0  -0.1154
  C  C308  1  0.825600  0.129500  0.616540  1.0  -0.1128
  C  C309  1  0.768200  0.172600  0.682500  1.0  0.0028
  C  C310  1  0.722500  0.166200  0.709700  1.0  -0.0791
  C  C311  1  0.678900  0.100900  0.695500  1.0  -0.0711
  C  C312  1  0.680000  0.040700  0.652800  1.0  -0.0952
  C  C313  1  0.727800  0.047200  0.626100  1.0  -0.0581
  C  C314  1  0.770700  0.112400  0.641000  1.0  -0.0056
  C  C315  1  0.892430  0.237230  0.720030  1.0  -0.0062
  C  C316  1  0.895970  0.177940  0.678330  1.0  -0.0754
  C  C317  1  0.956870  0.165870  0.695220  1.0  -0.1175
  C  C318  1  0.014870  0.213940  0.755450  1.0  -0.0532
  C  C319  1  0.012650  0.272590  0.796450  1.0  -0.0484
  C  C320  1  0.951060  0.285070  0.779690  1.0  -0.1903
  C  C321  1  0.951790  0.348070  0.828980  1.0  0.7332
  C  C322  1  0.965290  0.105950  0.652590  1.0  0.7164
  C  C323  1  0.722300  0.776840  0.341420  1.0  0.0261
  C  C324  1  0.699300  0.822100  0.322800  1.0  -0.0436
  C  C325  1  0.627800  0.800500  0.284600  1.0  -0.1137
  C  C326  1  0.579300  0.734100  0.266200  1.0  -0.0984
  C  C327  1  0.603200  0.689100  0.285100  1.0  -0.0166
  C  C328  1  0.674700  0.710350  0.322690  1.0  -0.0052
  C  C329  1  0.798440  0.791650  0.384160  1.0  -0.111
  C  C330  1  0.710010  0.668140  0.348570  1.0  -0.1155
  C  C331  1  0.813980  0.733070  0.345330  1.0  0.0323
  C  C332  1  0.766610  0.666290  0.327160  1.0  0.0042
  C  C333  1  0.776000  0.607300  0.294080  1.0  -0.079
  C  C334  1  0.831900  0.615400  0.278800  1.0  -0.1132
  C  C335  1  0.877700  0.681200  0.294400  1.0  -0.1336
  C  C336  1  0.869000  0.740800  0.328630  1.0  -0.0738
  C  C337  1  0.797500  0.779910  0.442220  1.0  -0.0259
  C  C338  1  0.747900  0.712850  0.422350  1.0  -0.0481
  C  C339  1  0.740400  0.691500  0.467800  1.0  -0.0685
  C  C340  1  0.783500  0.738700  0.533400  1.0  -0.0545
  C  C341  1  0.832800  0.804600  0.553700  1.0  -0.0786
  C  C342  1  0.839300  0.825860  0.508040  1.0  -0.0715
  C  C343  1  0.894270  0.897960  0.533590  1.0  0.6961
  C  C344  1  0.687100  0.621400  0.450400  1.0  0.6984
  C  C345  1  0.209400  0.842820  0.668220  1.0  0.0043
  C  C346  1  0.148000  0.787700  0.615800  1.0  -0.1127
  C  C347  1  0.132500  0.722000  0.612200  1.0  -0.1316
  C  C348  1  0.175100  0.711100  0.660600  1.0  -0.1627
  C  C349  1  0.234500  0.766200  0.713300  1.0  -0.0343
  C  C350  1  0.252500  0.831950  0.716900  1.0  0.0052
  C  C351  1  0.235300  0.918610  0.680470  1.0  -0.1127
  C  C352  1  0.315540  0.899180  0.771280  1.0  -0.1213
  C  C353  1  0.310300  0.939060  0.688870  1.0  -0.0249
  C  C354  1  0.336100  0.963800  0.652730  1.0  -0.0989
  C  C355  1  0.407000  0.977900  0.666000  1.0  -0.1211
  C  C356  1  0.449300  0.967300  0.714200  1.0  -0.0899
  C  C357  1  0.423100  0.943600  0.751600  1.0  -0.114
  C  C358  1  0.353200  0.928600  0.737740  1.0  -0.0273
  C  C359  1  0.239920  0.960110  0.746970  1.0  -0.014
  C  C360  1  0.282940  0.949200  0.796300  1.0  -0.0448
  C  C361  1  0.290820  0.981560  0.859440  1.0  -0.038
  C  C362  1  0.255240  0.025220  0.872310  1.0  -0.0761
  C  C363  1  0.211090  0.033590  0.823600  1.0  -0.1212
  C  C364  1  0.204160  0.002050  0.760010  1.0  -0.0598
  C  C365  1  0.157300  0.013540  0.708020  1.0  0.714
  C  C366  1  0.336490  0.972220  0.913500  1.0  0.771
  C  C367  1  0.423370  0.655690  0.070970  1.0  -0.0004
  C  C368  1  0.474300  0.638800  0.055760  1.0  -0.0751
  C  C369  1  0.477000  0.574500  0.048910  1.0  -0.1321
  C  C370  1  0.430200  0.528900  0.057350  1.0  -0.0954
  C  C371  1  0.379000  0.545250  0.073550  1.0  -0.1428
  C  C372  1  0.376010  0.609500  0.081000  1.0  0.0007
  C  C373  1  0.411610  0.722440  0.081000  1.0  -0.1179
  C  C374  1  0.325920  0.637090  0.100320  1.0  -0.115
  C  C375  1  0.418190  0.754050  0.149590  1.0  -0.0166
  C  C376  1  0.372520  0.707990  0.160400  1.0  -0.0142
  C  C377  1  0.371400  0.727800  0.220440  1.0  -0.1109
  C  C378  1  0.418300  0.793700  0.270310  1.0  -0.0894
  C  C379  1  0.463900  0.839800  0.260300  1.0  -0.1175
  C  C380  1  0.463570  0.820000  0.199200  1.0  -0.103
  C  C381  1  0.305860  0.718490  0.987290  1.0  -0.0407
  C  C382  1  0.333490  0.698510  0.034910  1.0  -0.0356
  C  C383  1  0.287810  0.654320  0.046970  1.0  -0.0252
  C  C384  1  0.215550  0.629120  0.011800  1.0  -0.1106
  C  C385  1  0.187310  0.646760  0.962690  1.0  -0.1047
  C  C386  1  0.232610  0.692020  0.951550  1.0  -0.0638
  C  C387  1  0.350450  0.767440  0.972230  1.0  0.7004
  C  C388  1  0.165810  0.586930  0.027840  1.0  0.7234
  C  C389  1  0.599650  0.436750  0.232910  1.0  0.0112
  C  C390  1  0.574100  0.486530  0.227920  1.0  -0.1487
  C  C391  1  0.548000  0.486520  0.167660  1.0  -0.0959
  C  C392  1  0.545000  0.436600  0.113590  1.0  -0.1162
  C  C393  1  0.570080  0.385600  0.118180  1.0  -0.0536
  C  C394  1  0.597440  0.386350  0.178150  1.0  0.0071
  C  C395  1  0.632640  0.429480  0.294210  1.0  -0.1073
  C  C396  1  0.629330  0.336100  0.193170  1.0  -0.1095
  C  C397  1  0.705300  0.432880  0.301700  1.0  0.002
  C  C398  1  0.769100  0.481100  0.355500  1.0  -0.0856
  C  C399  1  0.831400  0.479500  0.352700  1.0  -0.1224
  C  C400  1  0.829700  0.431400  0.298000  1.0  -0.1195
  C  C401  1  0.765000  0.382200  0.245000  1.0  -0.1215
  C  C402  1  0.703200  0.383800  0.247600  1.0  -0.0024
  C  C403  1  0.588780  0.354920  0.277680  1.0  -0.0322
  C  C404  1  0.586810  0.303580  0.222690  1.0  -0.0297
  C  C405  1  0.546710  0.233530  0.200110  1.0  -0.0762
  C  C406  1  0.505630  0.214590  0.229390  1.0  -0.0644
  C  C407  1  0.505990  0.264170  0.282450  1.0  -0.0906
  C  C408  1  0.549480  0.335310  0.307760  1.0  -0.0547
  C  C409  1  0.550500  0.387100  0.367410  1.0  0.7238
  C  C410  1  0.546140  0.175550  0.144860  1.0  0.7042
  C  C411  1  0.716100  0.642520  0.852440  1.0  0.0033
  C  C412  1  0.690600  0.641400  0.897090  1.0  -0.0728
  C  C413  1  0.630200  0.653400  0.890700  1.0  -0.114
  C  C414  1  0.596000  0.666000  0.840500  1.0  -0.0866
  C  C415  1  0.621500  0.667400  0.795200  1.0  -0.0917
  C  C416  1  0.681800  0.655460  0.801290  1.0  -0.0053
  C  C417  1  0.781500  0.630110  0.851120  1.0  -0.1017
  C  C418  1  0.718100  0.655210  0.757730  1.0  -0.1132
  C  C419  1  0.827700  0.693500  0.852400  1.0  0.0135
  C  C420  1  0.794200  0.707700  0.801800  1.0  0.0349
  C  C421  1  0.830600  0.764700  0.797000  1.0  -0.0702
  C  C422  1  0.899500  0.806900  0.842500  1.0  -0.135
  C  C423  1  0.932800  0.793700  0.892600  1.0  -0.1209
  C  C424  1  0.897900  0.736700  0.897700  1.0  -0.0632
  C  C425  1  0.754250  0.568680  0.783510  1.0  -0.0213
  C  C426  1  0.720580  0.583400  0.732380  1.0  -0.0452
  C  C427  1  0.696000  0.535090  0.668100  1.0  -0.069
  C  C428  1  0.705700  0.472100  0.654940  1.0  -0.0839
  C  C429  1  0.737200  0.458100  0.705020  1.0  -0.059
  C  C430  1  0.761780  0.506370  0.770380  1.0  -0.1387
  C  C431  1  0.794690  0.486410  0.821800  1.0  0.6732
  C  C432  1  0.658250  0.545050  0.611080  1.0  0.7383
  O  O433  1  0.107300  0.649410  0.179310  1.0  -0.599
  O  O434  1  0.989670  0.606540  0.126060  1.0  -0.5979
  O  O435  1  0.990470  0.914110  0.318410  1.0  -0.5996
  O  O436  1  0.068930  0.919550  0.407660  1.0  -0.59
  O  O437  1  0.036100  0.500490  0.058040  1.0  -0.8405
  O  O438  1  0.887280  0.465130  0.018630  1.0  -0.5908
  O  O439  1  0.958890  0.970300  0.434180  1.0  -0.8924
  O  O440  1  0.054540  0.079190  0.410730  1.0  -0.5852
  O  O441  1  0.113800  0.070030  0.499110  1.0  -0.5889
  O  O442  1  0.905150  0.999190  0.297770  1.0  -0.608
  O  O443  1  0.820020  0.966260  0.325650  1.0  -0.5647
  O  O444  1  0.629640  0.976320  0.031240  1.0  -0.5885
  O  O445  1  0.662820  0.087280  0.100400  1.0  -0.6205
  O  O446  1  0.365830  0.413970  0.602510  1.0  -0.5319
  O  O447  1  0.299910  0.396220  0.504150  1.0  -0.6087
  O  O448  1  0.479000  0.942770  0.006560  1.0  -1.0131
  O  O449  1  0.508000  0.880900  0.887510  1.0  -0.636
  O  O450  1  0.678140  0.195380  0.047680  1.0  -0.5953
  O  O451  1  0.590010  0.229110  0.021200  1.0  -0.5658
  O  O452  1  0.399400  0.812480  0.863440  1.0  -0.5994
  O  O453  1  0.389940  0.564000  0.590400  1.0  -0.59
  O  O454  1  0.506560  0.623120  0.629130  1.0  -0.6286
  O  O455  1  0.465000  0.477010  0.530170  1.0  -1.0214
  O  O456  1  0.333940  0.483480  0.439160  1.0  -0.6133
  O  O457  1  0.380210  0.421590  0.384580  1.0  -0.6099
  O  O458  1  0.206120  0.488460  0.124970  1.0  -0.5332
  O  O459  1  0.177640  0.556660  0.194040  1.0  -0.5969
  O  O460  1  0.817650  0.391360  0.912310  1.0  -0.6011
  O  O461  1  0.892700  0.350590  0.820690  1.0  -0.5986
  O  O462  1  0.010330  0.393460  0.873940  1.0  -0.5989
  O  O463  1  0.009530  0.085890  0.681590  1.0  -0.5973
  O  O464  1  0.931070  0.080450  0.592340  1.0  -0.5893
  O  O465  1  0.963900  0.499510  0.941960  1.0  -0.8403
  O  O466  1  0.112720  0.534870  0.981370  1.0  -0.5901
  O  O467  1  0.041110  0.029700  0.565820  1.0  -0.8908
  O  O468  1  0.945460  0.920810  0.589270  1.0  -0.5856
  O  O469  1  0.886200  0.929970  0.500890  1.0  -0.5887
  O  O470  1  0.094850  0.000810  0.702230  1.0  -0.6065
  O  O471  1  0.179980  0.033740  0.674350  1.0  -0.564
  O  O472  1  0.370360  0.023680  0.968760  1.0  -0.5915
  O  O473  1  0.337180  0.912720  0.899600  1.0  -0.6215
  O  O474  1  0.634170  0.586030  0.397490  1.0  -0.5326
  O  O475  1  0.700090  0.603780  0.495850  1.0  -0.6088
  O  O476  1  0.521000  0.057230  0.993440  1.0  -1.0124
  O  O477  1  0.492000  0.119100  0.112490  1.0  -0.6393
  O  O478  1  0.321860  0.804620  0.952320  1.0  -0.5932
  O  O479  1  0.409990  0.770890  0.978800  1.0  -0.5667
  O  O480  1  0.600600  0.187520  0.136560  1.0  -0.601
  O  O481  1  0.610060  0.436000  0.409600  1.0  -0.5898
  O  O482  1  0.493440  0.376880  0.370870  1.0  -0.6287
  O  O483  1  0.535000  0.522990  0.469830  1.0  -1.0229
  O  O484  1  0.666060  0.516520  0.560840  1.0  -0.6127
  O  O485  1  0.619790  0.578410  0.615420  1.0  -0.6094
  O  O486  1  0.793880  0.511540  0.875030  1.0  -0.5345
  O  O487  1  0.822360  0.443340  0.805960  1.0  -0.5954
  O  O488  1  0.182350  0.608640  0.087690  1.0  -0.6016
