# generated using pymatgen
data_CoH10C11N2O5
_symmetry_space_group_name_H-M   'P 1'
_cell_length_a   11.31400000
_cell_length_b   11.31400000
_cell_length_c   25.24290000
_cell_angle_alpha   90.00000000
_cell_angle_beta   90.00000000
_cell_angle_gamma   90.00000000
_symmetry_Int_Tables_number   1
_chemical_formula_structural   CoH10C11N2O5
_chemical_formula_sum   'Co8 H80 C88 N16 O40'
_cell_volume   3231.25770217
_cell_formula_units_Z   8
loop_
 _symmetry_equiv_pos_site_id
 _symmetry_equiv_pos_as_xyz
  1  'x, y, z'
loop_
 _atom_site_type_symbol
 _atom_site_label
 _atom_site_symmetry_multiplicity
 _atom_site_fract_x
 _atom_site_fract_y
 _atom_site_fract_z
 _atom_site_occupancy
 _atom_site_charge
  Co  Co1  1  0.096290  0.903710  0.875000  1.0  1.18
  Co  Co2  1  0.903710  0.096290  0.375000  1.0  1.1821
  Co  Co3  1  0.096290  0.096290  0.625000  1.0  1.1804
  Co  Co4  1  0.903710  0.903710  0.125000  1.0  1.1814
  Co  Co5  1  0.000000  0.796700  0.000000  1.0  1.2081
  Co  Co6  1  0.000000  0.203300  0.500000  1.0  1.2091
  Co  Co7  1  0.203300  0.000000  0.750000  1.0  1.2067
  Co  Co8  1  0.796700  0.000000  0.250000  1.0  1.2076
  H  H9  1  0.059700  0.076000  0.039200  1.0  0.308
  H  H10  1  0.744200  0.919000  0.811100  1.0  0.1001
  H  H11  1  0.550300  0.933700  0.786800  1.0  0.0976
  H  H12  1  0.447800  0.828900  0.931000  1.0  0.1203
  H  H13  1  0.311900  0.999900  0.946100  1.0  0.3398
  H  H14  1  0.642200  0.802600  0.954000  1.0  0.1017
  H  H15  1  0.398300  0.113300  0.016400  1.0  0.0676
  H  H16  1  0.325500  0.204800  0.982000  1.0  0.0883
  H  H17  1  0.206700  0.223000  0.052600  1.0  0.0867
  H  H18  1  0.258400  0.107500  0.079100  1.0  0.0684
  H  H19  1  0.940300  0.924000  0.539200  1.0  0.3091
  H  H20  1  0.255800  0.081000  0.311100  1.0  0.1006
  H  H21  1  0.449700  0.066300  0.286800  1.0  0.0979
  H  H22  1  0.552200  0.171100  0.431000  1.0  0.1202
  H  H23  1  0.688100  0.000100  0.446100  1.0  0.3398
  H  H24  1  0.357800  0.197400  0.454000  1.0  0.1009
  H  H25  1  0.601700  0.886700  0.516400  1.0  0.0682
  H  H26  1  0.674500  0.795200  0.482000  1.0  0.0823
  H  H27  1  0.793300  0.777000  0.552600  1.0  0.0828
  H  H28  1  0.741600  0.892500  0.579100  1.0  0.0683
  H  H29  1  0.924000  0.059700  0.789200  1.0  0.3077
  H  H30  1  0.081000  0.744200  0.561100  1.0  0.1016
  H  H31  1  0.066300  0.550300  0.536800  1.0  0.0975
  H  H32  1  0.171100  0.447800  0.681000  1.0  0.12
  H  H33  1  0.000100  0.311900  0.696100  1.0  0.341
  H  H34  1  0.197400  0.642200  0.704000  1.0  0.1013
  H  H35  1  0.886700  0.398300  0.766400  1.0  0.0704
  H  H36  1  0.795200  0.325500  0.732000  1.0  0.0906
  H  H37  1  0.777000  0.206700  0.802600  1.0  0.0832
  H  H38  1  0.892500  0.258400  0.829100  1.0  0.0696
  H  H39  1  0.076000  0.940300  0.289200  1.0  0.3058
  H  H40  1  0.919000  0.255800  0.061100  1.0  0.1017
  H  H41  1  0.933700  0.449700  0.036800  1.0  0.0976
  H  H42  1  0.828900  0.552200  0.181000  1.0  0.1199
  H  H43  1  0.999900  0.688100  0.196100  1.0  0.34
  H  H44  1  0.802600  0.357800  0.204000  1.0  0.1013
  H  H45  1  0.113300  0.601700  0.266400  1.0  0.0704
  H  H46  1  0.204800  0.674500  0.232000  1.0  0.0821
  H  H47  1  0.223000  0.793300  0.302600  1.0  0.0802
  H  H48  1  0.107500  0.741600  0.329100  1.0  0.0695
  H  H49  1  0.940300  0.076000  0.960800  1.0  0.3069
  H  H50  1  0.255800  0.919000  0.188900  1.0  0.1008
  H  H51  1  0.449700  0.933700  0.213200  1.0  0.0984
  H  H52  1  0.552200  0.828900  0.069000  1.0  0.1202
  H  H53  1  0.688100  0.999900  0.053900  1.0  0.3394
  H  H54  1  0.357800  0.802600  0.046000  1.0  0.1013
  H  H55  1  0.601700  0.113300  0.983600  1.0  0.0717
  H  H56  1  0.674500  0.204800  0.018000  1.0  0.0885
  H  H57  1  0.793300  0.223000  0.947400  1.0  0.086
  H  H58  1  0.741600  0.107500  0.920900  1.0  0.069
  H  H59  1  0.059700  0.924000  0.460800  1.0  0.3069
  H  H60  1  0.744200  0.081000  0.688900  1.0  0.1006
  H  H61  1  0.550300  0.066300  0.713200  1.0  0.098
  H  H62  1  0.447800  0.171100  0.569000  1.0  0.1203
  H  H63  1  0.311900  0.000100  0.553900  1.0  0.3396
  H  H64  1  0.642200  0.197400  0.546000  1.0  0.1016
  H  H65  1  0.398300  0.886700  0.483600  1.0  0.0688
  H  H66  1  0.325500  0.795200  0.518000  1.0  0.0814
  H  H67  1  0.206700  0.777000  0.447400  1.0  0.0829
  H  H68  1  0.258400  0.892500  0.420900  1.0  0.068
  H  H69  1  0.076000  0.059700  0.210800  1.0  0.3052
  H  H70  1  0.919000  0.744200  0.438900  1.0  0.1018
  H  H71  1  0.933700  0.550300  0.463200  1.0  0.0979
  H  H72  1  0.828900  0.447800  0.319000  1.0  0.1193
  H  H73  1  0.999900  0.311900  0.303900  1.0  0.3402
  H  H74  1  0.802600  0.642200  0.296000  1.0  0.1012
  H  H75  1  0.113300  0.398300  0.233600  1.0  0.0715
  H  H76  1  0.204800  0.325500  0.268000  1.0  0.0822
  H  H77  1  0.223000  0.206700  0.197400  1.0  0.0805
  H  H78  1  0.107500  0.258400  0.170900  1.0  0.0704
  H  H79  1  0.924000  0.940300  0.710800  1.0  0.3045
  H  H80  1  0.081000  0.255800  0.938900  1.0  0.1025
  H  H81  1  0.066300  0.449700  0.963200  1.0  0.098
  H  H82  1  0.171100  0.552200  0.819000  1.0  0.1197
  H  H83  1  0.000100  0.688100  0.803900  1.0  0.3408
  H  H84  1  0.197400  0.357800  0.796000  1.0  0.1018
  H  H85  1  0.886700  0.601700  0.733600  1.0  0.068
  H  H86  1  0.795200  0.674500  0.768000  1.0  0.0907
  H  H87  1  0.777000  0.793300  0.697400  1.0  0.0838
  H  H88  1  0.892500  0.741600  0.670900  1.0  0.0699
  C  C89  1  0.163400  0.008100  0.984400  1.0  0.5986
  C  C90  1  0.479200  0.883400  0.855500  1.0  -0.1642
  C  C91  1  0.842600  0.855900  0.903500  1.0  0.6647
  C  C92  1  0.352300  0.902900  0.839600  1.0  0.6843
  C  C93  1  0.684900  0.899700  0.835100  1.0  -0.0905
  C  C94  1  0.714000  0.860600  0.886400  1.0  -0.163
  C  C95  1  0.569000  0.909100  0.820900  1.0  -0.0216
  C  C96  1  0.507400  0.845100  0.906700  1.0  -0.0923
  C  C97  1  0.623700  0.831800  0.920500  1.0  -0.0263
  C  C98  1  0.320800  0.132300  0.002400  1.0  0.0239
  C  C99  1  0.228800  0.141300  0.046300  1.0  0.0342
  C  C100  1  0.836600  0.991900  0.484400  1.0  0.5982
  C  C101  1  0.520800  0.116600  0.355500  1.0  -0.1628
  C  C102  1  0.157400  0.144100  0.403500  1.0  0.6635
  C  C103  1  0.647700  0.097100  0.339600  1.0  0.683
  C  C104  1  0.315100  0.100300  0.335100  1.0  -0.0876
  C  C105  1  0.286000  0.139400  0.386400  1.0  -0.1623
  C  C106  1  0.431000  0.090900  0.320900  1.0  -0.0202
  C  C107  1  0.492600  0.154900  0.406700  1.0  -0.0921
  C  C108  1  0.376300  0.168200  0.420500  1.0  -0.027
  C  C109  1  0.679200  0.867700  0.502400  1.0  0.0254
  C  C110  1  0.771200  0.858700  0.546300  1.0  0.0343
  C  C111  1  0.991900  0.163400  0.734400  1.0  0.5993
  C  C112  1  0.116600  0.479200  0.605500  1.0  -0.1637
  C  C113  1  0.144100  0.842600  0.653500  1.0  0.663
  C  C114  1  0.097100  0.352300  0.589600  1.0  0.6856
  C  C115  1  0.100300  0.684900  0.585100  1.0  -0.0886
  C  C116  1  0.139400  0.714000  0.636400  1.0  -0.1641
  C  C117  1  0.090900  0.569000  0.570900  1.0  -0.0215
  C  C118  1  0.154900  0.507400  0.656700  1.0  -0.0913
  C  C119  1  0.168200  0.623700  0.670500  1.0  -0.0215
  C  C120  1  0.867700  0.320800  0.752400  1.0  0.0233
  C  C121  1  0.858700  0.228800  0.796300  1.0  0.0349
  C  C122  1  0.008100  0.836600  0.234400  1.0  0.5963
  C  C123  1  0.883400  0.520800  0.105500  1.0  -0.1636
  C  C124  1  0.855900  0.157400  0.153500  1.0  0.6631
  C  C125  1  0.902900  0.647700  0.089600  1.0  0.6851
  C  C126  1  0.899700  0.315100  0.085100  1.0  -0.0899
  C  C127  1  0.860600  0.286000  0.136400  1.0  -0.1637
  C  C128  1  0.909100  0.431000  0.070900  1.0  -0.0217
  C  C129  1  0.845100  0.492600  0.156700  1.0  -0.0866
  C  C130  1  0.831800  0.376300  0.170500  1.0  -0.0227
  C  C131  1  0.132300  0.679200  0.252400  1.0  0.0231
  C  C132  1  0.141300  0.771200  0.296300  1.0  0.0358
  C  C133  1  0.836600  0.008100  0.015600  1.0  0.5987
  C  C134  1  0.520800  0.883400  0.144500  1.0  -0.1624
  C  C135  1  0.157400  0.855900  0.096500  1.0  0.663
  C  C136  1  0.647700  0.902900  0.160400  1.0  0.6834
  C  C137  1  0.315100  0.899700  0.164900  1.0  -0.0876
  C  C138  1  0.286000  0.860600  0.113600  1.0  -0.163
  C  C139  1  0.431000  0.909100  0.179100  1.0  -0.02
  C  C140  1  0.492600  0.845100  0.093300  1.0  -0.0915
  C  C141  1  0.376300  0.831800  0.079500  1.0  -0.0269
  C  C142  1  0.679200  0.132300  0.997600  1.0  0.0255
  C  C143  1  0.771200  0.141300  0.953700  1.0  0.034
  C  C144  1  0.163400  0.991900  0.515600  1.0  0.6002
  C  C145  1  0.479200  0.116600  0.644500  1.0  -0.1629
  C  C146  1  0.842600  0.144100  0.596500  1.0  0.6651
  C  C147  1  0.352300  0.097100  0.660400  1.0  0.6828
  C  C148  1  0.684900  0.100300  0.664900  1.0  -0.0902
  C  C149  1  0.714000  0.139400  0.613600  1.0  -0.1628
  C  C150  1  0.569000  0.090900  0.679100  1.0  -0.0218
  C  C151  1  0.507400  0.154900  0.593300  1.0  -0.0939
  C  C152  1  0.623700  0.168200  0.579500  1.0  -0.0253
  C  C153  1  0.320800  0.867700  0.497600  1.0  0.0238
  C  C154  1  0.228800  0.858700  0.453700  1.0  0.0338
  C  C155  1  0.008100  0.163400  0.265600  1.0  0.5976
  C  C156  1  0.883400  0.479200  0.394500  1.0  -0.1632
  C  C157  1  0.855900  0.842600  0.346500  1.0  0.6634
  C  C158  1  0.902900  0.352300  0.410400  1.0  0.6832
  C  C159  1  0.899700  0.684900  0.414900  1.0  -0.0891
  C  C160  1  0.860600  0.714000  0.363600  1.0  -0.1632
  C  C161  1  0.909100  0.569000  0.429100  1.0  -0.0213
  C  C162  1  0.845100  0.507400  0.343300  1.0  -0.0904
  C  C163  1  0.831800  0.623700  0.329500  1.0  -0.0221
  C  C164  1  0.132300  0.320800  0.247600  1.0  0.0232
  C  C165  1  0.141300  0.228800  0.203700  1.0  0.0344
  C  C166  1  0.991900  0.836600  0.765600  1.0  0.5996
  C  C167  1  0.116600  0.520800  0.894500  1.0  -0.1634
  C  C168  1  0.144100  0.157400  0.846500  1.0  0.663
  C  C169  1  0.097100  0.647700  0.910400  1.0  0.6838
  C  C170  1  0.100300  0.315100  0.914900  1.0  -0.0898
  C  C171  1  0.139400  0.286000  0.863600  1.0  -0.1643
  C  C172  1  0.090900  0.431000  0.929100  1.0  -0.0211
  C  C173  1  0.154900  0.492600  0.843300  1.0  -0.0882
  C  C174  1  0.168200  0.376300  0.829500  1.0  -0.0205
  C  C175  1  0.867700  0.679200  0.747600  1.0  0.0237
  C  C176  1  0.858700  0.771200  0.703700  1.0  0.0349
  N  N177  1  0.130000  0.074200  0.026300  1.0  -0.4747
  N  N178  1  0.273200  0.035300  0.970700  1.0  -0.4511
  N  N179  1  0.870000  0.925800  0.526300  1.0  -0.4751
  N  N180  1  0.726800  0.964700  0.470700  1.0  -0.4522
  N  N181  1  0.925800  0.130000  0.776300  1.0  -0.4741
  N  N182  1  0.964700  0.273200  0.720700  1.0  -0.4528
  N  N183  1  0.074200  0.870000  0.276300  1.0  -0.4731
  N  N184  1  0.035300  0.726800  0.220700  1.0  -0.4509
  N  N185  1  0.870000  0.074200  0.973700  1.0  -0.4757
  N  N186  1  0.726800  0.035300  0.029300  1.0  -0.4517
  N  N187  1  0.130000  0.925800  0.473700  1.0  -0.4753
  N  N188  1  0.273200  0.964700  0.529300  1.0  -0.4524
  N  N189  1  0.074200  0.130000  0.223700  1.0  -0.4742
  N  N190  1  0.035300  0.273200  0.279300  1.0  -0.4517
  N  N191  1  0.925800  0.870000  0.723700  1.0  -0.4745
  N  N192  1  0.964700  0.726800  0.779300  1.0  -0.4522
  O  O193  1  0.914500  0.910700  0.875000  1.0  -0.6005
  O  O194  1  0.275800  0.904900  0.875300  1.0  -0.6185
  O  O195  1  0.333700  0.911400  0.790300  1.0  -0.6089
  O  O196  1  0.864300  0.798500  0.945000  1.0  -0.5941
  O  O197  1  0.097200  0.933900  0.961300  1.0  -0.6739
  O  O198  1  0.085500  0.089300  0.375000  1.0  -0.5998
  O  O199  1  0.724200  0.095100  0.375300  1.0  -0.6185
  O  O200  1  0.666300  0.088600  0.290300  1.0  -0.6097
  O  O201  1  0.135700  0.201500  0.445000  1.0  -0.5929
  O  O202  1  0.902800  0.066100  0.461300  1.0  -0.6743
  O  O203  1  0.089300  0.914500  0.625000  1.0  -0.6006
  O  O204  1  0.095100  0.275800  0.625300  1.0  -0.6177
  O  O205  1  0.088600  0.333700  0.540300  1.0  -0.6068
  O  O206  1  0.201500  0.864300  0.695000  1.0  -0.5921
  O  O207  1  0.066100  0.097200  0.711300  1.0  -0.6742
  O  O208  1  0.910700  0.085500  0.125000  1.0  -0.6011
  O  O209  1  0.904900  0.724200  0.125300  1.0  -0.6182
  O  O210  1  0.911400  0.666300  0.040300  1.0  -0.6085
  O  O211  1  0.798500  0.135700  0.195000  1.0  -0.5944
  O  O212  1  0.933900  0.902800  0.211300  1.0  -0.6745
  O  O213  1  0.085500  0.910700  0.125000  1.0  -0.6003
  O  O214  1  0.724200  0.904900  0.124700  1.0  -0.6186
  O  O215  1  0.666300  0.911400  0.209700  1.0  -0.6092
  O  O216  1  0.135700  0.798500  0.055000  1.0  -0.5932
  O  O217  1  0.902800  0.933900  0.038700  1.0  -0.6768
  O  O218  1  0.914500  0.089300  0.625000  1.0  -0.6005
  O  O219  1  0.275800  0.095100  0.624700  1.0  -0.6173
  O  O220  1  0.333700  0.088600  0.709700  1.0  -0.6095
  O  O221  1  0.864300  0.201500  0.555000  1.0  -0.5936
  O  O222  1  0.097200  0.066100  0.538700  1.0  -0.6782
  O  O223  1  0.910700  0.914500  0.375000  1.0  -0.6014
  O  O224  1  0.904900  0.275800  0.374700  1.0  -0.6172
  O  O225  1  0.911400  0.333700  0.459700  1.0  -0.6084
  O  O226  1  0.798500  0.864300  0.305000  1.0  -0.5945
  O  O227  1  0.933900  0.097200  0.288700  1.0  -0.6771
  O  O228  1  0.089300  0.085500  0.875000  1.0  -0.6008
  O  O229  1  0.095100  0.724200  0.874700  1.0  -0.6174
  O  O230  1  0.088600  0.666300  0.959700  1.0  -0.6068
  O  O231  1  0.201500  0.135700  0.805000  1.0  -0.5936
  O  O232  1  0.066100  0.902800  0.788700  1.0  -0.6738
