# generated using pymatgen
data_CoH10C11N2O5
_symmetry_space_group_name_H-M   'P 1'
_cell_length_a   11.31080000
_cell_length_b   11.31080000
_cell_length_c   25.23800000
_cell_angle_alpha   90.00000000
_cell_angle_beta   90.00000000
_cell_angle_gamma   90.00000000
_symmetry_Int_Tables_number   1
_chemical_formula_structural   CoH10C11N2O5
_chemical_formula_sum   'Co8 H80 C88 N16 O40'
_cell_volume   3228.80325480
_cell_formula_units_Z   8
loop_
 _symmetry_equiv_pos_site_id
 _symmetry_equiv_pos_as_xyz
  1  'x, y, z'
loop_
 _atom_site_type_symbol
 _atom_site_label
 _atom_site_symmetry_multiplicity
 _atom_site_fract_x
 _atom_site_fract_y
 _atom_site_fract_z
 _atom_site_occupancy
 _atom_site_charge
  Co  Co1  1  0.500000  0.296780  0.000000  1.0  1.1564
  Co  Co2  1  0.500000  0.703220  0.500000  1.0  1.1552
  Co  Co3  1  0.703220  0.500000  0.250000  1.0  1.1557
  Co  Co4  1  0.296780  0.500000  0.750000  1.0  1.1535
  Co  Co5  1  0.403710  0.403710  0.875000  1.0  1.1416
  Co  Co6  1  0.596290  0.596290  0.375000  1.0  1.1393
  Co  Co7  1  0.596290  0.403710  0.125000  1.0  1.1388
  Co  Co8  1  0.403710  0.596290  0.625000  1.0  1.1409
  H  H9  1  0.441000  0.575800  0.038700  1.0  0.3228
  H  H10  1  0.329900  0.052100  0.819200  1.0  0.1129
  H  H11  1  0.419800  0.756100  0.938300  1.0  0.0928
  H  H12  1  0.432100  0.948700  0.962900  1.0  0.0964
  H  H13  1  0.303100  0.859600  0.795500  1.0  0.1068
  H  H14  1  0.178200  0.705700  0.982700  1.0  0.0744
  H  H15  1  0.103000  0.614600  0.016300  1.0  0.0614
  H  H16  1  0.188500  0.500800  0.946200  1.0  0.3162
  H  H17  1  0.239400  0.604100  0.078700  1.0  0.0616
  H  H18  1  0.291300  0.721300  0.053800  1.0  0.0762
  H  H19  1  0.559000  0.424200  0.538700  1.0  0.3227
  H  H20  1  0.670100  0.947900  0.319200  1.0  0.1128
  H  H21  1  0.580200  0.243900  0.438300  1.0  0.0927
  H  H22  1  0.567900  0.051300  0.462900  1.0  0.0963
  H  H23  1  0.696900  0.140400  0.295500  1.0  0.1067
  H  H24  1  0.821800  0.294300  0.482700  1.0  0.0697
  H  H25  1  0.897000  0.385400  0.516300  1.0  0.0614
  H  H26  1  0.811500  0.499200  0.446200  1.0  0.3157
  H  H27  1  0.760600  0.395900  0.578700  1.0  0.0601
  H  H28  1  0.708700  0.278700  0.553800  1.0  0.074
  H  H29  1  0.424200  0.441000  0.288700  1.0  0.3217
  H  H30  1  0.947900  0.329900  0.069200  1.0  0.113
  H  H31  1  0.243900  0.419800  0.188300  1.0  0.0911
  H  H32  1  0.051300  0.432100  0.212900  1.0  0.0966
  H  H33  1  0.140400  0.303100  0.045500  1.0  0.1067
  H  H34  1  0.294300  0.178200  0.232700  1.0  0.0785
  H  H35  1  0.385400  0.103000  0.266300  1.0  0.0612
  H  H36  1  0.499200  0.188500  0.196200  1.0  0.3166
  H  H37  1  0.395900  0.239400  0.328700  1.0  0.062
  H  H38  1  0.278700  0.291300  0.303800  1.0  0.0751
  H  H39  1  0.575800  0.559000  0.788700  1.0  0.3215
  H  H40  1  0.052100  0.670100  0.569200  1.0  0.1138
  H  H41  1  0.756100  0.580200  0.688300  1.0  0.0911
  H  H42  1  0.948700  0.567900  0.712900  1.0  0.0966
  H  H43  1  0.859600  0.696900  0.545500  1.0  0.1072
  H  H44  1  0.705700  0.821800  0.732700  1.0  0.0698
  H  H45  1  0.614600  0.897000  0.766300  1.0  0.0642
  H  H46  1  0.500800  0.811500  0.696200  1.0  0.3163
  H  H47  1  0.604100  0.760600  0.828700  1.0  0.0616
  H  H48  1  0.721300  0.708700  0.803800  1.0  0.0722
  H  H49  1  0.559000  0.575800  0.961300  1.0  0.3212
  H  H50  1  0.670100  0.052100  0.180800  1.0  0.1125
  H  H51  1  0.580200  0.756100  0.061700  1.0  0.0929
  H  H52  1  0.567900  0.948700  0.037100  1.0  0.0964
  H  H53  1  0.696900  0.859600  0.204500  1.0  0.1064
  H  H54  1  0.821800  0.705700  0.017300  1.0  0.0728
  H  H55  1  0.897000  0.614600  0.983700  1.0  0.0601
  H  H56  1  0.811500  0.500800  0.053800  1.0  0.3159
  H  H57  1  0.760600  0.604100  0.921300  1.0  0.0607
  H  H58  1  0.708700  0.721300  0.946200  1.0  0.0768
  H  H59  1  0.441000  0.424200  0.461300  1.0  0.322
  H  H60  1  0.329900  0.947900  0.680800  1.0  0.1127
  H  H61  1  0.419800  0.243900  0.561700  1.0  0.0926
  H  H62  1  0.432100  0.051300  0.537100  1.0  0.0961
  H  H63  1  0.303100  0.140400  0.704500  1.0  0.1065
  H  H64  1  0.178200  0.294300  0.517300  1.0  0.0703
  H  H65  1  0.103000  0.385400  0.483700  1.0  0.0619
  H  H66  1  0.188500  0.499200  0.553800  1.0  0.315
  H  H67  1  0.239400  0.395900  0.421300  1.0  0.0601
  H  H68  1  0.291300  0.278700  0.446200  1.0  0.072
  H  H69  1  0.575800  0.441000  0.711300  1.0  0.3203
  H  H70  1  0.052100  0.329900  0.930800  1.0  0.1137
  H  H71  1  0.756100  0.419800  0.811700  1.0  0.0916
  H  H72  1  0.948700  0.432100  0.787100  1.0  0.0965
  H  H73  1  0.859600  0.303100  0.954500  1.0  0.1068
  H  H74  1  0.705700  0.178200  0.767300  1.0  0.0689
  H  H75  1  0.614600  0.103000  0.733700  1.0  0.0617
  H  H76  1  0.500800  0.188500  0.803800  1.0  0.3158
  H  H77  1  0.604100  0.239400  0.671300  1.0  0.0613
  H  H78  1  0.721300  0.291300  0.696200  1.0  0.0729
  H  H79  1  0.424200  0.559000  0.211300  1.0  0.3186
  H  H80  1  0.947900  0.670100  0.430800  1.0  0.1135
  H  H81  1  0.243900  0.580200  0.311700  1.0  0.0911
  H  H82  1  0.051300  0.567900  0.287100  1.0  0.0965
  H  H83  1  0.140400  0.696900  0.454500  1.0  0.1065
  H  H84  1  0.294300  0.821800  0.267300  1.0  0.0779
  H  H85  1  0.385400  0.897000  0.233700  1.0  0.0634
  H  H86  1  0.499200  0.811500  0.303800  1.0  0.3158
  H  H87  1  0.395900  0.760600  0.171300  1.0  0.0617
  H  H88  1  0.278700  0.708700  0.196200  1.0  0.0739
  C  C89  1  0.337300  0.508800  0.984500  1.0  0.718
  C  C90  1  0.384500  0.020300  0.894400  1.0  -0.1166
  C  C91  1  0.361700  0.785200  0.863500  1.0  -0.1265
  C  C92  1  0.346100  0.992100  0.843400  1.0  -0.0791
  C  C93  1  0.400100  0.815200  0.914200  1.0  -0.0919
  C  C94  1  0.355100  0.659700  0.846300  1.0  0.6595
  C  C95  1  0.408800  0.930500  0.928600  1.0  -0.0534
  C  C96  1  0.332500  0.877300  0.829000  1.0  -0.062
  C  C97  1  0.181300  0.632600  0.002800  1.0  0.0529
  C  C98  1  0.402300  0.147100  0.910500  1.0  0.6795
  C  C99  1  0.269800  0.639800  0.046500  1.0  0.0599
  C  C100  1  0.662700  0.491200  0.484500  1.0  0.7193
  C  C101  1  0.615500  0.979700  0.394400  1.0  -0.1165
  C  C102  1  0.638300  0.214800  0.363500  1.0  -0.1268
  C  C103  1  0.653900  0.007900  0.343400  1.0  -0.0808
  C  C104  1  0.599900  0.184800  0.414200  1.0  -0.0912
  C  C105  1  0.644900  0.340300  0.346300  1.0  0.6592
  C  C106  1  0.591200  0.069500  0.428600  1.0  -0.0531
  C  C107  1  0.667500  0.122700  0.329000  1.0  -0.0592
  C  C108  1  0.818700  0.367400  0.502800  1.0  0.0515
  C  C109  1  0.597700  0.852900  0.410500  1.0  0.6804
  C  C110  1  0.730200  0.360200  0.546500  1.0  0.0596
  C  C111  1  0.491200  0.337300  0.234500  1.0  0.7199
  C  C112  1  0.979700  0.384500  0.144400  1.0  -0.1171
  C  C113  1  0.214800  0.361700  0.113500  1.0  -0.1257
  C  C114  1  0.007900  0.346100  0.093400  1.0  -0.0816
  C  C115  1  0.184800  0.400100  0.164200  1.0  -0.0913
  C  C116  1  0.340300  0.355100  0.096300  1.0  0.659
  C  C117  1  0.069500  0.408800  0.178600  1.0  -0.0533
  C  C118  1  0.122700  0.332500  0.079000  1.0  -0.0605
  C  C119  1  0.367400  0.181300  0.252800  1.0  0.0519
  C  C120  1  0.852900  0.402300  0.160500  1.0  0.6801
  C  C121  1  0.360200  0.269800  0.296500  1.0  0.0583
  C  C122  1  0.508800  0.662700  0.734500  1.0  0.7138
  C  C123  1  0.020300  0.615500  0.644400  1.0  -0.1162
  C  C124  1  0.785200  0.638300  0.613500  1.0  -0.1259
  C  C125  1  0.992100  0.653900  0.593400  1.0  -0.084
  C  C126  1  0.815200  0.599900  0.664200  1.0  -0.0886
  C  C127  1  0.659700  0.644900  0.596300  1.0  0.6579
  C  C128  1  0.930500  0.591200  0.678600  1.0  -0.0522
  C  C129  1  0.877300  0.667500  0.579000  1.0  -0.0624
  C  C130  1  0.632600  0.818700  0.752800  1.0  0.0517
  C  C131  1  0.147100  0.597700  0.660500  1.0  0.6785
  C  C132  1  0.639800  0.730200  0.796500  1.0  0.0585
  C  C133  1  0.662700  0.508800  0.015500  1.0  0.7202
  C  C134  1  0.615500  0.020300  0.105600  1.0  -0.117
  C  C135  1  0.638300  0.785200  0.136500  1.0  -0.1272
  C  C136  1  0.653900  0.992100  0.156600  1.0  -0.0798
  C  C137  1  0.599900  0.815200  0.085800  1.0  -0.0917
  C  C138  1  0.644900  0.659700  0.153700  1.0  0.6595
  C  C139  1  0.591200  0.930500  0.071400  1.0  -0.0521
  C  C140  1  0.667500  0.877300  0.171000  1.0  -0.0603
  C  C141  1  0.818700  0.632600  0.997200  1.0  0.0515
  C  C142  1  0.597700  0.147100  0.089500  1.0  0.6803
  C  C143  1  0.730200  0.639800  0.953500  1.0  0.0587
  C  C144  1  0.337300  0.491200  0.515500  1.0  0.7203
  C  C145  1  0.384500  0.979700  0.605600  1.0  -0.1171
  C  C146  1  0.361700  0.214800  0.636500  1.0  -0.1261
  C  C147  1  0.346100  0.007900  0.656600  1.0  -0.0794
  C  C148  1  0.400100  0.184800  0.585800  1.0  -0.0914
  C  C149  1  0.355100  0.340300  0.653700  1.0  0.6598
  C  C150  1  0.408800  0.069500  0.571400  1.0  -0.0526
  C  C151  1  0.332500  0.122700  0.671000  1.0  -0.0612
  C  C152  1  0.181300  0.367400  0.497200  1.0  0.0532
  C  C153  1  0.402300  0.852900  0.589500  1.0  0.6798
  C  C154  1  0.269800  0.360200  0.453500  1.0  0.0599
  C  C155  1  0.508800  0.337300  0.765500  1.0  0.7165
  C  C156  1  0.020300  0.384500  0.855600  1.0  -0.1156
  C  C157  1  0.785200  0.361700  0.886500  1.0  -0.1268
  C  C158  1  0.992100  0.346100  0.906600  1.0  -0.0839
  C  C159  1  0.815200  0.400100  0.835800  1.0  -0.089
  C  C160  1  0.659700  0.355100  0.903700  1.0  0.6588
  C  C161  1  0.930500  0.408800  0.821400  1.0  -0.0509
  C  C162  1  0.877300  0.332500  0.921000  1.0  -0.0627
  C  C163  1  0.632600  0.181300  0.747200  1.0  0.0516
  C  C164  1  0.147100  0.402300  0.839500  1.0  0.6794
  C  C165  1  0.639800  0.269800  0.703500  1.0  0.0585
  C  C166  1  0.491200  0.662700  0.265500  1.0  0.7208
  C  C167  1  0.979700  0.615500  0.355600  1.0  -0.1166
  C  C168  1  0.214800  0.638300  0.386500  1.0  -0.1256
  C  C169  1  0.007900  0.653900  0.406600  1.0  -0.0829
  C  C170  1  0.184800  0.599900  0.335800  1.0  -0.0909
  C  C171  1  0.340300  0.644900  0.403700  1.0  0.6591
  C  C172  1  0.069500  0.591200  0.321400  1.0  -0.0519
  C  C173  1  0.122700  0.667500  0.421000  1.0  -0.0609
  C  C174  1  0.367400  0.818700  0.247200  1.0  0.0512
  C  C175  1  0.852900  0.597700  0.339500  1.0  0.6798
  C  C176  1  0.360200  0.730200  0.203500  1.0  0.0583
  N  N177  1  0.370500  0.573400  0.025900  1.0  -0.5003
  N  N178  1  0.227500  0.535900  0.970900  1.0  -0.4686
  N  N179  1  0.629500  0.426600  0.525900  1.0  -0.4983
  N  N180  1  0.772500  0.464100  0.470900  1.0  -0.4693
  N  N181  1  0.426600  0.370500  0.275900  1.0  -0.4976
  N  N182  1  0.464100  0.227500  0.220900  1.0  -0.4692
  N  N183  1  0.573400  0.629500  0.775900  1.0  -0.497
  N  N184  1  0.535900  0.772500  0.720900  1.0  -0.4695
  N  N185  1  0.629500  0.573400  0.974100  1.0  -0.4982
  N  N186  1  0.772500  0.535900  0.029100  1.0  -0.468
  N  N187  1  0.370500  0.426600  0.474100  1.0  -0.5003
  N  N188  1  0.227500  0.464100  0.529100  1.0  -0.4683
  N  N189  1  0.573400  0.370500  0.724100  1.0  -0.497
  N  N190  1  0.535900  0.227500  0.779100  1.0  -0.4681
  N  N191  1  0.426600  0.629500  0.224100  1.0  -0.4978
  N  N192  1  0.464100  0.772500  0.279100  1.0  -0.4687
  O  O193  1  0.409900  0.585300  0.874900  1.0  -0.6269
  O  O194  1  0.404600  0.224000  0.874700  1.0  -0.6237
  O  O195  1  0.412500  0.167100  0.959700  1.0  -0.5961
  O  O196  1  0.401900  0.434200  0.960900  1.0  -0.6857
  O  O197  1  0.299600  0.636100  0.804800  1.0  -0.6048
  O  O198  1  0.590100  0.414700  0.374900  1.0  -0.6257
  O  O199  1  0.595400  0.776000  0.374700  1.0  -0.623
  O  O200  1  0.587500  0.832900  0.459700  1.0  -0.5956
  O  O201  1  0.598100  0.565800  0.460900  1.0  -0.6853
  O  O202  1  0.700400  0.363900  0.304800  1.0  -0.6033
  O  O203  1  0.414700  0.409900  0.124900  1.0  -0.6265
  O  O204  1  0.776000  0.404600  0.124700  1.0  -0.6236
  O  O205  1  0.832900  0.412500  0.209700  1.0  -0.5969
  O  O206  1  0.565800  0.401900  0.210900  1.0  -0.6842
  O  O207  1  0.363900  0.299600  0.054800  1.0  -0.6044
  O  O208  1  0.585300  0.590100  0.624900  1.0  -0.6254
  O  O209  1  0.224000  0.595400  0.624700  1.0  -0.6238
  O  O210  1  0.167100  0.587500  0.709700  1.0  -0.5973
  O  O211  1  0.434200  0.598100  0.710900  1.0  -0.6842
  O  O212  1  0.636100  0.700400  0.554800  1.0  -0.6035
  O  O213  1  0.590100  0.585300  0.125100  1.0  -0.6261
  O  O214  1  0.595400  0.224000  0.125300  1.0  -0.6233
  O  O215  1  0.587500  0.167100  0.040300  1.0  -0.5956
  O  O216  1  0.598100  0.434200  0.039100  1.0  -0.6865
  O  O217  1  0.700400  0.636100  0.195200  1.0  -0.6036
  O  O218  1  0.409900  0.414700  0.625100  1.0  -0.6271
  O  O219  1  0.404600  0.776000  0.625300  1.0  -0.6235
  O  O220  1  0.412500  0.832900  0.540300  1.0  -0.596
  O  O221  1  0.401900  0.565800  0.539100  1.0  -0.6873
  O  O222  1  0.299600  0.363900  0.695200  1.0  -0.6049
  O  O223  1  0.585300  0.409900  0.875100  1.0  -0.6257
  O  O224  1  0.224000  0.404600  0.875300  1.0  -0.6242
  O  O225  1  0.167100  0.412500  0.790300  1.0  -0.597
  O  O226  1  0.434200  0.401900  0.789100  1.0  -0.6844
  O  O227  1  0.636100  0.299600  0.945200  1.0  -0.6051
  O  O228  1  0.414700  0.590100  0.375100  1.0  -0.6269
  O  O229  1  0.776000  0.595400  0.375300  1.0  -0.6236
  O  O230  1  0.832900  0.587500  0.290300  1.0  -0.5966
  O  O231  1  0.565800  0.598100  0.289100  1.0  -0.685
  O  O232  1  0.363900  0.700400  0.445200  1.0  -0.6039
