# generated using pymatgen
data_CuH9C16NO5
_symmetry_space_group_name_H-M   'P 1'
_cell_length_a   21.85990000
_cell_length_b   21.85990000
_cell_length_c   21.35250000
_cell_angle_alpha   90.00000000
_cell_angle_beta   90.00000000
_cell_angle_gamma   120.00000000
_symmetry_Int_Tables_number   1
_chemical_formula_structural   CuH9C16NO5
_chemical_formula_sum   'Cu18 H162 C288 N18 O90'
_cell_volume   8836.40685784
_cell_formula_units_Z   18
loop_
 _symmetry_equiv_pos_site_id
 _symmetry_equiv_pos_as_xyz
  1  'x, y, z'
loop_
 _atom_site_type_symbol
 _atom_site_label
 _atom_site_symmetry_multiplicity
 _atom_site_fract_x
 _atom_site_fract_y
 _atom_site_fract_z
 _atom_site_occupancy
 _atom_site_charge
  Cu  Cu1  1  0.537530  0.067850  0.489230  1.0  0.8931
  Cu  Cu2  1  0.204200  0.401180  0.822560  1.0  0.8918
  Cu  Cu3  1  0.870860  0.734520  0.155900  1.0  0.8931
  Cu  Cu4  1  0.932150  0.469680  0.489230  1.0  0.8937
  Cu  Cu5  1  0.598820  0.803010  0.822560  1.0  0.8923
  Cu  Cu6  1  0.265480  0.136350  0.155900  1.0  0.8937
  Cu  Cu7  1  0.530320  0.462470  0.489230  1.0  0.8919
  Cu  Cu8  1  0.196990  0.795800  0.822560  1.0  0.895
  Cu  Cu9  1  0.863650  0.129140  0.155900  1.0  0.892
  Cu  Cu10  1  0.462470  0.932150  0.510770  1.0  0.8942
  Cu  Cu11  1  0.129140  0.265480  0.844100  1.0  0.8942
  Cu  Cu12  1  0.795800  0.598820  0.177440  1.0  0.8928
  Cu  Cu13  1  0.067850  0.530320  0.510770  1.0  0.8937
  Cu  Cu14  1  0.734520  0.863650  0.844100  1.0  0.8937
  Cu  Cu15  1  0.401180  0.196990  0.177440  1.0  0.8937
  Cu  Cu16  1  0.469680  0.537530  0.510770  1.0  0.8912
  Cu  Cu17  1  0.136350  0.870860  0.844100  1.0  0.8913
  Cu  Cu18  1  0.803010  0.204200  0.177440  1.0  0.8956
  H  H19  1  0.401000  0.079900  0.342200  1.0  0.125
  H  H20  1  0.264300  0.902200  0.433200  1.0  0.1145
  H  H21  1  0.193700  0.984500  0.303000  1.0  0.1189
  H  H22  1  0.091000  0.876100  0.302100  1.0  0.1103
  H  H23  1  0.086500  0.925400  0.354000  1.0  0.1085
  H  H24  1  0.010400  0.703400  0.475400  1.0  0.1207
  H  H25  1  0.891900  0.659300  0.455900  1.0  0.1199
  H  H26  1  0.857000  0.714600  0.384200  1.0  0.098
  H  H27  1  0.937500  0.815500  0.333333  1.0  0.1312
  H  H28  1  0.067670  0.413230  0.675530  1.0  0.125
  H  H29  1  0.930970  0.235530  0.766530  1.0  0.1145
  H  H30  1  0.860370  0.317830  0.636330  1.0  0.1189
  H  H31  1  0.757670  0.209430  0.635430  1.0  0.1103
  H  H32  1  0.753170  0.258730  0.687330  1.0  0.1085
  H  H33  1  0.677070  0.036730  0.808730  1.0  0.1207
  H  H34  1  0.558570  0.992630  0.789230  1.0  0.1199
  H  H35  1  0.523670  0.047930  0.717530  1.0  0.098
  H  H36  1  0.604170  0.148830  0.666667  1.0  0.1312
  H  H37  1  0.734330  0.746570  0.008870  1.0  0.125
  H  H38  1  0.597630  0.568870  0.099870  1.0  0.1144
  H  H39  1  0.527030  0.651170  0.969670  1.0  0.1189
  H  H40  1  0.424330  0.542770  0.968770  1.0  0.1153
  H  H41  1  0.419830  0.592070  0.020670  1.0  0.1085
  H  H42  1  0.343730  0.370070  0.142070  1.0  0.1206
  H  H43  1  0.225230  0.325970  0.122570  1.0  0.1199
  H  H44  1  0.190330  0.381270  0.050870  1.0  0.0979
  H  H45  1  0.270830  0.482170  0.999970  1.0  0.1308
  H  H46  1  0.920100  0.321100  0.342200  1.0  0.1231
  H  H47  1  0.097800  0.362100  0.433200  1.0  0.1146
  H  H48  1  0.015500  0.209200  0.303000  1.0  0.1182
  H  H49  1  0.123900  0.214900  0.302100  1.0  0.1157
  H  H50  1  0.074600  0.161100  0.354000  1.0  0.1066
  H  H51  1  0.296600  0.307000  0.475400  1.0  0.1197
  H  H52  1  0.340700  0.232600  0.455900  1.0  0.1204
  H  H53  1  0.285400  0.142400  0.384200  1.0  0.0975
  H  H54  1  0.184500  0.122000  0.333333  1.0  0.1309
  H  H55  1  0.586770  0.654430  0.675530  1.0  0.1231
  H  H56  1  0.764470  0.695430  0.766530  1.0  0.1146
  H  H57  1  0.682170  0.542530  0.636330  1.0  0.1182
  H  H58  1  0.790570  0.548230  0.635430  1.0  0.1157
  H  H59  1  0.741270  0.494430  0.687330  1.0  0.1066
  H  H60  1  0.963270  0.640330  0.808730  1.0  0.1197
  H  H61  1  0.007370  0.565930  0.789230  1.0  0.1204
  H  H62  1  0.952070  0.475730  0.717530  1.0  0.0975
  H  H63  1  0.851170  0.455330  0.666667  1.0  0.1309
  H  H64  1  0.253430  0.987770  0.008870  1.0  0.1231
  H  H65  1  0.431130  0.028770  0.099870  1.0  0.1146
  H  H66  1  0.348830  0.875870  0.969670  1.0  0.1182
  H  H67  1  0.457230  0.881570  0.968770  1.0  0.1075
  H  H68  1  0.407930  0.827770  0.020670  1.0  0.1065
  H  H69  1  0.629930  0.973670  0.142070  1.0  0.1197
  H  H70  1  0.674030  0.899270  0.122570  1.0  0.1204
  H  H71  1  0.618730  0.809070  0.050870  1.0  0.0975
  H  H72  1  0.517830  0.788670  0.999970  1.0  0.1305
  H  H73  1  0.678900  0.599000  0.342200  1.0  0.1276
  H  H74  1  0.637900  0.735700  0.433200  1.0  0.115
  H  H75  1  0.790800  0.806300  0.303000  1.0  0.1183
  H  H76  1  0.785100  0.909000  0.302100  1.0  0.117
  H  H77  1  0.838900  0.913500  0.354000  1.0  0.1058
  H  H78  1  0.693000  0.989600  0.475400  1.0  0.1198
  H  H79  1  0.767400  0.108100  0.455900  1.0  0.1196
  H  H80  1  0.857600  0.143000  0.384200  1.0  0.0981
  H  H81  1  0.878000  0.062500  0.333333  1.0  0.1305
  H  H82  1  0.345570  0.932330  0.675530  1.0  0.1276
  H  H83  1  0.304570  0.069030  0.766530  1.0  0.115
  H  H84  1  0.457470  0.139630  0.636330  1.0  0.1183
  H  H85  1  0.451770  0.242330  0.635430  1.0  0.117
  H  H86  1  0.505570  0.246830  0.687330  1.0  0.1058
  H  H87  1  0.359670  0.322930  0.808730  1.0  0.1198
  H  H88  1  0.434070  0.441430  0.789230  1.0  0.1196
  H  H89  1  0.524270  0.476330  0.717530  1.0  0.0981
  H  H90  1  0.544670  0.395830  0.666667  1.0  0.1305
  H  H91  1  0.012230  0.265670  0.008870  1.0  0.1253
  H  H92  1  0.971230  0.402370  0.099870  1.0  0.115
  H  H93  1  0.124130  0.472970  0.969670  1.0  0.1183
  H  H94  1  0.118430  0.575670  0.968770  1.0  0.1117
  H  H95  1  0.172230  0.580170  0.020670  1.0  0.1058
  H  H96  1  0.026330  0.656270  0.142070  1.0  0.1198
  H  H97  1  0.100730  0.774770  0.122570  1.0  0.1196
  H  H98  1  0.190930  0.809670  0.050870  1.0  0.0982
  H  H99  1  0.211330  0.729170  0.999970  1.0  0.1301
  H  H100  1  0.599000  0.920100  0.657800  1.0  0.1253
  H  H101  1  0.735700  0.097800  0.566800  1.0  0.1151
  H  H102  1  0.806300  0.015500  0.697000  1.0  0.1187
  H  H103  1  0.909000  0.123900  0.697900  1.0  0.1093
  H  H104  1  0.913500  0.074600  0.646000  1.0  0.1089
  H  H105  1  0.989600  0.296600  0.524600  1.0  0.1203
  H  H106  1  0.108100  0.340700  0.544100  1.0  0.1197
  H  H107  1  0.143000  0.285400  0.615800  1.0  0.0976
  H  H108  1  0.062500  0.184500  0.666667  1.0  0.1308
  H  H109  1  0.265670  0.253430  0.991130  1.0  0.1253
  H  H110  1  0.402370  0.431130  0.900130  1.0  0.1151
  H  H111  1  0.472970  0.348830  0.030330  1.0  0.1188
  H  H112  1  0.575670  0.457230  0.031230  1.0  0.1139
  H  H113  1  0.580170  0.407930  0.979330  1.0  0.1089
  H  H114  1  0.656270  0.629930  0.857930  1.0  0.1202
  H  H115  1  0.774770  0.674030  0.877430  1.0  0.1197
  H  H116  1  0.809670  0.618730  0.949130  1.0  0.0975
  H  H117  1  0.729170  0.517830  0.000030  1.0  0.1304
  H  H118  1  0.932330  0.586770  0.324470  1.0  0.1253
  H  H119  1  0.069030  0.764470  0.233470  1.0  0.1151
  H  H120  1  0.139630  0.682170  0.363670  1.0  0.1187
  H  H121  1  0.242330  0.790570  0.364570  1.0  0.1093
  H  H122  1  0.246830  0.741270  0.312670  1.0  0.1089
  H  H123  1  0.322930  0.963270  0.191270  1.0  0.1203
  H  H124  1  0.441430  0.007370  0.210770  1.0  0.1197
  H  H125  1  0.476330  0.952070  0.282470  1.0  0.0976
  H  H126  1  0.395830  0.851170  0.333370  1.0  0.1304
  H  H127  1  0.079900  0.678900  0.657800  1.0  0.1242
  H  H128  1  0.902200  0.637900  0.566800  1.0  0.1144
  H  H129  1  0.984500  0.790800  0.697000  1.0  0.1183
  H  H130  1  0.876100  0.785100  0.697900  1.0  0.1158
  H  H131  1  0.925400  0.838900  0.646000  1.0  0.1081
  H  H132  1  0.703400  0.693000  0.524600  1.0  0.12
  H  H133  1  0.659300  0.767400  0.544100  1.0  0.1199
  H  H134  1  0.714600  0.857600  0.615800  1.0  0.097
  H  H135  1  0.815500  0.878000  0.666667  1.0  0.1298
  H  H136  1  0.746570  0.012230  0.991130  1.0  0.1242
  H  H137  1  0.568870  0.971230  0.900130  1.0  0.1145
  H  H138  1  0.651170  0.124130  0.030330  1.0  0.1183
  H  H139  1  0.542770  0.118430  0.031230  1.0  0.1077
  H  H140  1  0.592070  0.172230  0.979330  1.0  0.1082
  H  H141  1  0.370070  0.026330  0.857930  1.0  0.12
  H  H142  1  0.325970  0.100730  0.877430  1.0  0.1199
  H  H143  1  0.381270  0.190930  0.949130  1.0  0.097
  H  H144  1  0.482170  0.211330  0.000030  1.0  0.1295
  H  H145  1  0.413230  0.345570  0.324470  1.0  0.1242
  H  H146  1  0.235530  0.304570  0.233470  1.0  0.1144
  H  H147  1  0.317830  0.457470  0.363670  1.0  0.1183
  H  H148  1  0.209430  0.451770  0.364570  1.0  0.1158
  H  H149  1  0.258730  0.505570  0.312670  1.0  0.1082
  H  H150  1  0.036730  0.359670  0.191270  1.0  0.12
  H  H151  1  0.992630  0.434070  0.210770  1.0  0.1199
  H  H152  1  0.047930  0.524270  0.282470  1.0  0.097
  H  H153  1  0.148830  0.544670  0.333370  1.0  0.1295
  H  H154  1  0.321100  0.401000  0.657800  1.0  0.1277
  H  H155  1  0.362100  0.264300  0.566800  1.0  0.1144
  H  H156  1  0.209200  0.193700  0.697000  1.0  0.1194
  H  H157  1  0.214900  0.091000  0.697900  1.0  0.1165
  H  H158  1  0.161100  0.086500  0.646000  1.0  0.108
  H  H159  1  0.307000  0.010400  0.524600  1.0  0.1201
  H  H160  1  0.232600  0.891900  0.544100  1.0  0.1194
  H  H161  1  0.142400  0.857000  0.615800  1.0  0.0977
  H  H162  1  0.122000  0.937500  0.666667  1.0  0.1305
  H  H163  1  0.987770  0.734330  0.991130  1.0  0.1249
  H  H164  1  0.028770  0.597630  0.900130  1.0  0.1143
  H  H165  1  0.875870  0.527030  0.030330  1.0  0.1194
  H  H166  1  0.881570  0.424330  0.031230  1.0  0.1112
  H  H167  1  0.827770  0.419830  0.979330  1.0  0.108
  H  H168  1  0.973670  0.343730  0.857930  1.0  0.1201
  H  H169  1  0.899270  0.225230  0.877430  1.0  0.1194
  H  H170  1  0.809070  0.190330  0.949130  1.0  0.0978
  H  H171  1  0.788670  0.270830  0.000030  1.0  0.1302
  H  H172  1  0.654430  0.067670  0.324470  1.0  0.1277
  H  H173  1  0.695430  0.930970  0.233470  1.0  0.1144
  H  H174  1  0.542530  0.860370  0.363670  1.0  0.1194
  H  H175  1  0.548230  0.757670  0.364570  1.0  0.1165
  H  H176  1  0.494430  0.753170  0.312670  1.0  0.108
  H  H177  1  0.640330  0.677070  0.191270  1.0  0.1201
  H  H178  1  0.565930  0.558570  0.210770  1.0  0.1194
  H  H179  1  0.475730  0.523670  0.282470  1.0  0.0977
  H  H180  1  0.455330  0.604170  0.333370  1.0  0.1302
  C  C181  1  0.401400  0.994600  0.432200  1.0  0.6887
  C  C182  1  0.312800  0.089200  0.260500  1.0  0.6864
  C  C183  1  0.355200  0.043000  0.348800  1.0  0.0168
  C  C184  1  0.341500  0.991600  0.393600  1.0  -0.1288
  C  C185  1  0.272900  0.937200  0.404100  1.0  -0.0917
  C  C186  1  0.217000  0.935000  0.371100  1.0  0.1145
  C  C187  1  0.230700  0.985900  0.325600  1.0  -0.146
  C  C188  1  0.299300  0.038500  0.314000  1.0  -0.1301
  C  C189  1  0.121900  0.823900  0.420800  1.0  0.4986
  C  C190  1  0.087400  0.882000  0.346700  1.0  -0.0274
  C  C191  1  0.023400  0.819500  0.374200  1.0  0.0763
  C  C192  1  0.044000  0.786800  0.416800  1.0  -0.0469
  C  C193  1  0.995600  0.725900  0.447300  1.0  -0.0786
  C  C194  1  0.925700  0.699700  0.435400  1.0  -0.1074
  C  C195  1  0.904900  0.733500  0.392300  1.0  -0.0752
  C  C196  1  0.952300  0.793200  0.361600  1.0  -0.1328
  C  C197  1  0.068070  0.327930  0.765530  1.0  0.6886
  C  C198  1  0.979470  0.422530  0.593830  1.0  0.6864
  C  C199  1  0.021870  0.376330  0.682130  1.0  0.0168
  C  C200  1  0.008170  0.324930  0.726930  1.0  -0.1288
  C  C201  1  0.939570  0.270530  0.737430  1.0  -0.0917
  C  C202  1  0.883670  0.268330  0.704430  1.0  0.1145
  C  C203  1  0.897370  0.319230  0.658930  1.0  -0.146
  C  C204  1  0.965970  0.371830  0.647330  1.0  -0.1301
  C  C205  1  0.788570  0.157230  0.754130  1.0  0.4986
  C  C206  1  0.754070  0.215330  0.680030  1.0  -0.0274
  C  C207  1  0.690070  0.152830  0.707530  1.0  0.0763
  C  C208  1  0.710670  0.120130  0.750130  1.0  -0.0469
  C  C209  1  0.662270  0.059230  0.780630  1.0  -0.0786
  C  C210  1  0.592370  0.033030  0.768730  1.0  -0.1074
  C  C211  1  0.571570  0.066830  0.725630  1.0  -0.0752
  C  C212  1  0.618970  0.126530  0.694930  1.0  -0.1326
  C  C213  1  0.734730  0.661270  0.098870  1.0  0.6886
  C  C214  1  0.646130  0.755870  0.927170  1.0  0.6864
  C  C215  1  0.688530  0.709670  0.015470  1.0  0.0169
  C  C216  1  0.674830  0.658270  0.060270  1.0  -0.1282
  C  C217  1  0.606230  0.603870  0.070770  1.0  -0.0916
  C  C218  1  0.550330  0.601670  0.037770  1.0  0.1145
  C  C219  1  0.564030  0.652570  0.992270  1.0  -0.1463
  C  C220  1  0.632630  0.705170  0.980670  1.0  -0.1301
  C  C221  1  0.455230  0.490570  0.087470  1.0  0.4985
  C  C222  1  0.420730  0.548670  0.013370  1.0  -0.0275
  C  C223  1  0.356730  0.486170  0.040870  1.0  0.0763
  C  C224  1  0.377330  0.453470  0.083470  1.0  -0.0469
  C  C225  1  0.328930  0.392570  0.113970  1.0  -0.0786
  C  C226  1  0.259030  0.366370  0.102070  1.0  -0.1074
  C  C227  1  0.238230  0.400170  0.058970  1.0  -0.0751
  C  C228  1  0.285630  0.459870  0.028270  1.0  -0.135
  C  C229  1  0.005400  0.406800  0.432200  1.0  0.6913
  C  C230  1  0.910800  0.223600  0.260500  1.0  0.6857
  C  C231  1  0.957000  0.312200  0.348800  1.0  0.0163
  C  C232  1  0.008400  0.349900  0.393600  1.0  -0.1278
  C  C233  1  0.062800  0.335700  0.404100  1.0  -0.0922
  C  C234  1  0.065000  0.282000  0.371100  1.0  0.1166
  C  C235  1  0.014100  0.244800  0.325600  1.0  -0.1486
  C  C236  1  0.961500  0.260800  0.314000  1.0  -0.1337
  C  C237  1  0.176100  0.298000  0.420800  1.0  0.5001
  C  C238  1  0.118000  0.205400  0.346700  1.0  -0.0245
  C  C239  1  0.180500  0.203900  0.374200  1.0  0.0806
  C  C240  1  0.213200  0.257200  0.416800  1.0  -0.0459
  C  C241  1  0.274100  0.269700  0.447300  1.0  -0.0761
  C  C242  1  0.300300  0.226000  0.435400  1.0  -0.108
  C  C243  1  0.266500  0.171400  0.392300  1.0  -0.0739
  C  C244  1  0.206800  0.159100  0.361600  1.0  -0.1344
  C  C245  1  0.672070  0.740130  0.765530  1.0  0.6912
  C  C246  1  0.577470  0.556930  0.593830  1.0  0.6857
  C  C247  1  0.623670  0.645530  0.682130  1.0  0.0163
  C  C248  1  0.675070  0.683230  0.726930  1.0  -0.1278
  C  C249  1  0.729470  0.669030  0.737430  1.0  -0.0922
  C  C250  1  0.731670  0.615330  0.704430  1.0  0.1166
  C  C251  1  0.680770  0.578130  0.658930  1.0  -0.1486
  C  C252  1  0.628170  0.594130  0.647330  1.0  -0.1337
  C  C253  1  0.842770  0.631330  0.754130  1.0  0.5001
  C  C254  1  0.784670  0.538730  0.680030  1.0  -0.0245
  C  C255  1  0.847170  0.537230  0.707530  1.0  0.0806
  C  C256  1  0.879870  0.590530  0.750130  1.0  -0.0459
  C  C257  1  0.940770  0.603030  0.780630  1.0  -0.0761
  C  C258  1  0.966970  0.559330  0.768730  1.0  -0.108
  C  C259  1  0.933170  0.504730  0.725630  1.0  -0.0739
  C  C260  1  0.873470  0.492430  0.694930  1.0  -0.1342
  C  C261  1  0.338730  0.073470  0.098870  1.0  0.6913
  C  C262  1  0.244130  0.890270  0.927170  1.0  0.6857
  C  C263  1  0.290330  0.978870  0.015470  1.0  0.0165
  C  C264  1  0.341730  0.016570  0.060270  1.0  -0.1277
  C  C265  1  0.396130  0.002370  0.070770  1.0  -0.0922
  C  C266  1  0.398330  0.948670  0.037770  1.0  0.1167
  C  C267  1  0.347430  0.911470  0.992270  1.0  -0.1486
  C  C268  1  0.294830  0.927470  0.980670  1.0  -0.1334
  C  C269  1  0.509430  0.964670  0.087470  1.0  0.5001
  C  C270  1  0.451330  0.872070  0.013370  1.0  -0.0242
  C  C271  1  0.513830  0.870570  0.040870  1.0  0.0805
  C  C272  1  0.546530  0.923870  0.083470  1.0  -0.0459
  C  C273  1  0.607430  0.936370  0.113970  1.0  -0.0761
  C  C274  1  0.633630  0.892670  0.102070  1.0  -0.1081
  C  C275  1  0.599830  0.838070  0.058970  1.0  -0.074
  C  C276  1  0.540130  0.825770  0.028270  1.0  -0.1362
  C  C277  1  0.593200  0.598600  0.432200  1.0  0.6899
  C  C278  1  0.776400  0.687200  0.260500  1.0  0.686
  C  C279  1  0.687800  0.644800  0.348800  1.0  0.015
  C  C280  1  0.650100  0.658500  0.393600  1.0  -0.1266
  C  C281  1  0.664300  0.727100  0.404100  1.0  -0.0924
  C  C282  1  0.718000  0.783000  0.371100  1.0  0.1165
  C  C283  1  0.755200  0.769300  0.325600  1.0  -0.1435
  C  C284  1  0.739200  0.700700  0.314000  1.0  -0.1328
  C  C285  1  0.702000  0.878100  0.420800  1.0  0.4983
  C  C286  1  0.794600  0.912600  0.346700  1.0  -0.027
  C  C287  1  0.796100  0.976600  0.374200  1.0  0.0743
  C  C288  1  0.742800  0.956000  0.416800  1.0  -0.0444
  C  C289  1  0.730300  0.004400  0.447300  1.0  -0.0758
  C  C290  1  0.774000  0.074300  0.435400  1.0  -0.1067
  C  C291  1  0.828600  0.095100  0.392300  1.0  -0.0747
  C  C292  1  0.840900  0.047700  0.361600  1.0  -0.1316
  C  C293  1  0.259870  0.931930  0.765530  1.0  0.6899
  C  C294  1  0.443070  0.020530  0.593830  1.0  0.686
  C  C295  1  0.354470  0.978130  0.682130  1.0  0.015
  C  C296  1  0.316770  0.991830  0.726930  1.0  -0.1266
  C  C297  1  0.330970  0.060430  0.737430  1.0  -0.0924
  C  C298  1  0.384670  0.116330  0.704430  1.0  0.1165
  C  C299  1  0.421870  0.102630  0.658930  1.0  -0.1435
  C  C300  1  0.405870  0.034030  0.647330  1.0  -0.1328
  C  C301  1  0.368670  0.211430  0.754130  1.0  0.4983
  C  C302  1  0.461270  0.245930  0.680030  1.0  -0.027
  C  C303  1  0.462770  0.309930  0.707530  1.0  0.0743
  C  C304  1  0.409470  0.289330  0.750130  1.0  -0.0444
  C  C305  1  0.396970  0.337730  0.780630  1.0  -0.0758
  C  C306  1  0.440670  0.407630  0.768730  1.0  -0.1067
  C  C307  1  0.495270  0.428430  0.725630  1.0  -0.0747
  C  C308  1  0.507570  0.381030  0.694930  1.0  -0.1314
  C  C309  1  0.926530  0.265270  0.098870  1.0  0.6899
  C  C310  1  0.109730  0.353870  0.927170  1.0  0.686
  C  C311  1  0.021130  0.311470  0.015470  1.0  0.0148
  C  C312  1  0.983430  0.325170  0.060270  1.0  -0.1266
  C  C313  1  0.997630  0.393770  0.070770  1.0  -0.0924
  C  C314  1  0.051330  0.449670  0.037770  1.0  0.1165
  C  C315  1  0.088530  0.435970  0.992270  1.0  -0.1435
  C  C316  1  0.072530  0.367370  0.980670  1.0  -0.1328
  C  C317  1  0.035330  0.544770  0.087470  1.0  0.4983
  C  C318  1  0.127930  0.579270  0.013370  1.0  -0.027
  C  C319  1  0.129430  0.643270  0.040870  1.0  0.0743
  C  C320  1  0.076130  0.622670  0.083470  1.0  -0.0444
  C  C321  1  0.063630  0.671070  0.113970  1.0  -0.0758
  C  C322  1  0.107330  0.740970  0.102070  1.0  -0.1067
  C  C323  1  0.161930  0.761770  0.058970  1.0  -0.0747
  C  C324  1  0.174230  0.714370  0.028270  1.0  -0.1335
  C  C325  1  0.598600  0.005400  0.567800  1.0  0.687
  C  C326  1  0.687200  0.910800  0.739500  1.0  0.687
  C  C327  1  0.644800  0.957000  0.651200  1.0  0.0151
  C  C328  1  0.658500  0.008400  0.606400  1.0  -0.1303
  C  C329  1  0.727100  0.062800  0.595900  1.0  -0.0942
  C  C330  1  0.783000  0.065000  0.628900  1.0  0.1162
  C  C331  1  0.769300  0.014100  0.674400  1.0  -0.1458
  C  C332  1  0.700700  0.961500  0.686000  1.0  -0.1314
  C  C333  1  0.878100  0.176100  0.579200  1.0  0.4981
  C  C334  1  0.912600  0.118000  0.653300  1.0  -0.0243
  C  C335  1  0.976600  0.180500  0.625800  1.0  0.0747
  C  C336  1  0.956000  0.213200  0.583200  1.0  -0.0456
  C  C337  1  0.004400  0.274100  0.552700  1.0  -0.0787
  C  C338  1  0.074300  0.300300  0.564600  1.0  -0.1085
  C  C339  1  0.095100  0.266500  0.607700  1.0  -0.0756
  C  C340  1  0.047700  0.206800  0.638400  1.0  -0.1344
  C  C341  1  0.265270  0.338730  0.901130  1.0  0.6869
  C  C342  1  0.353870  0.244130  0.072830  1.0  0.687
  C  C343  1  0.311470  0.290330  0.984530  1.0  0.0153
  C  C344  1  0.325170  0.341730  0.939730  1.0  -0.1297
  C  C345  1  0.393770  0.396130  0.929230  1.0  -0.0941
  C  C346  1  0.449670  0.398330  0.962230  1.0  0.1162
  C  C347  1  0.435970  0.347430  0.007730  1.0  -0.146
  C  C348  1  0.367370  0.294830  0.019330  1.0  -0.1314
  C  C349  1  0.544770  0.509430  0.912530  1.0  0.498
  C  C350  1  0.579270  0.451330  0.986630  1.0  -0.0243
  C  C351  1  0.643270  0.513830  0.959130  1.0  0.0747
  C  C352  1  0.622670  0.546530  0.916530  1.0  -0.0456
  C  C353  1  0.671070  0.607430  0.886030  1.0  -0.0786
  C  C354  1  0.740970  0.633630  0.897930  1.0  -0.1085
  C  C355  1  0.761770  0.599830  0.941030  1.0  -0.0755
  C  C356  1  0.714370  0.540130  0.971730  1.0  -0.1363
  C  C357  1  0.931930  0.672070  0.234470  1.0  0.687
  C  C358  1  0.020530  0.577470  0.406170  1.0  0.687
  C  C359  1  0.978130  0.623670  0.317870  1.0  0.0151
  C  C360  1  0.991830  0.675070  0.273070  1.0  -0.1303
  C  C361  1  0.060430  0.729470  0.262570  1.0  -0.0942
  C  C362  1  0.116330  0.731670  0.295570  1.0  0.1162
  C  C363  1  0.102630  0.680770  0.341070  1.0  -0.1458
  C  C364  1  0.034030  0.628170  0.352670  1.0  -0.1314
  C  C365  1  0.211430  0.842770  0.245870  1.0  0.4981
  C  C366  1  0.245930  0.784670  0.319970  1.0  -0.0243
  C  C367  1  0.309930  0.847170  0.292470  1.0  0.0747
  C  C368  1  0.289330  0.879870  0.249870  1.0  -0.0456
  C  C369  1  0.337730  0.940770  0.219370  1.0  -0.0786
  C  C370  1  0.407630  0.966970  0.231270  1.0  -0.1085
  C  C371  1  0.428430  0.933170  0.274370  1.0  -0.0756
  C  C372  1  0.381030  0.873470  0.305070  1.0  -0.136
  C  C373  1  0.994600  0.593200  0.567800  1.0  0.6905
  C  C374  1  0.089200  0.776400  0.739500  1.0  0.6867
  C  C375  1  0.043000  0.687800  0.651200  1.0  0.0161
  C  C376  1  0.991600  0.650100  0.606400  1.0  -0.132
  C  C377  1  0.937200  0.664300  0.595900  1.0  -0.094
  C  C378  1  0.935000  0.718000  0.628900  1.0  0.1162
  C  C379  1  0.985900  0.755200  0.674400  1.0  -0.1501
  C  C380  1  0.038500  0.739200  0.686000  1.0  -0.1341
  C  C381  1  0.823900  0.702000  0.579200  1.0  0.5008
  C  C382  1  0.882000  0.794600  0.653300  1.0  -0.0229
  C  C383  1  0.819500  0.796100  0.625800  1.0  0.081
  C  C384  1  0.786800  0.742800  0.583200  1.0  -0.0467
  C  C385  1  0.725900  0.730300  0.552700  1.0  -0.0765
  C  C386  1  0.699700  0.774000  0.564600  1.0  -0.1087
  C  C387  1  0.733500  0.828600  0.607700  1.0  -0.0743
  C  C388  1  0.793200  0.840900  0.638400  1.0  -0.1334
  C  C389  1  0.661270  0.926530  0.901130  1.0  0.6906
  C  C390  1  0.755870  0.109730  0.072830  1.0  0.6867
  C  C391  1  0.709670  0.021130  0.984530  1.0  0.0163
  C  C392  1  0.658270  0.983430  0.939730  1.0  -0.1318
  C  C393  1  0.603870  0.997630  0.929230  1.0  -0.094
  C  C394  1  0.601670  0.051330  0.962230  1.0  0.1163
  C  C395  1  0.652570  0.088530  0.007730  1.0  -0.1501
  C  C396  1  0.705170  0.072530  0.019330  1.0  -0.1338
  C  C397  1  0.490570  0.035330  0.912530  1.0  0.5008
  C  C398  1  0.548670  0.127930  0.986630  1.0  -0.0225
  C  C399  1  0.486170  0.129430  0.959130  1.0  0.0809
  C  C400  1  0.453470  0.076130  0.916530  1.0  -0.0467
  C  C401  1  0.392570  0.063630  0.886030  1.0  -0.0765
  C  C402  1  0.366370  0.107330  0.897930  1.0  -0.1087
  C  C403  1  0.400170  0.161930  0.941030  1.0  -0.0743
  C  C404  1  0.459870  0.174230  0.971730  1.0  -0.1349
  C  C405  1  0.327930  0.259870  0.234470  1.0  0.6905
  C  C406  1  0.422530  0.443070  0.406170  1.0  0.6867
  C  C407  1  0.376330  0.354470  0.317870  1.0  0.0161
  C  C408  1  0.324930  0.316770  0.273070  1.0  -0.132
  C  C409  1  0.270530  0.330970  0.262570  1.0  -0.094
  C  C410  1  0.268330  0.384670  0.295570  1.0  0.1162
  C  C411  1  0.319230  0.421870  0.341070  1.0  -0.1501
  C  C412  1  0.371830  0.405870  0.352670  1.0  -0.1341
  C  C413  1  0.157230  0.368670  0.245870  1.0  0.5008
  C  C414  1  0.215330  0.461270  0.319970  1.0  -0.0229
  C  C415  1  0.152830  0.462770  0.292470  1.0  0.081
  C  C416  1  0.120130  0.409470  0.249870  1.0  -0.0467
  C  C417  1  0.059230  0.396970  0.219370  1.0  -0.0765
  C  C418  1  0.033030  0.440670  0.231270  1.0  -0.1087
  C  C419  1  0.066830  0.495270  0.274370  1.0  -0.0743
  C  C420  1  0.126530  0.507570  0.305070  1.0  -0.1351
  C  C421  1  0.406800  0.401400  0.567800  1.0  0.6905
  C  C422  1  0.223600  0.312800  0.739500  1.0  0.6851
  C  C423  1  0.312200  0.355200  0.651200  1.0  0.0157
  C  C424  1  0.349900  0.341500  0.606400  1.0  -0.1269
  C  C425  1  0.335700  0.272900  0.595900  1.0  -0.0925
  C  C426  1  0.282000  0.217000  0.628900  1.0  0.1144
  C  C427  1  0.244800  0.230700  0.674400  1.0  -0.1429
  C  C428  1  0.260800  0.299300  0.686000  1.0  -0.1322
  C  C429  1  0.298000  0.121900  0.579200  1.0  0.5002
  C  C430  1  0.205400  0.087400  0.653300  1.0  -0.0258
  C  C431  1  0.203900  0.023400  0.625800  1.0  0.0733
  C  C432  1  0.257200  0.044000  0.583200  1.0  -0.0454
  C  C433  1  0.269700  0.995600  0.552700  1.0  -0.078
  C  C434  1  0.226000  0.925700  0.564600  1.0  -0.1062
  C  C435  1  0.171400  0.904900  0.607700  1.0  -0.0752
  C  C436  1  0.159100  0.952300  0.638400  1.0  -0.1314
  C  C437  1  0.073470  0.734730  0.901130  1.0  0.6906
  C  C438  1  0.890270  0.646130  0.072830  1.0  0.6851
  C  C439  1  0.978870  0.688530  0.984530  1.0  0.0155
  C  C440  1  0.016570  0.674830  0.939730  1.0  -0.1269
  C  C441  1  0.002370  0.606230  0.929230  1.0  -0.0925
  C  C442  1  0.948670  0.550330  0.962230  1.0  0.1144
  C  C443  1  0.911470  0.564030  0.007730  1.0  -0.1427
  C  C444  1  0.927470  0.632630  0.019330  1.0  -0.1322
  C  C445  1  0.964670  0.455230  0.912530  1.0  0.5003
  C  C446  1  0.872070  0.420730  0.986630  1.0  -0.0258
  C  C447  1  0.870570  0.356730  0.959130  1.0  0.0733
  C  C448  1  0.923870  0.377330  0.916530  1.0  -0.0454
  C  C449  1  0.936370  0.328930  0.886030  1.0  -0.078
  C  C450  1  0.892670  0.259030  0.897930  1.0  -0.1062
  C  C451  1  0.838070  0.238230  0.941030  1.0  -0.0752
  C  C452  1  0.825770  0.285630  0.971730  1.0  -0.1339
  C  C453  1  0.740130  0.068070  0.234470  1.0  0.6905
  C  C454  1  0.556930  0.979470  0.406170  1.0  0.6851
  C  C455  1  0.645530  0.021870  0.317870  1.0  0.0157
  C  C456  1  0.683230  0.008170  0.273070  1.0  -0.1269
  C  C457  1  0.669030  0.939570  0.262570  1.0  -0.0925
  C  C458  1  0.615330  0.883670  0.295570  1.0  0.1144
  C  C459  1  0.578130  0.897370  0.341070  1.0  -0.1429
  C  C460  1  0.594130  0.965970  0.352670  1.0  -0.1322
  C  C461  1  0.631330  0.788570  0.245870  1.0  0.5002
  C  C462  1  0.538730  0.754070  0.319970  1.0  -0.0255
  C  C463  1  0.537230  0.690070  0.292470  1.0  0.0733
  C  C464  1  0.590530  0.710670  0.249870  1.0  -0.0454
  C  C465  1  0.603030  0.662270  0.219370  1.0  -0.078
  C  C466  1  0.559330  0.592370  0.231270  1.0  -0.1062
  C  C467  1  0.504730  0.571570  0.274370  1.0  -0.0752
  C  C468  1  0.492430  0.618970  0.305070  1.0  -0.1336
  N  N469  1  0.145800  0.881600  0.381400  1.0  -0.2472
  N  N470  1  0.812470  0.214930  0.714730  1.0  -0.2472
  N  N471  1  0.479130  0.548270  0.048070  1.0  -0.2472
  N  N472  1  0.118400  0.264200  0.381400  1.0  -0.2461
  N  N473  1  0.785070  0.597530  0.714730  1.0  -0.2461
  N  N474  1  0.451730  0.930870  0.048070  1.0  -0.2461
  N  N475  1  0.735800  0.854200  0.381400  1.0  -0.244
  N  N476  1  0.402470  0.187530  0.714730  1.0  -0.244
  N  N477  1  0.069130  0.520870  0.048070  1.0  -0.244
  N  N478  1  0.854200  0.118400  0.618600  1.0  -0.2466
  N  N479  1  0.520870  0.451730  0.951930  1.0  -0.2466
  N  N480  1  0.187530  0.785070  0.285270  1.0  -0.2466
  N  N481  1  0.881600  0.735800  0.618600  1.0  -0.2464
  N  N482  1  0.548270  0.069130  0.951930  1.0  -0.2464
  N  N483  1  0.214930  0.402470  0.285270  1.0  -0.2464
  N  N484  1  0.264200  0.145800  0.618600  1.0  -0.247
  N  N485  1  0.930870  0.479130  0.951930  1.0  -0.247
  N  N486  1  0.597530  0.812470  0.285270  1.0  -0.247
  O  O487  1  0.457100  0.054100  0.436130  1.0  -0.5808
  O  O488  1  0.391100  0.939300  0.458080  1.0  -0.5717
  O  O489  1  0.375800  0.133900  0.250070  1.0  -0.5684
  O  O490  1  0.260000  0.081600  0.231110  1.0  -0.5753
  O  O491  1  0.157900  0.807200  0.451900  1.0  -0.5173
  O  O492  1  0.123770  0.387430  0.769460  1.0  -0.5808
  O  O493  1  0.057770  0.272630  0.791410  1.0  -0.5717
  O  O494  1  0.042470  0.467230  0.583400  1.0  -0.5684
  O  O495  1  0.926670  0.414930  0.564440  1.0  -0.5753
  O  O496  1  0.824570  0.140530  0.785230  1.0  -0.5173
  O  O497  1  0.790430  0.720770  0.102800  1.0  -0.5808
  O  O498  1  0.724430  0.605970  0.124750  1.0  -0.5717
  O  O499  1  0.709130  0.800570  0.916740  1.0  -0.5683
  O  O500  1  0.593330  0.748270  0.897780  1.0  -0.5754
  O  O501  1  0.491230  0.473870  0.118570  1.0  -0.5173
  O  O502  1  0.945900  0.403000  0.436130  1.0  -0.5806
  O  O503  1  0.060700  0.451800  0.458080  1.0  -0.5706
  O  O504  1  0.866100  0.241900  0.250070  1.0  -0.5683
  O  O505  1  0.918400  0.178400  0.231110  1.0  -0.5766
  O  O506  1  0.192800  0.350700  0.451900  1.0  -0.5151
  O  O507  1  0.612570  0.736330  0.769460  1.0  -0.5806
  O  O508  1  0.727370  0.785130  0.791410  1.0  -0.5706
  O  O509  1  0.532770  0.575230  0.583400  1.0  -0.5683
  O  O510  1  0.585070  0.511730  0.564440  1.0  -0.5766
  O  O511  1  0.859470  0.684030  0.785230  1.0  -0.5151
  O  O512  1  0.279230  0.069670  0.102800  1.0  -0.5806
  O  O513  1  0.394030  0.118470  0.124750  1.0  -0.5706
  O  O514  1  0.199430  0.908570  0.916740  1.0  -0.5683
  O  O515  1  0.251730  0.845070  0.897780  1.0  -0.5767
  O  O516  1  0.526130  0.017370  0.118570  1.0  -0.5151
  O  O517  1  0.597000  0.542900  0.436130  1.0  -0.5804
  O  O518  1  0.548200  0.608900  0.458080  1.0  -0.5699
  O  O519  1  0.758100  0.624200  0.250070  1.0  -0.5684
  O  O520  1  0.821600  0.740000  0.231110  1.0  -0.5761
  O  O521  1  0.649300  0.842100  0.451900  1.0  -0.5174
  O  O522  1  0.263670  0.876230  0.769460  1.0  -0.5805
  O  O523  1  0.214870  0.942230  0.791410  1.0  -0.57
  O  O524  1  0.424770  0.957530  0.583400  1.0  -0.5684
  O  O525  1  0.488270  0.073330  0.564440  1.0  -0.5761
  O  O526  1  0.315970  0.175430  0.785230  1.0  -0.5174
  O  O527  1  0.930330  0.209570  0.102800  1.0  -0.5804
  O  O528  1  0.881530  0.275570  0.124750  1.0  -0.5699
  O  O529  1  0.091430  0.290870  0.916740  1.0  -0.5685
  O  O530  1  0.154930  0.406670  0.897780  1.0  -0.5763
  O  O531  1  0.982630  0.508770  0.118570  1.0  -0.5174
  O  O532  1  0.542900  0.945900  0.563870  1.0  -0.5812
  O  O533  1  0.608900  0.060700  0.541920  1.0  -0.5716
  O  O534  1  0.624200  0.866100  0.749930  1.0  -0.5669
  O  O535  1  0.740000  0.918400  0.768890  1.0  -0.576
  O  O536  1  0.842100  0.192800  0.548100  1.0  -0.5182
  O  O537  1  0.209570  0.279230  0.897200  1.0  -0.5812
  O  O538  1  0.275570  0.394030  0.875250  1.0  -0.5716
  O  O539  1  0.290870  0.199430  0.083260  1.0  -0.5669
  O  O540  1  0.406670  0.251730  0.102220  1.0  -0.5761
  O  O541  1  0.508770  0.526130  0.881430  1.0  -0.5182
  O  O542  1  0.876230  0.612570  0.230540  1.0  -0.5812
  O  O543  1  0.942230  0.727370  0.208590  1.0  -0.5717
  O  O544  1  0.957530  0.532770  0.416600  1.0  -0.5669
  O  O545  1  0.073330  0.585070  0.435560  1.0  -0.576
  O  O546  1  0.175430  0.859470  0.214770  1.0  -0.5182
  O  O547  1  0.054100  0.597000  0.563870  1.0  -0.5811
  O  O548  1  0.939300  0.548200  0.541920  1.0  -0.5706
  O  O549  1  0.133900  0.758100  0.749930  1.0  -0.5688
  O  O550  1  0.081600  0.821600  0.768890  1.0  -0.5764
  O  O551  1  0.807200  0.649300  0.548100  1.0  -0.517
  O  O552  1  0.720770  0.930330  0.897200  1.0  -0.5811
  O  O553  1  0.605970  0.881530  0.875250  1.0  -0.5706
  O  O554  1  0.800570  0.091430  0.083260  1.0  -0.5688
  O  O555  1  0.748270  0.154930  0.102220  1.0  -0.5765
  O  O556  1  0.473870  0.982630  0.881430  1.0  -0.517
  O  O557  1  0.387430  0.263670  0.230540  1.0  -0.5811
  O  O558  1  0.272630  0.214870  0.208590  1.0  -0.5706
  O  O559  1  0.467230  0.424770  0.416600  1.0  -0.5688
  O  O560  1  0.414930  0.488270  0.435560  1.0  -0.5764
  O  O561  1  0.140530  0.315970  0.214770  1.0  -0.517
  O  O562  1  0.403000  0.457100  0.563870  1.0  -0.5805
  O  O563  1  0.451800  0.391100  0.541920  1.0  -0.5704
  O  O564  1  0.241900  0.375800  0.749930  1.0  -0.5681
  O  O565  1  0.178400  0.260000  0.768890  1.0  -0.5756
  O  O566  1  0.350700  0.157900  0.548100  1.0  -0.5186
  O  O567  1  0.069670  0.790430  0.897200  1.0  -0.5805
  O  O568  1  0.118470  0.724430  0.875250  1.0  -0.5703
  O  O569  1  0.908570  0.709130  0.083260  1.0  -0.568
  O  O570  1  0.845070  0.593330  0.102220  1.0  -0.5758
  O  O571  1  0.017370  0.491230  0.881430  1.0  -0.5186
  O  O572  1  0.736330  0.123770  0.230540  1.0  -0.5805
  O  O573  1  0.785130  0.057770  0.208590  1.0  -0.5704
  O  O574  1  0.575230  0.042470  0.416600  1.0  -0.5681
  O  O575  1  0.511730  0.926670  0.435560  1.0  -0.5756
  O  O576  1  0.684030  0.824570  0.214770  1.0  -0.5186
