# generated using pymatgen
data_CuH9C16NO5
_symmetry_space_group_name_H-M   'P 1'
_cell_length_a   21.24980000
_cell_length_b   21.24980000
_cell_length_c   22.01470000
_cell_angle_alpha   90.00000000
_cell_angle_beta   90.00000000
_cell_angle_gamma   120.00000000
_symmetry_Int_Tables_number   1
_chemical_formula_structural   CuH9C16NO5
_chemical_formula_sum   'Cu18 H162 C288 N18 O90'
_cell_volume   8609.00771609
_cell_formula_units_Z   18
loop_
 _symmetry_equiv_pos_site_id
 _symmetry_equiv_pos_as_xyz
  1  'x, y, z'
loop_
 _atom_site_type_symbol
 _atom_site_label
 _atom_site_symmetry_multiplicity
 _atom_site_fract_x
 _atom_site_fract_y
 _atom_site_fract_z
 _atom_site_occupancy
 _atom_site_charge
  Cu  Cu1  1  0.460070  0.530390  0.009800  1.0  0.8985
  Cu  Cu2  1  0.126740  0.863720  0.343130  1.0  0.8987
  Cu  Cu3  1  0.793400  0.197060  0.676470  1.0  0.9037
  Cu  Cu4  1  0.469610  0.929680  0.009800  1.0  0.9001
  Cu  Cu5  1  0.136280  0.263010  0.343130  1.0  0.9002
  Cu  Cu6  1  0.802940  0.596350  0.676470  1.0  0.899
  Cu  Cu7  1  0.070320  0.539930  0.009800  1.0  0.9006
  Cu  Cu8  1  0.736990  0.873260  0.343130  1.0  0.9012
  Cu  Cu9  1  0.403650  0.206600  0.676470  1.0  0.8995
  Cu  Cu10  1  0.539930  0.469610  0.990200  1.0  0.8969
  Cu  Cu11  1  0.206600  0.802940  0.323530  1.0  0.9023
  Cu  Cu12  1  0.873260  0.136280  0.656870  1.0  0.897
  Cu  Cu13  1  0.530390  0.070320  0.990200  1.0  0.8992
  Cu  Cu14  1  0.197060  0.403650  0.323530  1.0  0.8981
  Cu  Cu15  1  0.863720  0.736990  0.656870  1.0  0.8993
  Cu  Cu16  1  0.929680  0.460070  0.990200  1.0  0.8976
  Cu  Cu17  1  0.596350  0.793400  0.323530  1.0  0.8961
  Cu  Cu18  1  0.263010  0.126740  0.656870  1.0  0.8982
  H  H19  1  0.595800  0.676800  0.159000  1.0  0.1317
  H  H20  1  0.739400  0.643100  0.066400  1.0  0.1132
  H  H21  1  0.808700  0.792600  0.199700  1.0  0.1217
  H  H22  1  0.916200  0.784300  0.196900  1.0  0.1081
  H  H23  1  0.923300  0.842300  0.148300  1.0  0.1177
  H  H24  1  0.993800  0.691300  0.023000  1.0  0.1322
  H  H25  1  0.116700  0.762400  0.045400  1.0  0.1104
  H  H26  1  0.155200  0.850200  0.118700  1.0  0.0924
  H  H27  1  0.074400  0.873000  0.171100  1.0  0.1333
  H  H28  1  0.262470  0.010130  0.492330  1.0  0.1307
  H  H29  1  0.406070  0.976430  0.399730  1.0  0.1132
  H  H30  1  0.475370  0.125930  0.533030  1.0  0.1216
  H  H31  1  0.582870  0.117630  0.530230  1.0  0.1082
  H  H32  1  0.589970  0.175630  0.481630  1.0  0.1186
  H  H33  1  0.660470  0.024630  0.356330  1.0  0.1322
  H  H34  1  0.783370  0.095730  0.378730  1.0  0.1104
  H  H35  1  0.821870  0.183530  0.452030  1.0  0.0924
  H  H36  1  0.741070  0.206330  0.504430  1.0  0.1333
  H  H37  1  0.929130  0.343470  0.825670  1.0  0.1317
  H  H38  1  0.072730  0.309770  0.733070  1.0  0.1132
  H  H39  1  0.142030  0.459270  0.866370  1.0  0.1217
  H  H40  1  0.249530  0.450970  0.863570  1.0  0.1081
  H  H41  1  0.256630  0.508970  0.814970  1.0  0.1177
  H  H42  1  0.327130  0.357970  0.689670  1.0  0.1322
  H  H43  1  0.450030  0.429070  0.712070  1.0  0.1104
  H  H44  1  0.488530  0.516870  0.785370  1.0  0.0924
  H  H45  1  0.407730  0.539670  0.837770  1.0  0.1333
  H  H46  1  0.323200  0.919000  0.159000  1.0  0.1316
  H  H47  1  0.356900  0.096300  0.066400  1.0  0.1137
  H  H48  1  0.207400  0.016100  0.199700  1.0  0.1225
  H  H49  1  0.215700  0.131900  0.196900  1.0  0.109
  H  H50  1  0.157700  0.081000  0.148300  1.0  0.1184
  H  H51  1  0.308700  0.302500  0.023000  1.0  0.1324
  H  H52  1  0.237600  0.354300  0.045400  1.0  0.1097
  H  H53  1  0.149800  0.305000  0.118700  1.0  0.0922
  H  H54  1  0.127000  0.201400  0.171100  1.0  0.1337
  H  H55  1  0.989870  0.252330  0.492330  1.0  0.1316
  H  H56  1  0.023570  0.429630  0.399730  1.0  0.1137
  H  H57  1  0.874070  0.349430  0.533030  1.0  0.1226
  H  H58  1  0.882370  0.465230  0.530230  1.0  0.109
  H  H59  1  0.824370  0.414330  0.481630  1.0  0.1202
  H  H60  1  0.975370  0.635830  0.356330  1.0  0.1324
  H  H61  1  0.904270  0.687630  0.378730  1.0  0.1097
  H  H62  1  0.816470  0.638330  0.452030  1.0  0.0922
  H  H63  1  0.793670  0.534730  0.504430  1.0  0.1337
  H  H64  1  0.656530  0.585670  0.825670  1.0  0.1316
  H  H65  1  0.690230  0.762970  0.733070  1.0  0.1137
  H  H66  1  0.540730  0.682770  0.866370  1.0  0.1225
  H  H67  1  0.549030  0.798570  0.863570  1.0  0.109
  H  H68  1  0.491030  0.747670  0.814970  1.0  0.1184
  H  H69  1  0.642030  0.969170  0.689670  1.0  0.1324
  H  H70  1  0.570930  0.020970  0.712070  1.0  0.1097
  H  H71  1  0.483130  0.971670  0.785370  1.0  0.0922
  H  H72  1  0.460330  0.868070  0.837770  1.0  0.1337
  H  H73  1  0.081000  0.404200  0.159000  1.0  0.1314
  H  H74  1  0.903700  0.260600  0.066400  1.0  0.1143
  H  H75  1  0.983900  0.191300  0.199700  1.0  0.1222
  H  H76  1  0.868100  0.083800  0.196900  1.0  0.1094
  H  H77  1  0.919000  0.076700  0.148300  1.0  0.1166
  H  H78  1  0.697500  0.006200  0.023000  1.0  0.1321
  H  H79  1  0.645700  0.883300  0.045400  1.0  0.1086
  H  H80  1  0.695000  0.844800  0.118700  1.0  0.0949
  H  H81  1  0.798600  0.925600  0.171100  1.0  0.1335
  H  H82  1  0.747670  0.737530  0.492330  1.0  0.1308
  H  H83  1  0.570370  0.593930  0.399730  1.0  0.1143
  H  H84  1  0.650570  0.524630  0.533030  1.0  0.1221
  H  H85  1  0.534770  0.417130  0.530230  1.0  0.1093
  H  H86  1  0.585670  0.410030  0.481630  1.0  0.1177
  H  H87  1  0.364170  0.339530  0.356330  1.0  0.1321
  H  H88  1  0.312370  0.216630  0.378730  1.0  0.1086
  H  H89  1  0.361670  0.178130  0.452030  1.0  0.0948
  H  H90  1  0.465270  0.258930  0.504430  1.0  0.1335
  H  H91  1  0.414330  0.070870  0.825670  1.0  0.1314
  H  H92  1  0.237030  0.927270  0.733070  1.0  0.1143
  H  H93  1  0.317230  0.857970  0.866370  1.0  0.1222
  H  H94  1  0.201430  0.750470  0.863570  1.0  0.1094
  H  H95  1  0.252330  0.743370  0.814970  1.0  0.1166
  H  H96  1  0.030830  0.672870  0.689670  1.0  0.1321
  H  H97  1  0.979030  0.549970  0.712070  1.0  0.1086
  H  H98  1  0.028330  0.511470  0.785370  1.0  0.0949
  H  H99  1  0.131930  0.592270  0.837770  1.0  0.1335
  H  H100  1  0.404200  0.323200  0.841000  1.0  0.1314
  H  H101  1  0.260600  0.356900  0.933600  1.0  0.1135
  H  H102  1  0.191300  0.207400  0.800300  1.0  0.1221
  H  H103  1  0.083800  0.215700  0.803100  1.0  0.1077
  H  H104  1  0.076700  0.157700  0.851700  1.0  0.1159
  H  H105  1  0.006200  0.308700  0.977000  1.0  0.132
  H  H106  1  0.883300  0.237600  0.954600  1.0  0.1103
  H  H107  1  0.844800  0.149800  0.881300  1.0  0.092
  H  H108  1  0.925600  0.127000  0.828900  1.0  0.1332
  H  H109  1  0.070870  0.656530  0.174330  1.0  0.1314
  H  H110  1  0.927270  0.690230  0.266930  1.0  0.1135
  H  H111  1  0.857970  0.540730  0.133630  1.0  0.1221
  H  H112  1  0.750470  0.549030  0.136430  1.0  0.1077
  H  H113  1  0.743370  0.491030  0.185030  1.0  0.1159
  H  H114  1  0.672870  0.642030  0.310330  1.0  0.132
  H  H115  1  0.549970  0.570930  0.287930  1.0  0.1103
  H  H116  1  0.511470  0.483130  0.214630  1.0  0.092
  H  H117  1  0.592270  0.460330  0.162230  1.0  0.1332
  H  H118  1  0.737530  0.989870  0.507670  1.0  0.1305
  H  H119  1  0.593930  0.023570  0.600270  1.0  0.1135
  H  H120  1  0.524630  0.874070  0.466970  1.0  0.122
  H  H121  1  0.417130  0.882370  0.469770  1.0  0.1077
  H  H122  1  0.410030  0.824370  0.518370  1.0  0.1163
  H  H123  1  0.339530  0.975370  0.643670  1.0  0.132
  H  H124  1  0.216630  0.904270  0.621270  1.0  0.1103
  H  H125  1  0.178130  0.816470  0.547970  1.0  0.0918
  H  H126  1  0.258930  0.793670  0.495570  1.0  0.1332
  H  H127  1  0.676800  0.081000  0.841000  1.0  0.1317
  H  H128  1  0.643100  0.903700  0.933600  1.0  0.1141
  H  H129  1  0.792600  0.983900  0.800300  1.0  0.1223
  H  H130  1  0.784300  0.868100  0.803100  1.0  0.1094
  H  H131  1  0.842300  0.919000  0.851700  1.0  0.1178
  H  H132  1  0.691300  0.697500  0.977000  1.0  0.1326
  H  H133  1  0.762400  0.645700  0.954600  1.0  0.1096
  H  H134  1  0.850200  0.695000  0.881300  1.0  0.0927
  H  H135  1  0.873000  0.798600  0.828900  1.0  0.1336
  H  H136  1  0.343470  0.414330  0.174330  1.0  0.1317
  H  H137  1  0.309770  0.237030  0.266930  1.0  0.1141
  H  H138  1  0.459270  0.317230  0.133630  1.0  0.1223
  H  H139  1  0.450970  0.201430  0.136430  1.0  0.1094
  H  H140  1  0.508970  0.252330  0.185030  1.0  0.1178
  H  H141  1  0.357970  0.030830  0.310330  1.0  0.1326
  H  H142  1  0.429070  0.979030  0.287930  1.0  0.1096
  H  H143  1  0.516870  0.028330  0.214630  1.0  0.0927
  H  H144  1  0.539670  0.131930  0.162230  1.0  0.1336
  H  H145  1  0.010130  0.747670  0.507670  1.0  0.1318
  H  H146  1  0.976430  0.570370  0.600270  1.0  0.1141
  H  H147  1  0.125930  0.650570  0.466970  1.0  0.1223
  H  H148  1  0.117630  0.534770  0.469770  1.0  0.1094
  H  H149  1  0.175630  0.585670  0.518370  1.0  0.1199
  H  H150  1  0.024630  0.364170  0.643670  1.0  0.1326
  H  H151  1  0.095730  0.312370  0.621270  1.0  0.1096
  H  H152  1  0.183530  0.361670  0.547970  1.0  0.0927
  H  H153  1  0.206330  0.465270  0.495570  1.0  0.1336
  H  H154  1  0.919000  0.595800  0.841000  1.0  0.1314
  H  H155  1  0.096300  0.739400  0.933600  1.0  0.115
  H  H156  1  0.016100  0.808700  0.800300  1.0  0.122
  H  H157  1  0.131900  0.916200  0.803100  1.0  0.1095
  H  H158  1  0.081000  0.923300  0.851700  1.0  0.1186
  H  H159  1  0.302500  0.993800  0.977000  1.0  0.1327
  H  H160  1  0.354300  0.116700  0.954600  1.0  0.109
  H  H161  1  0.305000  0.155200  0.881300  1.0  0.0956
  H  H162  1  0.201400  0.074400  0.828900  1.0  0.1344
  H  H163  1  0.585670  0.929130  0.174330  1.0  0.1314
  H  H164  1  0.762970  0.072730  0.266930  1.0  0.115
  H  H165  1  0.682770  0.142030  0.133630  1.0  0.122
  H  H166  1  0.798570  0.249530  0.136430  1.0  0.1095
  H  H167  1  0.747670  0.256630  0.185030  1.0  0.1186
  H  H168  1  0.969170  0.327130  0.310330  1.0  0.1327
  H  H169  1  0.020970  0.450030  0.287930  1.0  0.109
  H  H170  1  0.971670  0.488530  0.214630  1.0  0.0956
  H  H171  1  0.868070  0.407730  0.162230  1.0  0.1344
  H  H172  1  0.252330  0.262470  0.507670  1.0  0.1306
  H  H173  1  0.429630  0.406070  0.600270  1.0  0.1149
  H  H174  1  0.349430  0.475370  0.466970  1.0  0.1218
  H  H175  1  0.465230  0.582870  0.469770  1.0  0.1095
  H  H176  1  0.414330  0.589970  0.518370  1.0  0.1199
  H  H177  1  0.635830  0.660470  0.643670  1.0  0.1327
  H  H178  1  0.687630  0.783370  0.621270  1.0  0.109
  H  H179  1  0.638330  0.821870  0.547970  1.0  0.0956
  H  H180  1  0.534730  0.741070  0.495570  1.0  0.1344
  C  C181  1  0.599200  0.596000  0.066830  1.0  0.7032
  C  C182  1  0.684800  0.773800  0.240770  1.0  0.6681
  C  C183  1  0.700000  0.739100  0.187900  1.0  -0.1109
  C  C184  1  0.643300  0.687600  0.152000  1.0  0.0003
  C  C185  1  0.658600  0.653200  0.106100  1.0  -0.1125
  C  C186  1  0.729900  0.668300  0.096200  1.0  -0.1296
  C  C187  1  0.786700  0.720900  0.130900  1.0  0.1001
  C  C188  1  0.771200  0.756800  0.176700  1.0  -0.1351
  C  C189  1  0.881500  0.704700  0.078400  1.0  0.433
  C  C190  1  0.920300  0.795600  0.153900  1.0  -0.0019
  C  C191  1  0.984200  0.795300  0.126800  1.0  0.1111
  C  C192  1  0.962100  0.743000  0.083100  1.0  -0.0394
  C  C193  1  0.010100  0.728000  0.052000  1.0  -0.1196
  C  C194  1  0.082800  0.770000  0.066000  1.0  -0.0719
  C  C195  1  0.105900  0.823000  0.109900  1.0  -0.0858
  C  C196  1  0.058200  0.837100  0.141400  1.0  -0.1697
  C  C197  1  0.265870  0.929330  0.400160  1.0  0.7032
  C  C198  1  0.351470  0.107130  0.574100  1.0  0.6681
  C  C199  1  0.366670  0.072430  0.521230  1.0  -0.1109
  C  C200  1  0.309970  0.020930  0.485330  1.0  0.0003
  C  C201  1  0.325270  0.986530  0.439430  1.0  -0.1125
  C  C202  1  0.396570  0.001630  0.429530  1.0  -0.1296
  C  C203  1  0.453370  0.054230  0.464230  1.0  0.0999
  C  C204  1  0.437870  0.090130  0.510030  1.0  -0.1351
  C  C205  1  0.548170  0.038030  0.411730  1.0  0.433
  C  C206  1  0.586970  0.128930  0.487230  1.0  -0.0019
  C  C207  1  0.650870  0.128630  0.460130  1.0  0.1111
  C  C208  1  0.628770  0.076330  0.416430  1.0  -0.0394
  C  C209  1  0.676770  0.061330  0.385330  1.0  -0.1196
  C  C210  1  0.749470  0.103330  0.399330  1.0  -0.0719
  C  C211  1  0.772570  0.156330  0.443230  1.0  -0.0858
  C  C212  1  0.724870  0.170430  0.474730  1.0  -0.1697
  C  C213  1  0.932530  0.262670  0.733500  1.0  0.7032
  C  C214  1  0.018130  0.440470  0.907440  1.0  0.6681
  C  C215  1  0.033330  0.405770  0.854570  1.0  -0.1109
  C  C216  1  0.976630  0.354270  0.818670  1.0  0.0003
  C  C217  1  0.991930  0.319870  0.772770  1.0  -0.1125
  C  C218  1  0.063230  0.334970  0.762870  1.0  -0.1296
  C  C219  1  0.120030  0.387570  0.797570  1.0  0.1001
  C  C220  1  0.104530  0.423470  0.843370  1.0  -0.1351
  C  C221  1  0.214830  0.371370  0.745070  1.0  0.433
  C  C222  1  0.253630  0.462270  0.820570  1.0  -0.0019
  C  C223  1  0.317530  0.461970  0.793470  1.0  0.1111
  C  C224  1  0.295430  0.409670  0.749770  1.0  -0.0394
  C  C225  1  0.343430  0.394670  0.718670  1.0  -0.1196
  C  C226  1  0.416130  0.436670  0.732670  1.0  -0.0719
  C  C227  1  0.439230  0.489670  0.776570  1.0  -0.0858
  C  C228  1  0.391530  0.503770  0.808070  1.0  -0.1697
  C  C229  1  0.404000  0.003200  0.066830  1.0  0.7004
  C  C230  1  0.226200  0.911000  0.240770  1.0  0.67
  C  C231  1  0.260900  0.960900  0.187900  1.0  -0.1059
  C  C232  1  0.312400  0.955700  0.152000  1.0  -0.0019
  C  C233  1  0.346800  0.005400  0.106100  1.0  -0.1128
  C  C234  1  0.331700  0.061600  0.096200  1.0  -0.1284
  C  C235  1  0.279100  0.065800  0.130900  1.0  0.0983
  C  C236  1  0.243200  0.014400  0.176700  1.0  -0.1291
  C  C237  1  0.295300  0.176800  0.078400  1.0  0.4294
  C  C238  1  0.204400  0.124700  0.153900  1.0  -0.0045
  C  C239  1  0.204700  0.188900  0.126800  1.0  0.1067
  C  C240  1  0.257000  0.219100  0.083100  1.0  -0.0394
  C  C241  1  0.272000  0.282100  0.052000  1.0  -0.124
  C  C242  1  0.230000  0.312800  0.066000  1.0  -0.0699
  C  C243  1  0.177000  0.282900  0.109900  1.0  -0.0883
  C  C244  1  0.162900  0.221100  0.141400  1.0  -0.1726
  C  C245  1  0.070670  0.336530  0.400160  1.0  0.7004
  C  C246  1  0.892870  0.244330  0.574100  1.0  0.67
  C  C247  1  0.927570  0.294230  0.521230  1.0  -0.1059
  C  C248  1  0.979070  0.289030  0.485330  1.0  -0.0019
  C  C249  1  0.013470  0.338730  0.439430  1.0  -0.1128
  C  C250  1  0.998370  0.394930  0.429530  1.0  -0.1284
  C  C251  1  0.945770  0.399130  0.464230  1.0  0.0982
  C  C252  1  0.909870  0.347730  0.510030  1.0  -0.1291
  C  C253  1  0.961970  0.510130  0.411730  1.0  0.4294
  C  C254  1  0.871070  0.458030  0.487230  1.0  -0.0045
  C  C255  1  0.871370  0.522230  0.460130  1.0  0.1067
  C  C256  1  0.923670  0.552430  0.416430  1.0  -0.0394
  C  C257  1  0.938670  0.615430  0.385330  1.0  -0.124
  C  C258  1  0.896670  0.646130  0.399330  1.0  -0.0699
  C  C259  1  0.843670  0.616230  0.443230  1.0  -0.0883
  C  C260  1  0.829570  0.554430  0.474730  1.0  -0.1726
  C  C261  1  0.737330  0.669870  0.733500  1.0  0.7004
  C  C262  1  0.559530  0.577670  0.907440  1.0  0.67
  C  C263  1  0.594230  0.627570  0.854570  1.0  -0.1059
  C  C264  1  0.645730  0.622370  0.818670  1.0  -0.0019
  C  C265  1  0.680130  0.672070  0.772770  1.0  -0.1128
  C  C266  1  0.665030  0.728270  0.762870  1.0  -0.1284
  C  C267  1  0.612430  0.732470  0.797570  1.0  0.0983
  C  C268  1  0.576530  0.681070  0.843370  1.0  -0.1291
  C  C269  1  0.628630  0.843470  0.745070  1.0  0.4294
  C  C270  1  0.537730  0.791370  0.820570  1.0  -0.0045
  C  C271  1  0.538030  0.855570  0.793470  1.0  0.1067
  C  C272  1  0.590330  0.885770  0.749770  1.0  -0.0394
  C  C273  1  0.605330  0.948770  0.718670  1.0  -0.124
  C  C274  1  0.563330  0.979470  0.732670  1.0  -0.0699
  C  C275  1  0.510330  0.949570  0.776570  1.0  -0.0883
  C  C276  1  0.496230  0.887770  0.808070  1.0  -0.1726
  C  C277  1  0.996800  0.400800  0.066830  1.0  0.7027
  C  C278  1  0.089000  0.315200  0.240770  1.0  0.6682
  C  C279  1  0.039100  0.300000  0.187900  1.0  -0.1063
  C  C280  1  0.044300  0.356700  0.152000  1.0  -0.0019
  C  C281  1  0.994600  0.341400  0.106100  1.0  -0.1116
  C  C282  1  0.938400  0.270100  0.096200  1.0  -0.1287
  C  C283  1  0.934200  0.213300  0.130900  1.0  0.0998
  C  C284  1  0.985600  0.228800  0.176700  1.0  -0.13
  C  C285  1  0.823200  0.118500  0.078400  1.0  0.4301
  C  C286  1  0.875300  0.079700  0.153900  1.0  -0.0032
  C  C287  1  0.811100  0.015800  0.126800  1.0  0.1052
  C  C288  1  0.780900  0.037900  0.083100  1.0  -0.0384
  C  C289  1  0.717900  0.989900  0.052000  1.0  -0.1198
  C  C290  1  0.687200  0.917200  0.066000  1.0  -0.0696
  C  C291  1  0.717100  0.894100  0.109900  1.0  -0.0858
  C  C292  1  0.778900  0.941800  0.141400  1.0  -0.171
  C  C293  1  0.663470  0.734130  0.400160  1.0  0.7028
  C  C294  1  0.755670  0.648530  0.574100  1.0  0.6682
  C  C295  1  0.705770  0.633330  0.521230  1.0  -0.1065
  C  C296  1  0.710970  0.690030  0.485330  1.0  -0.0019
  C  C297  1  0.661270  0.674730  0.439430  1.0  -0.1116
  C  C298  1  0.605070  0.603430  0.429530  1.0  -0.1287
  C  C299  1  0.600870  0.546630  0.464230  1.0  0.0999
  C  C300  1  0.652270  0.562130  0.510030  1.0  -0.13
  C  C301  1  0.489870  0.451830  0.411730  1.0  0.4301
  C  C302  1  0.541970  0.413030  0.487230  1.0  -0.0032
  C  C303  1  0.477770  0.349130  0.460130  1.0  0.1053
  C  C304  1  0.447570  0.371230  0.416430  1.0  -0.0385
  C  C305  1  0.384570  0.323230  0.385330  1.0  -0.1198
  C  C306  1  0.353870  0.250530  0.399330  1.0  -0.0696
  C  C307  1  0.383770  0.227430  0.443230  1.0  -0.0857
  C  C308  1  0.445570  0.275130  0.474730  1.0  -0.171
  C  C309  1  0.330130  0.067470  0.733500  1.0  0.7028
  C  C310  1  0.422330  0.981870  0.907440  1.0  0.6682
  C  C311  1  0.372430  0.966670  0.854570  1.0  -0.1063
  C  C312  1  0.377630  0.023370  0.818670  1.0  -0.0019
  C  C313  1  0.327930  0.008070  0.772770  1.0  -0.1116
  C  C314  1  0.271730  0.936770  0.762870  1.0  -0.1287
  C  C315  1  0.267530  0.879970  0.797570  1.0  0.0998
  C  C316  1  0.318930  0.895470  0.843370  1.0  -0.13
  C  C317  1  0.156530  0.785170  0.745070  1.0  0.4301
  C  C318  1  0.208630  0.746370  0.820570  1.0  -0.0032
  C  C319  1  0.144430  0.682470  0.793470  1.0  0.1052
  C  C320  1  0.114230  0.704570  0.749770  1.0  -0.0384
  C  C321  1  0.051230  0.656570  0.718670  1.0  -0.1198
  C  C322  1  0.020530  0.583870  0.732670  1.0  -0.0696
  C  C323  1  0.050430  0.560770  0.776570  1.0  -0.0858
  C  C324  1  0.112230  0.608470  0.808070  1.0  -0.171
  C  C325  1  0.400800  0.404000  0.933170  1.0  0.7029
  C  C326  1  0.315200  0.226200  0.759230  1.0  0.6683
  C  C327  1  0.300000  0.260900  0.812100  1.0  -0.1074
  C  C328  1  0.356700  0.312400  0.848000  1.0  -0.001
  C  C329  1  0.341400  0.346800  0.893900  1.0  -0.1143
  C  C330  1  0.270100  0.331700  0.903800  1.0  -0.1275
  C  C331  1  0.213300  0.279100  0.869100  1.0  0.1005
  C  C332  1  0.228800  0.243200  0.823300  1.0  -0.1345
  C  C333  1  0.118500  0.295300  0.921600  1.0  0.4326
  C  C334  1  0.079700  0.204400  0.846100  1.0  -0.0015
  C  C335  1  0.015800  0.204700  0.873200  1.0  0.1105
  C  C336  1  0.037900  0.257000  0.916900  1.0  -0.0373
  C  C337  1  0.989900  0.272000  0.948000  1.0  -0.1205
  C  C338  1  0.917200  0.230000  0.934000  1.0  -0.0708
  C  C339  1  0.894100  0.177000  0.890100  1.0  -0.085
  C  C340  1  0.941800  0.162900  0.858600  1.0  -0.1707
  C  C341  1  0.067470  0.737330  0.266500  1.0  0.7029
  C  C342  1  0.981870  0.559530  0.092560  1.0  0.6683
  C  C343  1  0.966670  0.594230  0.145430  1.0  -0.1074
  C  C344  1  0.023370  0.645730  0.181330  1.0  -0.001
  C  C345  1  0.008070  0.680130  0.227230  1.0  -0.1143
  C  C346  1  0.936770  0.665030  0.237130  1.0  -0.1275
  C  C347  1  0.879970  0.612430  0.202430  1.0  0.1005
  C  C348  1  0.895470  0.576530  0.156630  1.0  -0.1345
  C  C349  1  0.785170  0.628630  0.254930  1.0  0.4326
  C  C350  1  0.746370  0.537730  0.179430  1.0  -0.0015
  C  C351  1  0.682470  0.538030  0.206530  1.0  0.1105
  C  C352  1  0.704570  0.590330  0.250230  1.0  -0.0373
  C  C353  1  0.656570  0.605330  0.281330  1.0  -0.1205
  C  C354  1  0.583870  0.563330  0.267330  1.0  -0.0708
  C  C355  1  0.560770  0.510330  0.223430  1.0  -0.085
  C  C356  1  0.608470  0.496230  0.191930  1.0  -0.1707
  C  C357  1  0.734130  0.070670  0.599840  1.0  0.7029
  C  C358  1  0.648530  0.892870  0.425900  1.0  0.6683
  C  C359  1  0.633330  0.927570  0.478770  1.0  -0.1074
  C  C360  1  0.690030  0.979070  0.514670  1.0  -0.001
  C  C361  1  0.674730  0.013470  0.560570  1.0  -0.1143
  C  C362  1  0.603430  0.998370  0.570470  1.0  -0.1275
  C  C363  1  0.546630  0.945770  0.535770  1.0  0.1004
  C  C364  1  0.562130  0.909870  0.489970  1.0  -0.1345
  C  C365  1  0.451830  0.961970  0.588270  1.0  0.4327
  C  C366  1  0.413030  0.871070  0.512770  1.0  -0.0015
  C  C367  1  0.349130  0.871370  0.539870  1.0  0.1106
  C  C368  1  0.371230  0.923670  0.583570  1.0  -0.0373
  C  C369  1  0.323230  0.938670  0.614670  1.0  -0.1205
  C  C370  1  0.250530  0.896670  0.600670  1.0  -0.0708
  C  C371  1  0.227430  0.843670  0.556770  1.0  -0.085
  C  C372  1  0.275130  0.829570  0.525270  1.0  -0.1707
  C  C373  1  0.596000  0.996800  0.933170  1.0  0.6987
  C  C374  1  0.773800  0.089000  0.759230  1.0  0.6708
  C  C375  1  0.739100  0.039100  0.812100  1.0  -0.1052
  C  C376  1  0.687600  0.044300  0.848000  1.0  -0.0016
  C  C377  1  0.653200  0.994600  0.893900  1.0  -0.1117
  C  C378  1  0.668300  0.938400  0.903800  1.0  -0.1288
  C  C379  1  0.720900  0.934200  0.869100  1.0  0.0998
  C  C380  1  0.756800  0.985600  0.823300  1.0  -0.1285
  C  C381  1  0.704700  0.823200  0.921600  1.0  0.4307
  C  C382  1  0.795600  0.875300  0.846100  1.0  -0.0029
  C  C383  1  0.795300  0.811100  0.873200  1.0  0.108
  C  C384  1  0.743000  0.780900  0.916900  1.0  -0.0349
  C  C385  1  0.728000  0.717900  0.948000  1.0  -0.1235
  C  C386  1  0.770000  0.687200  0.934000  1.0  -0.0693
  C  C387  1  0.823000  0.717100  0.890100  1.0  -0.0885
  C  C388  1  0.837100  0.778900  0.858600  1.0  -0.1725
  C  C389  1  0.262670  0.330130  0.266500  1.0  0.6987
  C  C390  1  0.440470  0.422330  0.092560  1.0  0.6708
  C  C391  1  0.405770  0.372430  0.145430  1.0  -0.1052
  C  C392  1  0.354270  0.377630  0.181330  1.0  -0.0016
  C  C393  1  0.319870  0.327930  0.227230  1.0  -0.1117
  C  C394  1  0.334970  0.271730  0.237130  1.0  -0.1287
  C  C395  1  0.387570  0.267530  0.202430  1.0  0.0998
  C  C396  1  0.423470  0.318930  0.156630  1.0  -0.1285
  C  C397  1  0.371370  0.156530  0.254930  1.0  0.4307
  C  C398  1  0.462270  0.208630  0.179430  1.0  -0.0029
  C  C399  1  0.461970  0.144430  0.206530  1.0  0.1081
  C  C400  1  0.409670  0.114230  0.250230  1.0  -0.0349
  C  C401  1  0.394670  0.051230  0.281330  1.0  -0.1235
  C  C402  1  0.436670  0.020530  0.267330  1.0  -0.0693
  C  C403  1  0.489670  0.050430  0.223430  1.0  -0.0885
  C  C404  1  0.503770  0.112230  0.191930  1.0  -0.1725
  C  C405  1  0.929330  0.663470  0.599840  1.0  0.6988
  C  C406  1  0.107130  0.755670  0.425900  1.0  0.6708
  C  C407  1  0.072430  0.705770  0.478770  1.0  -0.1052
  C  C408  1  0.020930  0.710970  0.514670  1.0  -0.0016
  C  C409  1  0.986530  0.661270  0.560570  1.0  -0.1117
  C  C410  1  0.001630  0.605070  0.570470  1.0  -0.1288
  C  C411  1  0.054230  0.600870  0.535770  1.0  0.0997
  C  C412  1  0.090130  0.652270  0.489970  1.0  -0.1285
  C  C413  1  0.038030  0.489870  0.588270  1.0  0.4306
  C  C414  1  0.128930  0.541970  0.512770  1.0  -0.0029
  C  C415  1  0.128630  0.477770  0.539870  1.0  0.1081
  C  C416  1  0.076330  0.447570  0.583570  1.0  -0.0349
  C  C417  1  0.061330  0.384570  0.614670  1.0  -0.1235
  C  C418  1  0.103330  0.353870  0.600670  1.0  -0.0694
  C  C419  1  0.156330  0.383770  0.556770  1.0  -0.0885
  C  C420  1  0.170430  0.445570  0.525270  1.0  -0.1726
  C  C421  1  0.003200  0.599200  0.933170  1.0  0.7023
  C  C422  1  0.911000  0.684800  0.759230  1.0  0.6682
  C  C423  1  0.960900  0.700000  0.812100  1.0  -0.11
  C  C424  1  0.955700  0.643300  0.848000  1.0  -0.0013
  C  C425  1  0.005400  0.658600  0.893900  1.0  -0.1109
  C  C426  1  0.061600  0.729900  0.903800  1.0  -0.1287
  C  C427  1  0.065800  0.786700  0.869100  1.0  0.0991
  C  C428  1  0.014400  0.771200  0.823300  1.0  -0.1276
  C  C429  1  0.176800  0.881500  0.921600  1.0  0.4305
  C  C430  1  0.124700  0.920300  0.846100  1.0  -0.0064
  C  C431  1  0.188900  0.984200  0.873200  1.0  0.1065
  C  C432  1  0.219100  0.962100  0.916900  1.0  -0.0349
  C  C433  1  0.282100  0.010100  0.948000  1.0  -0.1224
  C  C434  1  0.312800  0.082800  0.934000  1.0  -0.0663
  C  C435  1  0.282900  0.105900  0.890100  1.0  -0.0865
  C  C436  1  0.221100  0.058200  0.858600  1.0  -0.1697
  C  C437  1  0.669870  0.932530  0.266500  1.0  0.7023
  C  C438  1  0.577670  0.018130  0.092560  1.0  0.6682
  C  C439  1  0.627570  0.033330  0.145430  1.0  -0.11
  C  C440  1  0.622370  0.976630  0.181330  1.0  -0.0013
  C  C441  1  0.672070  0.991930  0.227230  1.0  -0.1109
  C  C442  1  0.728270  0.063230  0.237130  1.0  -0.1287
  C  C443  1  0.732470  0.120030  0.202430  1.0  0.0991
  C  C444  1  0.681070  0.104530  0.156630  1.0  -0.1276
  C  C445  1  0.843470  0.214830  0.254930  1.0  0.4305
  C  C446  1  0.791370  0.253630  0.179430  1.0  -0.0064
  C  C447  1  0.855570  0.317530  0.206530  1.0  0.1065
  C  C448  1  0.885770  0.295430  0.250230  1.0  -0.0349
  C  C449  1  0.948770  0.343430  0.281330  1.0  -0.1224
  C  C450  1  0.979470  0.416130  0.267330  1.0  -0.0663
  C  C451  1  0.949570  0.439230  0.223430  1.0  -0.0865
  C  C452  1  0.887770  0.391530  0.191930  1.0  -0.1697
  C  C453  1  0.336530  0.265870  0.599840  1.0  0.7023
  C  C454  1  0.244330  0.351470  0.425900  1.0  0.6682
  C  C455  1  0.294230  0.366670  0.478770  1.0  -0.1102
  C  C456  1  0.289030  0.309970  0.514670  1.0  -0.0013
  C  C457  1  0.338730  0.325270  0.560570  1.0  -0.1109
  C  C458  1  0.394930  0.396570  0.570470  1.0  -0.1287
  C  C459  1  0.399130  0.453370  0.535770  1.0  0.0992
  C  C460  1  0.347730  0.437870  0.489970  1.0  -0.1276
  C  C461  1  0.510130  0.548170  0.588270  1.0  0.4302
  C  C462  1  0.458030  0.586970  0.512770  1.0  -0.0064
  C  C463  1  0.522230  0.650870  0.539870  1.0  0.1064
  C  C464  1  0.552430  0.628770  0.583570  1.0  -0.0349
  C  C465  1  0.615430  0.676770  0.614670  1.0  -0.1224
  C  C466  1  0.646130  0.749470  0.600670  1.0  -0.0663
  C  C467  1  0.616230  0.772570  0.556770  1.0  -0.0865
  C  C468  1  0.554430  0.724870  0.525270  1.0  -0.1697
  N  N469  1  0.859600  0.739100  0.120400  1.0  -0.1875
  N  N470  1  0.526270  0.072430  0.453730  1.0  -0.1873
  N  N471  1  0.192930  0.405770  0.787070  1.0  -0.1875
  N  N472  1  0.260900  0.120500  0.120400  1.0  -0.1859
  N  N473  1  0.927570  0.453830  0.453730  1.0  -0.1859
  N  N474  1  0.594230  0.787170  0.787070  1.0  -0.1859
  N  N475  1  0.879500  0.140400  0.120400  1.0  -0.1844
  N  N476  1  0.546170  0.473730  0.453730  1.0  -0.1845
  N  N477  1  0.212830  0.807070  0.787070  1.0  -0.1844
  N  N478  1  0.140400  0.260900  0.879600  1.0  -0.1856
  N  N479  1  0.807070  0.594230  0.212930  1.0  -0.1856
  N  N480  1  0.473730  0.927570  0.546270  1.0  -0.1858
  N  N481  1  0.739100  0.879500  0.879600  1.0  -0.1867
  N  N482  1  0.405770  0.212830  0.212930  1.0  -0.1867
  N  N483  1  0.072430  0.546170  0.546270  1.0  -0.1867
  N  N484  1  0.120500  0.859600  0.879600  1.0  -0.1834
  N  N485  1  0.787170  0.192930  0.212930  1.0  -0.1834
  N  N486  1  0.453830  0.526270  0.546270  1.0  -0.1832
  O  O487  1  0.541930  0.599210  0.062000  1.0  -0.5842
  O  O488  1  0.611330  0.550700  0.041790  1.0  -0.5802
  O  O489  1  0.739300  0.820890  0.270280  1.0  -0.5888
  O  O490  1  0.620260  0.753590  0.252600  1.0  -0.5661
  O  O491  1  0.845700  0.652700  0.048500  1.0  -0.4981
  O  O492  1  0.208600  0.932540  0.395330  1.0  -0.5855
  O  O493  1  0.278000  0.884030  0.375120  1.0  -0.5802
  O  O494  1  0.405970  0.154220  0.603610  1.0  -0.5888
  O  O495  1  0.286930  0.086920  0.585930  1.0  -0.5662
  O  O496  1  0.512370  0.986030  0.381830  1.0  -0.4981
  O  O497  1  0.875260  0.265880  0.728670  1.0  -0.5842
  O  O498  1  0.944660  0.217370  0.708460  1.0  -0.5802
  O  O499  1  0.072630  0.487560  0.936950  1.0  -0.5888
  O  O500  1  0.953590  0.420260  0.919270  1.0  -0.5661
  O  O501  1  0.179030  0.319370  0.715170  1.0  -0.4981
  O  O502  1  0.400790  0.942720  0.062000  1.0  -0.5835
  O  O503  1  0.449300  0.060630  0.041790  1.0  -0.5796
  O  O504  1  0.179110  0.918410  0.270280  1.0  -0.5854
  O  O505  1  0.246410  0.866670  0.252600  1.0  -0.5683
  O  O506  1  0.347300  0.193000  0.048500  1.0  -0.4998
  O  O507  1  0.067460  0.276050  0.395330  1.0  -0.5836
  O  O508  1  0.115970  0.393960  0.375120  1.0  -0.5796
  O  O509  1  0.845780  0.251740  0.603610  1.0  -0.5854
  O  O510  1  0.913080  0.200000  0.585930  1.0  -0.5683
  O  O511  1  0.013970  0.526330  0.381830  1.0  -0.4998
  O  O512  1  0.734120  0.609390  0.728670  1.0  -0.5835
  O  O513  1  0.782630  0.727300  0.708460  1.0  -0.5796
  O  O514  1  0.512440  0.585080  0.936950  1.0  -0.5854
  O  O515  1  0.579740  0.533340  0.919270  1.0  -0.5683
  O  O516  1  0.680630  0.859670  0.715170  1.0  -0.4998
  O  O517  1  0.057280  0.458070  0.062000  1.0  -0.5842
  O  O518  1  0.939370  0.388670  0.041790  1.0  -0.5795
  O  O519  1  0.081590  0.260700  0.270280  1.0  -0.586
  O  O520  1  0.133330  0.379740  0.252600  1.0  -0.5675
  O  O521  1  0.807000  0.154300  0.048500  1.0  -0.4987
  O  O522  1  0.723950  0.791400  0.395330  1.0  -0.584
  O  O523  1  0.606040  0.722000  0.375120  1.0  -0.5794
  O  O524  1  0.748260  0.594030  0.603610  1.0  -0.5861
  O  O525  1  0.800000  0.713070  0.585930  1.0  -0.5675
  O  O526  1  0.473670  0.487630  0.381830  1.0  -0.4987
  O  O527  1  0.390610  0.124740  0.728670  1.0  -0.5843
  O  O528  1  0.272700  0.055340  0.708460  1.0  -0.5794
  O  O529  1  0.414920  0.927370  0.936950  1.0  -0.586
  O  O530  1  0.466660  0.046410  0.919270  1.0  -0.5675
  O  O531  1  0.140330  0.820970  0.715170  1.0  -0.4987
  O  O532  1  0.458070  0.400790  0.938000  1.0  -0.5827
  O  O533  1  0.388670  0.449300  0.958210  1.0  -0.5798
  O  O534  1  0.260700  0.179110  0.729720  1.0  -0.5868
  O  O535  1  0.379740  0.246410  0.747400  1.0  -0.5673
  O  O536  1  0.154300  0.347300  0.951500  1.0  -0.497
  O  O537  1  0.124740  0.734120  0.271330  1.0  -0.5827
  O  O538  1  0.055340  0.782630  0.291540  1.0  -0.5798
  O  O539  1  0.927370  0.512440  0.063050  1.0  -0.5868
  O  O540  1  0.046410  0.579740  0.080730  1.0  -0.5673
  O  O541  1  0.820970  0.680630  0.284830  1.0  -0.497
  O  O542  1  0.791400  0.067460  0.604670  1.0  -0.5837
  O  O543  1  0.722000  0.115970  0.624880  1.0  -0.5798
  O  O544  1  0.594030  0.845780  0.396390  1.0  -0.5868
  O  O545  1  0.713070  0.913080  0.414070  1.0  -0.5673
  O  O546  1  0.487630  0.013970  0.618170  1.0  -0.497
  O  O547  1  0.599210  0.057280  0.938000  1.0  -0.5826
  O  O548  1  0.550700  0.939370  0.958210  1.0  -0.5797
  O  O549  1  0.820890  0.081590  0.729720  1.0  -0.5863
  O  O550  1  0.753590  0.133330  0.747400  1.0  -0.5668
  O  O551  1  0.652700  0.807000  0.951500  1.0  -0.4985
  O  O552  1  0.265880  0.390610  0.271330  1.0  -0.5827
  O  O553  1  0.217370  0.272700  0.291540  1.0  -0.5797
  O  O554  1  0.487560  0.414920  0.063050  1.0  -0.5863
  O  O555  1  0.420260  0.466660  0.080730  1.0  -0.5668
  O  O556  1  0.319370  0.140330  0.284830  1.0  -0.4985
  O  O557  1  0.932540  0.723950  0.604670  1.0  -0.5827
  O  O558  1  0.884030  0.606040  0.624880  1.0  -0.5797
  O  O559  1  0.154220  0.748260  0.396390  1.0  -0.5863
  O  O560  1  0.086920  0.800000  0.414070  1.0  -0.5668
  O  O561  1  0.986030  0.473670  0.618170  1.0  -0.4985
  O  O562  1  0.942720  0.541930  0.938000  1.0  -0.5816
  O  O563  1  0.060630  0.611330  0.958210  1.0  -0.58
  O  O564  1  0.918410  0.739300  0.729720  1.0  -0.5872
  O  O565  1  0.866670  0.620260  0.747400  1.0  -0.5684
  O  O566  1  0.193000  0.845700  0.951500  1.0  -0.4984
  O  O567  1  0.609390  0.875260  0.271330  1.0  -0.5816
  O  O568  1  0.727300  0.944660  0.291540  1.0  -0.58
  O  O569  1  0.585080  0.072630  0.063050  1.0  -0.5872
  O  O570  1  0.533340  0.953590  0.080730  1.0  -0.5684
  O  O571  1  0.859670  0.179030  0.284830  1.0  -0.4984
  O  O572  1  0.276050  0.208600  0.604670  1.0  -0.5813
  O  O573  1  0.393960  0.278000  0.624880  1.0  -0.58
  O  O574  1  0.251740  0.405970  0.396390  1.0  -0.5872
  O  O575  1  0.200000  0.286930  0.414070  1.0  -0.5684
  O  O576  1  0.526330  0.512370  0.618170  1.0  -0.4984
