# generated using pymatgen
data_Cu4H28C57O16
_symmetry_space_group_name_H-M   'P 1'
_cell_length_a   18.90000000
_cell_length_b   18.90000000
_cell_length_c   33.56100000
_cell_angle_alpha   90.00000000
_cell_angle_beta   90.00000000
_cell_angle_gamma   90.00000000
_symmetry_Int_Tables_number   1
_chemical_formula_structural   Cu4H28C57O16
_chemical_formula_sum   'Cu16 H112 C228 O64'
_cell_volume   11988.32481000
_cell_formula_units_Z   4
loop_
 _symmetry_equiv_pos_site_id
 _symmetry_equiv_pos_as_xyz
  1  'x, y, z'
loop_
 _atom_site_type_symbol
 _atom_site_label
 _atom_site_symmetry_multiplicity
 _atom_site_fract_x
 _atom_site_fract_y
 _atom_site_fract_z
 _atom_site_occupancy
 _atom_site_charge
  Cu  Cu1  1  0.950120  0.514920  0.780380  1.0  0.9602
  Cu  Cu2  1  0.549880  0.985080  0.780380  1.0  0.962
  Cu  Cu3  1  0.985080  0.950120  0.780380  1.0  0.9622
  Cu  Cu4  1  0.514920  0.549880  0.780380  1.0  0.9609
  Cu  Cu5  1  0.049880  0.014920  0.719620  1.0  0.9603
  Cu  Cu6  1  0.450120  0.485080  0.719620  1.0  0.964
  Cu  Cu7  1  0.014920  0.450120  0.719620  1.0  0.962
  Cu  Cu8  1  0.485080  0.049880  0.719620  1.0  0.9624
  Cu  Cu9  1  0.049880  0.485080  0.219620  1.0  0.9617
  Cu  Cu10  1  0.450120  0.014920  0.219620  1.0  0.9622
  Cu  Cu11  1  0.014920  0.049880  0.219620  1.0  0.9607
  Cu  Cu12  1  0.485080  0.450120  0.219620  1.0  0.9641
  Cu  Cu13  1  0.950120  0.985080  0.280380  1.0  0.9622
  Cu  Cu14  1  0.549880  0.514920  0.280380  1.0  0.9604
  Cu  Cu15  1  0.985080  0.549880  0.280380  1.0  0.9606
  Cu  Cu16  1  0.514920  0.950120  0.280380  1.0  0.9621
  H  H17  1  0.785400  0.138200  0.954400  1.0  0.1167
  H  H18  1  0.858600  0.130000  0.900300  1.0  0.121
  H  H19  1  0.931100  0.326300  0.921000  1.0  0.1178
  H  H20  1  0.860100  0.333800  0.976300  1.0  0.1182
  H  H21  1  0.949500  0.124600  0.857500  1.0  0.1087
  H  H22  1  0.009600  0.231100  0.761200  1.0  0.1119
  H  H23  1  0.927700  0.334800  0.854500  1.0  0.1157
  H  H24  1  0.714600  0.361800  0.954400  1.0  0.1175
  H  H25  1  0.641400  0.370000  0.900300  1.0  0.1213
  H  H26  1  0.568900  0.173700  0.921000  1.0  0.117
  H  H27  1  0.639900  0.166200  0.976300  1.0  0.1182
  H  H28  1  0.550500  0.375400  0.857500  1.0  0.1093
  H  H29  1  0.490400  0.268900  0.761200  1.0  0.1114
  H  H30  1  0.572300  0.165200  0.854500  1.0  0.1164
  H  H31  1  0.361800  0.785400  0.954400  1.0  0.1167
  H  H32  1  0.370000  0.858600  0.900300  1.0  0.1206
  H  H33  1  0.173700  0.931100  0.921000  1.0  0.1175
  H  H34  1  0.166200  0.860100  0.976300  1.0  0.1187
  H  H35  1  0.375400  0.949500  0.857500  1.0  0.1094
  H  H36  1  0.268900  0.009600  0.761200  1.0  0.1122
  H  H37  1  0.165200  0.927700  0.854500  1.0  0.1163
  H  H38  1  0.138200  0.714600  0.954400  1.0  0.1176
  H  H39  1  0.130000  0.641400  0.900300  1.0  0.1206
  H  H40  1  0.326300  0.568900  0.921000  1.0  0.118
  H  H41  1  0.333800  0.639900  0.976300  1.0  0.1196
  H  H42  1  0.124600  0.550500  0.857500  1.0  0.1099
  H  H43  1  0.231100  0.490400  0.761200  1.0  0.1124
  H  H44  1  0.334800  0.572300  0.854500  1.0  0.1163
  H  H45  1  0.214600  0.638200  0.545600  1.0  0.1172
  H  H46  1  0.141400  0.630000  0.599700  1.0  0.1218
  H  H47  1  0.068900  0.826300  0.579000  1.0  0.1172
  H  H48  1  0.139900  0.833800  0.523700  1.0  0.1183
  H  H49  1  0.050500  0.624600  0.642500  1.0  0.1091
  H  H50  1  0.990400  0.731100  0.738800  1.0  0.1111
  H  H51  1  0.072300  0.834800  0.645500  1.0  0.1165
  H  H52  1  0.285400  0.861800  0.545600  1.0  0.1168
  H  H53  1  0.358600  0.870000  0.599700  1.0  0.1211
  H  H54  1  0.431100  0.673700  0.579000  1.0  0.1172
  H  H55  1  0.360100  0.666200  0.523700  1.0  0.1184
  H  H56  1  0.449500  0.875400  0.642500  1.0  0.1086
  H  H57  1  0.509600  0.768900  0.738800  1.0  0.1111
  H  H58  1  0.427700  0.665200  0.645500  1.0  0.1171
  H  H59  1  0.638200  0.285400  0.545600  1.0  0.1168
  H  H60  1  0.630000  0.358600  0.599700  1.0  0.1206
  H  H61  1  0.826300  0.431100  0.579000  1.0  0.1178
  H  H62  1  0.833800  0.360100  0.523700  1.0  0.1189
  H  H63  1  0.624600  0.449500  0.642500  1.0  0.1097
  H  H64  1  0.731100  0.509600  0.738800  1.0  0.1116
  H  H65  1  0.834800  0.427700  0.645500  1.0  0.1172
  H  H66  1  0.861800  0.214600  0.545600  1.0  0.1169
  H  H67  1  0.870000  0.141400  0.599700  1.0  0.1209
  H  H68  1  0.673700  0.068900  0.579000  1.0  0.1171
  H  H69  1  0.666200  0.139900  0.523700  1.0  0.1183
  H  H70  1  0.875400  0.050500  0.642500  1.0  0.1099
  H  H71  1  0.768900  0.990400  0.738800  1.0  0.1121
  H  H72  1  0.665200  0.072300  0.645500  1.0  0.1169
  H  H73  1  0.214600  0.861800  0.045600  1.0  0.1168
  H  H74  1  0.141400  0.870000  0.099700  1.0  0.1213
  H  H75  1  0.068900  0.673700  0.079000  1.0  0.1168
  H  H76  1  0.139900  0.666200  0.023700  1.0  0.1179
  H  H77  1  0.050500  0.875400  0.142500  1.0  0.109
  H  H78  1  0.990400  0.768900  0.238800  1.0  0.1111
  H  H79  1  0.072300  0.665200  0.145500  1.0  0.1171
  H  H80  1  0.285400  0.638200  0.045600  1.0  0.1167
  H  H81  1  0.358600  0.630000  0.099700  1.0  0.1216
  H  H82  1  0.431100  0.826300  0.079000  1.0  0.1177
  H  H83  1  0.360100  0.833800  0.023700  1.0  0.1184
  H  H84  1  0.449500  0.624600  0.142500  1.0  0.1088
  H  H85  1  0.509600  0.731100  0.238800  1.0  0.1111
  H  H86  1  0.427700  0.834800  0.145500  1.0  0.1165
  H  H87  1  0.638200  0.214600  0.045600  1.0  0.1175
  H  H88  1  0.630000  0.141400  0.099700  1.0  0.1209
  H  H89  1  0.826300  0.068900  0.079000  1.0  0.1176
  H  H90  1  0.833800  0.139900  0.023700  1.0  0.1193
  H  H91  1  0.624600  0.050500  0.142500  1.0  0.1098
  H  H92  1  0.731100  0.990400  0.238800  1.0  0.1118
  H  H93  1  0.834800  0.072300  0.145500  1.0  0.1174
  H  H94  1  0.861800  0.285400  0.045600  1.0  0.1166
  H  H95  1  0.870000  0.358600  0.099700  1.0  0.121
  H  H96  1  0.673700  0.431100  0.079000  1.0  0.1174
  H  H97  1  0.666200  0.360100  0.023700  1.0  0.1183
  H  H98  1  0.875400  0.449500  0.142500  1.0  0.1098
  H  H99  1  0.768900  0.509600  0.238800  1.0  0.1118
  H  H100  1  0.665200  0.427700  0.145500  1.0  0.1169
  H  H101  1  0.785400  0.361800  0.454400  1.0  0.1173
  H  H102  1  0.858600  0.370000  0.400300  1.0  0.1211
  H  H103  1  0.931100  0.173700  0.421000  1.0  0.1176
  H  H104  1  0.860100  0.166200  0.476300  1.0  0.1187
  H  H105  1  0.949500  0.375400  0.357500  1.0  0.1087
  H  H106  1  0.009600  0.268900  0.261200  1.0  0.1118
  H  H107  1  0.927700  0.165200  0.354500  1.0  0.1164
  H  H108  1  0.714600  0.138200  0.454400  1.0  0.1171
  H  H109  1  0.641400  0.130000  0.400300  1.0  0.1213
  H  H110  1  0.568900  0.326300  0.421000  1.0  0.1173
  H  H111  1  0.639900  0.333800  0.476300  1.0  0.1181
  H  H112  1  0.550500  0.124600  0.357500  1.0  0.1091
  H  H113  1  0.490400  0.231100  0.261200  1.0  0.1114
  H  H114  1  0.572300  0.334800  0.354500  1.0  0.1157
  H  H115  1  0.361800  0.714600  0.454400  1.0  0.117
  H  H116  1  0.370000  0.641400  0.400300  1.0  0.1206
  H  H117  1  0.173700  0.568900  0.421000  1.0  0.1173
  H  H118  1  0.166200  0.639900  0.476300  1.0  0.1186
  H  H119  1  0.375400  0.550500  0.357500  1.0  0.1097
  H  H120  1  0.268900  0.490400  0.261200  1.0  0.1125
  H  H121  1  0.165200  0.572300  0.354500  1.0  0.1159
  H  H122  1  0.138200  0.785400  0.454400  1.0  0.1171
  H  H123  1  0.130000  0.858600  0.400300  1.0  0.1204
  H  H124  1  0.326300  0.931100  0.421000  1.0  0.1179
  H  H125  1  0.333800  0.860100  0.476300  1.0  0.1194
  H  H126  1  0.124600  0.949500  0.357500  1.0  0.1097
  H  H127  1  0.231100  0.009600  0.261200  1.0  0.1121
  H  H128  1  0.334800  0.927700  0.354500  1.0  0.1166
  C  C129  1  0.811400  0.238400  0.971100  1.0  0.0416
  C  C130  1  0.813700  0.176700  0.947560  1.0  -0.1663
  C  C131  1  0.857000  0.172100  0.914570  1.0  -0.1214
  C  C132  1  0.898700  0.229400  0.902010  1.0  0.0796
  C  C133  1  0.900600  0.289100  0.927040  1.0  -0.1589
  C  C134  1  0.857900  0.293500  0.960490  1.0  -0.1513
  C  C135  1  0.934000  0.228600  0.862930  1.0  0.006
  C  C136  1  0.954200  0.167300  0.844090  1.0  -0.0552
  C  C137  1  0.981700  0.166900  0.805630  1.0  -0.2021
  C  C138  1  0.989600  0.230800  0.786510  1.0  0.0096
  C  C139  1  0.969300  0.294900  0.803390  1.0  -0.142
  C  C140  1  0.941400  0.292800  0.842230  1.0  -0.0318
  C  C141  1  0.998100  0.099300  0.784980  1.0  0.69
  C  C142  1  0.973300  0.362800  0.781720  1.0  0.6844
  C  C143  1  0.688600  0.261600  0.971100  1.0  0.0413
  C  C144  1  0.686300  0.323300  0.947560  1.0  -0.1667
  C  C145  1  0.643000  0.327900  0.914570  1.0  -0.1214
  C  C146  1  0.601300  0.270600  0.902010  1.0  0.0797
  C  C147  1  0.599400  0.210900  0.927040  1.0  -0.1564
  C  C148  1  0.642100  0.206500  0.960490  1.0  -0.1517
  C  C149  1  0.566000  0.271400  0.862930  1.0  0.0061
  C  C150  1  0.545800  0.332700  0.844090  1.0  -0.0582
  C  C151  1  0.518300  0.333100  0.805630  1.0  -0.2022
  C  C152  1  0.510400  0.269200  0.786510  1.0  0.0099
  C  C153  1  0.530700  0.205100  0.803390  1.0  -0.1425
  C  C154  1  0.558600  0.207200  0.842230  1.0  -0.0288
  C  C155  1  0.501900  0.400700  0.784980  1.0  0.6907
  C  C156  1  0.526700  0.137200  0.781720  1.0  0.6844
  C  C157  1  0.261600  0.811400  0.971100  1.0  0.043
  C  C158  1  0.323300  0.813700  0.947560  1.0  -0.1607
  C  C159  1  0.327900  0.857000  0.914570  1.0  -0.1176
  C  C160  1  0.270600  0.898700  0.902010  1.0  0.0804
  C  C161  1  0.210900  0.900600  0.927040  1.0  -0.1592
  C  C162  1  0.206500  0.857900  0.960490  1.0  -0.1514
  C  C163  1  0.271400  0.934000  0.862930  1.0  0.0057
  C  C164  1  0.332700  0.954200  0.844090  1.0  -0.0542
  C  C165  1  0.333100  0.981700  0.805630  1.0  -0.2008
  C  C166  1  0.269200  0.989600  0.786510  1.0  0.0103
  C  C167  1  0.205100  0.969300  0.803390  1.0  -0.1424
  C  C168  1  0.207200  0.941400  0.842230  1.0  -0.0321
  C  C169  1  0.400700  0.998100  0.784980  1.0  0.6889
  C  C170  1  0.137200  0.973300  0.781720  1.0  0.6828
  C  C171  1  0.238400  0.688600  0.971100  1.0  0.04
  C  C172  1  0.176700  0.686300  0.947560  1.0  -0.1634
  C  C173  1  0.172100  0.643000  0.914570  1.0  -0.1168
  C  C174  1  0.229400  0.601300  0.902010  1.0  0.0805
  C  C175  1  0.289100  0.599400  0.927040  1.0  -0.1579
  C  C176  1  0.293500  0.642100  0.960490  1.0  -0.1513
  C  C177  1  0.228600  0.566000  0.862930  1.0  0.006
  C  C178  1  0.167300  0.545800  0.844090  1.0  -0.0578
  C  C179  1  0.166900  0.518300  0.805630  1.0  -0.2003
  C  C180  1  0.230800  0.510400  0.786510  1.0  0.0111
  C  C181  1  0.294900  0.530700  0.803390  1.0  -0.1422
  C  C182  1  0.292800  0.558600  0.842230  1.0  -0.0322
  C  C183  1  0.099300  0.501900  0.784980  1.0  0.6895
  C  C184  1  0.362800  0.526700  0.781720  1.0  0.6822
  C  C185  1  0.188600  0.738400  0.528900  1.0  0.0406
  C  C186  1  0.186300  0.676700  0.552440  1.0  -0.1672
  C  C187  1  0.143000  0.672100  0.585430  1.0  -0.1224
  C  C188  1  0.101300  0.729400  0.597990  1.0  0.0791
  C  C189  1  0.099400  0.789100  0.572960  1.0  -0.1593
  C  C190  1  0.142100  0.793500  0.539510  1.0  -0.1518
  C  C191  1  0.066000  0.728600  0.637070  1.0  0.0063
  C  C192  1  0.045800  0.667300  0.655910  1.0  -0.0568
  C  C193  1  0.018300  0.666900  0.694370  1.0  -0.2027
  C  C194  1  0.010400  0.730800  0.713490  1.0  0.0082
  C  C195  1  0.030700  0.794900  0.696610  1.0  -0.1425
  C  C196  1  0.058600  0.792800  0.657770  1.0  -0.0301
  C  C197  1  0.001900  0.599300  0.715020  1.0  0.6901
  C  C198  1  0.026700  0.862800  0.718280  1.0  0.6844
  C  C199  1  0.311400  0.761600  0.528900  1.0  0.0418
  C  C200  1  0.313700  0.823300  0.552440  1.0  -0.1656
  C  C201  1  0.357000  0.827900  0.585430  1.0  -0.1204
  C  C202  1  0.398700  0.770600  0.597990  1.0  0.0795
  C  C203  1  0.400600  0.710900  0.572960  1.0  -0.1567
  C  C204  1  0.357900  0.706500  0.539510  1.0  -0.1517
  C  C205  1  0.434000  0.771400  0.637070  1.0  0.0064
  C  C206  1  0.454200  0.832700  0.655910  1.0  -0.0573
  C  C207  1  0.481700  0.833100  0.694370  1.0  -0.2025
  C  C208  1  0.489600  0.769200  0.713490  1.0  0.0095
  C  C209  1  0.469300  0.705100  0.696610  1.0  -0.1432
  C  C210  1  0.441400  0.707200  0.657770  1.0  -0.0296
  C  C211  1  0.498100  0.900700  0.715020  1.0  0.6908
  C  C212  1  0.473300  0.637200  0.718280  1.0  0.6842
  C  C213  1  0.738400  0.311400  0.528900  1.0  0.042
  C  C214  1  0.676700  0.313700  0.552440  1.0  -0.1619
  C  C215  1  0.672100  0.357000  0.585430  1.0  -0.1181
  C  C216  1  0.729400  0.398700  0.597990  1.0  0.0814
  C  C217  1  0.789100  0.400600  0.572960  1.0  -0.159
  C  C218  1  0.793500  0.357900  0.539510  1.0  -0.1523
  C  C219  1  0.728600  0.434000  0.637070  1.0  0.0061
  C  C220  1  0.667300  0.454200  0.655910  1.0  -0.0581
  C  C221  1  0.666900  0.481700  0.694370  1.0  -0.2001
  C  C222  1  0.730800  0.489600  0.713490  1.0  0.0099
  C  C223  1  0.794900  0.469300  0.696610  1.0  -0.143
  C  C224  1  0.792800  0.441400  0.657770  1.0  -0.0309
  C  C225  1  0.599300  0.498100  0.715020  1.0  0.6897
  C  C226  1  0.862800  0.473300  0.718280  1.0  0.6821
  C  C227  1  0.761600  0.188600  0.528900  1.0  0.0412
  C  C228  1  0.823300  0.186300  0.552440  1.0  -0.1606
  C  C229  1  0.827900  0.143000  0.585430  1.0  -0.1177
  C  C230  1  0.770600  0.101300  0.597990  1.0  0.0792
  C  C231  1  0.710900  0.099400  0.572960  1.0  -0.1591
  C  C232  1  0.706500  0.142100  0.539510  1.0  -0.1511
  C  C233  1  0.771400  0.066000  0.637070  1.0  0.006
  C  C234  1  0.832700  0.045800  0.655910  1.0  -0.0546
  C  C235  1  0.833100  0.018300  0.694370  1.0  -0.2007
  C  C236  1  0.769200  0.010400  0.713490  1.0  0.0103
  C  C237  1  0.705100  0.030700  0.696610  1.0  -0.143
  C  C238  1  0.707200  0.058600  0.657770  1.0  -0.0318
  C  C239  1  0.900700  0.001900  0.715020  1.0  0.6889
  C  C240  1  0.637200  0.026700  0.718280  1.0  0.6826
  C  C241  1  0.188600  0.761600  0.028900  1.0  0.0409
  C  C242  1  0.186300  0.823300  0.052440  1.0  -0.1666
  C  C243  1  0.143000  0.827900  0.085430  1.0  -0.1207
  C  C244  1  0.101300  0.770600  0.097990  1.0  0.0795
  C  C245  1  0.099400  0.710900  0.072960  1.0  -0.1566
  C  C246  1  0.142100  0.706500  0.039510  1.0  -0.1517
  C  C247  1  0.066000  0.771400  0.137070  1.0  0.0063
  C  C248  1  0.045800  0.832700  0.155910  1.0  -0.0585
  C  C249  1  0.018300  0.833100  0.194370  1.0  -0.2023
  C  C250  1  0.010400  0.769200  0.213490  1.0  0.0083
  C  C251  1  0.030700  0.705100  0.196610  1.0  -0.143
  C  C252  1  0.058600  0.707200  0.157770  1.0  -0.0285
  C  C253  1  0.001900  0.900700  0.215020  1.0  0.6908
  C  C254  1  0.026700  0.637200  0.218280  1.0  0.6842
  C  C255  1  0.311400  0.738400  0.028900  1.0  0.042
  C  C256  1  0.313700  0.676700  0.052440  1.0  -0.1653
  C  C257  1  0.357000  0.672100  0.085430  1.0  -0.1221
  C  C258  1  0.398700  0.729400  0.097990  1.0  0.0792
  C  C259  1  0.400600  0.789100  0.072960  1.0  -0.1591
  C  C260  1  0.357900  0.793500  0.039510  1.0  -0.152
  C  C261  1  0.434000  0.728600  0.137070  1.0  0.0064
  C  C262  1  0.454200  0.667300  0.155910  1.0  -0.0552
  C  C263  1  0.481700  0.666900  0.194370  1.0  -0.2022
  C  C264  1  0.489600  0.730800  0.213490  1.0  0.0093
  C  C265  1  0.469300  0.794900  0.196610  1.0  -0.1428
  C  C266  1  0.441400  0.792800  0.157770  1.0  -0.0312
  C  C267  1  0.498100  0.599300  0.215020  1.0  0.6903
  C  C268  1  0.473300  0.862800  0.218280  1.0  0.6844
  C  C269  1  0.738400  0.188600  0.028900  1.0  0.0401
  C  C270  1  0.676700  0.186300  0.052440  1.0  -0.162
  C  C271  1  0.672100  0.143000  0.085430  1.0  -0.1181
  C  C272  1  0.729400  0.101300  0.097990  1.0  0.0802
  C  C273  1  0.789100  0.099400  0.072960  1.0  -0.1581
  C  C274  1  0.793500  0.142100  0.039510  1.0  -0.1517
  C  C275  1  0.728600  0.066000  0.137070  1.0  0.0061
  C  C276  1  0.667300  0.045800  0.155910  1.0  -0.0582
  C  C277  1  0.666900  0.018300  0.194370  1.0  -0.2003
  C  C278  1  0.730800  0.010400  0.213490  1.0  0.0107
  C  C279  1  0.794900  0.030700  0.196610  1.0  -0.143
  C  C280  1  0.792800  0.058600  0.157770  1.0  -0.0316
  C  C281  1  0.599300  0.001900  0.215020  1.0  0.6897
  C  C282  1  0.862800  0.026700  0.218280  1.0  0.6821
  C  C283  1  0.761600  0.311400  0.028900  1.0  0.043
  C  C284  1  0.823300  0.313700  0.052440  1.0  -0.1606
  C  C285  1  0.827900  0.357000  0.085430  1.0  -0.1177
  C  C286  1  0.770600  0.398700  0.097990  1.0  0.0803
  C  C287  1  0.710900  0.400600  0.072960  1.0  -0.1594
  C  C288  1  0.706500  0.357900  0.039510  1.0  -0.1516
  C  C289  1  0.771400  0.434000  0.137070  1.0  0.0059
  C  C290  1  0.832700  0.454200  0.155910  1.0  -0.0544
  C  C291  1  0.833100  0.481700  0.194370  1.0  -0.201
  C  C292  1  0.769200  0.489600  0.213490  1.0  0.0095
  C  C293  1  0.705100  0.469300  0.196610  1.0  -0.143
  C  C294  1  0.707200  0.441400  0.157770  1.0  -0.0315
  C  C295  1  0.900700  0.498100  0.215020  1.0  0.689
  C  C296  1  0.637200  0.473300  0.218280  1.0  0.6826
  C  C297  1  0.811400  0.261600  0.471100  1.0  0.0414
  C  C298  1  0.813700  0.323300  0.447560  1.0  -0.166
  C  C299  1  0.857000  0.327900  0.414570  1.0  -0.1209
  C  C300  1  0.898700  0.270600  0.402010  1.0  0.08
  C  C301  1  0.900600  0.210900  0.427040  1.0  -0.157
  C  C302  1  0.857900  0.206500  0.460490  1.0  -0.1515
  C  C303  1  0.934000  0.271400  0.362930  1.0  0.006
  C  C304  1  0.954200  0.332700  0.344090  1.0  -0.0572
  C  C305  1  0.981700  0.333100  0.305630  1.0  -0.2023
  C  C306  1  0.989600  0.269200  0.286510  1.0  0.0095
  C  C307  1  0.969300  0.205100  0.303390  1.0  -0.1426
  C  C308  1  0.941400  0.207200  0.342230  1.0  -0.03
  C  C309  1  0.998100  0.400700  0.284980  1.0  0.6906
  C  C310  1  0.973300  0.137200  0.281720  1.0  0.6843
  C  C311  1  0.688600  0.238400  0.471100  1.0  0.0409
  C  C312  1  0.686300  0.176700  0.447560  1.0  -0.1681
  C  C313  1  0.643000  0.172100  0.414570  1.0  -0.1216
  C  C314  1  0.601300  0.229400  0.402010  1.0  0.0791
  C  C315  1  0.599400  0.289100  0.427040  1.0  -0.1589
  C  C316  1  0.642100  0.293500  0.460490  1.0  -0.1515
  C  C317  1  0.566000  0.228600  0.362930  1.0  0.0061
  C  C318  1  0.545800  0.167300  0.344090  1.0  -0.0563
  C  C319  1  0.518300  0.166900  0.305630  1.0  -0.2027
  C  C320  1  0.510400  0.230800  0.286510  1.0  0.01
  C  C321  1  0.530700  0.294900  0.303390  1.0  -0.1418
  C  C322  1  0.558600  0.292800  0.342230  1.0  -0.0304
  C  C323  1  0.501900  0.099300  0.284980  1.0  0.6899
  C  C324  1  0.526700  0.362800  0.281720  1.0  0.6844
  C  C325  1  0.261600  0.688600  0.471100  1.0  0.0412
  C  C326  1  0.323300  0.686300  0.447560  1.0  -0.1608
  C  C327  1  0.327900  0.643000  0.414570  1.0  -0.1176
  C  C328  1  0.270600  0.601300  0.402010  1.0  0.0796
  C  C329  1  0.210900  0.599400  0.427040  1.0  -0.1588
  C  C330  1  0.206500  0.642100  0.460490  1.0  -0.1513
  C  C331  1  0.271400  0.566000  0.362930  1.0  0.006
  C  C332  1  0.332700  0.545800  0.344090  1.0  -0.0543
  C  C333  1  0.333100  0.518300  0.305630  1.0  -0.2007
  C  C334  1  0.269200  0.510400  0.286510  1.0  0.0107
  C  C335  1  0.205100  0.530700  0.303390  1.0  -0.1424
  C  C336  1  0.207200  0.558600  0.342230  1.0  -0.0324
  C  C337  1  0.400700  0.501900  0.284980  1.0  0.6886
  C  C338  1  0.137200  0.526700  0.281720  1.0  0.6829
  C  C339  1  0.238400  0.811400  0.471100  1.0  0.042
  C  C340  1  0.176700  0.813700  0.447560  1.0  -0.1629
  C  C341  1  0.172100  0.857000  0.414570  1.0  -0.1171
  C  C342  1  0.229400  0.898700  0.402010  1.0  0.0816
  C  C343  1  0.289100  0.900600  0.427040  1.0  -0.1592
  C  C344  1  0.293500  0.857900  0.460490  1.0  -0.1514
  C  C345  1  0.228600  0.934000  0.362930  1.0  0.0058
  C  C346  1  0.167300  0.954200  0.344090  1.0  -0.0578
  C  C347  1  0.166900  0.981700  0.305630  1.0  -0.2
  C  C348  1  0.230800  0.989600  0.286510  1.0  0.0108
  C  C349  1  0.294900  0.969300  0.303390  1.0  -0.1422
  C  C350  1  0.292800  0.941400  0.342230  1.0  -0.0315
  C  C351  1  0.099300  0.998100  0.284980  1.0  0.6896
  C  C352  1  0.362800  0.973300  0.281720  1.0  0.6822
  C  C353  1  0.750000  0.250000  0.000000  1.0  -0.0124
  C  C354  1  0.250000  0.750000  0.000000  1.0  -0.0124
  C  C355  1  0.250000  0.750000  0.500000  1.0  -0.0124
  C  C356  1  0.750000  0.250000  0.500000  1.0  -0.0124
  O  O357  1  0.944230  0.415460  0.798070  1.0  -0.5782
  O  O358  1  0.005470  0.362890  0.748410  1.0  -0.5502
  O  O359  1  0.025850  0.100660  0.751240  1.0  -0.558
  O  O360  1  0.979760  0.042620  0.804390  1.0  -0.5695
  O  O361  1  0.555770  0.084540  0.798070  1.0  -0.5785
  O  O362  1  0.494530  0.137110  0.748410  1.0  -0.5496
  O  O363  1  0.474150  0.399340  0.751240  1.0  -0.5572
  O  O364  1  0.520240  0.457380  0.804390  1.0  -0.5682
  O  O365  1  0.084540  0.944230  0.798070  1.0  -0.5786
  O  O366  1  0.137110  0.005470  0.748410  1.0  -0.5502
  O  O367  1  0.399340  0.025850  0.751240  1.0  -0.557
  O  O368  1  0.457380  0.979760  0.804390  1.0  -0.5691
  O  O369  1  0.415460  0.555770  0.798070  1.0  -0.5786
  O  O370  1  0.362890  0.494530  0.748410  1.0  -0.5496
  O  O371  1  0.100660  0.474150  0.751240  1.0  -0.5572
  O  O372  1  0.042620  0.520240  0.804390  1.0  -0.5691
  O  O373  1  0.055770  0.915460  0.701930  1.0  -0.5788
  O  O374  1  0.994530  0.862890  0.751590  1.0  -0.5521
  O  O375  1  0.974150  0.600660  0.748760  1.0  -0.5575
  O  O376  1  0.020240  0.542620  0.695610  1.0  -0.5704
  O  O377  1  0.444230  0.584540  0.701930  1.0  -0.5781
  O  O378  1  0.505470  0.637110  0.751590  1.0  -0.5513
  O  O379  1  0.525850  0.899340  0.748760  1.0  -0.5577
  O  O380  1  0.479760  0.957380  0.695610  1.0  -0.569
  O  O381  1  0.915460  0.444230  0.701930  1.0  -0.5779
  O  O382  1  0.862890  0.505470  0.751590  1.0  -0.552
  O  O383  1  0.600660  0.525850  0.748760  1.0  -0.5569
  O  O384  1  0.542620  0.479760  0.695610  1.0  -0.57
  O  O385  1  0.584540  0.055770  0.701930  1.0  -0.5778
  O  O386  1  0.637110  0.994530  0.751590  1.0  -0.552
  O  O387  1  0.899340  0.974150  0.748760  1.0  -0.5572
  O  O388  1  0.957380  0.020240  0.695610  1.0  -0.5695
  O  O389  1  0.055770  0.584540  0.201930  1.0  -0.5786
  O  O390  1  0.994530  0.637110  0.251590  1.0  -0.552
  O  O391  1  0.974150  0.899340  0.248760  1.0  -0.5578
  O  O392  1  0.020240  0.957380  0.195610  1.0  -0.5688
  O  O393  1  0.444230  0.915460  0.201930  1.0  -0.5781
  O  O394  1  0.505470  0.862890  0.251590  1.0  -0.5519
  O  O395  1  0.525850  0.600660  0.248760  1.0  -0.5573
  O  O396  1  0.479760  0.542620  0.195610  1.0  -0.5706
  O  O397  1  0.915460  0.055770  0.201930  1.0  -0.5789
  O  O398  1  0.862890  0.994530  0.251590  1.0  -0.5522
  O  O399  1  0.600660  0.974150  0.248760  1.0  -0.5573
  O  O400  1  0.542620  0.020240  0.195610  1.0  -0.5694
  O  O401  1  0.584540  0.444230  0.201930  1.0  -0.5786
  O  O402  1  0.637110  0.505470  0.251590  1.0  -0.5514
  O  O403  1  0.899340  0.525850  0.248760  1.0  -0.5572
  O  O404  1  0.957380  0.479760  0.195610  1.0  -0.5699
  O  O405  1  0.944230  0.084540  0.298070  1.0  -0.578
  O  O406  1  0.005470  0.137110  0.248410  1.0  -0.5502
  O  O407  1  0.025850  0.399340  0.251240  1.0  -0.5576
  O  O408  1  0.979760  0.457380  0.304390  1.0  -0.5686
  O  O409  1  0.555770  0.415460  0.298070  1.0  -0.5784
  O  O410  1  0.494530  0.362890  0.248410  1.0  -0.5495
  O  O411  1  0.474150  0.100660  0.251240  1.0  -0.5573
  O  O412  1  0.520240  0.042620  0.304390  1.0  -0.5696
  O  O413  1  0.084540  0.555770  0.298070  1.0  -0.5781
  O  O414  1  0.137110  0.494530  0.248410  1.0  -0.55
  O  O415  1  0.399340  0.474150  0.251240  1.0  -0.5569
  O  O416  1  0.457380  0.520240  0.304390  1.0  -0.5691
  O  O417  1  0.415460  0.944230  0.298070  1.0  -0.5776
  O  O418  1  0.362890  0.005470  0.248410  1.0  -0.55
  O  O419  1  0.100660  0.025850  0.251240  1.0  -0.5572
  O  O420  1  0.042620  0.979760  0.304390  1.0  -0.5691
