# generated using pymatgen
data_NbZn2(CN)8
_symmetry_space_group_name_H-M   'P 1'
_cell_length_a   20.38370000
_cell_length_b   20.38370000
_cell_length_c   14.00790000
_cell_angle_alpha   90.00000000
_cell_angle_beta   90.00000000
_cell_angle_gamma   90.00000000
_symmetry_Int_Tables_number   1
_chemical_formula_structural   NbZn2(CN)8
_chemical_formula_sum   'Nb4 Zn8 C32 N32'
_cell_volume   5820.21557194
_cell_formula_units_Z   4
loop_
 _symmetry_equiv_pos_site_id
 _symmetry_equiv_pos_as_xyz
  1  'x, y, z'
loop_
 _atom_site_type_symbol
 _atom_site_label
 _atom_site_symmetry_multiplicity
 _atom_site_fract_x
 _atom_site_fract_y
 _atom_site_fract_z
 _atom_site_occupancy
 _atom_site_charge
  Nb  Nb1  1  0.500000  0.500000  0.000000  1.0  0.3156
  Nb  Nb2  1  0.000000  0.000000  0.500000  1.0  0.3156
  Nb  Nb3  1  0.500000  0.000000  0.250000  1.0  0.3156
  Nb  Nb4  1  0.000000  0.500000  0.750000  1.0  0.3156
  Zn  Zn5  1  0.477590  0.250000  0.125000  1.0  0.9245
  Zn  Zn6  1  0.977590  0.750000  0.625000  1.0  0.9262
  Zn  Zn7  1  0.022410  0.250000  0.625000  1.0  0.9264
  Zn  Zn8  1  0.522410  0.750000  0.125000  1.0  0.9244
  Zn  Zn9  1  0.750000  0.977590  0.375000  1.0  0.9262
  Zn  Zn10  1  0.250000  0.477590  0.875000  1.0  0.9242
  Zn  Zn11  1  0.750000  0.522410  0.875000  1.0  0.9244
  Zn  Zn12  1  0.250000  0.022410  0.375000  1.0  0.9263
  C  C13  1  0.483500  0.397600  0.048800  1.0  0.2169
  C  C14  1  0.565100  0.487900  0.129100  1.0  0.1232
  C  C15  1  0.983500  0.897600  0.548800  1.0  0.2169
  C  C16  1  0.065100  0.987900  0.629100  1.0  0.1232
  C  C17  1  0.016500  0.102400  0.548800  1.0  0.2161
  C  C18  1  0.934900  0.012100  0.629100  1.0  0.124
  C  C19  1  0.516500  0.602400  0.048800  1.0  0.2161
  C  C20  1  0.434900  0.512100  0.129100  1.0  0.124
  C  C21  1  0.602400  0.983500  0.298800  1.0  0.2168
  C  C22  1  0.512100  0.065100  0.379100  1.0  0.1249
  C  C23  1  0.102400  0.483500  0.798800  1.0  0.2168
  C  C24  1  0.012100  0.565100  0.879100  1.0  0.1249
  C  C25  1  0.897600  0.516500  0.798800  1.0  0.2174
  C  C26  1  0.987900  0.434900  0.879100  1.0  0.1254
  C  C27  1  0.397600  0.016500  0.298800  1.0  0.2174
  C  C28  1  0.487900  0.934900  0.379100  1.0  0.1254
  C  C29  1  0.016500  0.397600  0.701200  1.0  0.2211
  C  C30  1  0.934900  0.487900  0.620900  1.0  0.1238
  C  C31  1  0.516500  0.897600  0.201200  1.0  0.2211
  C  C32  1  0.434900  0.987900  0.120900  1.0  0.1238
  C  C33  1  0.483500  0.102400  0.201200  1.0  0.2183
  C  C34  1  0.565100  0.012100  0.120900  1.0  0.1231
  C  C35  1  0.983500  0.602400  0.701200  1.0  0.2183
  C  C36  1  0.065100  0.512100  0.620900  1.0  0.1231
  C  C37  1  0.897600  0.983500  0.451200  1.0  0.2202
  C  C38  1  0.987900  0.065100  0.370900  1.0  0.1244
  C  C39  1  0.397600  0.483500  0.951200  1.0  0.2202
  C  C40  1  0.487900  0.565100  0.870900  1.0  0.1244
  C  C41  1  0.602400  0.516500  0.951200  1.0  0.2199
  C  C42  1  0.512100  0.434900  0.870900  1.0  0.1263
  C  C43  1  0.102400  0.016500  0.451200  1.0  0.2199
  C  C44  1  0.012100  0.934900  0.370900  1.0  0.1263
  N  N45  1  0.475800  0.344500  0.075200  1.0  -0.4884
  N  N46  1  0.597400  0.481600  0.194200  1.0  -0.4038
  N  N47  1  0.975800  0.844500  0.575200  1.0  -0.4884
  N  N48  1  0.097400  0.981600  0.694200  1.0  -0.3904
  N  N49  1  0.024200  0.155500  0.575200  1.0  -0.4883
  N  N50  1  0.902600  0.018400  0.694200  1.0  -0.3901
  N  N51  1  0.524200  0.655500  0.075200  1.0  -0.4883
  N  N52  1  0.402600  0.518400  0.194200  1.0  -0.4033
  N  N53  1  0.655500  0.975800  0.325200  1.0  -0.4872
  N  N54  1  0.518400  0.097400  0.444200  1.0  -0.4043
  N  N55  1  0.155500  0.475800  0.825200  1.0  -0.4872
  N  N56  1  0.018400  0.597400  0.944200  1.0  -0.3911
  N  N57  1  0.844500  0.524200  0.825200  1.0  -0.4871
  N  N58  1  0.981600  0.402600  0.944200  1.0  -0.3898
  N  N59  1  0.344500  0.024200  0.325200  1.0  -0.4871
  N  N60  1  0.481600  0.902600  0.444200  1.0  -0.4031
  N  N61  1  0.024200  0.344500  0.674800  1.0  -0.4892
  N  N62  1  0.902600  0.481600  0.555800  1.0  -0.4028
  N  N63  1  0.524200  0.844500  0.174800  1.0  -0.4892
  N  N64  1  0.402600  0.981600  0.055800  1.0  -0.3891
  N  N65  1  0.475800  0.155500  0.174800  1.0  -0.4882
  N  N66  1  0.597400  0.018400  0.055800  1.0  -0.3885
  N  N67  1  0.975800  0.655500  0.674800  1.0  -0.4882
  N  N68  1  0.097400  0.518400  0.555800  1.0  -0.4024
  N  N69  1  0.844500  0.975800  0.424800  1.0  -0.4868
  N  N70  1  0.981600  0.097400  0.305800  1.0  -0.3895
  N  N71  1  0.344500  0.475800  0.924800  1.0  -0.4868
  N  N72  1  0.481600  0.597400  0.805800  1.0  -0.4027
  N  N73  1  0.655500  0.524200  0.924800  1.0  -0.4866
  N  N74  1  0.518400  0.402600  0.805800  1.0  -0.4038
  N  N75  1  0.155500  0.024200  0.424800  1.0  -0.4866
  N  N76  1  0.018400  0.902600  0.305800  1.0  -0.3899
