# generated using pymatgen
data_NbZn2(CN)8
_symmetry_space_group_name_H-M   'P 1'
_cell_length_a   20.35340000
_cell_length_b   20.35340000
_cell_length_c   13.98240000
_cell_angle_alpha   90.00000000
_cell_angle_beta   90.00000000
_cell_angle_gamma   90.00000000
_symmetry_Int_Tables_number   1
_chemical_formula_structural   NbZn2(CN)8
_chemical_formula_sum   'Nb4 Zn8 C32 N32'
_cell_volume   5792.36149015
_cell_formula_units_Z   4
loop_
 _symmetry_equiv_pos_site_id
 _symmetry_equiv_pos_as_xyz
  1  'x, y, z'
loop_
 _atom_site_type_symbol
 _atom_site_label
 _atom_site_symmetry_multiplicity
 _atom_site_fract_x
 _atom_site_fract_y
 _atom_site_fract_z
 _atom_site_occupancy
 _atom_site_charge
  Nb  Nb1  1  0.500000  0.500000  0.000000  1.0  0.3186
  Nb  Nb2  1  0.000000  0.000000  0.500000  1.0  0.3186
  Nb  Nb3  1  0.500000  0.000000  0.250000  1.0  0.3186
  Nb  Nb4  1  0.000000  0.500000  0.750000  1.0  0.3186
  Zn  Zn5  1  0.522320  0.250000  0.125000  1.0  0.9325
  Zn  Zn6  1  0.022320  0.750000  0.625000  1.0  0.9339
  Zn  Zn7  1  0.977680  0.250000  0.625000  1.0  0.9336
  Zn  Zn8  1  0.477680  0.750000  0.125000  1.0  0.9327
  Zn  Zn9  1  0.750000  0.022320  0.375000  1.0  0.9338
  Zn  Zn10  1  0.250000  0.522320  0.875000  1.0  0.9326
  Zn  Zn11  1  0.750000  0.477680  0.875000  1.0  0.9324
  Zn  Zn12  1  0.250000  0.977680  0.375000  1.0  0.9336
  C  C13  1  0.516300  0.396800  0.048700  1.0  0.1907
  C  C14  1  0.434600  0.487600  0.129400  1.0  0.1331
  C  C15  1  0.016300  0.896800  0.548700  1.0  0.1907
  C  C16  1  0.934600  0.987600  0.629400  1.0  0.1331
  C  C17  1  0.983700  0.103200  0.548700  1.0  0.1905
  C  C18  1  0.065400  0.012400  0.629400  1.0  0.1339
  C  C19  1  0.483700  0.603200  0.048700  1.0  0.1905
  C  C20  1  0.565400  0.512400  0.129400  1.0  0.1339
  C  C21  1  0.603200  0.016300  0.298700  1.0  0.1901
  C  C22  1  0.512400  0.934600  0.379400  1.0  0.1364
  C  C23  1  0.103200  0.516300  0.798700  1.0  0.1901
  C  C24  1  0.012400  0.434600  0.879400  1.0  0.1364
  C  C25  1  0.896800  0.483700  0.798700  1.0  0.1912
  C  C26  1  0.987600  0.565400  0.879400  1.0  0.1328
  C  C27  1  0.396800  0.983700  0.298700  1.0  0.1912
  C  C28  1  0.487600  0.065400  0.379400  1.0  0.1328
  C  C29  1  0.983700  0.396800  0.701300  1.0  0.1903
  C  C30  1  0.065400  0.487600  0.620600  1.0  0.1344
  C  C31  1  0.483700  0.896800  0.201300  1.0  0.1903
  C  C32  1  0.565400  0.987600  0.120600  1.0  0.1344
  C  C33  1  0.516300  0.103200  0.201300  1.0  0.1915
  C  C34  1  0.434600  0.012400  0.120600  1.0  0.1341
  C  C35  1  0.016300  0.603200  0.701300  1.0  0.1915
  C  C36  1  0.934600  0.512400  0.620600  1.0  0.1341
  C  C37  1  0.896800  0.016300  0.451300  1.0  0.1915
  C  C38  1  0.987600  0.934600  0.370600  1.0  0.1359
  C  C39  1  0.396800  0.516300  0.951300  1.0  0.1915
  C  C40  1  0.487600  0.434600  0.870600  1.0  0.1359
  C  C41  1  0.603200  0.483700  0.951300  1.0  0.1902
  C  C42  1  0.512400  0.565400  0.870600  1.0  0.1346
  C  C43  1  0.103200  0.983700  0.451300  1.0  0.1902
  C  C44  1  0.012400  0.065400  0.370600  1.0  0.1346
  N  N45  1  0.524200  0.344500  0.075400  1.0  -0.4685
  N  N46  1  0.402400  0.481000  0.193700  1.0  -0.4077
  N  N47  1  0.024200  0.844500  0.575400  1.0  -0.4685
  N  N48  1  0.902400  0.981000  0.693700  1.0  -0.3986
  N  N49  1  0.975800  0.155500  0.575400  1.0  -0.4675
  N  N50  1  0.097600  0.019000  0.693700  1.0  -0.3998
  N  N51  1  0.475800  0.655500  0.075400  1.0  -0.4674
  N  N52  1  0.597600  0.519000  0.193700  1.0  -0.4089
  N  N53  1  0.655500  0.024200  0.325400  1.0  -0.4689
  N  N54  1  0.519000  0.902400  0.443700  1.0  -0.4078
  N  N55  1  0.155500  0.524200  0.825400  1.0  -0.4688
  N  N56  1  0.019000  0.402400  0.943700  1.0  -0.3985
  N  N57  1  0.844500  0.475800  0.825400  1.0  -0.4657
  N  N58  1  0.981000  0.597600  0.943700  1.0  -0.4009
  N  N59  1  0.344500  0.975800  0.325400  1.0  -0.4657
  N  N60  1  0.481000  0.097600  0.443700  1.0  -0.41
  N  N61  1  0.975800  0.344500  0.674600  1.0  -0.4663
  N  N62  1  0.097600  0.481000  0.556300  1.0  -0.4089
  N  N63  1  0.475800  0.844500  0.174600  1.0  -0.4663
  N  N64  1  0.597600  0.981000  0.056300  1.0  -0.3991
  N  N65  1  0.524200  0.155500  0.174600  1.0  -0.4687
  N  N66  1  0.402400  0.019000  0.056300  1.0  -0.3982
  N  N67  1  0.024200  0.655500  0.674600  1.0  -0.4687
  N  N68  1  0.902400  0.519000  0.556300  1.0  -0.4076
  N  N69  1  0.844500  0.024200  0.424600  1.0  -0.4673
  N  N70  1  0.981000  0.902400  0.306300  1.0  -0.4001
  N  N71  1  0.344500  0.524200  0.924600  1.0  -0.466
  N  N72  1  0.481000  0.402400  0.806300  1.0  -0.4095
  N  N73  1  0.655500  0.475800  0.924600  1.0  -0.4669
  N  N74  1  0.519000  0.597600  0.806300  1.0  -0.4092
  N  N75  1  0.155500  0.975800  0.424600  1.0  -0.4669
  N  N76  1  0.019000  0.097600  0.306300  1.0  -0.3995
