# generated using pymatgen
data_CuH12(C2N3)6
_symmetry_space_group_name_H-M   'P 1'
_cell_length_a   21.23400000
_cell_length_b   12.98000000
_cell_length_c   13.00200000
_cell_angle_alpha   90.00000000
_cell_angle_beta   113.79000000
_cell_angle_gamma   90.00000000
_symmetry_Int_Tables_number   1
_chemical_formula_structural   CuH12(C2N3)6
_chemical_formula_sum   'Cu4 H48 C48 N72'
_cell_volume   3279.08021605
_cell_formula_units_Z   4
loop_
 _symmetry_equiv_pos_site_id
 _symmetry_equiv_pos_as_xyz
  1  'x, y, z'
loop_
 _atom_site_type_symbol
 _atom_site_label
 _atom_site_symmetry_multiplicity
 _atom_site_fract_x
 _atom_site_fract_y
 _atom_site_fract_z
 _atom_site_occupancy
 _atom_site_charge
  Cu  Cu1  1  0.250000  0.250000  0.000000  1.0  0.522
  Cu  Cu2  1  0.750000  0.250000  0.500000  1.0  0.522
  Cu  Cu3  1  0.750000  0.750000  0.000000  1.0  0.522
  Cu  Cu4  1  0.250000  0.750000  0.500000  1.0  0.522
  H  H5  1  0.200200  0.063700  0.114900  1.0  0.0885
  H  H6  1  0.371100  0.920600  0.146400  1.0  0.0776
  H  H7  1  0.406400  0.224300  0.233200  1.0  0.0655
  H  H8  1  0.485400  0.430800  0.098200  1.0  0.0763
  H  H9  1  0.203500  0.781200  0.089700  1.0  0.0668
  H  H10  1  0.310400  0.924700  0.374600  1.0  0.0688
  H  H11  1  0.700200  0.563700  0.114900  1.0  0.0885
  H  H12  1  0.871100  0.420600  0.146400  1.0  0.0776
  H  H13  1  0.906400  0.724300  0.233200  1.0  0.0655
  H  H14  1  0.985400  0.930800  0.098200  1.0  0.0763
  H  H15  1  0.703500  0.281200  0.089700  1.0  0.0668
  H  H16  1  0.810400  0.424700  0.374600  1.0  0.0688
  H  H17  1  0.799800  0.063700  0.385100  1.0  0.0886
  H  H18  1  0.628900  0.920600  0.353600  1.0  0.0734
  H  H19  1  0.593600  0.224300  0.266800  1.0  0.0662
  H  H20  1  0.514600  0.430800  0.401800  1.0  0.0769
  H  H21  1  0.796500  0.781200  0.410300  1.0  0.0629
  H  H22  1  0.689600  0.924700  0.125400  1.0  0.0702
  H  H23  1  0.299800  0.563700  0.385100  1.0  0.0886
  H  H24  1  0.128900  0.420600  0.353600  1.0  0.0775
  H  H25  1  0.093600  0.724300  0.266800  1.0  0.065
  H  H26  1  0.014600  0.930800  0.401800  1.0  0.0769
  H  H27  1  0.296500  0.281200  0.410300  1.0  0.0629
  H  H28  1  0.189600  0.424700  0.125400  1.0  0.0702
  H  H29  1  0.799800  0.936300  0.885100  1.0  0.0889
  H  H30  1  0.628900  0.079400  0.853600  1.0  0.073
  H  H31  1  0.593600  0.775700  0.766800  1.0  0.0684
  H  H32  1  0.514600  0.569200  0.901800  1.0  0.0763
  H  H33  1  0.796500  0.218800  0.910300  1.0  0.0615
  H  H34  1  0.689600  0.075300  0.625400  1.0  0.0721
  H  H35  1  0.299800  0.436300  0.885100  1.0  0.0889
  H  H36  1  0.128900  0.579400  0.853600  1.0  0.073
  H  H37  1  0.093600  0.275700  0.766800  1.0  0.0649
  H  H38  1  0.014600  0.069200  0.901800  1.0  0.0763
  H  H39  1  0.296500  0.718800  0.910300  1.0  0.0615
  H  H40  1  0.189600  0.575300  0.625400  1.0  0.0721
  H  H41  1  0.200200  0.936300  0.614900  1.0  0.0887
  H  H42  1  0.371100  0.079400  0.646400  1.0  0.0775
  H  H43  1  0.406400  0.775700  0.733200  1.0  0.065
  H  H44  1  0.485400  0.569200  0.598200  1.0  0.0761
  H  H45  1  0.203500  0.218800  0.589700  1.0  0.0624
  H  H46  1  0.310400  0.075300  0.874600  1.0  0.0694
  H  H47  1  0.700200  0.436300  0.614900  1.0  0.0887
  H  H48  1  0.871100  0.579400  0.646400  1.0  0.0775
  H  H49  1  0.906400  0.275700  0.733200  1.0  0.0655
  H  H50  1  0.985400  0.069200  0.598200  1.0  0.0761
  H  H51  1  0.703500  0.718800  0.589700  1.0  0.0624
  H  H52  1  0.810400  0.575300  0.874600  1.0  0.0694
  C  C53  1  0.241500  0.047600  0.109700  1.0  0.0965
  C  C54  1  0.335900  0.969000  0.126500  1.0  0.1583
  C  C55  1  0.412000  0.270100  0.182600  1.0  0.1468
  C  C56  1  0.455500  0.383900  0.108800  1.0  0.1285
  C  C57  1  0.223800  0.797700  0.165700  1.0  0.1174
  C  C58  1  0.282900  0.877200  0.322100  1.0  0.081
  C  C59  1  0.741500  0.547600  0.109700  1.0  0.0965
  C  C60  1  0.835900  0.469000  0.126500  1.0  0.1583
  C  C61  1  0.912000  0.770100  0.182600  1.0  0.1468
  C  C62  1  0.955500  0.883900  0.108800  1.0  0.1285
  C  C63  1  0.723800  0.297700  0.165700  1.0  0.1174
  C  C64  1  0.782900  0.377200  0.322100  1.0  0.081
  C  C65  1  0.758500  0.047600  0.390300  1.0  0.0953
  C  C66  1  0.664100  0.969000  0.373500  1.0  0.1574
  C  C67  1  0.588000  0.270100  0.317400  1.0  0.1455
  C  C68  1  0.544500  0.383900  0.391200  1.0  0.1276
  C  C69  1  0.776200  0.797700  0.334300  1.0  0.1155
  C  C70  1  0.717100  0.877200  0.177900  1.0  0.0807
  C  C71  1  0.258500  0.547600  0.390300  1.0  0.0953
  C  C72  1  0.164100  0.469000  0.373500  1.0  0.1574
  C  C73  1  0.088000  0.770100  0.317400  1.0  0.1455
  C  C74  1  0.044500  0.883900  0.391200  1.0  0.1276
  C  C75  1  0.276200  0.297700  0.334300  1.0  0.117
  C  C76  1  0.217100  0.377200  0.177900  1.0  0.0807
  C  C77  1  0.758500  0.952400  0.890300  1.0  0.0954
  C  C78  1  0.664100  0.031000  0.873500  1.0  0.1556
  C  C79  1  0.588000  0.729900  0.817400  1.0  0.1468
  C  C80  1  0.544500  0.616100  0.891200  1.0  0.1266
  C  C81  1  0.776200  0.202300  0.834300  1.0  0.1154
  C  C82  1  0.717100  0.122800  0.677900  1.0  0.0783
  C  C83  1  0.258500  0.452400  0.890300  1.0  0.0954
  C  C84  1  0.164100  0.531000  0.873500  1.0  0.1556
  C  C85  1  0.088000  0.229900  0.817400  1.0  0.1468
  C  C86  1  0.044500  0.116100  0.891200  1.0  0.1266
  C  C87  1  0.276200  0.702300  0.834300  1.0  0.1154
  C  C88  1  0.217100  0.622800  0.677900  1.0  0.0783
  C  C89  1  0.241500  0.952400  0.609700  1.0  0.0962
  C  C90  1  0.335900  0.031000  0.626500  1.0  0.1593
  C  C91  1  0.412000  0.729900  0.682600  1.0  0.1459
  C  C92  1  0.455500  0.616100  0.608800  1.0  0.1265
  C  C93  1  0.223800  0.202300  0.665700  1.0  0.1179
  C  C94  1  0.282900  0.122800  0.822100  1.0  0.0812
  C  C95  1  0.741500  0.452400  0.609700  1.0  0.0962
  C  C96  1  0.835900  0.531000  0.626500  1.0  0.1593
  C  C97  1  0.912000  0.229900  0.682600  1.0  0.1459
  C  C98  1  0.955500  0.116100  0.608800  1.0  0.1265
  C  C99  1  0.723800  0.702300  0.665700  1.0  0.1179
  C  C100  1  0.782900  0.622800  0.822100  1.0  0.0812
  N  N101  1  0.279600  0.961400  0.149900  1.0  0.0302
  N  N102  1  0.273300  0.104000  0.062300  1.0  -0.2412
  N  N103  1  0.333700  0.053800  0.072300  1.0  -0.2946
  N  N104  1  0.365800  0.290600  0.081900  1.0  -0.2452
  N  N105  1  0.393700  0.363900  0.036900  1.0  -0.2109
  N  N106  1  0.469600  0.326200  0.201600  1.0  0.0232
  N  N107  1  0.257500  0.793600  0.344400  1.0  -0.2238
  N  N108  1  0.219300  0.743200  0.243800  1.0  -0.2919
  N  N109  1  0.262400  0.883500  0.208600  1.0  0.0288
  N  N110  1  0.779600  0.461400  0.149900  1.0  0.0302
  N  N111  1  0.773300  0.604000  0.062300  1.0  -0.2412
  N  N112  1  0.833700  0.553800  0.072300  1.0  -0.2946
  N  N113  1  0.865800  0.790600  0.081900  1.0  -0.2452
  N  N114  1  0.893700  0.863900  0.036900  1.0  -0.2109
  N  N115  1  0.969600  0.826200  0.201600  1.0  0.0232
  N  N116  1  0.757500  0.293600  0.344400  1.0  -0.2238
  N  N117  1  0.719300  0.243200  0.243800  1.0  -0.2919
  N  N118  1  0.762400  0.383500  0.208600  1.0  0.0288
  N  N119  1  0.720400  0.961400  0.350100  1.0  0.0302
  N  N120  1  0.726700  0.104000  0.437700  1.0  -0.2417
  N  N121  1  0.666300  0.053800  0.427700  1.0  -0.294
  N  N122  1  0.634200  0.290600  0.418100  1.0  -0.2457
  N  N123  1  0.606300  0.363900  0.463100  1.0  -0.2097
  N  N124  1  0.530400  0.326200  0.298400  1.0  0.0233
  N  N125  1  0.742500  0.793600  0.155600  1.0  -0.2252
  N  N126  1  0.780700  0.743200  0.256200  1.0  -0.2904
  N  N127  1  0.737600  0.883500  0.291400  1.0  0.0289
  N  N128  1  0.220400  0.461400  0.350100  1.0  0.0302
  N  N129  1  0.226700  0.604000  0.437700  1.0  -0.2417
  N  N130  1  0.166300  0.553800  0.427700  1.0  -0.294
  N  N131  1  0.134200  0.790600  0.418100  1.0  -0.2457
  N  N132  1  0.106300  0.863900  0.463100  1.0  -0.2097
  N  N133  1  0.030400  0.826200  0.298400  1.0  0.0233
  N  N134  1  0.242500  0.293600  0.155600  1.0  -0.2252
  N  N135  1  0.280700  0.243200  0.256200  1.0  -0.2904
  N  N136  1  0.237600  0.383500  0.291400  1.0  0.0289
  N  N137  1  0.720400  0.038600  0.850100  1.0  0.0299
  N  N138  1  0.726700  0.896000  0.937700  1.0  -0.2417
  N  N139  1  0.666300  0.946200  0.927700  1.0  -0.2931
  N  N140  1  0.634200  0.709400  0.918100  1.0  -0.246
  N  N141  1  0.606300  0.636100  0.963100  1.0  -0.2094
  N  N142  1  0.530400  0.673800  0.798400  1.0  0.0237
  N  N143  1  0.742500  0.206400  0.655600  1.0  -0.2253
  N  N144  1  0.780700  0.256800  0.756200  1.0  -0.2918
  N  N145  1  0.737600  0.116500  0.791400  1.0  0.0287
  N  N146  1  0.220400  0.538600  0.850100  1.0  0.0299
  N  N147  1  0.226700  0.396000  0.937700  1.0  -0.2417
  N  N148  1  0.166300  0.446200  0.927700  1.0  -0.2931
  N  N149  1  0.134200  0.209400  0.918100  1.0  -0.246
  N  N150  1  0.106300  0.136100  0.963100  1.0  -0.2094
  N  N151  1  0.030400  0.173800  0.798400  1.0  0.0237
  N  N152  1  0.242500  0.706400  0.655600  1.0  -0.2253
  N  N153  1  0.280700  0.756800  0.756200  1.0  -0.2918
  N  N154  1  0.237600  0.616500  0.791400  1.0  0.0287
  N  N155  1  0.279600  0.038600  0.649900  1.0  0.0298
  N  N156  1  0.273300  0.896000  0.562300  1.0  -0.2409
  N  N157  1  0.333700  0.946200  0.572300  1.0  -0.2945
  N  N158  1  0.365800  0.709400  0.581900  1.0  -0.2453
  N  N159  1  0.393700  0.636100  0.536900  1.0  -0.2113
  N  N160  1  0.469600  0.673800  0.701600  1.0  0.0237
  N  N161  1  0.257500  0.206400  0.844400  1.0  -0.224
  N  N162  1  0.219300  0.256800  0.743800  1.0  -0.2927
  N  N163  1  0.262400  0.116500  0.708600  1.0  0.0289
  N  N164  1  0.779600  0.538600  0.649900  1.0  0.0298
  N  N165  1  0.773300  0.396000  0.562300  1.0  -0.2409
  N  N166  1  0.833700  0.446200  0.572300  1.0  -0.2945
  N  N167  1  0.865800  0.209400  0.581900  1.0  -0.2453
  N  N168  1  0.893700  0.136100  0.536900  1.0  -0.2113
  N  N169  1  0.969600  0.173800  0.701600  1.0  0.0237
  N  N170  1  0.757500  0.706400  0.844400  1.0  -0.224
  N  N171  1  0.719300  0.756800  0.743800  1.0  -0.2927
  N  N172  1  0.762400  0.616500  0.708600  1.0  0.0289
