# generated using pymatgen
data_Cu2H24(C11O4)3
_symmetry_space_group_name_H-M   'P 1'
_cell_length_a   10.77650000
_cell_length_b   15.06830000
_cell_length_c   28.48700000
_cell_angle_alpha   86.89730000
_cell_angle_beta   81.29410000
_cell_angle_gamma   69.04780000
_symmetry_Int_Tables_number   1
_chemical_formula_structural   Cu2H24(C11O4)3
_chemical_formula_sum   'Cu4 H48 C66 O24'
_cell_volume   4270.18306830
_cell_formula_units_Z   2
loop_
 _symmetry_equiv_pos_site_id
 _symmetry_equiv_pos_as_xyz
  1  'x, y, z'
loop_
 _atom_site_type_symbol
 _atom_site_label
 _atom_site_symmetry_multiplicity
 _atom_site_fract_x
 _atom_site_fract_y
 _atom_site_fract_z
 _atom_site_occupancy
 _atom_site_charge
  Cu  Cu1  1  0.622160  0.962120  0.010880  1.0  0.8995
  Cu  Cu2  1  0.415720  0.962120  0.489120  1.0  0.899
  Cu  Cu3  1  0.377840  0.037880  0.989120  1.0  0.8995
  Cu  Cu4  1  0.584280  0.037880  0.510880  1.0  0.9006
  H  H5  1  0.554000  0.775200  0.128200  1.0  0.0907
  H  H6  1  0.199700  0.888800  0.087000  1.0  0.1079
  H  H7  1  0.107000  0.792400  0.144800  1.0  0.1219
  H  H8  1  0.175100  0.521600  0.185100  1.0  0.0672
  H  H9  1  0.159700  0.445600  0.223700  1.0  0.0689
  H  H10  1  0.229200  0.278000  0.086100  1.0  0.1006
  H  H11  1  0.395800  0.564400  0.209600  1.0  0.0573
  H  H12  1  0.332900  0.637400  0.252000  1.0  0.073
  H  H13  1  0.471300  0.682200  0.185500  1.0  0.1017
  H  H14  1  0.557600  0.291000  0.170700  1.0  0.1262
  H  H15  1  0.604600  0.168400  0.113600  1.0  0.0984
  H  H16  1  0.172900  0.395600  0.143200  1.0  0.1179
  H  H17  1  0.670800  0.775200  0.371800  1.0  0.0917
  H  H18  1  0.911500  0.888800  0.413000  1.0  0.1073
  H  H19  1  0.100600  0.792400  0.355200  1.0  0.1213
  H  H20  1  0.303300  0.521600  0.314900  1.0  0.0664
  H  H21  1  0.394700  0.445600  0.276300  1.0  0.0693
  H  H22  1  0.492800  0.278000  0.413900  1.0  0.1009
  H  H23  1  0.039800  0.564400  0.290400  1.0  0.0587
  H  H24  1  0.029700  0.637400  0.248000  1.0  0.073
  H  H25  1  0.846500  0.682200  0.314500  1.0  0.1018
  H  H26  1  0.151400  0.291000  0.329300  1.0  0.1264
  H  H27  1  0.227000  0.168400  0.386400  1.0  0.0973
  H  H28  1  0.431500  0.395600  0.356800  1.0  0.118
  H  H29  1  0.446000  0.224800  0.871800  1.0  0.0919
  H  H30  1  0.800300  0.111200  0.913000  1.0  0.1071
  H  H31  1  0.893000  0.207600  0.855200  1.0  0.1211
  H  H32  1  0.824900  0.478400  0.814900  1.0  0.0662
  H  H33  1  0.840300  0.554400  0.776300  1.0  0.0695
  H  H34  1  0.770800  0.722000  0.913900  1.0  0.101
  H  H35  1  0.604200  0.435600  0.790400  1.0  0.0587
  H  H36  1  0.667100  0.362600  0.748000  1.0  0.0733
  H  H37  1  0.528700  0.317800  0.814500  1.0  0.1019
  H  H38  1  0.442400  0.709000  0.829300  1.0  0.1262
  H  H39  1  0.395400  0.831600  0.886400  1.0  0.0976
  H  H40  1  0.827100  0.604400  0.856800  1.0  0.1184
  H  H41  1  0.329200  0.224800  0.628200  1.0  0.0905
  H  H42  1  0.088500  0.111200  0.587000  1.0  0.1075
  H  H43  1  0.899400  0.207600  0.644800  1.0  0.1221
  H  H44  1  0.696700  0.478400  0.685100  1.0  0.0663
  H  H45  1  0.605300  0.554400  0.723700  1.0  0.0694
  H  H46  1  0.507200  0.722000  0.586100  1.0  0.1004
  H  H47  1  0.960200  0.435600  0.709600  1.0  0.0582
  H  H48  1  0.970300  0.362600  0.752000  1.0  0.073
  H  H49  1  0.153500  0.317800  0.685500  1.0  0.1016
  H  H50  1  0.848600  0.709000  0.670700  1.0  0.1259
  H  H51  1  0.773000  0.831600  0.613600  1.0  0.0984
  H  H52  1  0.568500  0.604400  0.643200  1.0  0.1176
  C  C53  1  0.465000  0.779600  0.130300  1.0  -0.0356
  C  C54  1  0.386810  0.838980  0.101700  1.0  -0.1267
  C  C55  1  0.255600  0.845800  0.106200  1.0  -0.0573
  C  C56  1  0.196800  0.786800  0.141100  1.0  -0.12
  C  C57  1  0.430790  0.900820  0.065610  1.0  0.6909
  C  C58  1  0.215100  0.482200  0.210880  1.0  0.0732
  C  C59  1  0.294990  0.280420  0.103200  1.0  -0.0391
  C  C60  1  0.312360  0.604480  0.227590  1.0  0.0658
  C  C61  1  0.290820  0.723160  0.167200  1.0  0.2114
  C  C62  1  0.415440  0.721120  0.164900  1.0  -0.2112
  C  C63  1  0.361450  0.355500  0.159700  1.0  0.2716
  C  C64  1  0.492200  0.288400  0.153500  1.0  -0.1532
  C  C65  1  0.519200  0.214800  0.118700  1.0  -0.0361
  C  C66  1  0.424630  0.211340  0.093600  1.0  -0.1312
  C  C67  1  0.260080  0.352240  0.136700  1.0  -0.2204
  C  C68  1  0.450330  0.132940  0.059500  1.0  0.6819
  C  C69  1  0.755400  0.779600  0.369700  1.0  -0.0365
  C  C70  1  0.774210  0.838980  0.398300  1.0  -0.1254
  C  C71  1  0.898600  0.845800  0.393800  1.0  -0.0562
  C  C72  1  0.016400  0.786800  0.358900  1.0  -0.1157
  C  C73  1  0.668390  0.900820  0.434390  1.0  0.6909
  C  C74  1  0.302700  0.482200  0.289120  1.0  0.0735
  C  C75  1  0.424590  0.280420  0.396800  1.0  -0.0385
  C  C76  1  0.083160  0.604480  0.272410  1.0  0.0647
  C  C77  1  0.986020  0.723160  0.332800  1.0  0.2111
  C  C78  1  0.863440  0.721120  0.335100  1.0  -0.2096
  C  C79  1  0.283050  0.355500  0.340300  1.0  0.2718
  C  C80  1  0.219400  0.288400  0.346500  1.0  -0.155
  C  C81  1  0.266000  0.214800  0.381300  1.0  -0.038
  C  C82  1  0.364030  0.211340  0.406400  1.0  -0.1307
  C  C83  1  0.387680  0.352240  0.363300  1.0  -0.2187
  C  C84  1  0.416730  0.132940  0.440500  1.0  0.6821
  C  C85  1  0.535000  0.220400  0.869700  1.0  -0.0368
  C  C86  1  0.613190  0.161020  0.898300  1.0  -0.1257
  C  C87  1  0.744400  0.154200  0.893800  1.0  -0.0557
  C  C88  1  0.803200  0.213200  0.858900  1.0  -0.1154
  C  C89  1  0.569210  0.099180  0.934390  1.0  0.6909
  C  C90  1  0.784900  0.517800  0.789120  1.0  0.0731
  C  C91  1  0.705010  0.719580  0.896800  1.0  -0.0385
  C  C92  1  0.687640  0.395520  0.772410  1.0  0.0653
  C  C93  1  0.709180  0.276840  0.832800  1.0  0.2104
  C  C94  1  0.584560  0.278880  0.835100  1.0  -0.21
  C  C95  1  0.638550  0.644500  0.840300  1.0  0.2714
  C  C96  1  0.507800  0.711600  0.846500  1.0  -0.1551
  C  C97  1  0.480800  0.785200  0.881300  1.0  -0.0378
  C  C98  1  0.575370  0.788660  0.906400  1.0  -0.1307
  C  C99  1  0.739920  0.647760  0.863300  1.0  -0.2185
  C  C100  1  0.549670  0.867060  0.940500  1.0  0.6822
  C  C101  1  0.244600  0.220400  0.630300  1.0  -0.0357
  C  C102  1  0.225790  0.161020  0.601700  1.0  -0.1267
  C  C103  1  0.101400  0.154200  0.606200  1.0  -0.0576
  C  C104  1  0.983600  0.213200  0.641100  1.0  -0.12
  C  C105  1  0.331610  0.099180  0.565610  1.0  0.6907
  C  C106  1  0.697300  0.517800  0.710880  1.0  0.0734
  C  C107  1  0.575410  0.719580  0.603200  1.0  -0.0386
  C  C108  1  0.916840  0.395520  0.727590  1.0  0.0658
  C  C109  1  0.013980  0.276840  0.667200  1.0  0.2103
  C  C110  1  0.136560  0.278880  0.664900  1.0  -0.2107
  C  C111  1  0.716950  0.644500  0.659700  1.0  0.271
  C  C112  1  0.780600  0.711600  0.653500  1.0  -0.1528
  C  C113  1  0.734000  0.785200  0.618700  1.0  -0.035
  C  C114  1  0.635970  0.788660  0.593600  1.0  -0.1309
  C  C115  1  0.612320  0.647760  0.636700  1.0  -0.2198
  C  C116  1  0.583270  0.867060  0.559500  1.0  0.6822
  C  C117  1  0.227800  0.544400  0.250000  1.0  -0.0397
  C  C118  1  0.772200  0.455600  0.750000  1.0  -0.0392
  O  O119  1  0.342380  0.955640  0.042460  1.0  -0.5902
  O  O120  1  0.549900  0.892000  0.061220  1.0  -0.5712
  O  O121  1  0.568410  0.069980  0.054870  1.0  -0.577
  O  O122  1  0.360110  0.135180  0.036400  1.0  -0.5765
  O  O123  1  0.230230  0.671140  0.196980  1.0  -0.2811
  O  O124  1  0.349060  0.420280  0.194380  1.0  -0.2811
  O  O125  1  0.701980  0.955640  0.457540  1.0  -0.5911
  O  O126  1  0.558100  0.892000  0.438780  1.0  -0.5718
  O  O127  1  0.361610  0.069980  0.445130  1.0  -0.5761
  O  O128  1  0.504710  0.135180  0.463600  1.0  -0.5762
  O  O129  1  0.098630  0.671140  0.303020  1.0  -0.2813
  O  O130  1  0.230660  0.420280  0.305620  1.0  -0.2832
  O  O131  1  0.657620  0.044360  0.957540  1.0  -0.5918
  O  O132  1  0.450100  0.108000  0.938780  1.0  -0.571
  O  O133  1  0.431590  0.930020  0.945130  1.0  -0.5757
  O  O134  1  0.639890  0.864820  0.963600  1.0  -0.5763
  O  O135  1  0.769770  0.328860  0.803020  1.0  -0.2818
  O  O136  1  0.650940  0.579720  0.805620  1.0  -0.2831
  O  O137  1  0.298020  0.044360  0.542460  1.0  -0.591
  O  O138  1  0.441900  0.108000  0.561220  1.0  -0.5708
  O  O139  1  0.638390  0.930020  0.554870  1.0  -0.5766
  O  O140  1  0.495290  0.864820  0.536400  1.0  -0.5762
  O  O141  1  0.901370  0.328860  0.696980  1.0  -0.2826
  O  O142  1  0.769340  0.579720  0.694380  1.0  -0.2818
