# generated using pymatgen
data_U4H4C6O11
_symmetry_space_group_name_H-M   'P 1'
_cell_length_a   8.04950000
_cell_length_b   11.88520000
_cell_length_c   11.92090000
_cell_angle_alpha   79.88100000
_cell_angle_beta   86.23100000
_cell_angle_gamma   81.91200000
_symmetry_Int_Tables_number   1
_chemical_formula_structural   U4H4C6O11
_chemical_formula_sum   'U8 H8 C12 O22'
_cell_volume   1110.57915202
_cell_formula_units_Z   2
loop_
 _symmetry_equiv_pos_site_id
 _symmetry_equiv_pos_as_xyz
  1  'x, y, z'
loop_
 _atom_site_type_symbol
 _atom_site_label
 _atom_site_symmetry_multiplicity
 _atom_site_fract_x
 _atom_site_fract_y
 _atom_site_fract_z
 _atom_site_occupancy
 _atom_site_charge
  U  U1  1  0.042120  0.563920  0.702080  1.0  1.7137
  U  U2  1  0.776960  0.505070  0.976350  1.0  2.2626
  U  U3  1  0.608200  0.848500  0.990400  1.0  2.0054
  U  U4  1  0.316800  0.062500  0.718600  1.0  1.2877
  U  U5  1  0.957880  0.436080  0.297920  1.0  1.7134
  U  U6  1  0.223040  0.494930  0.023650  1.0  2.2604
  U  U7  1  0.391800  0.151500  0.009600  1.0  2.0054
  U  U8  1  0.683200  0.937500  0.281400  1.0  1.2943
  H  H9  1  0.519930  0.497410  0.599880  1.0  0.123
  H  H10  1  0.638790  0.417150  0.678350  1.0  0.1168
  H  H11  1  0.483670  0.716510  0.602030  1.0  0.1273
  H  H12  1  0.667000  0.727500  0.600220  1.0  0.0992
  H  H13  1  0.480070  0.502590  0.400120  1.0  0.1243
  H  H14  1  0.361210  0.582850  0.321650  1.0  0.1281
  H  H15  1  0.516330  0.283490  0.397970  1.0  0.1219
  H  H16  1  0.333000  0.272500  0.399780  1.0  0.0989
  C  C17  1  0.537000  0.799600  0.729100  1.0  0.7527
  C  C18  1  0.610600  0.581900  0.714600  1.0  0.3436
  C  C19  1  0.625000  0.493500  0.634500  1.0  -0.4457
  C  C20  1  0.763000  0.503400  0.543300  1.0  0.7387
  C  C21  1  0.574000  0.709500  0.652200  1.0  -0.4146
  C  C22  1  0.463100  0.555500  0.794500  1.0  0.6701
  C  C23  1  0.463000  0.200400  0.270900  1.0  0.7529
  C  C24  1  0.389400  0.418100  0.285400  1.0  0.3455
  C  C25  1  0.375000  0.506500  0.365500  1.0  -0.4481
  C  C26  1  0.237000  0.496600  0.456700  1.0  0.7405
  C  C27  1  0.426000  0.290500  0.347800  1.0  -0.4145
  C  C28  1  0.536900  0.444500  0.205500  1.0  0.6697
  O  O29  1  0.757500  0.566300  0.776400  1.0  -0.8423
  O  O30  1  0.319200  0.571800  0.757800  1.0  -0.7215
  O  O31  1  0.736300  0.652300  0.005400  1.0  -0.9454
  O  O32  1  0.026900  0.539800  0.893400  1.0  -1.2086
  O  O33  1  0.520200  0.766100  0.835200  1.0  -0.7099
  O  O34  1  0.867600  0.574800  0.546600  1.0  -0.7087
  O  O35  1  0.786000  0.812000  0.151200  1.0  -0.9107
  O  O36  1  0.487500  0.520300  0.899600  1.0  -0.7814
  O  O37  1  0.406000  0.993000  0.908000  1.0  -1.2033
  O  O38  1  0.770800  0.439400  0.469600  1.0  -0.6694
  O  O39  1  0.524000  0.901900  0.683100  1.0  -0.6912
  O  O40  1  0.242500  0.433700  0.223600  1.0  -0.8374
  O  O41  1  0.680800  0.428200  0.242200  1.0  -0.7187
  O  O42  1  0.263700  0.347700  0.994600  1.0  -0.946
  O  O43  1  0.973100  0.460200  0.106600  1.0  -1.2098
  O  O44  1  0.479800  0.233900  0.164800  1.0  -0.7062
  O  O45  1  0.132400  0.425200  0.453400  1.0  -0.7041
  O  O46  1  0.214000  0.188000  0.848800  1.0  -0.9116
  O  O47  1  0.512500  0.479700  0.100400  1.0  -0.7826
  O  O48  1  0.594000  0.007000  0.092000  1.0  -1.2027
  O  O49  1  0.229200  0.560600  0.530400  1.0  -0.6698
  O  O50  1  0.476000  0.098100  0.316900  1.0  -0.6919
