# generated using pymatgen
data_Pr2H6(C3O4)3
_symmetry_space_group_name_H-M   'P 1'
_cell_length_a   11.28800000
_cell_length_b   12.64500000
_cell_length_c   14.72500000
_cell_angle_alpha   90.00000000
_cell_angle_beta   90.00000000
_cell_angle_gamma   90.00000000
_symmetry_Int_Tables_number   1
_chemical_formula_structural   Pr2H6(C3O4)3
_chemical_formula_sum   'Pr8 H24 C36 O48'
_cell_volume   2101.79879100
_cell_formula_units_Z   4
loop_
 _symmetry_equiv_pos_site_id
 _symmetry_equiv_pos_as_xyz
  1  'x, y, z'
loop_
 _atom_site_type_symbol
 _atom_site_label
 _atom_site_symmetry_multiplicity
 _atom_site_fract_x
 _atom_site_fract_y
 _atom_site_fract_z
 _atom_site_occupancy
 _atom_site_charge
  Pr  Pr1  1  0.149360  0.385440  0.992860  1.0  2.1699
  Pr  Pr2  1  0.350640  0.114560  0.492860  1.0  2.1693
  Pr  Pr3  1  0.850640  0.385440  0.507140  1.0  2.1698
  Pr  Pr4  1  0.649360  0.114560  0.007140  1.0  2.1696
  Pr  Pr5  1  0.850640  0.614560  0.007140  1.0  2.1694
  Pr  Pr6  1  0.649360  0.885440  0.507140  1.0  2.1698
  Pr  Pr7  1  0.149360  0.614560  0.492860  1.0  2.1695
  Pr  Pr8  1  0.350640  0.885440  0.992860  1.0  2.1699
  H  H9  1  0.945000  0.597000  0.762000  1.0  0.1683
  H  H10  1  0.437000  0.587000  0.848000  1.0  0.1884
  H  H11  1  0.331000  0.526000  0.809000  1.0  0.1685
  H  H12  1  0.555000  0.903000  0.262000  1.0  0.166
  H  H13  1  0.063000  0.913000  0.348000  1.0  0.1851
  H  H14  1  0.169000  0.974000  0.309000  1.0  0.1683
  H  H15  1  0.055000  0.597000  0.738000  1.0  0.1682
  H  H16  1  0.563000  0.587000  0.652000  1.0  0.1891
  H  H17  1  0.669000  0.526000  0.691000  1.0  0.168
  H  H18  1  0.445000  0.903000  0.238000  1.0  0.1651
  H  H19  1  0.937000  0.913000  0.152000  1.0  0.1835
  H  H20  1  0.831000  0.974000  0.191000  1.0  0.1678
  H  H21  1  0.055000  0.403000  0.238000  1.0  0.165
  H  H22  1  0.563000  0.413000  0.152000  1.0  0.1852
  H  H23  1  0.669000  0.474000  0.191000  1.0  0.1679
  H  H24  1  0.445000  0.097000  0.738000  1.0  0.1675
  H  H25  1  0.937000  0.087000  0.652000  1.0  0.1885
  H  H26  1  0.831000  0.026000  0.691000  1.0  0.1679
  H  H27  1  0.945000  0.403000  0.262000  1.0  0.1659
  H  H28  1  0.437000  0.413000  0.348000  1.0  0.1829
  H  H29  1  0.331000  0.474000  0.309000  1.0  0.1685
  H  H30  1  0.555000  0.097000  0.762000  1.0  0.169
  H  H31  1  0.063000  0.087000  0.848000  1.0  0.189
  H  H32  1  0.169000  0.026000  0.809000  1.0  0.1683
  C  C33  1  0.427100  0.447600  0.904150  1.0  0.8359
  C  C34  1  0.380500  0.549000  0.863100  1.0  -0.5597
  C  C35  1  0.301700  0.614610  0.924500  1.0  0.8909
  C  C36  1  0.030000  0.486500  0.832010  1.0  0.8211
  C  C37  1  0.072900  0.052400  0.404150  1.0  0.8355
  C  C38  1  0.119500  0.951000  0.363100  1.0  -0.5591
  C  C39  1  0.198300  0.885390  0.424500  1.0  0.8921
  C  C40  1  0.470000  0.013500  0.332010  1.0  0.8209
  C  C41  1  0.572900  0.447600  0.595850  1.0  0.8367
  C  C42  1  0.619500  0.549000  0.636900  1.0  -0.5628
  C  C43  1  0.698300  0.614610  0.575500  1.0  0.8922
  C  C44  1  0.970000  0.486500  0.667990  1.0  0.822
  C  C45  1  0.927100  0.052400  0.095850  1.0  0.8348
  C  C46  1  0.880500  0.951000  0.136900  1.0  -0.562
  C  C47  1  0.801700  0.885390  0.075500  1.0  0.8902
  C  C48  1  0.530000  0.013500  0.167990  1.0  0.8217
  C  C49  1  0.572900  0.552400  0.095850  1.0  0.836
  C  C50  1  0.619500  0.451000  0.136900  1.0  -0.5624
  C  C51  1  0.698300  0.385390  0.075500  1.0  0.8924
  C  C52  1  0.970000  0.513500  0.167990  1.0  0.822
  C  C53  1  0.927100  0.947600  0.595850  1.0  0.836
  C  C54  1  0.880500  0.049000  0.636900  1.0  -0.5624
  C  C55  1  0.801700  0.114610  0.575500  1.0  0.8917
  C  C56  1  0.530000  0.986500  0.667990  1.0  0.8216
  C  C57  1  0.427100  0.552400  0.404150  1.0  0.8342
  C  C58  1  0.380500  0.451000  0.363100  1.0  -0.5595
  C  C59  1  0.301700  0.385390  0.424500  1.0  0.8918
  C  C60  1  0.030000  0.513500  0.332010  1.0  0.8204
  C  C61  1  0.072900  0.947600  0.904150  1.0  0.8368
  C  C62  1  0.119500  0.049000  0.863100  1.0  -0.5593
  C  C63  1  0.198300  0.114610  0.924500  1.0  0.8926
  C  C64  1  0.470000  0.986500  0.832010  1.0  0.8215
  C  C65  1  0.000000  0.551800  0.750000  1.0  -0.491
  C  C66  1  0.500000  0.948200  0.250000  1.0  -0.4911
  C  C67  1  0.000000  0.448200  0.250000  1.0  -0.4911
  C  C68  1  0.500000  0.051800  0.750000  1.0  -0.491
  O  O69  1  0.354510  0.382710  0.937100  1.0  -0.7878
  O  O70  1  0.317220  0.711810  0.926220  1.0  -0.7627
  O  O71  1  0.221000  0.567700  0.968460  1.0  -0.7627
  O  O72  1  0.985220  0.508650  0.908340  1.0  -0.8494
  O  O73  1  0.104100  0.413110  0.825490  1.0  -0.639
  O  O74  1  0.535910  0.431230  0.902190  1.0  -0.6324
  O  O75  1  0.145490  0.117290  0.437100  1.0  -0.7843
  O  O76  1  0.182780  0.788190  0.426220  1.0  -0.7611
  O  O77  1  0.279000  0.932300  0.468460  1.0  -0.7629
  O  O78  1  0.514780  0.991350  0.408340  1.0  -0.8478
  O  O79  1  0.395900  0.086890  0.325490  1.0  -0.6386
  O  O80  1  0.964090  0.068770  0.402190  1.0  -0.6351
  O  O81  1  0.645490  0.382710  0.562900  1.0  -0.7894
  O  O82  1  0.682780  0.711810  0.573780  1.0  -0.763
  O  O83  1  0.779000  0.567700  0.531540  1.0  -0.7628
  O  O84  1  0.014780  0.508650  0.591660  1.0  -0.8498
  O  O85  1  0.895900  0.413110  0.674510  1.0  -0.6383
  O  O86  1  0.464090  0.431230  0.597810  1.0  -0.6321
  O  O87  1  0.854510  0.117290  0.062900  1.0  -0.7849
  O  O88  1  0.817220  0.788190  0.073780  1.0  -0.762
  O  O89  1  0.721000  0.932300  0.031540  1.0  -0.7627
  O  O90  1  0.485220  0.991350  0.091660  1.0  -0.8512
  O  O91  1  0.604100  0.086890  0.174510  1.0  -0.6393
  O  O92  1  0.035910  0.068770  0.097810  1.0  -0.6339
  O  O93  1  0.645490  0.617290  0.062900  1.0  -0.7867
  O  O94  1  0.682780  0.288190  0.073780  1.0  -0.7619
  O  O95  1  0.779000  0.432300  0.031540  1.0  -0.7635
  O  O96  1  0.014780  0.491350  0.091660  1.0  -0.8506
  O  O97  1  0.895900  0.586890  0.174510  1.0  -0.6384
  O  O98  1  0.464090  0.568770  0.097810  1.0  -0.6358
  O  O99  1  0.854510  0.882710  0.562900  1.0  -0.7889
  O  O100  1  0.817220  0.211810  0.573780  1.0  -0.7632
  O  O101  1  0.721000  0.067700  0.531540  1.0  -0.7624
  O  O102  1  0.485220  0.008650  0.591660  1.0  -0.8505
  O  O103  1  0.604100  0.913110  0.674510  1.0  -0.6387
  O  O104  1  0.035910  0.931230  0.597810  1.0  -0.6329
  O  O105  1  0.354510  0.617290  0.437100  1.0  -0.7828
  O  O106  1  0.317220  0.288190  0.426220  1.0  -0.7616
  O  O107  1  0.221000  0.432300  0.468460  1.0  -0.7627
  O  O108  1  0.985220  0.491350  0.408340  1.0  -0.8495
  O  O109  1  0.104100  0.586890  0.325490  1.0  -0.6396
  O  O110  1  0.535910  0.568770  0.402190  1.0  -0.6338
  O  O111  1  0.145490  0.882710  0.937100  1.0  -0.788
  O  O112  1  0.182780  0.211810  0.926220  1.0  -0.7626
  O  O113  1  0.279000  0.067700  0.968460  1.0  -0.7626
  O  O114  1  0.514780  0.008650  0.908340  1.0  -0.8477
  O  O115  1  0.395900  0.913110  0.825490  1.0  -0.6387
  O  O116  1  0.964090  0.931230  0.902190  1.0  -0.6325
