# generated using pymatgen
data_EuH54C57S3N6(O5F3)3
_symmetry_space_group_name_H-M   'P 1'
_cell_length_a   14.94430000
_cell_length_b   17.12370000
_cell_length_c   17.30690000
_cell_angle_alpha   118.44400000
_cell_angle_beta   103.19100000
_cell_angle_gamma   96.75100000
_symmetry_Int_Tables_number   1
_chemical_formula_structural   EuH54C57S3N6(O5F3)3
_chemical_formula_sum   'Eu2 H108 C114 S6 N12 O30 F18'
_cell_volume   3656.67434558
_cell_formula_units_Z   2
loop_
 _symmetry_equiv_pos_site_id
 _symmetry_equiv_pos_as_xyz
  1  'x, y, z'
loop_
 _atom_site_type_symbol
 _atom_site_label
 _atom_site_symmetry_multiplicity
 _atom_site_fract_x
 _atom_site_fract_y
 _atom_site_fract_z
 _atom_site_occupancy
 _atom_site_charge
  Eu  Eu1  1  0.880330  0.958090  0.891720  1.0  2.1643
  Eu  Eu2  1  0.119670  0.041910  0.108280  1.0  2.1633
  H  H3  1  0.505700  0.780600  0.166700  1.0  0.1202
  H  H4  1  0.576200  0.795900  0.117600  1.0  0.1309
  H  H5  1  0.580400  0.722600  0.147200  1.0  0.1085
  H  H6  1  0.571400  0.006200  0.481900  1.0  0.1272
  H  H7  1  0.670000  0.020300  0.549500  1.0  0.1138
  H  H8  1  0.655600  0.092400  0.519500  1.0  0.1204
  H  H9  1  0.940900  0.958300  0.427500  1.0  0.1079
  H  H10  1  0.921100  0.913500  0.320400  1.0  0.1088
  H  H11  1  0.933800  0.019500  0.383000  1.0  0.1198
  H  H12  1  0.495700  0.894200  0.378400  1.0  0.0992
  H  H13  1  0.477100  0.812600  0.277300  1.0  0.0839
  H  H14  1  0.336400  0.814600  0.193400  1.0  0.1077
  H  H15  1  0.239200  0.883700  0.140700  1.0  0.1069
  H  H16  1  0.439600  0.124800  0.316800  1.0  0.1123
  H  H17  1  0.533400  0.047700  0.360700  1.0  0.084
  H  H18  1  0.807200  0.131100  0.531100  1.0  0.0899
  H  H19  1  0.894900  0.094800  0.508600  1.0  0.0932
  H  H20  1  0.838700  0.934100  0.533600  1.0  0.0901
  H  H21  1  0.866800  0.919600  0.660600  1.0  0.1184
  H  H22  1  0.917500  0.194700  0.821200  1.0  0.1269
  H  H23  1  0.879900  0.201300  0.690300  1.0  0.1163
  H  H24  1  0.723700  0.752000  0.151300  1.0  0.1072
  H  H25  1  0.824600  0.785500  0.224900  1.0  0.1025
  H  H26  1  0.855500  0.733500  0.074100  1.0  0.1087
  H  H27  1  0.923700  0.785100  0.998500  1.0  0.1148
  H  H28  1  0.860200  0.025500  0.137000  1.0  0.131
  H  H29  1  0.784900  0.964100  0.203600  1.0  0.0961
  H  H30  1  0.345600  0.424900  0.455900  1.0  0.1267
  H  H31  1  0.326300  0.511600  0.452800  1.0  0.1174
  H  H32  1  0.426200  0.517500  0.512000  1.0  0.113
  H  H33  1  0.475700  0.570800  0.820700  1.0  0.1105
  H  H34  1  0.420400  0.639000  0.874500  1.0  0.1162
  H  H35  1  0.387100  0.534100  0.839700  1.0  0.1145
  H  H36  1  0.051500  0.505500  0.579200  1.0  0.1115
  H  H37  1  0.082200  0.574900  0.686700  1.0  0.1045
  H  H38  1  0.087800  0.611400  0.619800  1.0  0.1155
  H  H39  1  0.482100  0.478500  0.602500  1.0  0.089
  H  H40  1  0.485700  0.477800  0.693200  1.0  0.0996
  H  H41  1  0.644400  0.546100  0.777900  1.0  0.1139
  H  H42  1  0.772200  0.670400  0.861200  1.0  0.1152
  H  H43  1  0.632800  0.795400  0.747000  1.0  0.1103
  H  H44  1  0.503800  0.670800  0.670800  1.0  0.0941
  H  H45  1  0.257500  0.571200  0.844500  1.0  0.0954
  H  H46  1  0.154000  0.536200  0.774200  1.0  0.1105
  H  H47  1  0.299400  0.739100  0.825100  1.0  0.1097
  H  H48  1  0.276500  0.880200  0.899300  1.0  0.1123
  H  H49  1  0.084500  0.782800  0.982400  1.0  0.1141
  H  H50  1  0.102400  0.640700  0.895300  1.0  0.1116
  H  H51  1  0.205000  0.549000  0.454900  1.0  0.0941
  H  H52  1  0.115500  0.543200  0.486800  1.0  0.0883
  H  H53  1  0.113000  0.373700  0.487800  1.0  0.1034
  H  H54  1  0.059300  0.221300  0.379700  1.0  0.1194
  H  H55  1  0.083500  0.280600  0.184800  1.0  0.1218
  H  H56  1  0.127500  0.433000  0.297700  1.0  0.1109
  H  H57  1  0.494300  0.219400  0.833300  1.0  0.1206
  H  H58  1  0.423800  0.204100  0.882400  1.0  0.1314
  H  H59  1  0.419600  0.277400  0.852800  1.0  0.1083
  H  H60  1  0.428600  0.993800  0.518100  1.0  0.1283
  H  H61  1  0.330000  0.979700  0.450500  1.0  0.1127
  H  H62  1  0.344400  0.907600  0.480500  1.0  0.1223
  H  H63  1  0.059100  0.041700  0.572500  1.0  0.108
  H  H64  1  0.078900  0.086500  0.679600  1.0  0.1081
  H  H65  1  0.066200  0.980500  0.617000  1.0  0.1195
  H  H66  1  0.504300  0.105800  0.621600  1.0  0.0976
  H  H67  1  0.522900  0.187400  0.722700  1.0  0.0829
  H  H68  1  0.663600  0.185400  0.806600  1.0  0.1074
  H  H69  1  0.760800  0.116300  0.859300  1.0  0.1072
  H  H70  1  0.560400  0.875200  0.683200  1.0  0.1127
  H  H71  1  0.466600  0.952300  0.639300  1.0  0.0853
  H  H72  1  0.192800  0.868900  0.468900  1.0  0.0909
  H  H73  1  0.105100  0.905200  0.491400  1.0  0.0943
  H  H74  1  0.161300  0.065900  0.466400  1.0  0.0911
  H  H75  1  0.133200  0.080400  0.339400  1.0  0.1185
  H  H76  1  0.082500  0.805300  0.178800  1.0  0.1273
  H  H77  1  0.120100  0.798700  0.309700  1.0  0.1169
  H  H78  1  0.276300  0.248000  0.848700  1.0  0.1072
  H  H79  1  0.175400  0.214500  0.775100  1.0  0.1031
  H  H80  1  0.144500  0.266500  0.925900  1.0  0.1079
  H  H81  1  0.076300  0.214900  0.001500  1.0  0.1149
  H  H82  1  0.139800  0.974500  0.863000  1.0  0.1308
  H  H83  1  0.215100  0.035900  0.796400  1.0  0.0965
  H  H84  1  0.654400  0.575100  0.544100  1.0  0.1272
  H  H85  1  0.673700  0.488400  0.547200  1.0  0.1186
  H  H86  1  0.573800  0.482500  0.488000  1.0  0.1111
  H  H87  1  0.524300  0.429200  0.179300  1.0  0.1101
  H  H88  1  0.579600  0.361000  0.125500  1.0  0.1161
  H  H89  1  0.612900  0.465900  0.160300  1.0  0.1145
  H  H90  1  0.948500  0.494500  0.420800  1.0  0.1114
  H  H91  1  0.917800  0.425100  0.313300  1.0  0.1047
  H  H92  1  0.912200  0.388600  0.380200  1.0  0.1149
  H  H93  1  0.517900  0.521500  0.397500  1.0  0.0899
  H  H94  1  0.514300  0.522200  0.306800  1.0  0.0997
  H  H95  1  0.355600  0.453900  0.222100  1.0  0.1138
  H  H96  1  0.227800  0.329600  0.138800  1.0  0.115
  H  H97  1  0.367200  0.204600  0.253000  1.0  0.1101
  H  H98  1  0.496200  0.329200  0.329200  1.0  0.0945
  H  H99  1  0.742500  0.428800  0.155500  1.0  0.0957
  H  H100  1  0.846000  0.463800  0.225800  1.0  0.1077
  H  H101  1  0.700600  0.260900  0.174900  1.0  0.11
  H  H102  1  0.723500  0.119800  0.100700  1.0  0.1137
  H  H103  1  0.915500  0.217200  0.017600  1.0  0.1143
  H  H104  1  0.897600  0.359300  0.104700  1.0  0.1126
  H  H105  1  0.795000  0.451000  0.545100  1.0  0.094
  H  H106  1  0.884500  0.456800  0.513200  1.0  0.0894
  H  H107  1  0.887000  0.626300  0.512200  1.0  0.1047
  H  H108  1  0.940700  0.778700  0.620300  1.0  0.119
  H  H109  1  0.916500  0.719400  0.815200  1.0  0.1206
  H  H110  1  0.872500  0.567000  0.702300  1.0  0.1113
  C  C111  1  0.569100  0.781800  0.163700  1.0  -0.3427
  C  C112  1  0.639200  0.028200  0.499500  1.0  -0.35
  C  C113  1  0.909500  0.960100  0.373600  1.0  -0.3484
  C  C114  1  0.607600  0.903900  0.331200  1.0  -0.0964
  C  C115  1  0.671400  0.974900  0.418000  1.0  0.0656
  C  C116  1  0.769500  0.996500  0.428900  1.0  -0.0325
  C  C117  1  0.802400  0.942500  0.357600  1.0  -0.0091
  C  C118  1  0.739900  0.870600  0.272100  1.0  0.0042
  C  C119  1  0.641100  0.855300  0.258400  1.0  0.0422
  C  C120  1  0.502600  0.878700  0.318800  1.0  -0.033
  C  C121  1  0.357000  0.877400  0.217300  1.0  0.0706
  C  C122  1  0.297700  0.918800  0.186900  1.0  -0.2134
  C  C123  1  0.325500  0.016800  0.226300  1.0  0.3438
  C  C124  1  0.416500  0.061800  0.290700  1.0  -0.1606
  C  C125  1  0.473300  0.014900  0.316700  1.0  0.0734
  C  C126  1  0.835000  0.079600  0.517600  1.0  -0.1334
  C  C127  1  0.852700  0.986300  0.592100  1.0  0.0819
  C  C128  1  0.870600  0.977600  0.668400  1.0  -0.1398
  C  C129  1  0.894500  0.053800  0.757100  1.0  0.3768
  C  C130  1  0.899600  0.140800  0.763300  1.0  -0.1967
  C  C131  1  0.878400  0.144500  0.685200  1.0  0.0593
  C  C132  1  0.775900  0.805800  0.197100  1.0  -0.0671
  C  C133  1  0.857100  0.793000  0.086600  1.0  0.0741
  C  C134  1  0.899400  0.824000  0.043100  1.0  -0.1731
  C  C135  1  0.907800  0.915300  0.064200  1.0  0.3421
  C  C136  1  0.860900  0.966400  0.124300  1.0  -0.1646
  C  C137  1  0.816400  0.929500  0.164200  1.0  0.0903
  C  C138  1  0.358800  0.490800  0.491200  1.0  -0.3475
  C  C139  1  0.414100  0.577600  0.825700  1.0  -0.3317
  C  C140  1  0.095200  0.562100  0.630600  1.0  -0.3568
  C  C141  1  0.324900  0.519800  0.573900  1.0  0.0448
  C  C142  1  0.382100  0.534300  0.658000  1.0  -0.1369
  C  C143  1  0.349100  0.559900  0.734000  1.0  0.052
  C  C144  1  0.255200  0.566100  0.724400  1.0  -0.0229
  C  C145  1  0.196200  0.553500  0.640100  1.0  0.0112
  C  C146  1  0.232000  0.532300  0.567000  1.0  -0.0698
  C  C147  1  0.479100  0.514700  0.664800  1.0  -0.0431
  C  C148  1  0.641500  0.598000  0.773800  1.0  0.0355
  C  C149  1  0.718300  0.671900  0.822900  1.0  -0.2106
  C  C150  1  0.717900  0.750600  0.816900  1.0  0.3871
  C  C151  1  0.635500  0.746300  0.756100  1.0  -0.1718
  C  C152  1  0.558500  0.671000  0.709600  1.0  0.028
  C  C153  1  0.215000  0.581100  0.800400  1.0  -0.0408
  C  C154  1  0.253800  0.748000  0.855000  1.0  0.0436
  C  C155  1  0.242000  0.832900  0.901500  1.0  -0.1713
  C  C156  1  0.178900  0.852300  0.953700  1.0  0.402
  C  C157  1  0.127200  0.775200  0.949400  1.0  -0.2177
  C  C158  1  0.138700  0.690500  0.898100  1.0  0.0539
  C  C159  1  0.169000  0.517300  0.476500  1.0  -0.0573
  C  C160  1  0.108500  0.353900  0.426400  1.0  0.0746
  C  C161  1  0.077800  0.262600  0.362200  1.0  -0.1831
  C  C162  1  0.073300  0.229200  0.269400  1.0  0.3414
  C  C163  1  0.090800  0.297800  0.246000  1.0  -0.2266
  C  C164  1  0.118400  0.389000  0.314200  1.0  0.0676
  C  C165  1  0.430900  0.218200  0.836300  1.0  -0.3444
  C  C166  1  0.360800  0.971800  0.500500  1.0  -0.3504
  C  C167  1  0.090500  0.039900  0.626400  1.0  -0.3501
  C  C168  1  0.392400  0.096100  0.668800  1.0  -0.0962
  C  C169  1  0.328600  0.025100  0.582000  1.0  0.067
  C  C170  1  0.230500  0.003500  0.571100  1.0  -0.0333
  C  C171  1  0.197600  0.057500  0.642400  1.0  -0.0083
  C  C172  1  0.260100  0.129400  0.727900  1.0  0.0041
  C  C173  1  0.358900  0.144700  0.741600  1.0  0.0427
  C  C174  1  0.497400  0.121300  0.681200  1.0  -0.0332
  C  C175  1  0.643000  0.122600  0.782700  1.0  0.0694
  C  C176  1  0.702300  0.081200  0.813100  1.0  -0.2137
  C  C177  1  0.674500  0.983200  0.773700  1.0  0.3433
  C  C178  1  0.583500  0.938200  0.709300  1.0  -0.1592
  C  C179  1  0.526700  0.985100  0.683300  1.0  0.0749
  C  C180  1  0.165000  0.920400  0.482400  1.0  -0.1314
  C  C181  1  0.147300  0.013700  0.407900  1.0  0.0825
  C  C182  1  0.129400  0.022400  0.331600  1.0  -0.138
  C  C183  1  0.105500  0.946200  0.242900  1.0  0.3776
  C  C184  1  0.100400  0.859200  0.236700  1.0  -0.1957
  C  C185  1  0.121600  0.855500  0.314800  1.0  0.0571
  C  C186  1  0.224100  0.194200  0.802900  1.0  -0.0662
  C  C187  1  0.142900  0.207000  0.913400  1.0  0.077
  C  C188  1  0.100600  0.176000  0.956900  1.0  -0.1724
  C  C189  1  0.092200  0.084700  0.935800  1.0  0.341
  C  C190  1  0.139100  0.033600  0.875700  1.0  -0.1635
  C  C191  1  0.183600  0.070500  0.835800  1.0  0.0865
  C  C192  1  0.641200  0.509200  0.508800  1.0  -0.3479
  C  C193  1  0.585900  0.422400  0.174300  1.0  -0.3303
  C  C194  1  0.904800  0.437900  0.369400  1.0  -0.3558
  C  C195  1  0.675100  0.480200  0.426100  1.0  0.0459
  C  C196  1  0.617900  0.465700  0.342000  1.0  -0.1372
  C  C197  1  0.650900  0.440100  0.266000  1.0  0.049
  C  C198  1  0.744800  0.433900  0.275600  1.0  -0.0232
  C  C199  1  0.803800  0.446500  0.359900  1.0  0.0109
  C  C200  1  0.768000  0.467700  0.433000  1.0  -0.0704
  C  C201  1  0.520900  0.485300  0.335200  1.0  -0.0436
  C  C202  1  0.358500  0.402000  0.226200  1.0  0.0369
  C  C203  1  0.281700  0.328100  0.177100  1.0  -0.2114
  C  C204  1  0.282100  0.249400  0.183100  1.0  0.3872
  C  C205  1  0.364500  0.253700  0.243900  1.0  -0.1726
  C  C206  1  0.441500  0.329000  0.290400  1.0  0.0275
  C  C207  1  0.785000  0.418900  0.199600  1.0  -0.0413
  C  C208  1  0.746200  0.252000  0.145000  1.0  0.0456
  C  C209  1  0.758000  0.167100  0.098500  1.0  -0.1689
  C  C210  1  0.821100  0.147700  0.046300  1.0  0.4023
  C  C211  1  0.872800  0.224800  0.050600  1.0  -0.2177
  C  C212  1  0.861300  0.309500  0.101900  1.0  0.0518
  C  C213  1  0.831000  0.482700  0.523500  1.0  -0.0563
  C  C214  1  0.891500  0.646100  0.573600  1.0  0.0755
  C  C215  1  0.922200  0.737400  0.637800  1.0  -0.1811
  C  C216  1  0.926700  0.770800  0.730600  1.0  0.34
  C  C217  1  0.909200  0.702200  0.754000  1.0  -0.2261
  C  C218  1  0.881600  0.611000  0.685800  1.0  0.0685
  C  C219  1  0.792700  0.691700  0.355500  1.0  0.4428
  C  C220  1  0.538000  0.733500  0.431200  1.0  0.3848
  C  C221  1  0.661000  0.492000  0.963000  1.0  0.4871
  C  C222  1  0.207300  0.308300  0.644500  1.0  0.4425
  C  C223  1  0.462000  0.266500  0.568800  1.0  0.3855
  C  C224  1  0.339000  0.508000  0.037000  1.0  0.4891
  S  S225  1  0.921700  0.728000  0.395900  1.0  1.2403
  S  S226  1  0.440800  0.707900  0.463100  1.0  1.2138
  S  S227  1  0.710700  0.398900  0.951900  1.0  1.2735
  S  S228  1  0.078300  0.272000  0.604100  1.0  1.2386
  S  S229  1  0.559200  0.292100  0.536900  1.0  1.2163
  S  S230  1  0.289300  0.601100  0.048100  1.0  1.2746
  N  N231  1  0.559800  0.597700  0.718500  1.0  0.0325
  N  N232  1  0.132800  0.417100  0.403900  1.0  0.0163
  N  N233  1  0.201600  0.675700  0.850500  1.0  0.0182
  N  N234  1  0.816100  0.845400  0.149000  1.0  0.0487
  N  N235  1  0.854900  0.068000  0.599400  1.0  -0.0099
  N  N236  1  0.445800  0.924700  0.281400  1.0  0.0478
  N  N237  1  0.440200  0.402300  0.281500  1.0  0.0309
  N  N238  1  0.867200  0.582900  0.596100  1.0  0.0169
  N  N239  1  0.798400  0.324300  0.149500  1.0  0.017
  N  N240  1  0.183900  0.154600  0.851000  1.0  0.0472
  N  N241  1  0.145100  0.932000  0.400600  1.0  -0.0097
  N  N242  1  0.554200  0.075300  0.718600  1.0  0.0461
  O  O243  1  0.790100  0.822200  0.864500  1.0  -0.7056
  O  O244  1  0.054500  0.143000  0.211300  1.0  -0.6641
  O  O245  1  0.169900  0.932800  0.999600  1.0  -0.6878
  O  O246  1  0.955200  0.948700  0.025500  1.0  -0.7015
  O  O247  1  0.908200  0.048100  0.829200  1.0  -0.6677
  O  O248  1  0.271000  0.058800  0.202200  1.0  -0.6689
  O  O249  1  0.209900  0.177800  0.135500  1.0  -0.7056
  O  O250  1  0.945500  0.857000  0.788700  1.0  -0.6659
  O  O251  1  0.830100  0.067200  0.000400  1.0  -0.6868
  O  O252  1  0.044800  0.051300  0.974500  1.0  -0.7022
  O  O253  1  0.091800  0.951900  0.170800  1.0  -0.6657
  O  O254  1  0.729000  0.941200  0.797800  1.0  -0.6717
  O  O255  1  0.943600  0.745900  0.328200  1.0  -0.6351
  O  O256  1  0.945500  0.648800  0.393200  1.0  -0.5569
  O  O257  1  0.943400  0.807000  0.485000  1.0  -0.5568
  O  O258  1  0.387100  0.616800  0.383700  1.0  -0.6411
  O  O259  1  0.477000  0.706600  0.542600  1.0  -0.549
  O  O260  1  0.398700  0.777800  0.467900  1.0  -0.5757
  O  O261  1  0.656800  0.348500  0.977700  1.0  -0.5624
  O  O262  1  0.807700  0.450000  0.015600  1.0  -0.6456
  O  O263  1  0.698400  0.345700  0.853600  1.0  -0.6264
  O  O264  1  0.056400  0.254100  0.671800  1.0  -0.6346
  O  O265  1  0.054500  0.351200  0.606800  1.0  -0.5549
  O  O266  1  0.056600  0.193000  0.515000  1.0  -0.5564
  O  O267  1  0.612900  0.383200  0.616300  1.0  -0.6435
  O  O268  1  0.523000  0.293400  0.457400  1.0  -0.5487
  O  O269  1  0.601300  0.222200  0.532100  1.0  -0.5778
  O  O270  1  0.343200  0.651500  0.022300  1.0  -0.564
  O  O271  1  0.192300  0.550000  0.984400  1.0  -0.6424
  O  O272  1  0.301600  0.654300  0.146400  1.0  -0.6286
  F  F273  1  0.757700  0.761100  0.363700  1.0  -0.2028
  F  F274  1  0.759100  0.624800  0.267100  1.0  -0.2162
  F  F275  1  0.762600  0.660000  0.403400  1.0  -0.1979
  F  F276  1  0.586400  0.819600  0.486600  1.0  -0.2047
  F  F277  1  0.604300  0.689500  0.448700  1.0  -0.2718
  F  F278  1  0.528200  0.710500  0.352800  1.0  -0.25
  F  F279  1  0.569100  0.457500  0.903500  1.0  -0.2104
  F  F280  1  0.704000  0.548900  0.946500  1.0  -0.1871
  F  F281  1  0.661200  0.545100  0.050100  1.0  -0.1845
  F  F282  1  0.242300  0.238900  0.636300  1.0  -0.203
  F  F283  1  0.240900  0.375200  0.732900  1.0  -0.2172
  F  F284  1  0.237400  0.340000  0.596600  1.0  -0.198
  F  F285  1  0.413600  0.180400  0.513400  1.0  -0.2046
  F  F286  1  0.395700  0.310500  0.551300  1.0  -0.2702
  F  F287  1  0.471800  0.289500  0.647200  1.0  -0.2493
  F  F288  1  0.430900  0.542500  0.096500  1.0  -0.2118
  F  F289  1  0.296000  0.451100  0.053500  1.0  -0.1873
  F  F290  1  0.338800  0.454900  0.949900  1.0  -0.1861
