# generated using pymatgen
data_GdH54C57S3N6(O5F3)3
_symmetry_space_group_name_H-M   'P 1'
_cell_length_a   14.93650000
_cell_length_b   17.13610000
_cell_length_c   17.30160000
_cell_angle_alpha   118.50900000
_cell_angle_beta   103.35400000
_cell_angle_gamma   96.64000000
_symmetry_Int_Tables_number   1
_chemical_formula_structural   GdH54C57S3N6(O5F3)3
_chemical_formula_sum   'Gd2 H108 C114 S6 N12 O30 F18'
_cell_volume   3651.69384079
_cell_formula_units_Z   2
loop_
 _symmetry_equiv_pos_site_id
 _symmetry_equiv_pos_as_xyz
  1  'x, y, z'
loop_
 _atom_site_type_symbol
 _atom_site_label
 _atom_site_symmetry_multiplicity
 _atom_site_fract_x
 _atom_site_fract_y
 _atom_site_fract_z
 _atom_site_occupancy
 _atom_site_charge
  Gd  Gd1  1  0.880790  0.458390  0.392040  1.0  2.2093
  Gd  Gd2  1  0.119210  0.541610  0.607960  1.0  2.2083
  H  H3  1  0.904200  0.885300  0.811000  1.0  0.0993
  H  H4  1  0.928200  0.929000  0.918700  1.0  0.1102
  H  H5  1  0.943700  0.992200  0.878200  1.0  0.1191
  H  H6  1  0.645300  0.074300  0.038100  1.0  0.1155
  H  H7  1  0.679100  0.997200  0.051900  1.0  0.1136
  H  H8  1  0.575200  0.976200  0.988100  1.0  0.1023
  H  H9  1  0.586200  0.978800  0.677900  1.0  0.1192
  H  H10  1  0.521900  0.891400  0.664900  1.0  0.1039
  H  H11  1  0.607000  0.882600  0.625200  1.0  0.1101
  H  H12  1  0.793700  0.952800  0.046000  1.0  0.0854
  H  H13  1  0.883200  0.956300  0.013700  1.0  0.1061
  H  H14  1  0.886100  0.125600  0.011200  1.0  0.0978
  H  H15  1  0.936700  0.278800  0.118500  1.0  0.1104
  H  H16  1  0.919500  0.220800  0.316500  1.0  0.1187
  H  H17  1  0.868700  0.068900  0.204100  1.0  0.1119
  H  H18  1  0.517500  0.022800  0.896400  1.0  0.0801
  H  H19  1  0.513700  0.021300  0.804400  1.0  0.0989
  H  H20  1  0.496300  0.828600  0.828600  1.0  0.1023
  H  H21  1  0.368200  0.703700  0.751600  1.0  0.1063
  H  H22  1  0.226900  0.829200  0.639300  1.0  0.1083
  H  H23  1  0.356200  0.952400  0.721100  1.0  0.108
  H  H24  1  0.740600  0.927100  0.654900  1.0  0.102
  H  H25  1  0.844500  0.962800  0.724900  1.0  0.0999
  H  H26  1  0.704700  0.762300  0.678800  1.0  0.1072
  H  H27  1  0.723000  0.618400  0.597700  1.0  0.1183
  H  H28  1  0.918800  0.717300  0.521500  1.0  0.1124
  H  H29  1  0.895000  0.858400  0.602200  1.0  0.1118
  H  H30  1  0.513400  0.301600  0.650900  1.0  0.1092
  H  H31  1  0.597500  0.269500  0.615100  1.0  0.1106
  H  H32  1  0.552000  0.225500  0.663000  1.0  0.1147
  H  H33  1  0.940300  0.456800  0.926500  1.0  0.1069
  H  H34  1  0.920900  0.414300  0.819500  1.0  0.1053
  H  H35  1  0.934300  0.520100  0.884500  1.0  0.1129
  H  H36  1  0.570500  0.506200  0.982000  1.0  0.1258
  H  H37  1  0.669000  0.519700  0.049700  1.0  0.1099
  H  H38  1  0.654900  0.592500  0.020800  1.0  0.1194
  H  H39  1  0.495700  0.393100  0.877800  1.0  0.093
  H  H40  1  0.477800  0.311800  0.776400  1.0  0.0944
  H  H41  1  0.532700  0.550600  0.862400  1.0  0.1027
  H  H42  1  0.436300  0.624500  0.817300  1.0  0.1063
  H  H43  1  0.237700  0.385100  0.640700  1.0  0.103
  H  H44  1  0.337700  0.313900  0.689800  1.0  0.1058
  H  H45  1  0.809800  0.631700  0.031400  1.0  0.0882
  H  H46  1  0.896100  0.592600  0.008500  1.0  0.0924
  H  H47  1  0.882500  0.701700  0.191600  1.0  0.115
  H  H48  1  0.917200  0.693900  0.322000  1.0  0.1174
  H  H49  1  0.867500  0.418600  0.160000  1.0  0.1117
  H  H50  1  0.837500  0.433500  0.033400  1.0  0.0924
  H  H51  1  0.724200  0.252400  0.651500  1.0  0.1134
  H  H52  1  0.824900  0.287400  0.726400  1.0  0.1
  H  H53  1  0.855000  0.233100  0.574300  1.0  0.1194
  H  H54  1  0.926000  0.286700  0.500100  1.0  0.1077
  H  H55  1  0.862500  0.526600  0.638000  1.0  0.1168
  H  H56  1  0.786600  0.466400  0.705500  1.0  0.1015
  H  H57  1  0.095800  0.114700  0.189000  1.0  0.0997
  H  H58  1  0.071800  0.071000  0.081300  1.0  0.1102
  H  H59  1  0.056300  0.007800  0.121800  1.0  0.1198
  H  H60  1  0.354700  0.925700  0.961900  1.0  0.1169
  H  H61  1  0.320900  0.002800  0.948100  1.0  0.1125
  H  H62  1  0.424800  0.023800  0.011900  1.0  0.1023
  H  H63  1  0.413800  0.021200  0.322100  1.0  0.1179
  H  H64  1  0.478100  0.108600  0.335100  1.0  0.1032
  H  H65  1  0.393000  0.117400  0.374800  1.0  0.1101
  H  H66  1  0.206300  0.047200  0.954000  1.0  0.0838
  H  H67  1  0.116800  0.043700  0.986300  1.0  0.1063
  H  H68  1  0.113900  0.874400  0.988800  1.0  0.0967
  H  H69  1  0.063300  0.721200  0.881500  1.0  0.1111
  H  H70  1  0.080500  0.779200  0.683500  1.0  0.1196
  H  H71  1  0.131300  0.931100  0.795900  1.0  0.1125
  H  H72  1  0.482500  0.977200  0.103600  1.0  0.0796
  H  H73  1  0.486300  0.978700  0.195600  1.0  0.0985
  H  H74  1  0.503700  0.171400  0.171400  1.0  0.1022
  H  H75  1  0.631800  0.296300  0.248400  1.0  0.106
  H  H76  1  0.773100  0.170800  0.360700  1.0  0.1087
  H  H77  1  0.643800  0.047600  0.278900  1.0  0.1071
  H  H78  1  0.259400  0.072900  0.345100  1.0  0.1023
  H  H79  1  0.155500  0.037200  0.275100  1.0  0.1015
  H  H80  1  0.295300  0.237700  0.321200  1.0  0.1092
  H  H81  1  0.277000  0.381600  0.402300  1.0  0.1182
  H  H82  1  0.081200  0.282700  0.478500  1.0  0.1127
  H  H83  1  0.105000  0.141600  0.397800  1.0  0.1107
  H  H84  1  0.486600  0.698400  0.349100  1.0  0.1104
  H  H85  1  0.402500  0.730500  0.384900  1.0  0.1145
  H  H86  1  0.448000  0.774500  0.337000  1.0  0.1149
  H  H87  1  0.059700  0.543200  0.073500  1.0  0.107
  H  H88  1  0.079100  0.585700  0.180500  1.0  0.1046
  H  H89  1  0.065700  0.479900  0.115500  1.0  0.1128
  H  H90  1  0.429500  0.493800  0.018000  1.0  0.1275
  H  H91  1  0.331000  0.480300  0.950300  1.0  0.109
  H  H92  1  0.345100  0.407500  0.979200  1.0  0.1214
  H  H93  1  0.504300  0.606900  0.122200  1.0  0.0909
  H  H94  1  0.522200  0.688200  0.223600  1.0  0.0946
  H  H95  1  0.467300  0.449400  0.137600  1.0  0.1025
  H  H96  1  0.563700  0.375500  0.182700  1.0  0.1067
  H  H97  1  0.762300  0.614900  0.359300  1.0  0.1032
  H  H98  1  0.662300  0.686100  0.310200  1.0  0.106
  H  H99  1  0.190200  0.368300  0.968600  1.0  0.0897
  H  H100  1  0.103900  0.407400  0.991500  1.0  0.0926
  H  H101  1  0.117500  0.298300  0.808400  1.0  0.1152
  H  H102  1  0.082800  0.306100  0.678000  1.0  0.1177
  H  H103  1  0.132500  0.581400  0.840000  1.0  0.1118
  H  H104  1  0.162500  0.566500  0.966600  1.0  0.0939
  H  H105  1  0.275800  0.747600  0.348500  1.0  0.1134
  H  H106  1  0.175100  0.712600  0.273600  1.0  0.1002
  H  H107  1  0.145000  0.766900  0.425700  1.0  0.1189
  H  H108  1  0.074000  0.713300  0.499900  1.0  0.1078
  H  H109  1  0.137500  0.473400  0.362000  1.0  0.1166
  H  H110  1  0.213400  0.533600  0.294500  1.0  0.102
  C  C111  1  0.904000  0.937400  0.867500  1.0  -0.3646
  C  C112  1  0.640500  0.009500  0.008500  1.0  -0.3554
  C  C113  1  0.585600  0.921500  0.675300  1.0  -0.3444
  C  C114  1  0.768200  0.968300  0.933700  1.0  -0.0331
  C  C115  1  0.674900  0.979300  0.925500  1.0  0.0388
  C  C116  1  0.617400  0.965600  0.841500  1.0  -0.09
  C  C117  1  0.650700  0.939500  0.765400  1.0  0.0503
  C  C118  1  0.744400  0.933200  0.775900  1.0  -0.0245
  C  C119  1  0.802900  0.946400  0.858900  1.0  0.0681
  C  C120  1  0.830400  0.983500  0.024000  1.0  -0.0367
  C  C121  1  0.891000  0.145900  0.072800  1.0  0.0203
  C  C122  1  0.920500  0.237500  0.136600  1.0  -0.1739
  C  C123  1  0.926900  0.270900  0.231000  1.0  0.3004
  C  C124  1  0.910200  0.203000  0.254700  1.0  -0.1855
  C  C125  1  0.880800  0.112400  0.187600  1.0  0.0818
  C  C126  1  0.520500  0.985500  0.834100  1.0  -0.0643
  C  C127  1  0.441400  0.828200  0.789700  1.0  0.0554
  C  C128  1  0.364500  0.753000  0.742900  1.0  -0.1586
  C  C129  1  0.280600  0.747800  0.682600  1.0  0.3388
  C  C130  1  0.281000  0.827100  0.677100  1.0  -0.1987
  C  C131  1  0.358700  0.900800  0.725800  1.0  0.0376
  C  C132  1  0.783800  0.917600  0.699000  1.0  -0.0642
  C  C133  1  0.748000  0.752700  0.646300  1.0  0.0179
  C  C134  1  0.758700  0.666400  0.597500  1.0  -0.1869
  C  C135  1  0.821700  0.648800  0.547400  1.0  0.4302
  C  C136  1  0.874100  0.724700  0.552200  1.0  -0.2035
  C  C137  1  0.860400  0.809000  0.601200  1.0  0.0791
  C  C138  1  0.569300  0.281100  0.662800  1.0  -0.357
  C  C139  1  0.909400  0.460100  0.873400  1.0  -0.3502
  C  C140  1  0.638400  0.528200  0.000000  1.0  -0.3526
  C  C141  1  0.640500  0.354800  0.756800  1.0  0.071
  C  C142  1  0.738800  0.371700  0.771400  1.0  -0.0253
  C  C143  1  0.802700  0.442900  0.856900  1.0  0.0496
  C  C144  1  0.768200  0.496000  0.928500  1.0  -0.0729
  C  C145  1  0.671100  0.475200  0.917900  1.0  0.0972
  C  C146  1  0.607700  0.404200  0.831200  1.0  -0.0668
  C  C147  1  0.502700  0.377900  0.818200  1.0  -0.0634
  C  C148  1  0.472800  0.517100  0.817700  1.0  0.0313
  C  C149  1  0.414800  0.561200  0.790900  1.0  -0.147
  C  C150  1  0.323500  0.514800  0.724900  1.0  0.4049
  C  C151  1  0.296800  0.419900  0.686300  1.0  -0.1756
  C  C152  1  0.357500  0.377100  0.715400  1.0  0.0222
  C  C153  1  0.836000  0.579200  0.017900  1.0  -0.1425
  C  C154  1  0.879400  0.644600  0.185900  1.0  0.0438
  C  C155  1  0.899400  0.640000  0.264000  1.0  -0.1815
  C  C156  1  0.893700  0.554400  0.258700  1.0  0.3565
  C  C157  1  0.870400  0.476600  0.168000  1.0  -0.1751
  C  C158  1  0.852300  0.485600  0.092100  1.0  0.0678
  C  C159  1  0.775900  0.306800  0.697600  1.0  -0.0683
  C  C160  1  0.857000  0.292600  0.587000  1.0  -0.026
  C  C161  1  0.900300  0.325100  0.543500  1.0  -0.1713
  C  C162  1  0.907400  0.415200  0.562300  1.0  0.33
  C  C163  1  0.862100  0.467000  0.624500  1.0  -0.179
  C  C164  1  0.817200  0.431100  0.665400  1.0  0.0469
  C  C165  1  0.096000  0.062600  0.132500  1.0  -0.3657
  C  C166  1  0.359500  0.990500  0.991500  1.0  -0.3555
  C  C167  1  0.414400  0.078500  0.324700  1.0  -0.346
  C  C168  1  0.231800  0.031700  0.066300  1.0  -0.033
  C  C169  1  0.325100  0.020700  0.074500  1.0  0.0379
  C  C170  1  0.382600  0.034400  0.158500  1.0  -0.091
  C  C171  1  0.349300  0.060500  0.234600  1.0  0.0524
  C  C172  1  0.255600  0.066800  0.224100  1.0  -0.0258
  C  C173  1  0.197100  0.053600  0.141100  1.0  0.0686
  C  C174  1  0.169600  0.016500  0.976000  1.0  -0.0371
  C  C175  1  0.109000  0.854100  0.927200  1.0  0.0207
  C  C176  1  0.079500  0.762500  0.863400  1.0  -0.1761
  C  C177  1  0.073100  0.729100  0.769000  1.0  0.3003
  C  C178  1  0.089800  0.797000  0.745300  1.0  -0.1859
  C  C179  1  0.119200  0.887600  0.812400  1.0  0.0816
  C  C180  1  0.479500  0.014500  0.165900  1.0  -0.0634
  C  C181  1  0.558600  0.171800  0.210300  1.0  0.0563
  C  C182  1  0.635500  0.247000  0.257100  1.0  -0.159
  C  C183  1  0.719400  0.252200  0.317400  1.0  0.3388
  C  C184  1  0.719000  0.172900  0.322900  1.0  -0.1977
  C  C185  1  0.641300  0.099200  0.274200  1.0  0.0359
  C  C186  1  0.216200  0.082400  0.301000  1.0  -0.0656
  C  C187  1  0.252000  0.247300  0.353700  1.0  0.0195
  C  C188  1  0.241300  0.333600  0.402500  1.0  -0.1879
  C  C189  1  0.178300  0.351200  0.452600  1.0  0.4323
  C  C190  1  0.125900  0.275300  0.447800  1.0  -0.2052
  C  C191  1  0.139600  0.191000  0.398800  1.0  0.0807
  C  C192  1  0.430700  0.718900  0.337200  1.0  -0.3566
  C  C193  1  0.090600  0.539900  0.126600  1.0  -0.3526
  C  C194  1  0.361600  0.471800  0.000000  1.0  -0.353
  C  C195  1  0.359500  0.645200  0.243200  1.0  0.0725
  C  C196  1  0.261200  0.628300  0.228600  1.0  -0.0248
  C  C197  1  0.197300  0.557100  0.143100  1.0  0.0514
  C  C198  1  0.231800  0.504000  0.071500  1.0  -0.0736
  C  C199  1  0.328900  0.524800  0.082100  1.0  0.0984
  C  C200  1  0.392300  0.595800  0.168800  1.0  -0.0668
  C  C201  1  0.497300  0.622100  0.181800  1.0  -0.059
  C  C202  1  0.527200  0.482900  0.182300  1.0  0.0333
  C  C203  1  0.585200  0.438800  0.209100  1.0  -0.1446
  C  C204  1  0.676500  0.485200  0.275100  1.0  0.405
  C  C205  1  0.703200  0.580100  0.313700  1.0  -0.1764
  C  C206  1  0.642500  0.622900  0.284600  1.0  0.0195
  C  C207  1  0.164000  0.420800  0.982100  1.0  -0.1401
  C  C208  1  0.120600  0.355400  0.814100  1.0  0.0421
  C  C209  1  0.100600  0.360000  0.736000  1.0  -0.1815
  C  C210  1  0.106300  0.445600  0.741300  1.0  0.3587
  C  C211  1  0.129600  0.523400  0.832000  1.0  -0.1748
  C  C212  1  0.147700  0.514400  0.907900  1.0  0.068
  C  C213  1  0.224100  0.693200  0.302400  1.0  -0.07
  C  C214  1  0.143000  0.707400  0.413000  1.0  -0.0276
  C  C215  1  0.099700  0.674900  0.456500  1.0  -0.1701
  C  C216  1  0.092600  0.584800  0.437700  1.0  0.3292
  C  C217  1  0.137900  0.533000  0.375500  1.0  -0.1787
  C  C218  1  0.182800  0.568900  0.334600  1.0  0.0452
  C  C219  1  0.458100  0.762600  0.063200  1.0  0.5064
  C  C220  1  0.793800  0.190500  0.854500  1.0  0.4869
  C  C221  1  0.656300  0.991200  0.462100  1.0  0.5075
  C  C222  1  0.541900  0.237400  0.936800  1.0  0.5062
  C  C223  1  0.206200  0.809500  0.145500  1.0  0.4863
  C  C224  1  0.343700  0.008800  0.537900  1.0  0.5098
  S  S225  1  0.561400  0.792500  0.037500  1.0  1.1912
  S  S226  1  0.921090  0.227660  0.895030  1.0  1.2732
  S  S227  1  0.710600  0.898810  0.451150  1.0  1.3215
  S  S228  1  0.438600  0.207500  0.962500  1.0  1.1875
  S  S229  1  0.078910  0.772340  0.104970  1.0  1.2705
  S  S230  1  0.289400  0.101190  0.548850  1.0  1.3221
  N  N231  1  0.444800  0.424500  0.780100  1.0  0.0299
  N  N232  1  0.855100  0.568300  0.100000  1.0  -0.0028
  N  N233  1  0.816200  0.346500  0.649200  1.0  0.0252
  N  N234  1  0.439200  0.901200  0.780600  1.0  -0.0065
  N  N235  1  0.868500  0.083100  0.096400  1.0  0.0056
  N  N236  1  0.798000  0.823700  0.648700  1.0  0.028
  N  N237  1  0.555200  0.575500  0.219900  1.0  0.0279
  N  N238  1  0.144900  0.431700  0.900000  1.0  -0.0015
  N  N239  1  0.183800  0.653500  0.350800  1.0  0.0249
  N  N240  1  0.560800  0.098800  0.219400  1.0  -0.006
  N  N241  1  0.131500  0.916900  0.903600  1.0  0.0043
  N  N242  1  0.202000  0.176300  0.351300  1.0  0.0268
  O  O243  1  0.269800  0.559300  0.703600  1.0  -0.6875
  O  O244  1  0.909000  0.549200  0.331000  1.0  -0.6995
  O  O245  1  0.955100  0.449500  0.525400  1.0  -0.6923
  O  O246  1  0.209100  0.676600  0.635100  1.0  -0.703
  O  O247  1  0.832100  0.567400  0.500100  1.0  -0.6872
  O  O248  1  0.945000  0.357800  0.289500  1.0  -0.6957
  O  O249  1  0.730200  0.440700  0.296400  1.0  -0.6905
  O  O250  1  0.091000  0.450800  0.669000  1.0  -0.6987
  O  O251  1  0.044900  0.550500  0.474600  1.0  -0.6926
  O  O252  1  0.790900  0.323400  0.364900  1.0  -0.7031
  O  O253  1  0.167900  0.432600  0.499900  1.0  -0.6862
  O  O254  1  0.055000  0.642200  0.710500  1.0  -0.6959
  O  O255  1  0.601700  0.721100  0.030500  1.0  -0.5847
  O  O256  1  0.614600  0.885000  0.117400  1.0  -0.6758
  O  O257  1  0.518600  0.794200  0.956100  1.0  -0.5873
  O  O258  1  0.944300  0.246200  0.828300  1.0  -0.6088
  O  O259  1  0.943500  0.307400  0.985600  1.0  -0.5478
  O  O260  1  0.947100  0.149200  0.894200  1.0  -0.5773
  O  O261  1  0.656300  0.849400  0.478500  1.0  -0.5684
  O  O262  1  0.702600  0.847800  0.355000  1.0  -0.5896
  O  O263  1  0.805900  0.948000  0.513100  1.0  -0.5596
  O  O264  1  0.398300  0.278900  0.969500  1.0  -0.5832
  O  O265  1  0.385400  0.115000  0.882600  1.0  -0.6726
  O  O266  1  0.481400  0.205800  0.043900  1.0  -0.5894
  O  O267  1  0.055700  0.753800  0.171700  1.0  -0.6071
  O  O268  1  0.056500  0.692600  0.014400  1.0  -0.5476
  O  O269  1  0.052900  0.850800  0.105800  1.0  -0.5765
  O  O270  1  0.343700  0.150600  0.521500  1.0  -0.5688
  O  O271  1  0.297400  0.152200  0.645000  1.0  -0.5891
  O  O272  1  0.194100  0.052000  0.486900  1.0  -0.5603
  F  F273  1  0.471000  0.788400  0.151200  1.0  -0.1973
  F  F274  1  0.412700  0.677600  0.011300  1.0  -0.2025
  F  F275  1  0.394000  0.809300  0.045800  1.0  -0.2453
  F  F276  1  0.760500  0.123200  0.764800  1.0  -0.2148
  F  F277  1  0.755900  0.259400  0.862300  1.0  -0.21
  F  F278  1  0.762600  0.159200  0.902100  1.0  -0.2219
  F  F279  1  0.566000  0.956200  0.405200  1.0  -0.1949
  F  F280  1  0.700500  0.046500  0.445900  1.0  -0.1901
  F  F281  1  0.656700  0.040200  0.547200  1.0  -0.2143
  F  F282  1  0.529000  0.211600  0.848800  1.0  -0.1984
  F  F283  1  0.587300  0.322400  0.988700  1.0  -0.2019
  F  F284  1  0.606000  0.190700  0.954200  1.0  -0.2477
  F  F285  1  0.239500  0.876800  0.235200  1.0  -0.214
  F  F286  1  0.244100  0.740600  0.137700  1.0  -0.2114
  F  F287  1  0.237400  0.840800  0.097900  1.0  -0.2208
  F  F288  1  0.434000  0.043800  0.594800  1.0  -0.1931
  F  F289  1  0.299500  0.953500  0.554100  1.0  -0.1886
  F  F290  1  0.343300  0.959800  0.452800  1.0  -0.2145
