# generated using pymatgen
data_CdH32C27(NO2)2
_symmetry_space_group_name_H-M   'P 1'
_cell_length_a   13.18850000
_cell_length_b   18.11290000
_cell_length_c   24.84100000
_cell_angle_alpha   90.00000000
_cell_angle_beta   90.00000000
_cell_angle_gamma   90.00000000
_symmetry_Int_Tables_number   1
_chemical_formula_structural   CdH32C27(NO2)2
_chemical_formula_sum   'Cd8 H256 C216 N16 O32'
_cell_volume   5934.06730617
_cell_formula_units_Z   8
loop_
 _symmetry_equiv_pos_site_id
 _symmetry_equiv_pos_as_xyz
  1  'x, y, z'
loop_
 _atom_site_type_symbol
 _atom_site_label
 _atom_site_symmetry_multiplicity
 _atom_site_fract_x
 _atom_site_fract_y
 _atom_site_fract_z
 _atom_site_occupancy
 _atom_site_charge
  Cd  Cd1  1  0.832740  0.979390  0.324560  1.0  0.9763
  Cd  Cd2  1  0.913300  0.897830  0.848360  1.0  0.9882
  Cd  Cd3  1  0.667260  0.020610  0.824560  1.0  0.9761
  Cd  Cd4  1  0.586700  0.102170  0.348360  1.0  0.9855
  Cd  Cd5  1  0.167260  0.479390  0.175440  1.0  0.9753
  Cd  Cd6  1  0.086700  0.397830  0.651640  1.0  0.9871
  Cd  Cd7  1  0.332740  0.520610  0.675440  1.0  0.9758
  Cd  Cd8  1  0.413300  0.602170  0.151640  1.0  0.9863
  H  H9  1  0.048000  0.789700  0.272000  1.0  0.1012
  H  H10  1  0.945300  0.760300  0.249200  1.0  0.1165
  H  H11  1  0.108300  0.723300  0.188300  1.0  0.0694
  H  H12  1  0.999000  0.715100  0.164000  1.0  0.0921
  H  H13  1  0.957500  0.770700  0.077300  1.0  0.1004
  H  H14  1  0.040500  0.805500  0.040200  1.0  0.0841
  H  H15  1  0.942100  0.903700  0.075400  1.0  0.0886
  H  H16  1  0.887700  0.825000  0.153100  1.0  0.0879
  H  H17  1  0.924000  0.901800  0.175200  1.0  0.0828
  H  H18  1  0.097200  0.916100  0.209200  1.0  0.0864
  H  H19  1  0.168200  0.847800  0.218800  1.0  0.0698
  H  H20  1  0.103800  0.928400  0.071200  1.0  0.0816
  H  H21  1  0.058500  0.961800  0.123700  1.0  0.0776
  H  H22  1  0.226100  0.913100  0.141500  1.0  0.0859
  H  H23  1  0.242600  0.782900  0.128900  1.0  0.0728
  H  H24  1  0.209200  0.818800  0.074400  1.0  0.0907
  H  H25  1  0.180900  0.696000  0.056200  1.0  0.1321
  H  H26  1  0.070200  0.668400  0.063700  1.0  0.1309
  H  H27  1  0.652000  0.875000  0.262300  1.0  0.1155
  H  H28  1  0.534200  0.867400  0.267900  1.0  0.1188
  H  H29  1  0.464100  0.990300  0.193800  1.0  0.0811
  H  H30  1  0.419400  0.909900  0.191200  1.0  0.0915
  H  H31  1  0.658400  0.815200  0.178100  1.0  0.0752
  H  H32  1  0.541400  0.800100  0.181300  1.0  0.0801
  H  H33  1  0.425300  0.838600  0.104900  1.0  0.0833
  H  H34  1  0.470800  0.874600  0.052600  1.0  0.1035
  H  H35  1  0.401400  0.966400  0.107200  1.0  0.0865
  H  H36  1  0.537700  0.003000  0.058200  1.0  0.093
  H  H37  1  0.532900  0.046400  0.112900  1.0  0.0816
  H  H38  1  0.732900  0.874500  0.099200  1.0  0.0789
  H  H39  1  0.667200  0.895900  0.048900  1.0  0.0964
  H  H40  1  0.701900  0.004100  0.098000  1.0  0.0845
  H  H41  1  0.723900  0.946700  0.182100  1.0  0.0797
  H  H42  1  0.647200  0.012400  0.187900  1.0  0.079
  H  H43  1  0.595500  0.768500  0.041800  1.0  0.0978
  H  H44  1  0.675100  0.750800  0.086900  1.0  0.0911
  H  H45  1  0.033200  0.035700  0.265400  1.0  0.0855
  H  H46  1  0.092100  0.114100  0.196900  1.0  0.1373
  H  H47  1  0.807900  0.170100  0.167400  1.0  0.1072
  H  H48  1  0.756800  0.093300  0.233900  1.0  0.0813
  H  H49  1  0.069500  0.199200  0.129500  1.0  0.0872
  H  H50  1  0.972600  0.249100  0.133000  1.0  0.0967
  H  H51  1  0.814400  0.714300  0.530100  1.0  0.0881
  H  H52  1  0.788300  0.784300  0.563800  1.0  0.112
  H  H53  1  0.719300  0.762200  0.453200  1.0  0.1343
  H  H54  1  0.714400  0.841500  0.381900  1.0  0.068
  H  H55  1  0.947600  0.949800  0.436300  1.0  0.1139
  H  H56  1  0.961100  0.869900  0.505700  1.0  0.0928
  H  H57  1  0.799300  0.966900  0.956000  1.0  0.0979
  H  H58  1  0.829500  0.042000  0.026100  1.0  0.1062
  H  H59  1  0.113000  0.063900  0.978800  1.0  0.1003
  H  H60  1  0.078800  0.995400  0.907000  1.0  0.0982
  H  H61  1  0.085700  0.111600  0.059400  1.0  0.0985
  H  H62  1  0.005900  0.068900  0.094000  1.0  0.0924
  H  H63  1  0.977300  0.206900  0.047300  1.0  0.0711
  H  H64  1  0.889100  0.163000  0.075400  1.0  0.0698
  H  H65  1  0.958000  0.799900  0.581300  1.0  0.0864
  H  H66  1  0.980200  0.726700  0.550100  1.0  0.083
  H  H67  1  0.856200  0.682100  0.618700  1.0  0.0868
  H  H68  1  0.973600  0.674900  0.623500  1.0  0.1047
  H  H69  1  0.803800  0.695200  0.706600  1.0  0.1094
  H  H70  1  0.805000  0.758900  0.787900  1.0  0.0768
  H  H71  1  0.031900  0.876000  0.736600  1.0  0.0746
  H  H72  1  0.035400  0.810900  0.656100  1.0  0.1283
  H  H73  1  0.452000  0.210300  0.772000  1.0  0.1014
  H  H74  1  0.554700  0.239700  0.749200  1.0  0.1151
  H  H75  1  0.391700  0.276700  0.688300  1.0  0.0696
  H  H76  1  0.501000  0.284900  0.664000  1.0  0.0918
  H  H77  1  0.542500  0.229300  0.577300  1.0  0.1033
  H  H78  1  0.459500  0.194500  0.540200  1.0  0.0836
  H  H79  1  0.557900  0.096300  0.575400  1.0  0.09
  H  H80  1  0.612300  0.175000  0.653100  1.0  0.0882
  H  H81  1  0.576000  0.098200  0.675200  1.0  0.0841
  H  H82  1  0.402800  0.083900  0.709200  1.0  0.0896
  H  H83  1  0.331800  0.152200  0.718800  1.0  0.072
  H  H84  1  0.396200  0.071600  0.571200  1.0  0.0804
  H  H85  1  0.441500  0.038200  0.623700  1.0  0.0783
  H  H86  1  0.273900  0.086900  0.641500  1.0  0.0872
  H  H87  1  0.257400  0.217100  0.628900  1.0  0.0698
  H  H88  1  0.290800  0.181200  0.574400  1.0  0.089
  H  H89  1  0.319100  0.304000  0.556200  1.0  0.1305
  H  H90  1  0.429800  0.331600  0.563700  1.0  0.1268
  H  H91  1  0.848000  0.125000  0.762300  1.0  0.1145
  H  H92  1  0.965800  0.132600  0.767900  1.0  0.1186
  H  H93  1  0.035900  0.009700  0.693800  1.0  0.0838
  H  H94  1  0.080600  0.090100  0.691200  1.0  0.092
  H  H95  1  0.841600  0.184800  0.678100  1.0  0.074
  H  H96  1  0.958600  0.199900  0.681300  1.0  0.0796
  H  H97  1  0.074700  0.161400  0.604900  1.0  0.0861
  H  H98  1  0.029200  0.125400  0.552600  1.0  0.104
  H  H99  1  0.098600  0.033600  0.607200  1.0  0.0856
  H  H100  1  0.962300  0.997000  0.558200  1.0  0.093
  H  H101  1  0.967100  0.953600  0.612900  1.0  0.0851
  H  H102  1  0.767100  0.125500  0.599200  1.0  0.0771
  H  H103  1  0.832800  0.104100  0.548900  1.0  0.0958
  H  H104  1  0.798100  0.995900  0.598000  1.0  0.0843
  H  H105  1  0.776100  0.053300  0.682100  1.0  0.0748
  H  H106  1  0.852800  0.987600  0.687900  1.0  0.0801
  H  H107  1  0.904500  0.231500  0.541800  1.0  0.0982
  H  H108  1  0.824900  0.249200  0.586900  1.0  0.0918
  H  H109  1  0.466800  0.964300  0.765400  1.0  0.0856
  H  H110  1  0.407900  0.885900  0.696900  1.0  0.1312
  H  H111  1  0.692100  0.829900  0.667400  1.0  0.1073
  H  H112  1  0.743200  0.906700  0.733900  1.0  0.0808
  H  H113  1  0.430500  0.800800  0.629500  1.0  0.0894
  H  H114  1  0.527400  0.750900  0.633000  1.0  0.0964
  H  H115  1  0.685600  0.285700  0.030100  1.0  0.0936
  H  H116  1  0.711700  0.215700  0.063800  1.0  0.11
  H  H117  1  0.780700  0.237800  0.953200  1.0  0.135
  H  H118  1  0.785600  0.158500  0.881900  1.0  0.0682
  H  H119  1  0.552400  0.050200  0.936300  1.0  0.1129
  H  H120  1  0.538900  0.130100  0.005700  1.0  0.0931
  H  H121  1  0.700700  0.033100  0.456000  1.0  0.0982
  H  H122  1  0.670500  0.958000  0.526100  1.0  0.1063
  H  H123  1  0.387000  0.936100  0.478800  1.0  0.1005
  H  H124  1  0.421200  0.004600  0.407000  1.0  0.0984
  H  H125  1  0.414300  0.888400  0.559400  1.0  0.0939
  H  H126  1  0.494100  0.931100  0.594000  1.0  0.0943
  H  H127  1  0.522700  0.793100  0.547300  1.0  0.0705
  H  H128  1  0.610900  0.837000  0.575400  1.0  0.0692
  H  H129  1  0.542000  0.200100  0.081300  1.0  0.0882
  H  H130  1  0.519800  0.273300  0.050100  1.0  0.0819
  H  H131  1  0.643800  0.317900  0.118700  1.0  0.0897
  H  H132  1  0.526400  0.325100  0.123500  1.0  0.1044
  H  H133  1  0.696200  0.304800  0.206600  1.0  0.1099
  H  H134  1  0.695000  0.241100  0.287900  1.0  0.0766
  H  H135  1  0.468100  0.124000  0.236600  1.0  0.074
  H  H136  1  0.464600  0.189100  0.156100  1.0  0.1281
  H  H137  1  0.952000  0.289700  0.228000  1.0  0.1013
  H  H138  1  0.054700  0.260300  0.250800  1.0  0.1164
  H  H139  1  0.891700  0.223300  0.311700  1.0  0.0694
  H  H140  1  0.001000  0.215100  0.336000  1.0  0.0932
  H  H141  1  0.042500  0.270700  0.422700  1.0  0.1031
  H  H142  1  0.959500  0.305500  0.459800  1.0  0.0837
  H  H143  1  0.057900  0.403700  0.424600  1.0  0.0886
  H  H144  1  0.112300  0.325000  0.346900  1.0  0.0882
  H  H145  1  0.076000  0.401800  0.324800  1.0  0.0839
  H  H146  1  0.902800  0.416100  0.290800  1.0  0.0874
  H  H147  1  0.831800  0.347800  0.281200  1.0  0.0713
  H  H148  1  0.896200  0.428400  0.428800  1.0  0.0801
  H  H149  1  0.941500  0.461800  0.376300  1.0  0.0783
  H  H150  1  0.773900  0.413100  0.358500  1.0  0.0874
  H  H151  1  0.757400  0.282900  0.371100  1.0  0.0704
  H  H152  1  0.790800  0.318800  0.425600  1.0  0.0894
  H  H153  1  0.819100  0.196000  0.443800  1.0  0.1305
  H  H154  1  0.929800  0.168400  0.436300  1.0  0.1276
  H  H155  1  0.348000  0.375000  0.237700  1.0  0.114
  H  H156  1  0.465800  0.367400  0.232100  1.0  0.1184
  H  H157  1  0.535900  0.490300  0.306200  1.0  0.0817
  H  H158  1  0.580600  0.409900  0.308800  1.0  0.0919
  H  H159  1  0.341600  0.315200  0.321900  1.0  0.075
  H  H160  1  0.458600  0.300100  0.318700  1.0  0.0796
  H  H161  1  0.574700  0.338600  0.395100  1.0  0.0865
  H  H162  1  0.529200  0.374600  0.447400  1.0  0.1052
  H  H163  1  0.598600  0.466400  0.392800  1.0  0.0854
  H  H164  1  0.462300  0.503000  0.441800  1.0  0.0919
  H  H165  1  0.467100  0.546400  0.387100  1.0  0.0814
  H  H166  1  0.267100  0.374500  0.400800  1.0  0.0765
  H  H167  1  0.332800  0.395900  0.451100  1.0  0.0964
  H  H168  1  0.298100  0.504100  0.402000  1.0  0.0842
  H  H169  1  0.276100  0.446700  0.317900  1.0  0.075
  H  H170  1  0.352800  0.512400  0.312100  1.0  0.0793
  H  H171  1  0.404500  0.268500  0.458200  1.0  0.0969
  H  H172  1  0.324900  0.250800  0.413100  1.0  0.0924
  H  H173  1  0.966800  0.535700  0.234600  1.0  0.0848
  H  H174  1  0.907900  0.614100  0.303100  1.0  0.1317
  H  H175  1  0.192100  0.670100  0.332600  1.0  0.1073
  H  H176  1  0.243200  0.593300  0.266100  1.0  0.081
  H  H177  1  0.930500  0.699200  0.370500  1.0  0.0897
  H  H178  1  0.027400  0.749100  0.367000  1.0  0.0958
  H  H179  1  0.185600  0.214300  0.969900  1.0  0.0895
  H  H180  1  0.211700  0.284300  0.936200  1.0  0.1097
  H  H181  1  0.280700  0.262200  0.046800  1.0  0.1347
  H  H182  1  0.285600  0.341500  0.118100  1.0  0.0684
  H  H183  1  0.052400  0.449800  0.063700  1.0  0.1131
  H  H184  1  0.038900  0.369900  0.994300  1.0  0.094
  H  H185  1  0.200700  0.466900  0.544000  1.0  0.0976
  H  H186  1  0.170500  0.542000  0.473900  1.0  0.1062
  H  H187  1  0.887000  0.563900  0.521200  1.0  0.1011
  H  H188  1  0.921200  0.495400  0.593000  1.0  0.0988
  H  H189  1  0.914300  0.611600  0.440600  1.0  0.0937
  H  H190  1  0.994100  0.568900  0.406000  1.0  0.0929
  H  H191  1  0.022700  0.706900  0.452700  1.0  0.0701
  H  H192  1  0.110900  0.663000  0.424600  1.0  0.0696
  H  H193  1  0.042000  0.299900  0.918700  1.0  0.088
  H  H194  1  0.019800  0.226700  0.949900  1.0  0.0814
  H  H195  1  0.143800  0.182100  0.881300  1.0  0.0889
  H  H196  1  0.026400  0.174900  0.876500  1.0  0.104
  H  H197  1  0.196200  0.195200  0.793400  1.0  0.1097
  H  H198  1  0.195000  0.258900  0.712100  1.0  0.0775
  H  H199  1  0.968100  0.376000  0.763400  1.0  0.0744
  H  H200  1  0.964600  0.310900  0.843900  1.0  0.1286
  H  H201  1  0.548000  0.710300  0.728000  1.0  0.1012
  H  H202  1  0.445300  0.739700  0.750800  1.0  0.1165
  H  H203  1  0.608300  0.776700  0.811700  1.0  0.0688
  H  H204  1  0.499000  0.784900  0.836000  1.0  0.0921
  H  H205  1  0.457500  0.729300  0.922700  1.0  0.1013
  H  H206  1  0.540500  0.694500  0.959800  1.0  0.0842
  H  H207  1  0.442100  0.596300  0.924600  1.0  0.089
  H  H208  1  0.387700  0.675000  0.846900  1.0  0.0888
  H  H209  1  0.424000  0.598200  0.824800  1.0  0.0837
  H  H210  1  0.597200  0.583900  0.790800  1.0  0.0857
  H  H211  1  0.668200  0.652200  0.781200  1.0  0.0699
  H  H212  1  0.603800  0.571600  0.928800  1.0  0.0811
  H  H213  1  0.558500  0.538200  0.876300  1.0  0.0798
  H  H214  1  0.726100  0.586900  0.858500  1.0  0.087
  H  H215  1  0.742600  0.717100  0.871100  1.0  0.0729
  H  H216  1  0.709200  0.681200  0.925600  1.0  0.0913
  H  H217  1  0.680900  0.804000  0.943800  1.0  0.1304
  H  H218  1  0.570200  0.831600  0.936300  1.0  0.13
  H  H219  1  0.152000  0.625000  0.737700  1.0  0.1159
  H  H220  1  0.034200  0.632600  0.732100  1.0  0.1195
  H  H221  1  0.964100  0.509700  0.806200  1.0  0.0815
  H  H222  1  0.919400  0.590100  0.808800  1.0  0.0917
  H  H223  1  0.158400  0.684800  0.821900  1.0  0.0757
  H  H224  1  0.041400  0.699900  0.818700  1.0  0.0813
  H  H225  1  0.925300  0.661400  0.895100  1.0  0.0872
  H  H226  1  0.970800  0.625400  0.947400  1.0  0.1064
  H  H227  1  0.901400  0.533600  0.892800  1.0  0.0867
  H  H228  1  0.037700  0.497000  0.941800  1.0  0.0934
  H  H229  1  0.032900  0.453600  0.887100  1.0  0.083
  H  H230  1  0.232900  0.625500  0.900800  1.0  0.0795
  H  H231  1  0.167200  0.604100  0.951100  1.0  0.0968
  H  H232  1  0.201900  0.495900  0.902000  1.0  0.0841
  H  H233  1  0.223900  0.553300  0.817900  1.0  0.0793
  H  H234  1  0.147200  0.487600  0.812100  1.0  0.0806
  H  H235  1  0.095500  0.731500  0.958200  1.0  0.0962
  H  H236  1  0.175100  0.749200  0.913100  1.0  0.0909
  H  H237  1  0.533200  0.464300  0.734600  1.0  0.0859
  H  H238  1  0.592100  0.385900  0.803100  1.0  0.1382
  H  H239  1  0.307900  0.329900  0.832600  1.0  0.1073
  H  H240  1  0.256800  0.406700  0.766100  1.0  0.0814
  H  H241  1  0.569500  0.300800  0.870500  1.0  0.0879
  H  H242  1  0.472600  0.250900  0.867000  1.0  0.097
  H  H243  1  0.314400  0.785700  0.469900  1.0  0.0936
  H  H244  1  0.288300  0.715700  0.436200  1.0  0.1122
  H  H245  1  0.219300  0.737800  0.546800  1.0  0.1353
  H  H246  1  0.214400  0.658500  0.618100  1.0  0.0683
  H  H247  1  0.447600  0.550200  0.563700  1.0  0.1134
  H  H248  1  0.461100  0.630100  0.494300  1.0  0.0926
  H  H249  1  0.299300  0.533100  0.044000  1.0  0.0976
  H  H250  1  0.329500  0.458000  0.973900  1.0  0.1063
  H  H251  1  0.613000  0.436100  0.021200  1.0  0.1004
  H  H252  1  0.578800  0.504600  0.093000  1.0  0.0983
  H  H253  1  0.585700  0.388400  0.940600  1.0  0.0983
  H  H254  1  0.505900  0.431100  0.906000  1.0  0.0935
  H  H255  1  0.477300  0.293100  0.952700  1.0  0.072
  H  H256  1  0.389100  0.337000  0.924600  1.0  0.0692
  H  H257  1  0.458000  0.700100  0.418700  1.0  0.0869
  H  H258  1  0.480200  0.773300  0.449900  1.0  0.0824
  H  H259  1  0.356200  0.817900  0.381300  1.0  0.0865
  H  H260  1  0.473600  0.825100  0.376500  1.0  0.1037
  H  H261  1  0.303800  0.804800  0.293400  1.0  0.1111
  H  H262  1  0.305000  0.741100  0.212100  1.0  0.0776
  H  H263  1  0.531900  0.624000  0.263400  1.0  0.0746
  H  H264  1  0.535400  0.689100  0.343900  1.0  0.128
  C  C265  1  0.935000  0.863900  0.277900  1.0  0.7337
  C  C266  1  0.989700  0.802900  0.250200  1.0  -0.267
  C  C267  1  0.027500  0.818100  0.191500  1.0  0.0655
  C  C268  1  0.057600  0.747400  0.166100  1.0  -0.1861
  C  C269  1  0.100900  0.759500  0.108700  1.0  0.0995
  C  C270  1  0.018400  0.800800  0.077300  1.0  -0.209
  C  C271  1  0.990900  0.877700  0.098300  1.0  -0.0588
  C  C272  1  0.946000  0.857100  0.157100  1.0  -0.2516
  C  C273  1  0.118300  0.868900  0.194500  1.0  -0.2621
  C  C274  1  0.076900  0.915800  0.106300  1.0  -0.1674
  C  C275  1  0.166400  0.881000  0.139900  1.0  0.0246
  C  C276  1  0.187300  0.808100  0.110800  1.0  -0.1857
  C  C277  1  0.129700  0.685300  0.083100  1.0  -0.2932
  C  C278  1  0.167300  0.621000  0.114300  1.0  0.5205
  C  C279  1  0.584900  0.970000  0.287800  1.0  0.7739
  C  C280  1  0.588000  0.899700  0.255400  1.0  -0.2773
  C  C281  1  0.473200  0.941700  0.178100  1.0  -0.3034
  C  C282  1  0.576500  0.910400  0.194700  1.0  0.044
  C  C283  1  0.592300  0.834200  0.168100  1.0  -0.2228
  C  C284  1  0.585000  0.839000  0.105900  1.0  0.0144
  C  C285  1  0.478000  0.870900  0.091400  1.0  -0.2413
  C  C286  1  0.468300  0.946800  0.116800  1.0  0.0254
  C  C287  1  0.543700  0.998200  0.097000  1.0  -0.1888
  C  C288  1  0.667100  0.892800  0.087900  1.0  -0.2422
  C  C289  1  0.650200  0.969900  0.111500  1.0  0.0678
  C  C290  1  0.656900  0.963900  0.172100  1.0  -0.232
  C  C291  1  0.605200  0.764800  0.080400  1.0  -0.277
  C  C292  1  0.533500  0.704200  0.103400  1.0  0.6674
  C  C293  1  0.986800  0.062700  0.245300  1.0  0.1655
  C  C294  1  0.023000  0.110600  0.204000  1.0  -0.1688
  C  C295  1  0.955500  0.150900  0.175100  1.0  0.0816
  C  C296  1  0.855900  0.143300  0.186700  1.0  -0.1943
  C  C297  1  0.825700  0.097000  0.226400  1.0  0.1695
  C  C298  1  0.996000  0.198800  0.128400  1.0  -0.1754
  C  C299  1  0.839000  0.762800  0.540300  1.0  -0.1581
  C  C300  1  0.841700  0.808900  0.490100  1.0  0.0922
  C  C301  1  0.766600  0.800100  0.450700  1.0  -0.2225
  C  C302  1  0.764100  0.849100  0.407800  1.0  0.2063
  C  C303  1  0.900900  0.911600  0.439500  1.0  0.1288
  C  C304  1  0.907800  0.864000  0.481500  1.0  -0.1448
  C  C305  1  0.863400  0.987600  0.959800  1.0  0.1637
  C  C306  1  0.882500  0.030900  0.002800  1.0  -0.1127
  C  C307  1  0.979500  0.060300  0.013900  1.0  0.1203
  C  C308  1  0.047800  0.044900  0.975200  1.0  -0.1675
  C  C309  1  0.027100  0.003600  0.931800  1.0  0.1577
  C  C310  1  0.013900  0.101300  0.063100  1.0  -0.2062
  C  C311  1  0.961900  0.170800  0.074900  1.0  -0.147
  C  C312  1  0.930500  0.751800  0.572400  1.0  -0.0977
  C  C313  1  0.918500  0.710300  0.621800  1.0  -0.1657
  C  C314  1  0.915500  0.749300  0.673900  1.0  0.2101
  C  C315  1  0.850600  0.732900  0.712000  1.0  -0.1316
  C  C316  1  0.851100  0.771900  0.761200  1.0  0.1228
  C  C317  1  0.983600  0.839400  0.731000  1.0  0.1914
  C  C318  1  0.986300  0.800900  0.681900  1.0  -0.2249
  C  C319  1  0.565000  0.136100  0.777900  1.0  0.7363
  C  C320  1  0.510300  0.197100  0.750200  1.0  -0.268
  C  C321  1  0.472500  0.181900  0.691500  1.0  0.0656
  C  C322  1  0.442400  0.252600  0.666100  1.0  -0.1891
  C  C323  1  0.399100  0.240500  0.608700  1.0  0.1005
  C  C324  1  0.481600  0.199200  0.577300  1.0  -0.2097
  C  C325  1  0.509100  0.122300  0.598300  1.0  -0.0595
  C  C326  1  0.554000  0.142900  0.657100  1.0  -0.2465
  C  C327  1  0.381700  0.131100  0.694500  1.0  -0.2581
  C  C328  1  0.423100  0.084200  0.606300  1.0  -0.1665
  C  C329  1  0.333600  0.119000  0.639900  1.0  0.0268
  C  C330  1  0.312700  0.191900  0.610800  1.0  -0.1896
  C  C331  1  0.370300  0.314700  0.583100  1.0  -0.2911
  C  C332  1  0.332700  0.379000  0.614300  1.0  0.5172
  C  C333  1  0.915100  0.030000  0.787800  1.0  0.7742
  C  C334  1  0.912000  0.100300  0.755400  1.0  -0.2771
  C  C335  1  0.026800  0.058300  0.678100  1.0  -0.3006
  C  C336  1  0.923500  0.089600  0.694700  1.0  0.0442
  C  C337  1  0.907700  0.165800  0.668100  1.0  -0.2267
  C  C338  1  0.915000  0.161000  0.605900  1.0  0.0147
  C  C339  1  0.022000  0.129100  0.591400  1.0  -0.2392
  C  C340  1  0.031700  0.053200  0.616800  1.0  0.0275
  C  C341  1  0.956300  0.001800  0.597000  1.0  -0.1864
  C  C342  1  0.832900  0.107200  0.587900  1.0  -0.2418
  C  C343  1  0.849800  0.030100  0.611500  1.0  0.069
  C  C344  1  0.843100  0.036100  0.672100  1.0  -0.2313
  C  C345  1  0.894800  0.235200  0.580400  1.0  -0.2786
  C  C346  1  0.966500  0.295800  0.603400  1.0  0.6693
  C  C347  1  0.513200  0.937300  0.745300  1.0  0.1641
  C  C348  1  0.477000  0.889400  0.704000  1.0  -0.1685
  C  C349  1  0.544500  0.849100  0.675100  1.0  0.0808
  C  C350  1  0.644100  0.856700  0.686700  1.0  -0.195
  C  C351  1  0.674300  0.903000  0.726400  1.0  0.1692
  C  C352  1  0.504000  0.801200  0.628400  1.0  -0.1742
  C  C353  1  0.661000  0.237200  0.040300  1.0  -0.1574
  C  C354  1  0.658300  0.191100  0.990100  1.0  0.0924
  C  C355  1  0.733400  0.199900  0.950700  1.0  -0.2229
  C  C356  1  0.735900  0.150900  0.907800  1.0  0.2053
  C  C357  1  0.599100  0.088400  0.939500  1.0  0.1266
  C  C358  1  0.592200  0.136000  0.981500  1.0  -0.1413
  C  C359  1  0.636600  0.012400  0.459800  1.0  0.1635
  C  C360  1  0.617500  0.969100  0.502800  1.0  -0.1118
  C  C361  1  0.520500  0.939700  0.513900  1.0  0.1194
  C  C362  1  0.452200  0.955100  0.475200  1.0  -0.1672
  C  C363  1  0.472900  0.996400  0.431800  1.0  0.1574
  C  C364  1  0.486100  0.898700  0.563100  1.0  -0.2064
  C  C365  1  0.538100  0.829200  0.574900  1.0  -0.1468
  C  C366  1  0.569500  0.248200  0.072400  1.0  -0.0969
  C  C367  1  0.581500  0.289700  0.121800  1.0  -0.1656
  C  C368  1  0.584500  0.250700  0.173900  1.0  0.2084
  C  C369  1  0.649400  0.267100  0.212000  1.0  -0.1314
  C  C370  1  0.648900  0.228100  0.261200  1.0  0.1226
  C  C371  1  0.516400  0.160600  0.231000  1.0  0.1914
  C  C372  1  0.513700  0.199100  0.181900  1.0  -0.2272
  C  C373  1  0.065000  0.363900  0.222100  1.0  0.7339
  C  C374  1  0.010300  0.302900  0.249800  1.0  -0.2667
  C  C375  1  0.972500  0.318100  0.308500  1.0  0.0656
  C  C376  1  0.942400  0.247400  0.333900  1.0  -0.1868
  C  C377  1  0.899100  0.259500  0.391300  1.0  0.1011
  C  C378  1  0.981600  0.300800  0.422700  1.0  -0.2096
  C  C379  1  0.009100  0.377700  0.401700  1.0  -0.0604
  C  C380  1  0.054000  0.357100  0.342900  1.0  -0.2466
  C  C381  1  0.881700  0.368900  0.305500  1.0  -0.2615
  C  C382  1  0.923100  0.415800  0.393700  1.0  -0.1657
  C  C383  1  0.833600  0.381000  0.360100  1.0  0.0246
  C  C384  1  0.812700  0.308100  0.389200  1.0  -0.1905
  C  C385  1  0.870300  0.185300  0.416900  1.0  -0.2916
  C  C386  1  0.832700  0.121000  0.385700  1.0  0.5186
  C  C387  1  0.415100  0.470000  0.212200  1.0  0.7751
  C  C388  1  0.412000  0.399700  0.244600  1.0  -0.2747
  C  C389  1  0.526800  0.441700  0.321900  1.0  -0.3009
  C  C390  1  0.423500  0.410400  0.305300  1.0  0.0427
  C  C391  1  0.407700  0.334200  0.331900  1.0  -0.2225
  C  C392  1  0.415000  0.339000  0.394100  1.0  0.0165
  C  C393  1  0.522000  0.370900  0.408600  1.0  -0.2407
  C  C394  1  0.531700  0.446800  0.383200  1.0  0.0283
  C  C395  1  0.456300  0.498200  0.403000  1.0  -0.1885
  C  C396  1  0.332900  0.392800  0.412100  1.0  -0.2416
  C  C397  1  0.349800  0.469900  0.388500  1.0  0.0671
  C  C398  1  0.343100  0.463900  0.327900  1.0  -0.2321
  C  C399  1  0.394800  0.264800  0.419600  1.0  -0.278
  C  C400  1  0.466500  0.204200  0.396600  1.0  0.6695
  C  C401  1  0.013200  0.562700  0.254700  1.0  0.1637
  C  C402  1  0.977000  0.610600  0.296000  1.0  -0.1691
  C  C403  1  0.044500  0.650900  0.324900  1.0  0.0809
  C  C404  1  0.144100  0.643300  0.313300  1.0  -0.1944
  C  C405  1  0.174300  0.597000  0.273600  1.0  0.1687
  C  C406  1  0.004000  0.698800  0.371600  1.0  -0.1731
  C  C407  1  0.161000  0.262800  0.959700  1.0  -0.158
  C  C408  1  0.158300  0.308900  0.009900  1.0  0.0938
  C  C409  1  0.233400  0.300100  0.049300  1.0  -0.2224
  C  C410  1  0.235900  0.349100  0.092200  1.0  0.2059
  C  C411  1  0.099100  0.411600  0.060500  1.0  0.1261
  C  C412  1  0.092200  0.364000  0.018500  1.0  -0.143
  C  C413  1  0.136600  0.487600  0.540200  1.0  0.1639
  C  C414  1  0.117500  0.530900  0.497200  1.0  -0.1113
  C  C415  1  0.020500  0.560300  0.486100  1.0  0.1185
  C  C416  1  0.952200  0.544900  0.524800  1.0  -0.1663
  C  C417  1  0.972900  0.503600  0.568200  1.0  0.1578
  C  C418  1  0.986100  0.601300  0.436900  1.0  -0.2052
  C  C419  1  0.038100  0.670800  0.425100  1.0  -0.1476
  C  C420  1  0.069500  0.251800  0.927600  1.0  -0.0971
  C  C421  1  0.081500  0.210300  0.878200  1.0  -0.1669
  C  C422  1  0.084500  0.249300  0.826100  1.0  0.2099
  C  C423  1  0.149400  0.232900  0.788000  1.0  -0.1313
  C  C424  1  0.148900  0.271900  0.738800  1.0  0.1226
  C  C425  1  0.016400  0.339400  0.769000  1.0  0.191
  C  C426  1  0.013700  0.300900  0.818100  1.0  -0.2268
  C  C427  1  0.435000  0.636100  0.722100  1.0  0.7346
  C  C428  1  0.489700  0.697100  0.749800  1.0  -0.2688
  C  C429  1  0.527500  0.681900  0.808500  1.0  0.0649
  C  C430  1  0.557600  0.752600  0.833900  1.0  -0.1886
  C  C431  1  0.600900  0.740500  0.891300  1.0  0.1005
  C  C432  1  0.518400  0.699200  0.922700  1.0  -0.2107
  C  C433  1  0.490900  0.622300  0.901700  1.0  -0.0609
  C  C434  1  0.446000  0.642900  0.842900  1.0  -0.2499
  C  C435  1  0.618300  0.631100  0.805500  1.0  -0.2601
  C  C436  1  0.576900  0.584200  0.893700  1.0  -0.1651
  C  C437  1  0.666400  0.619000  0.860100  1.0  0.0247
  C  C438  1  0.687300  0.691900  0.889200  1.0  -0.1866
  C  C439  1  0.629700  0.814700  0.916900  1.0  -0.294
  C  C440  1  0.667300  0.879000  0.885700  1.0  0.5182
  C  C441  1  0.084900  0.530000  0.712200  1.0  0.7749
  C  C442  1  0.088000  0.600300  0.744600  1.0  -0.2764
  C  C443  1  0.973200  0.558300  0.821900  1.0  -0.3013
  C  C444  1  0.076500  0.589600  0.805300  1.0  0.0427
  C  C445  1  0.092300  0.665800  0.831900  1.0  -0.2242
  C  C446  1  0.085000  0.661000  0.894100  1.0  0.0153
  C  C447  1  0.978000  0.629100  0.908600  1.0  -0.2422
  C  C448  1  0.968300  0.553200  0.883200  1.0  0.0256
  C  C449  1  0.043700  0.501800  0.903000  1.0  -0.1839
  C  C450  1  0.167100  0.607200  0.912100  1.0  -0.2414
  C  C451  1  0.150200  0.530100  0.888500  1.0  0.0679
  C  C452  1  0.156900  0.536100  0.827900  1.0  -0.2326
  C  C453  1  0.105200  0.735200  0.919600  1.0  -0.2785
  C  C454  1  0.033500  0.795800  0.896600  1.0  0.6701
  C  C455  1  0.486800  0.437300  0.754700  1.0  0.1653
  C  C456  1  0.523000  0.389400  0.796000  1.0  -0.1675
  C  C457  1  0.455500  0.349100  0.824900  1.0  0.0817
  C  C458  1  0.355900  0.356700  0.813300  1.0  -0.1954
  C  C459  1  0.325700  0.403000  0.773600  1.0  0.1689
  C  C460  1  0.496000  0.301200  0.871600  1.0  -0.1751
  C  C461  1  0.339000  0.737200  0.459700  1.0  -0.1572
  C  C462  1  0.341700  0.691100  0.509900  1.0  0.0937
  C  C463  1  0.266600  0.699900  0.549300  1.0  -0.223
  C  C464  1  0.264100  0.650900  0.592200  1.0  0.2054
  C  C465  1  0.400900  0.588400  0.560500  1.0  0.1281
  C  C466  1  0.407800  0.636000  0.518500  1.0  -0.1427
  C  C467  1  0.363400  0.512400  0.040200  1.0  0.1637
  C  C468  1  0.382500  0.469100  0.997200  1.0  -0.1124
  C  C469  1  0.479500  0.439700  0.986100  1.0  0.1194
  C  C470  1  0.547800  0.455100  0.024800  1.0  -0.1687
  C  C471  1  0.527100  0.496400  0.068200  1.0  0.1582
  C  C472  1  0.513900  0.398700  0.936900  1.0  -0.2063
  C  C473  1  0.461900  0.329200  0.925100  1.0  -0.1473
  C  C474  1  0.430500  0.748200  0.427600  1.0  -0.0989
  C  C475  1  0.418500  0.789700  0.378200  1.0  -0.1664
  C  C476  1  0.415500  0.750700  0.326100  1.0  0.2101
  C  C477  1  0.350600  0.767100  0.288000  1.0  -0.13
  C  C478  1  0.351100  0.728100  0.238800  1.0  0.1227
  C  C479  1  0.483600  0.660600  0.269000  1.0  0.1917
  C  C480  1  0.486300  0.699100  0.318100  1.0  -0.2262
  N  N481  1  0.891200  0.055900  0.255500  1.0  -0.3581
  N  N482  1  0.824100  0.904000  0.400600  1.0  -0.3589
  N  N483  1  0.935300  0.973200  0.921800  1.0  -0.3532
  N  N484  1  0.915400  0.826800  0.770300  1.0  -0.3675
  N  N485  1  0.608800  0.944100  0.755500  1.0  -0.3587
  N  N486  1  0.675900  0.096000  0.900600  1.0  -0.3595
  N  N487  1  0.564700  0.026800  0.421800  1.0  -0.3515
  N  N488  1  0.584600  0.173200  0.270300  1.0  -0.3677
  N  N489  1  0.108800  0.555900  0.244500  1.0  -0.3577
  N  N490  1  0.175900  0.404000  0.099400  1.0  -0.3597
  N  N491  1  0.064700  0.473200  0.578200  1.0  -0.3507
  N  N492  1  0.084600  0.326800  0.729700  1.0  -0.3655
  N  N493  1  0.391200  0.444100  0.744500  1.0  -0.3591
  N  N494  1  0.324100  0.596000  0.599400  1.0  -0.359
  N  N495  1  0.435300  0.526800  0.078200  1.0  -0.3506
  N  N496  1  0.415400  0.673200  0.229700  1.0  -0.3672
  O  O497  1  0.841200  0.866500  0.275500  1.0  -0.6144
  O  O498  1  0.986700  0.910000  0.304600  1.0  -0.6643
  O  O499  1  0.100100  0.571300  0.117600  1.0  -0.6442
  O  O500  1  0.242300  0.622500  0.136900  1.0  -0.6423
  O  O501  1  0.664800  0.997900  0.305000  1.0  -0.6745
  O  O502  1  0.500700  0.003800  0.296500  1.0  -0.6511
  O  O503  1  0.577500  0.653600  0.132300  1.0  -0.6919
  O  O504  1  0.444300  0.703800  0.096500  1.0  -0.5717
  O  O505  1  0.658800  0.133500  0.775500  1.0  -0.6126
  O  O506  1  0.513300  0.090000  0.804600  1.0  -0.6643
  O  O507  1  0.399900  0.428700  0.617600  1.0  -0.6444
  O  O508  1  0.257700  0.377500  0.636900  1.0  -0.6425
  O  O509  1  0.835200  0.002100  0.805000  1.0  -0.6763
  O  O510  1  0.999300  0.996200  0.796500  1.0  -0.6514
  O  O511  1  0.922500  0.346400  0.632300  1.0  -0.6951
  O  O512  1  0.055700  0.296200  0.596500  1.0  -0.5716
  O  O513  1  0.158800  0.366500  0.224500  1.0  -0.6128
  O  O514  1  0.013300  0.410000  0.195400  1.0  -0.6659
  O  O515  1  0.899900  0.071300  0.382400  1.0  -0.6458
  O  O516  1  0.757700  0.122500  0.363100  1.0  -0.6439
  O  O517  1  0.335200  0.497900  0.195000  1.0  -0.675
  O  O518  1  0.499300  0.503800  0.203500  1.0  -0.6492
  O  O519  1  0.422500  0.153600  0.367700  1.0  -0.6929
  O  O520  1  0.555700  0.203800  0.403500  1.0  -0.5709
  O  O521  1  0.341200  0.633500  0.724500  1.0  -0.6136
  O  O522  1  0.486700  0.590000  0.695400  1.0  -0.6666
  O  O523  1  0.600100  0.928700  0.882400  1.0  -0.6448
  O  O524  1  0.742300  0.877500  0.863100  1.0  -0.6416
  O  O525  1  0.164800  0.502100  0.695000  1.0  -0.6751
  O  O526  1  0.000700  0.496200  0.703500  1.0  -0.6512
  O  O527  1  0.077500  0.846400  0.867700  1.0  -0.6912
  O  O528  1  0.944300  0.796200  0.903500  1.0  -0.572
