# generated using pymatgen
data_NdH3C12(NO5)2
_symmetry_space_group_name_H-M   'P 1'
_cell_length_a   6.90700000
_cell_length_b   21.89700000
_cell_length_c   23.15100000
_cell_angle_alpha   90.00000000
_cell_angle_beta   90.00000000
_cell_angle_gamma   90.00000000
_symmetry_Int_Tables_number   1
_chemical_formula_structural   NdH3C12(NO5)2
_chemical_formula_sum   'Nd8 H24 C96 N16 O80'
_cell_volume   3501.41694643
_cell_formula_units_Z   8
loop_
 _symmetry_equiv_pos_site_id
 _symmetry_equiv_pos_as_xyz
  1  'x, y, z'
loop_
 _atom_site_type_symbol
 _atom_site_label
 _atom_site_symmetry_multiplicity
 _atom_site_fract_x
 _atom_site_fract_y
 _atom_site_fract_z
 _atom_site_occupancy
 _atom_site_charge
  Nd  Nd1  1  0.578300  0.268430  0.449360  1.0  2.3351
  Nd  Nd2  1  0.921700  0.731570  0.949360  1.0  2.3334
  Nd  Nd3  1  0.421700  0.768430  0.050640  1.0  2.3337
  Nd  Nd4  1  0.078300  0.231570  0.550640  1.0  2.3352
  Nd  Nd5  1  0.421700  0.731570  0.550640  1.0  2.3336
  Nd  Nd6  1  0.078300  0.268430  0.050640  1.0  2.3352
  Nd  Nd7  1  0.578300  0.231570  0.949360  1.0  2.335
  Nd  Nd8  1  0.921700  0.768430  0.449360  1.0  2.3336
  H  H9  1  0.564600  0.157600  0.263600  1.0  0.1494
  H  H10  1  0.592800  0.339200  0.242900  1.0  0.1348
  H  H11  1  0.590100  0.327100  0.143600  1.0  0.1505
  H  H12  1  0.935400  0.842400  0.763600  1.0  0.1489
  H  H13  1  0.907200  0.660800  0.742900  1.0  0.1341
  H  H14  1  0.909900  0.672900  0.643600  1.0  0.1508
  H  H15  1  0.435400  0.657600  0.236400  1.0  0.1488
  H  H16  1  0.407200  0.839200  0.257100  1.0  0.1355
  H  H17  1  0.409900  0.827100  0.356400  1.0  0.15
  H  H18  1  0.064600  0.342400  0.736400  1.0  0.1482
  H  H19  1  0.092800  0.160800  0.757100  1.0  0.1337
  H  H20  1  0.090100  0.172900  0.856400  1.0  0.1503
  H  H21  1  0.435400  0.842400  0.736400  1.0  0.1487
  H  H22  1  0.407200  0.660800  0.757100  1.0  0.1339
  H  H23  1  0.409900  0.672900  0.856400  1.0  0.1506
  H  H24  1  0.064600  0.157600  0.236400  1.0  0.1489
  H  H25  1  0.092800  0.339200  0.257100  1.0  0.1354
  H  H26  1  0.090100  0.327100  0.356400  1.0  0.1497
  H  H27  1  0.564600  0.342400  0.763600  1.0  0.1484
  H  H28  1  0.592800  0.160800  0.742900  1.0  0.1339
  H  H29  1  0.590100  0.172900  0.643600  1.0  0.1506
  H  H30  1  0.935400  0.657600  0.263600  1.0  0.1492
  H  H31  1  0.907200  0.839200  0.242900  1.0  0.1349
  H  H32  1  0.909900  0.827100  0.143600  1.0  0.1509
  C  C33  1  0.582400  0.257700  0.327400  1.0  0.695
  C  C34  1  0.579500  0.249700  0.263400  1.0  -0.1218
  C  C35  1  0.570700  0.191800  0.239800  1.0  -0.0683
  C  C36  1  0.586800  0.300200  0.227100  1.0  0.0065
  C  C37  1  0.573000  0.231500  0.078500  1.0  0.7188
  C  C38  1  0.576500  0.234700  0.143800  1.0  -0.02
  C  C39  1  0.585300  0.293100  0.167500  1.0  -0.0979
  C  C40  1  0.571000  0.185400  0.180400  1.0  0.0154
  C  C41  1  0.931300  0.369700  0.493200  1.0  0.6822
  C  C42  1  0.898000  0.475000  0.453400  1.0  0.0474
  C  C43  1  0.062800  0.462700  0.544100  1.0  0.1752
  C  C44  1  0.964100  0.437400  0.498000  1.0  -0.1198
  C  C45  1  0.917600  0.742300  0.827400  1.0  0.6955
  C  C46  1  0.920500  0.750300  0.763400  1.0  -0.1223
  C  C47  1  0.929300  0.808200  0.739800  1.0  -0.0669
  C  C48  1  0.913200  0.699800  0.727100  1.0  0.0062
  C  C49  1  0.927000  0.768500  0.578500  1.0  0.7188
  C  C50  1  0.923500  0.765300  0.643800  1.0  -0.0198
  C  C51  1  0.914700  0.706900  0.667500  1.0  -0.0984
  C  C52  1  0.929000  0.814600  0.680400  1.0  0.0155
  C  C53  1  0.568700  0.630300  0.993200  1.0  0.6822
  C  C54  1  0.602000  0.525000  0.953400  1.0  0.0484
  C  C55  1  0.437200  0.537300  0.044100  1.0  0.1753
  C  C56  1  0.535900  0.562600  0.998000  1.0  -0.1193
  C  C57  1  0.417600  0.757700  0.172600  1.0  0.695
  C  C58  1  0.420500  0.749700  0.236600  1.0  -0.121
  C  C59  1  0.429300  0.691800  0.260200  1.0  -0.0684
  C  C60  1  0.413200  0.800200  0.272900  1.0  0.006
  C  C61  1  0.427000  0.731500  0.421500  1.0  0.7192
  C  C62  1  0.423500  0.734700  0.356200  1.0  -0.02
  C  C63  1  0.414700  0.793100  0.332500  1.0  -0.0983
  C  C64  1  0.429000  0.685400  0.319600  1.0  0.0162
  C  C65  1  0.068700  0.869700  0.006800  1.0  0.6822
  C  C66  1  0.102000  0.975000  0.046600  1.0  0.0492
  C  C67  1  0.937200  0.962700  0.955900  1.0  0.1745
  C  C68  1  0.035900  0.937400  0.002000  1.0  -0.119
  C  C69  1  0.082400  0.242300  0.672600  1.0  0.6947
  C  C70  1  0.079500  0.250300  0.736600  1.0  -0.1219
  C  C71  1  0.070700  0.308200  0.760200  1.0  -0.0676
  C  C72  1  0.086800  0.199800  0.772900  1.0  0.0061
  C  C73  1  0.073000  0.268500  0.921500  1.0  0.719
  C  C74  1  0.076500  0.265300  0.856200  1.0  -0.0198
  C  C75  1  0.085300  0.206900  0.832500  1.0  -0.0989
  C  C76  1  0.071000  0.314600  0.819600  1.0  0.016
  C  C77  1  0.431300  0.130300  0.506800  1.0  0.6813
  C  C78  1  0.398000  0.025000  0.546600  1.0  0.0487
  C  C79  1  0.562800  0.037300  0.455900  1.0  0.1754
  C  C80  1  0.464100  0.062600  0.502000  1.0  -0.1185
  C  C81  1  0.417600  0.742300  0.672600  1.0  0.6948
  C  C82  1  0.420500  0.750300  0.736600  1.0  -0.1218
  C  C83  1  0.429300  0.808200  0.760200  1.0  -0.0672
  C  C84  1  0.413200  0.699800  0.772900  1.0  0.0063
  C  C85  1  0.427000  0.768500  0.921500  1.0  0.719
  C  C86  1  0.423500  0.765300  0.856200  1.0  -0.0198
  C  C87  1  0.414700  0.706900  0.832500  1.0  -0.0988
  C  C88  1  0.429000  0.814600  0.819600  1.0  0.016
  C  C89  1  0.068700  0.630300  0.506800  1.0  0.6817
  C  C90  1  0.102000  0.525000  0.546600  1.0  0.0482
  C  C91  1  0.937200  0.537300  0.455900  1.0  0.175
  C  C92  1  0.035900  0.562600  0.502000  1.0  -0.1181
  C  C93  1  0.082400  0.257700  0.172600  1.0  0.6949
  C  C94  1  0.079500  0.249700  0.236600  1.0  -0.121
  C  C95  1  0.070700  0.191800  0.260200  1.0  -0.0688
  C  C96  1  0.086800  0.300200  0.272900  1.0  0.0062
  C  C97  1  0.073000  0.231500  0.421500  1.0  0.7191
  C  C98  1  0.076500  0.234700  0.356200  1.0  -0.02
  C  C99  1  0.085300  0.293100  0.332500  1.0  -0.0979
  C  C100  1  0.071000  0.185400  0.319600  1.0  0.0162
  C  C101  1  0.431300  0.369700  0.006800  1.0  0.6813
  C  C102  1  0.398000  0.475000  0.046600  1.0  0.046
  C  C103  1  0.562800  0.462700  0.955900  1.0  0.1751
  C  C104  1  0.464100  0.437400  0.002000  1.0  -0.1187
  C  C105  1  0.582400  0.242300  0.827400  1.0  0.6956
  C  C106  1  0.579500  0.250300  0.763400  1.0  -0.1224
  C  C107  1  0.570700  0.308200  0.739800  1.0  -0.0673
  C  C108  1  0.586800  0.199800  0.727100  1.0  0.0059
  C  C109  1  0.573000  0.268500  0.578500  1.0  0.7188
  C  C110  1  0.576500  0.265300  0.643800  1.0  -0.0198
  C  C111  1  0.585300  0.206900  0.667500  1.0  -0.0985
  C  C112  1  0.571000  0.314600  0.680400  1.0  0.0155
  C  C113  1  0.931300  0.130300  0.993200  1.0  0.6812
  C  C114  1  0.898000  0.025000  0.953400  1.0  0.0466
  C  C115  1  0.062800  0.037300  0.044100  1.0  0.1757
  C  C116  1  0.964100  0.062600  0.998000  1.0  -0.1189
  C  C117  1  0.917600  0.757700  0.327400  1.0  0.695
  C  C118  1  0.920500  0.749700  0.263400  1.0  -0.1218
  C  C119  1  0.929300  0.691800  0.239800  1.0  -0.068
  C  C120  1  0.913200  0.800200  0.227100  1.0  0.0063
  C  C121  1  0.927000  0.731500  0.078500  1.0  0.7188
  C  C122  1  0.923500  0.734700  0.143800  1.0  -0.0201
  C  C123  1  0.914700  0.793100  0.167500  1.0  -0.0983
  C  C124  1  0.929000  0.685400  0.180400  1.0  0.0154
  C  C125  1  0.568700  0.869700  0.493200  1.0  0.6826
  C  C126  1  0.602000  0.975000  0.453400  1.0  0.0461
  C  C127  1  0.437200  0.962700  0.544100  1.0  0.1748
  C  C128  1  0.535900  0.937400  0.498000  1.0  -0.1194
  N  N129  1  0.568300  0.123900  0.156200  1.0  0.5572
  N  N130  1  0.097600  0.430800  0.599500  1.0  0.6573
  N  N131  1  0.931700  0.876100  0.656200  1.0  0.5573
  N  N132  1  0.402400  0.569200  0.099500  1.0  0.6601
  N  N133  1  0.431700  0.623900  0.343800  1.0  0.5577
  N  N134  1  0.902400  0.930800  0.900500  1.0  0.6591
  N  N135  1  0.068300  0.376100  0.843800  1.0  0.5581
  N  N136  1  0.597600  0.069200  0.400500  1.0  0.6594
  N  N137  1  0.431700  0.876100  0.843800  1.0  0.5583
  N  N138  1  0.902400  0.569200  0.400500  1.0  0.6608
  N  N139  1  0.068300  0.123900  0.343800  1.0  0.5579
  N  N140  1  0.597600  0.430800  0.900500  1.0  0.6581
  N  N141  1  0.568300  0.376100  0.656200  1.0  0.5572
  N  N142  1  0.097600  0.069200  0.099500  1.0  0.6594
  N  N143  1  0.931700  0.623900  0.156200  1.0  0.557
  N  N144  1  0.402400  0.930800  0.599500  1.0  0.658
  O  O145  1  0.600600  0.310260  0.349500  1.0  -0.6203
  O  O146  1  0.566400  0.210880  0.358730  1.0  -0.6159
  O  O147  1  0.798200  0.351420  0.460750  1.0  -0.7132
  O  O148  1  0.415000  0.224520  0.052410  1.0  -0.7465
  O  O149  1  0.728400  0.239460  0.051490  1.0  -0.753
  O  O150  1  0.049400  0.336250  0.520310  1.0  -0.6943
  O  O151  1  0.602100  0.117000  0.105000  1.0  -0.4765
  O  O152  1  0.535000  0.082600  0.188700  1.0  -0.4009
  O  O153  1  0.961000  0.413700  0.629700  1.0  -0.4338
  O  O154  1  0.263000  0.424500  0.610700  1.0  -0.447
  O  O155  1  0.899400  0.689740  0.849500  1.0  -0.6169
  O  O156  1  0.933600  0.789120  0.858730  1.0  -0.6151
  O  O157  1  0.701800  0.648580  0.960750  1.0  -0.7142
  O  O158  1  0.085000  0.775480  0.552410  1.0  -0.7458
  O  O159  1  0.771600  0.760540  0.551490  1.0  -0.7546
  O  O160  1  0.450600  0.663750  0.020310  1.0  -0.6954
  O  O161  1  0.897900  0.883000  0.605000  1.0  -0.4754
  O  O162  1  0.965000  0.917400  0.688700  1.0  -0.3952
  O  O163  1  0.539000  0.586300  0.129700  1.0  -0.4332
  O  O164  1  0.237000  0.575500  0.110700  1.0  -0.4465
  O  O165  1  0.399400  0.810260  0.150500  1.0  -0.6202
  O  O166  1  0.433600  0.710880  0.141270  1.0  -0.6164
  O  O167  1  0.201800  0.851420  0.039250  1.0  -0.7124
  O  O168  1  0.585000  0.724520  0.447590  1.0  -0.7462
  O  O169  1  0.271600  0.739460  0.448510  1.0  -0.7541
  O  O170  1  0.950600  0.836250  0.979690  1.0  -0.6957
  O  O171  1  0.397900  0.617000  0.395000  1.0  -0.4804
  O  O172  1  0.465000  0.582600  0.311300  1.0  -0.4002
  O  O173  1  0.039000  0.913700  0.870300  1.0  -0.4333
  O  O174  1  0.737000  0.924500  0.889300  1.0  -0.4475
  O  O175  1  0.100600  0.189740  0.650500  1.0  -0.6179
  O  O176  1  0.066400  0.289120  0.641270  1.0  -0.6153
  O  O177  1  0.298200  0.148580  0.539250  1.0  -0.7128
  O  O178  1  0.915000  0.275480  0.947590  1.0  -0.7461
  O  O179  1  0.228400  0.260540  0.948510  1.0  -0.7533
  O  O180  1  0.549400  0.163750  0.479690  1.0  -0.6939
  O  O181  1  0.102100  0.383000  0.895000  1.0  -0.4822
  O  O182  1  0.035000  0.417400  0.811300  1.0  -0.3943
  O  O183  1  0.461000  0.086300  0.370300  1.0  -0.4324
  O  O184  1  0.763000  0.075500  0.389300  1.0  -0.4482
  O  O185  1  0.399400  0.689740  0.650500  1.0  -0.618
  O  O186  1  0.433600  0.789120  0.641270  1.0  -0.6148
  O  O187  1  0.201800  0.648580  0.539250  1.0  -0.7131
  O  O188  1  0.585000  0.775480  0.947590  1.0  -0.7462
  O  O189  1  0.271600  0.760540  0.948510  1.0  -0.7538
  O  O190  1  0.950600  0.663750  0.479690  1.0  -0.6954
  O  O191  1  0.397900  0.883000  0.895000  1.0  -0.4795
  O  O192  1  0.465000  0.917400  0.811300  1.0  -0.3951
  O  O193  1  0.039000  0.586300  0.370300  1.0  -0.4341
  O  O194  1  0.737000  0.575500  0.389300  1.0  -0.4471
  O  O195  1  0.100600  0.310260  0.150500  1.0  -0.6202
  O  O196  1  0.066400  0.210880  0.141270  1.0  -0.6165
  O  O197  1  0.298200  0.351420  0.039250  1.0  -0.7128
  O  O198  1  0.915000  0.224520  0.447590  1.0  -0.7459
  O  O199  1  0.228400  0.239460  0.448510  1.0  -0.7536
  O  O200  1  0.549400  0.336250  0.979690  1.0  -0.6939
  O  O201  1  0.102100  0.117000  0.395000  1.0  -0.4791
  O  O202  1  0.035000  0.082600  0.311300  1.0  -0.4011
  O  O203  1  0.461000  0.413700  0.870300  1.0  -0.4335
  O  O204  1  0.763000  0.424500  0.889300  1.0  -0.4471
  O  O205  1  0.600600  0.189740  0.849500  1.0  -0.6158
  O  O206  1  0.566400  0.289120  0.858730  1.0  -0.6154
  O  O207  1  0.798200  0.148580  0.960750  1.0  -0.7137
  O  O208  1  0.415000  0.275480  0.552410  1.0  -0.7457
  O  O209  1  0.728400  0.260540  0.551490  1.0  -0.7539
  O  O210  1  0.049400  0.163750  0.020310  1.0  -0.6941
  O  O211  1  0.602100  0.383000  0.605000  1.0  -0.4742
  O  O212  1  0.535000  0.417400  0.688700  1.0  -0.3953
  O  O213  1  0.961000  0.086300  0.129700  1.0  -0.4322
  O  O214  1  0.263000  0.075500  0.110700  1.0  -0.4487
  O  O215  1  0.899400  0.810260  0.349500  1.0  -0.6202
  O  O216  1  0.933600  0.710880  0.358730  1.0  -0.616
  O  O217  1  0.701800  0.851420  0.460750  1.0  -0.7131
  O  O218  1  0.085000  0.724520  0.052410  1.0  -0.7467
  O  O219  1  0.771600  0.739460  0.051490  1.0  -0.7537
  O  O220  1  0.450600  0.836250  0.520310  1.0  -0.6961
  O  O221  1  0.897900  0.617000  0.105000  1.0  -0.474
  O  O222  1  0.965000  0.582600  0.188700  1.0  -0.4008
  O  O223  1  0.539000  0.913700  0.629700  1.0  -0.4332
  O  O224  1  0.237000  0.924500  0.610700  1.0  -0.4478
