# generated using pymatgen
data_ZnH8C10NO4
_symmetry_space_group_name_H-M   'P 1'
_cell_length_a   15.02300000
_cell_length_b   10.16430000
_cell_length_c   18.19600000
_cell_angle_alpha   90.00000000
_cell_angle_beta   114.23300000
_cell_angle_gamma   90.00000000
_symmetry_Int_Tables_number   1
_chemical_formula_structural   ZnH8C10NO4
_chemical_formula_sum   'Zn8 H64 C80 N8 O32'
_cell_volume   2533.66739160
_cell_formula_units_Z   8
loop_
 _symmetry_equiv_pos_site_id
 _symmetry_equiv_pos_as_xyz
  1  'x, y, z'
loop_
 _atom_site_type_symbol
 _atom_site_label
 _atom_site_symmetry_multiplicity
 _atom_site_fract_x
 _atom_site_fract_y
 _atom_site_fract_z
 _atom_site_occupancy
 _atom_site_charge
  Zn  Zn1  1  0.111500  0.277360  0.236550  1.0  0.8726
  Zn  Zn2  1  0.844170  0.050250  0.046660  1.0  0.9205
  Zn  Zn3  1  0.888500  0.777360  0.263450  1.0  0.8707
  Zn  Zn4  1  0.155830  0.550250  0.453340  1.0  0.9203
  Zn  Zn5  1  0.888500  0.722640  0.763450  1.0  0.8703
  Zn  Zn6  1  0.155830  0.949750  0.953340  1.0  0.9207
  Zn  Zn7  1  0.111500  0.222640  0.736550  1.0  0.8727
  Zn  Zn8  1  0.844170  0.449750  0.546660  1.0  0.9207
  H  H9  1  0.238500  0.706400  0.216300  1.0  0.1094
  H  H10  1  0.130800  0.831800  0.246500  1.0  0.1104
  H  H11  1  0.987900  0.649300  0.149200  1.0  0.1102
  H  H12  1  0.080000  0.627200  0.077800  1.0  0.1164
  H  H13  1  0.311200  0.209900  0.246700  1.0  0.0762
  H  H14  1  0.435600  0.065600  0.311400  1.0  0.1231
  H  H15  1  0.280300  0.917400  0.423800  1.0  0.1261
  H  H16  1  0.160500  0.066400  0.357100  1.0  0.0702
  H  H17  1  0.695100  0.553800  0.595800  1.0  0.079
  H  H18  1  0.548400  0.661600  0.545400  1.0  0.1166
  H  H19  1  0.545100  0.634000  0.326300  1.0  0.1076
  H  H20  1  0.692000  0.528700  0.381300  1.0  0.0727
  H  H21  1  0.514100  0.909700  0.415000  1.0  0.0923
  H  H22  1  0.470400  0.883100  0.478300  1.0  0.0878
  H  H23  1  0.410200  0.739700  0.335200  1.0  0.0848
  H  H24  1  0.388200  0.705300  0.410300  1.0  0.0943
  H  H25  1  0.761500  0.206400  0.283700  1.0  0.1083
  H  H26  1  0.869200  0.331800  0.253500  1.0  0.1106
  H  H27  1  0.012100  0.149300  0.350800  1.0  0.1102
  H  H28  1  0.920000  0.127200  0.422200  1.0  0.1172
  H  H29  1  0.688800  0.709900  0.253300  1.0  0.0757
  H  H30  1  0.564400  0.565600  0.188600  1.0  0.123
  H  H31  1  0.719700  0.417400  0.076200  1.0  0.1263
  H  H32  1  0.839500  0.566400  0.142900  1.0  0.0701
  H  H33  1  0.304900  0.053800  0.904200  1.0  0.0786
  H  H34  1  0.451600  0.161600  0.954600  1.0  0.1173
  H  H35  1  0.454900  0.134000  0.173700  1.0  0.1077
  H  H36  1  0.308000  0.028700  0.118700  1.0  0.073
  H  H37  1  0.485900  0.409700  0.085000  1.0  0.0913
  H  H38  1  0.529600  0.383100  0.021700  1.0  0.0875
  H  H39  1  0.589800  0.239700  0.164800  1.0  0.0862
  H  H40  1  0.611800  0.205300  0.089700  1.0  0.0934
  H  H41  1  0.761500  0.293600  0.783700  1.0  0.1084
  H  H42  1  0.869200  0.168200  0.753500  1.0  0.11
  H  H43  1  0.012100  0.350700  0.850800  1.0  0.1094
  H  H44  1  0.920000  0.372800  0.922200  1.0  0.1167
  H  H45  1  0.688800  0.790100  0.753300  1.0  0.0758
  H  H46  1  0.564400  0.934400  0.688600  1.0  0.1231
  H  H47  1  0.719700  0.082600  0.576200  1.0  0.1262
  H  H48  1  0.839500  0.933600  0.642900  1.0  0.0703
  H  H49  1  0.304900  0.446200  0.404200  1.0  0.0786
  H  H50  1  0.451600  0.338400  0.454600  1.0  0.1175
  H  H51  1  0.454900  0.366000  0.673700  1.0  0.1078
  H  H52  1  0.308000  0.471300  0.618700  1.0  0.0728
  H  H53  1  0.485900  0.090300  0.585000  1.0  0.0915
  H  H54  1  0.529600  0.116900  0.521700  1.0  0.0881
  H  H55  1  0.589800  0.260300  0.664800  1.0  0.0858
  H  H56  1  0.611800  0.294700  0.589700  1.0  0.0936
  H  H57  1  0.238500  0.793600  0.716300  1.0  0.1096
  H  H58  1  0.130800  0.668200  0.746500  1.0  0.1098
  H  H59  1  0.987900  0.850700  0.649200  1.0  0.1095
  H  H60  1  0.080000  0.872800  0.577800  1.0  0.1164
  H  H61  1  0.311200  0.290100  0.746700  1.0  0.076
  H  H62  1  0.435600  0.434400  0.811400  1.0  0.123
  H  H63  1  0.280300  0.582600  0.923800  1.0  0.1259
  H  H64  1  0.160500  0.433600  0.857100  1.0  0.0704
  H  H65  1  0.695100  0.946200  0.095800  1.0  0.0791
  H  H66  1  0.548400  0.838400  0.045400  1.0  0.1166
  H  H67  1  0.545100  0.866000  0.826300  1.0  0.1076
  H  H68  1  0.692000  0.971300  0.881300  1.0  0.0726
  H  H69  1  0.514100  0.590300  0.915000  1.0  0.0915
  H  H70  1  0.470400  0.616900  0.978300  1.0  0.0881
  H  H71  1  0.410200  0.760300  0.835200  1.0  0.0851
  H  H72  1  0.388200  0.794700  0.910300  1.0  0.0936
  C  C73  1  0.174670  0.665000  0.201900  1.0  -0.0945
  C  C74  1  0.108890  0.740200  0.235570  1.0  -0.1072
  C  C75  1  0.023460  0.731000  0.151210  1.0  -0.0996
  C  C76  1  0.098520  0.702300  0.114890  1.0  -0.091
  C  C77  1  0.181200  0.518500  0.218580  1.0  0.6556
  C  C78  1  0.097370  0.684600  0.307450  1.0  0.689
  C  C79  1  0.950590  0.840700  0.124140  1.0  0.6864
  C  C80  1  0.130450  0.820700  0.081320  1.0  0.6787
  C  C81  1  0.305000  0.150600  0.283300  1.0  0.1616
  C  C82  1  0.380200  0.064000  0.322100  1.0  -0.2329
  C  C83  1  0.373500  0.974700  0.377000  1.0  0.1301
  C  C84  1  0.289100  0.976700  0.388500  1.0  -0.2034
  C  C85  1  0.216800  0.066700  0.347700  1.0  0.1821
  C  C86  1  0.664900  0.570700  0.540780  1.0  0.1867
  C  C87  1  0.576700  0.635800  0.510800  1.0  -0.2029
  C  C88  1  0.530000  0.662900  0.429100  1.0  0.1428
  C  C89  1  0.574600  0.619900  0.381700  1.0  -0.2368
  C  C90  1  0.662900  0.555800  0.415100  1.0  0.1768
  C  C91  1  0.456300  0.880100  0.421300  1.0  -0.1692
  C  C92  1  0.436300  0.742600  0.393600  1.0  -0.2135
  C  C93  1  0.825330  0.165000  0.298100  1.0  -0.0966
  C  C94  1  0.891110  0.240200  0.264430  1.0  -0.1082
  C  C95  1  0.976540  0.231000  0.348790  1.0  -0.0969
  C  C96  1  0.901480  0.202300  0.385110  1.0  -0.0909
  C  C97  1  0.818800  0.018500  0.281420  1.0  0.6565
  C  C98  1  0.902630  0.184600  0.192550  1.0  0.6879
  C  C99  1  0.049410  0.340700  0.375860  1.0  0.6869
  C  C100  1  0.869550  0.320700  0.418680  1.0  0.6796
  C  C101  1  0.695000  0.650600  0.216700  1.0  0.1611
  C  C102  1  0.619800  0.564000  0.177900  1.0  -0.2335
  C  C103  1  0.626500  0.474700  0.123000  1.0  0.1303
  C  C104  1  0.710900  0.476700  0.111500  1.0  -0.2028
  C  C105  1  0.783200  0.566700  0.152300  1.0  0.1823
  C  C106  1  0.335100  0.070700  0.959220  1.0  0.1861
  C  C107  1  0.423300  0.135800  0.989200  1.0  -0.2028
  C  C108  1  0.470000  0.162900  0.070900  1.0  0.1424
  C  C109  1  0.425400  0.119900  0.118300  1.0  -0.2362
  C  C110  1  0.337100  0.055800  0.084900  1.0  0.178
  C  C111  1  0.543700  0.380100  0.078700  1.0  -0.1701
  C  C112  1  0.563700  0.242600  0.106400  1.0  -0.2118
  C  C113  1  0.825330  0.335000  0.798100  1.0  -0.0975
  C  C114  1  0.891110  0.259800  0.764430  1.0  -0.1078
  C  C115  1  0.976540  0.269000  0.848790  1.0  -0.0955
  C  C116  1  0.901480  0.297700  0.885110  1.0  -0.0905
  C  C117  1  0.818800  0.481500  0.781420  1.0  0.6561
  C  C118  1  0.902630  0.315400  0.692550  1.0  0.688
  C  C119  1  0.049410  0.159300  0.875860  1.0  0.6868
  C  C120  1  0.869550  0.179300  0.918680  1.0  0.6792
  C  C121  1  0.695000  0.849400  0.716700  1.0  0.1616
  C  C122  1  0.619800  0.936000  0.677900  1.0  -0.2337
  C  C123  1  0.626500  0.025300  0.623000  1.0  0.1305
  C  C124  1  0.710900  0.023300  0.611500  1.0  -0.2029
  C  C125  1  0.783200  0.933300  0.652300  1.0  0.1818
  C  C126  1  0.335100  0.429300  0.459220  1.0  0.1859
  C  C127  1  0.423300  0.364200  0.489200  1.0  -0.2026
  C  C128  1  0.470000  0.337100  0.570900  1.0  0.1423
  C  C129  1  0.425400  0.380100  0.618300  1.0  -0.2361
  C  C130  1  0.337100  0.444200  0.584900  1.0  0.1774
  C  C131  1  0.543700  0.119900  0.578700  1.0  -0.1699
  C  C132  1  0.563700  0.257400  0.606400  1.0  -0.2106
  C  C133  1  0.174670  0.835000  0.701900  1.0  -0.0939
  C  C134  1  0.108890  0.759800  0.735570  1.0  -0.1073
  C  C135  1  0.023460  0.769000  0.651210  1.0  -0.0984
  C  C136  1  0.098520  0.797700  0.614890  1.0  -0.0901
  C  C137  1  0.181200  0.981500  0.718580  1.0  0.6565
  C  C138  1  0.097370  0.815400  0.807450  1.0  0.6896
  C  C139  1  0.950590  0.659300  0.624140  1.0  0.6862
  C  C140  1  0.130450  0.679300  0.581320  1.0  0.6784
  C  C141  1  0.305000  0.349400  0.783300  1.0  0.1607
  C  C142  1  0.380200  0.436000  0.822100  1.0  -0.2328
  C  C143  1  0.373500  0.525300  0.877000  1.0  0.1303
  C  C144  1  0.289100  0.523300  0.888500  1.0  -0.2034
  C  C145  1  0.216800  0.433300  0.847700  1.0  0.1822
  C  C146  1  0.664900  0.929300  0.040780  1.0  0.1861
  C  C147  1  0.576700  0.864200  0.010800  1.0  -0.2029
  C  C148  1  0.530000  0.837100  0.929100  1.0  0.1427
  C  C149  1  0.574600  0.880100  0.881700  1.0  -0.2365
  C  C150  1  0.662900  0.944200  0.915100  1.0  0.1766
  C  C151  1  0.456300  0.619900  0.921300  1.0  -0.169
  C  C152  1  0.436300  0.757400  0.893600  1.0  -0.213
  N  N153  1  0.223480  0.153100  0.295920  1.0  -0.3247
  N  N154  1  0.708640  0.530900  0.493900  1.0  -0.3452
  N  N155  1  0.776520  0.653100  0.204080  1.0  -0.3248
  N  N156  1  0.291360  0.030900  0.006100  1.0  -0.3457
  N  N157  1  0.776520  0.846900  0.704080  1.0  -0.3242
  N  N158  1  0.291360  0.469100  0.506100  1.0  -0.3452
  N  N159  1  0.223480  0.346900  0.795920  1.0  -0.3268
  N  N160  1  0.708640  0.969100  0.993900  1.0  -0.3453
  O  O161  1  0.099230  0.455990  0.192430  1.0  -0.6253
  O  O162  1  0.260310  0.465100  0.256120  1.0  -0.5734
  O  O163  1  0.014650  0.679150  0.309600  1.0  -0.6306
  O  O164  1  0.174050  0.645280  0.364950  1.0  -0.5799
  O  O165  1  0.943810  0.912170  0.065280  1.0  -0.5772
  O  O166  1  0.896050  0.856930  0.160240  1.0  -0.6061
  O  O167  1  0.117940  0.808950  0.007520  1.0  -0.5992
  O  O168  1  0.167550  0.917800  0.123430  1.0  -0.5516
  O  O169  1  0.900770  0.955990  0.307570  1.0  -0.6236
  O  O170  1  0.739690  0.965100  0.243880  1.0  -0.5708
  O  O171  1  0.985350  0.179150  0.190400  1.0  -0.6281
  O  O172  1  0.825950  0.145280  0.135050  1.0  -0.5803
  O  O173  1  0.056190  0.412170  0.434720  1.0  -0.5765
  O  O174  1  0.103950  0.356930  0.339760  1.0  -0.6062
  O  O175  1  0.882060  0.308950  0.492480  1.0  -0.598
  O  O176  1  0.832450  0.417800  0.376570  1.0  -0.5523
  O  O177  1  0.900770  0.544010  0.807570  1.0  -0.6237
  O  O178  1  0.739690  0.534900  0.743880  1.0  -0.5709
  O  O179  1  0.985350  0.320850  0.690400  1.0  -0.6281
  O  O180  1  0.825950  0.354720  0.635050  1.0  -0.5803
  O  O181  1  0.056190  0.087830  0.934720  1.0  -0.5764
  O  O182  1  0.103950  0.143070  0.839760  1.0  -0.6061
  O  O183  1  0.882060  0.191050  0.992480  1.0  -0.5984
  O  O184  1  0.832450  0.082200  0.876570  1.0  -0.5518
  O  O185  1  0.099230  0.044010  0.692430  1.0  -0.6243
  O  O186  1  0.260310  0.034900  0.756120  1.0  -0.5731
  O  O187  1  0.014650  0.820850  0.809600  1.0  -0.6307
  O  O188  1  0.174050  0.854720  0.864950  1.0  -0.5796
  O  O189  1  0.943810  0.587830  0.565280  1.0  -0.5769
  O  O190  1  0.896050  0.643070  0.660240  1.0  -0.6059
  O  O191  1  0.117940  0.691050  0.507520  1.0  -0.5985
  O  O192  1  0.167550  0.582200  0.623430  1.0  -0.5513
