# generated using pymatgen
data_CoH9(C5N2)3
_symmetry_space_group_name_H-M   'P 1'
_cell_length_a   10.58350000
_cell_length_b   11.64860000
_cell_length_c   17.60900000
_cell_angle_alpha   90.00000000
_cell_angle_beta   90.00000000
_cell_angle_gamma   110.27200000
_symmetry_Int_Tables_number   1
_chemical_formula_structural   CoH9(C5N2)3
_chemical_formula_sum   'Co4 H36 C60 N24'
_cell_volume   2036.42116250
_cell_formula_units_Z   4
loop_
 _symmetry_equiv_pos_site_id
 _symmetry_equiv_pos_as_xyz
  1  'x, y, z'
loop_
 _atom_site_type_symbol
 _atom_site_label
 _atom_site_symmetry_multiplicity
 _atom_site_fract_x
 _atom_site_fract_y
 _atom_site_fract_z
 _atom_site_occupancy
 _atom_site_charge
  Co  Co1  1  0.983170  0.216280  0.826470  1.0  0.7492
  Co  Co2  1  0.516830  0.783720  0.326470  1.0  0.7494
  Co  Co3  1  0.016830  0.783720  0.173530  1.0  0.7495
  Co  Co4  1  0.483170  0.216280  0.673530  1.0  0.7493
  H  H5  1  0.298800  0.632000  0.654100  1.0  0.1122
  H  H6  1  0.338700  0.978900  0.604400  1.0  0.1047
  H  H7  1  0.124600  0.815100  0.786100  1.0  0.112
  H  H8  1  0.152500  0.447100  0.712600  1.0  0.119
  H  H9  1  0.966200  0.450400  0.903500  1.0  0.0854
  H  H10  1  0.358700  0.872900  0.460800  1.0  0.1105
  H  H11  1  0.632400  0.719400  0.477200  1.0  0.0925
  H  H12  1  0.019400  0.967700  0.770600  1.0  0.1089
  H  H13  1  0.272300  0.301300  0.746300  1.0  0.0882
  H  H14  1  0.201200  0.368000  0.154100  1.0  0.1128
  H  H15  1  0.161300  0.021100  0.104400  1.0  0.1046
  H  H16  1  0.375400  0.184900  0.286100  1.0  0.1125
  H  H17  1  0.347500  0.552900  0.212600  1.0  0.119
  H  H18  1  0.533800  0.549600  0.403500  1.0  0.0858
  H  H19  1  0.141300  0.127100  0.960800  1.0  0.1117
  H  H20  1  0.867600  0.280600  0.977200  1.0  0.0924
  H  H21  1  0.480600  0.032300  0.270600  1.0  0.109
  H  H22  1  0.227700  0.698700  0.246300  1.0  0.089
  H  H23  1  0.701200  0.368000  0.345900  1.0  0.1124
  H  H24  1  0.661300  0.021100  0.395600  1.0  0.1046
  H  H25  1  0.875400  0.184900  0.213900  1.0  0.1126
  H  H26  1  0.847500  0.552900  0.287400  1.0  0.1185
  H  H27  1  0.033800  0.549600  0.096500  1.0  0.0853
  H  H28  1  0.641300  0.127100  0.539200  1.0  0.1096
  H  H29  1  0.367600  0.280600  0.522800  1.0  0.0925
  H  H30  1  0.980600  0.032300  0.229400  1.0  0.1092
  H  H31  1  0.727700  0.698700  0.253700  1.0  0.0891
  H  H32  1  0.798800  0.632000  0.845900  1.0  0.1126
  H  H33  1  0.838700  0.978900  0.895600  1.0  0.1049
  H  H34  1  0.624600  0.815100  0.713900  1.0  0.1122
  H  H35  1  0.652500  0.447100  0.787400  1.0  0.1187
  H  H36  1  0.466200  0.450400  0.596500  1.0  0.0846
  H  H37  1  0.858700  0.872900  0.039200  1.0  0.1094
  H  H38  1  0.132400  0.719400  0.022800  1.0  0.0928
  H  H39  1  0.519400  0.967700  0.729400  1.0  0.1092
  H  H40  1  0.772300  0.301300  0.753700  1.0  0.0887
  C  C41  1  0.199000  0.703700  0.726630  1.0  -0.0791
  C  C42  1  0.280300  0.702600  0.665080  1.0  -0.1169
  C  C43  1  0.334300  0.805100  0.619630  1.0  -0.0332
  C  C44  1  0.306700  0.911300  0.636240  1.0  -0.1007
  C  C45  1  0.232300  0.916100  0.699700  1.0  -0.0811
  C  C46  1  0.176900  0.812400  0.744200  1.0  -0.1183
  C  C47  1  0.133300  0.592200  0.770530  1.0  0.0391
  C  C48  1  0.117700  0.473600  0.754930  1.0  0.035
  C  C49  1  0.015900  0.475700  0.859200  1.0  0.2931
  C  C50  1  0.418300  0.799700  0.554110  1.0  0.0738
  C  C51  1  0.414900  0.833800  0.480300  1.0  0.0502
  C  C52  1  0.564400  0.749600  0.489470  1.0  0.2729
  C  C53  1  0.205100  0.028000  0.722230  1.0  0.1053
  C  C54  1  0.095100  0.034400  0.757900  1.0  0.0405
  C  C55  1  0.233900  0.216500  0.744400  1.0  0.2949
  C  C56  1  0.301000  0.296300  0.226630  1.0  -0.0779
  C  C57  1  0.219700  0.297400  0.165080  1.0  -0.1196
  C  C58  1  0.165700  0.194900  0.119630  1.0  -0.0333
  C  C59  1  0.193300  0.088700  0.136240  1.0  -0.1036
  C  C60  1  0.267700  0.083900  0.199700  1.0  -0.0806
  C  C61  1  0.323100  0.187600  0.244200  1.0  -0.1174
  C  C62  1  0.366700  0.407800  0.270530  1.0  0.0393
  C  C63  1  0.382300  0.526400  0.254930  1.0  0.0345
  C  C64  1  0.484100  0.524300  0.359200  1.0  0.2923
  C  C65  1  0.081700  0.200300  0.054110  1.0  0.0733
  C  C66  1  0.085100  0.166200  0.980300  1.0  0.0505
  C  C67  1  0.935600  0.250400  0.989470  1.0  0.2719
  C  C68  1  0.294900  0.972000  0.222230  1.0  0.1057
  C  C69  1  0.404900  0.965600  0.257900  1.0  0.0418
  C  C70  1  0.266100  0.783500  0.244400  1.0  0.2942
  C  C71  1  0.801000  0.296300  0.273370  1.0  -0.0794
  C  C72  1  0.719700  0.297400  0.334920  1.0  -0.1166
  C  C73  1  0.665700  0.194900  0.380370  1.0  -0.0338
  C  C74  1  0.693300  0.088700  0.363760  1.0  -0.1029
  C  C75  1  0.767700  0.083900  0.300300  1.0  -0.0807
  C  C76  1  0.823100  0.187600  0.255800  1.0  -0.1193
  C  C77  1  0.866700  0.407800  0.229470  1.0  0.0401
  C  C78  1  0.882300  0.526400  0.245070  1.0  0.0333
  C  C79  1  0.984100  0.524300  0.140800  1.0  0.2932
  C  C80  1  0.581700  0.200300  0.445890  1.0  0.0733
  C  C81  1  0.585100  0.166200  0.519700  1.0  0.0499
  C  C82  1  0.435600  0.250400  0.510530  1.0  0.2724
  C  C83  1  0.794900  0.972000  0.277770  1.0  0.106
  C  C84  1  0.904900  0.965600  0.242100  1.0  0.0425
  C  C85  1  0.766100  0.783500  0.255600  1.0  0.2938
  C  C86  1  0.699000  0.703700  0.773370  1.0  -0.0786
  C  C87  1  0.780300  0.702600  0.834920  1.0  -0.1169
  C  C88  1  0.834300  0.805100  0.880370  1.0  -0.0335
  C  C89  1  0.806700  0.911300  0.863760  1.0  -0.0972
  C  C90  1  0.732300  0.916100  0.800300  1.0  -0.081
  C  C91  1  0.676900  0.812400  0.755800  1.0  -0.1195
  C  C92  1  0.633300  0.592200  0.729470  1.0  0.0397
  C  C93  1  0.617700  0.473600  0.745070  1.0  0.0351
  C  C94  1  0.515900  0.475700  0.640800  1.0  0.2928
  C  C95  1  0.918300  0.799700  0.945890  1.0  0.0739
  C  C96  1  0.914900  0.833800  0.019700  1.0  0.0498
  C  C97  1  0.064400  0.749600  0.010530  1.0  0.2734
  C  C98  1  0.705100  0.028000  0.777770  1.0  0.1058
  C  C99  1  0.595100  0.034400  0.742100  1.0  0.041
  C  C100  1  0.733900  0.216500  0.755600  1.0  0.2948
  N  N101  1  0.042800  0.398900  0.811380  1.0  -0.3926
  N  N102  1  0.066600  0.591800  0.837700  1.0  -0.3679
  N  N103  1  0.507700  0.801300  0.439220  1.0  -0.3672
  N  N104  1  0.514400  0.745000  0.559560  1.0  -0.3917
  N  N105  1  0.112100  0.154900  0.772540  1.0  -0.4108
  N  N106  1  0.295800  0.145900  0.713350  1.0  -0.4298
  N  N107  1  0.457200  0.601100  0.311380  1.0  -0.3921
  N  N108  1  0.433400  0.408200  0.337700  1.0  -0.364
  N  N109  1  0.992300  0.198700  0.939220  1.0  -0.3682
  N  N110  1  0.985600  0.255000  0.059560  1.0  -0.3905
  N  N111  1  0.387900  0.845100  0.272540  1.0  -0.4111
  N  N112  1  0.204200  0.854100  0.213350  1.0  -0.4301
  N  N113  1  0.957200  0.601100  0.188620  1.0  -0.3923
  N  N114  1  0.933400  0.408200  0.162300  1.0  -0.365
  N  N115  1  0.492300  0.198700  0.560780  1.0  -0.3678
  N  N116  1  0.485600  0.255000  0.440440  1.0  -0.3899
  N  N117  1  0.887900  0.845100  0.227460  1.0  -0.4112
  N  N118  1  0.704200  0.854100  0.286650  1.0  -0.4298
  N  N119  1  0.542800  0.398900  0.688620  1.0  -0.3929
  N  N120  1  0.566600  0.591800  0.662300  1.0  -0.3672
  N  N121  1  0.007700  0.801300  0.060780  1.0  -0.3674
  N  N122  1  0.014400  0.745000  0.940440  1.0  -0.3924
  N  N123  1  0.612100  0.154900  0.727460  1.0  -0.4109
  N  N124  1  0.795800  0.145900  0.786650  1.0  -0.4296
