# generated using pymatgen
data_Mg2PH13C21O8
_symmetry_space_group_name_H-M   'P 1'
_cell_length_a   13.57920000
_cell_length_b   13.89580000
_cell_length_c   20.74780000
_cell_angle_alpha   90.00000000
_cell_angle_beta   104.88200000
_cell_angle_gamma   90.00000000
_symmetry_Int_Tables_number   1
_chemical_formula_structural   Mg2PH13C21O8
_chemical_formula_sum   'Mg8 P4 H52 C84 O32'
_cell_volume   3783.66122319
_cell_formula_units_Z   4
loop_
 _symmetry_equiv_pos_site_id
 _symmetry_equiv_pos_as_xyz
  1  'x, y, z'
loop_
 _atom_site_type_symbol
 _atom_site_label
 _atom_site_symmetry_multiplicity
 _atom_site_fract_x
 _atom_site_fract_y
 _atom_site_fract_z
 _atom_site_occupancy
 _atom_site_charge
  Mg  Mg1  1  0.346140  0.133950  0.049530  1.0  1.5762
  Mg  Mg2  1  0.594930  0.042990  0.051700  1.0  1.5577
  Mg  Mg3  1  0.653860  0.633950  0.450470  1.0  1.5741
  Mg  Mg4  1  0.405070  0.542990  0.448300  1.0  1.5581
  Mg  Mg5  1  0.653860  0.866050  0.950470  1.0  1.5714
  Mg  Mg6  1  0.405070  0.957010  0.948300  1.0  1.5569
  Mg  Mg7  1  0.346140  0.366050  0.549530  1.0  1.5739
  Mg  Mg8  1  0.594930  0.457010  0.551700  1.0  1.5574
  P  P9  1  0.264040  0.037050  0.181500  1.0  1.1525
  P  P10  1  0.735960  0.537050  0.318500  1.0  1.1563
  P  P11  1  0.735960  0.962950  0.818500  1.0  1.1561
  P  P12  1  0.264040  0.462950  0.681500  1.0  1.1523
  H  H13  1  0.432900  0.973800  0.072900  1.0  0.3808
  H  H14  1  0.324800  0.232200  0.193100  1.0  0.0913
  H  H15  1  0.362500  0.345200  0.278600  1.0  0.0889
  H  H16  1  0.286400  0.154300  0.403400  1.0  0.0857
  H  H17  1  0.246800  0.040200  0.318300  1.0  0.0957
  H  H18  1  0.080700  0.131400  0.195600  1.0  0.0831
  H  H19  1  0.907700  0.116200  0.142300  1.0  0.0893
  H  H20  1  0.970200  0.894300  0.035500  1.0  0.09
  H  H21  1  0.144300  0.910700  0.086100  1.0  0.0972
  H  H22  1  0.178800  0.866700  0.231900  1.0  0.0844
  H  H23  1  0.251800  0.738700  0.299900  1.0  0.0854
  H  H24  1  0.532200  0.839400  0.303500  1.0  0.0863
  H  H25  1  0.459900  0.960800  0.230700  1.0  0.0829
  H  H26  1  0.567100  0.473800  0.427100  1.0  0.3797
  H  H27  1  0.675200  0.732200  0.306900  1.0  0.0918
  H  H28  1  0.637500  0.845200  0.221400  1.0  0.089
  H  H29  1  0.713600  0.654300  0.096600  1.0  0.0853
  H  H30  1  0.753200  0.540200  0.181700  1.0  0.0956
  H  H31  1  0.919300  0.631400  0.304400  1.0  0.0836
  H  H32  1  0.092300  0.616200  0.357700  1.0  0.0894
  H  H33  1  0.029800  0.394300  0.464500  1.0  0.0905
  H  H34  1  0.855700  0.410700  0.413900  1.0  0.0973
  H  H35  1  0.821200  0.366700  0.268100  1.0  0.0843
  H  H36  1  0.748200  0.238700  0.200100  1.0  0.0853
  H  H37  1  0.467800  0.339400  0.196500  1.0  0.0861
  H  H38  1  0.540100  0.460800  0.269300  1.0  0.0832
  H  H39  1  0.567100  0.026200  0.927100  1.0  0.3798
  H  H40  1  0.675200  0.767800  0.806900  1.0  0.0916
  H  H41  1  0.637500  0.654800  0.721400  1.0  0.089
  H  H42  1  0.713600  0.845700  0.596600  1.0  0.0852
  H  H43  1  0.753200  0.959800  0.681700  1.0  0.0955
  H  H44  1  0.919300  0.868600  0.804400  1.0  0.0838
  H  H45  1  0.092300  0.883800  0.857700  1.0  0.0895
  H  H46  1  0.029800  0.105700  0.964500  1.0  0.0904
  H  H47  1  0.855700  0.089300  0.913900  1.0  0.0976
  H  H48  1  0.821200  0.133300  0.768100  1.0  0.0845
  H  H49  1  0.748200  0.261300  0.700100  1.0  0.0853
  H  H50  1  0.467800  0.160600  0.696500  1.0  0.0859
  H  H51  1  0.540100  0.039200  0.769300  1.0  0.0832
  H  H52  1  0.432900  0.526200  0.572900  1.0  0.3798
  H  H53  1  0.324800  0.267800  0.693100  1.0  0.0916
  H  H54  1  0.362500  0.154800  0.778600  1.0  0.0887
  H  H55  1  0.286400  0.345700  0.903400  1.0  0.0854
  H  H56  1  0.246800  0.459800  0.818300  1.0  0.0956
  H  H57  1  0.080700  0.368600  0.695600  1.0  0.0838
  H  H58  1  0.907700  0.383800  0.642300  1.0  0.0893
  H  H59  1  0.970200  0.605700  0.535500  1.0  0.0911
  H  H60  1  0.144300  0.589300  0.586100  1.0  0.0975
  H  H61  1  0.178800  0.633300  0.731900  1.0  0.0846
  H  H62  1  0.251800  0.761300  0.799900  1.0  0.0852
  H  H63  1  0.532200  0.660600  0.803500  1.0  0.0865
  H  H64  1  0.459900  0.539200  0.730700  1.0  0.0827
  C  C65  1  0.284100  0.125600  0.247310  1.0  -0.2837
  C  C66  1  0.317400  0.215700  0.236100  1.0  -0.0917
  C  C67  1  0.340200  0.282700  0.287000  1.0  -0.0834
  C  C68  1  0.330800  0.259400  0.350360  1.0  -0.1181
  C  C69  1  0.295100  0.170000  0.360600  1.0  -0.046
  C  C70  1  0.271300  0.101900  0.310300  1.0  -0.1301
  C  C71  1  0.359200  0.331500  0.406600  1.0  0.6906
  C  C72  1  0.129300  0.022900  0.146080  1.0  -0.2876
  C  C73  1  0.058700  0.083300  0.162500  1.0  -0.052
  C  C74  1  0.955800  0.074200  0.130800  1.0  -0.0812
  C  C75  1  0.923400  0.005100  0.083400  1.0  -0.1419
  C  C76  1  0.993100  0.943500  0.067600  1.0  -0.057
  C  C77  1  0.096500  0.952500  0.098000  1.0  -0.0898
  C  C78  1  0.809900  0.993900  0.049500  1.0  0.6687
  C  C79  1  0.311400  0.927300  0.225400  1.0  -0.2467
  C  C80  1  0.250900  0.860800  0.246000  1.0  -0.0752
  C  C81  1  0.294300  0.785300  0.287100  1.0  -0.0682
  C  C82  1  0.399300  0.777200  0.309900  1.0  -0.1632
  C  C83  1  0.460100  0.844200  0.288500  1.0  -0.0581
  C  C84  1  0.417300  0.917000  0.246200  1.0  -0.0725
  C  C85  1  0.447100  0.699800  0.359200  1.0  0.6948
  C  C86  1  0.715900  0.625600  0.252690  1.0  -0.2822
  C  C87  1  0.682600  0.715700  0.263900  1.0  -0.091
  C  C88  1  0.659800  0.782700  0.213000  1.0  -0.0844
  C  C89  1  0.669200  0.759400  0.149640  1.0  -0.1186
  C  C90  1  0.704900  0.670000  0.139400  1.0  -0.0437
  C  C91  1  0.728700  0.601900  0.189700  1.0  -0.1298
  C  C92  1  0.640800  0.831500  0.093400  1.0  0.6909
  C  C93  1  0.870700  0.522900  0.353920  1.0  -0.2876
  C  C94  1  0.941300  0.583300  0.337500  1.0  -0.0509
  C  C95  1  0.044200  0.574200  0.369200  1.0  -0.0807
  C  C96  1  0.076600  0.505100  0.416600  1.0  -0.1407
  C  C97  1  0.006900  0.443500  0.432400  1.0  -0.0581
  C  C98  1  0.903500  0.452500  0.402000  1.0  -0.089
  C  C99  1  0.190100  0.493900  0.450500  1.0  0.6687
  C  C100  1  0.688600  0.427300  0.274600  1.0  -0.2461
  C  C101  1  0.749100  0.360800  0.254000  1.0  -0.0761
  C  C102  1  0.705700  0.285300  0.212900  1.0  -0.0693
  C  C103  1  0.600700  0.277200  0.190100  1.0  -0.1616
  C  C104  1  0.539900  0.344200  0.211500  1.0  -0.059
  C  C105  1  0.582700  0.417000  0.253800  1.0  -0.0726
  C  C106  1  0.552900  0.199800  0.140800  1.0  0.6958
  C  C107  1  0.715900  0.874400  0.752690  1.0  -0.2822
  C  C108  1  0.682600  0.784300  0.763900  1.0  -0.091
  C  C109  1  0.659800  0.717300  0.713000  1.0  -0.0837
  C  C110  1  0.669200  0.740600  0.649640  1.0  -0.1184
  C  C111  1  0.704900  0.830000  0.639400  1.0  -0.0443
  C  C112  1  0.728700  0.898100  0.689700  1.0  -0.1306
  C  C113  1  0.640800  0.668500  0.593400  1.0  0.6907
  C  C114  1  0.870700  0.977100  0.853920  1.0  -0.288
  C  C115  1  0.941300  0.916700  0.837500  1.0  -0.0516
  C  C116  1  0.044200  0.925800  0.869200  1.0  -0.0809
  C  C117  1  0.076600  0.994900  0.916600  1.0  -0.1406
  C  C118  1  0.006900  0.056500  0.932400  1.0  -0.0563
  C  C119  1  0.903500  0.047500  0.902000  1.0  -0.0902
  C  C120  1  0.190100  0.006100  0.950500  1.0  0.6691
  C  C121  1  0.688600  0.072700  0.774600  1.0  -0.2463
  C  C122  1  0.749100  0.139200  0.754000  1.0  -0.0756
  C  C123  1  0.705700  0.214700  0.712900  1.0  -0.0695
  C  C124  1  0.600700  0.222800  0.690100  1.0  -0.1618
  C  C125  1  0.539900  0.155800  0.711500  1.0  -0.0593
  C  C126  1  0.582700  0.083000  0.753800  1.0  -0.0723
  C  C127  1  0.552900  0.300200  0.640800  1.0  0.6963
  C  C128  1  0.284100  0.374400  0.747310  1.0  -0.2838
  C  C129  1  0.317400  0.284300  0.736100  1.0  -0.0925
  C  C130  1  0.340200  0.217300  0.787000  1.0  -0.0829
  C  C131  1  0.330800  0.240600  0.850360  1.0  -0.1173
  C  C132  1  0.295100  0.330000  0.860600  1.0  -0.0461
  C  C133  1  0.271300  0.398100  0.810300  1.0  -0.132
  C  C134  1  0.359200  0.168500  0.906600  1.0  0.6904
  C  C135  1  0.129300  0.477100  0.646080  1.0  -0.2878
  C  C136  1  0.058700  0.416700  0.662500  1.0  -0.0517
  C  C137  1  0.955800  0.425800  0.630800  1.0  -0.0801
  C  C138  1  0.923400  0.494900  0.583400  1.0  -0.1417
  C  C139  1  0.993100  0.556500  0.567600  1.0  -0.0567
  C  C140  1  0.096500  0.547500  0.598000  1.0  -0.09
  C  C141  1  0.809900  0.506100  0.549500  1.0  0.6691
  C  C142  1  0.311400  0.572700  0.725400  1.0  -0.247
  C  C143  1  0.250900  0.639200  0.746000  1.0  -0.0759
  C  C144  1  0.294300  0.714700  0.787100  1.0  -0.0693
  C  C145  1  0.399300  0.722800  0.809900  1.0  -0.1636
  C  C146  1  0.460100  0.655800  0.788500  1.0  -0.0583
  C  C147  1  0.417300  0.583000  0.746200  1.0  -0.0725
  C  C148  1  0.447100  0.800200  0.859200  1.0  0.6955
  O  O149  1  0.321200  0.062300  0.131570  1.0  -0.8323
  O  O150  1  0.371500  0.416900  0.392630  1.0  -0.631
  O  O151  1  0.369500  0.297000  0.464730  1.0  -0.6547
  O  O152  1  0.785700  0.922600  0.011360  1.0  -0.6368
  O  O153  1  0.751800  0.055800  0.062070  1.0  -0.6356
  O  O154  1  0.391600  0.629100  0.365220  1.0  -0.6336
  O  O155  1  0.538400  0.714300  0.389690  1.0  -0.6286
  O  O156  1  0.439960  0.023800  0.039770  1.0  -0.9878
  O  O157  1  0.678800  0.562300  0.368430  1.0  -0.8321
  O  O158  1  0.628500  0.916900  0.107370  1.0  -0.6298
  O  O159  1  0.630500  0.797000  0.035270  1.0  -0.6542
  O  O160  1  0.214300  0.422600  0.488640  1.0  -0.6364
  O  O161  1  0.248200  0.555800  0.437930  1.0  -0.6362
  O  O162  1  0.608400  0.129100  0.134780  1.0  -0.6324
  O  O163  1  0.461600  0.214300  0.110310  1.0  -0.6285
  O  O164  1  0.560040  0.523800  0.460230  1.0  -0.9864
  O  O165  1  0.678800  0.937700  0.868430  1.0  -0.8321
  O  O166  1  0.628500  0.583100  0.607370  1.0  -0.6307
  O  O167  1  0.630500  0.703000  0.535270  1.0  -0.6565
  O  O168  1  0.214300  0.077400  0.988640  1.0  -0.6337
  O  O169  1  0.248200  0.944200  0.937930  1.0  -0.6355
  O  O170  1  0.608400  0.370900  0.634780  1.0  -0.6318
  O  O171  1  0.461600  0.285700  0.610310  1.0  -0.6283
  O  O172  1  0.560040  0.976200  0.960230  1.0  -0.9861
  O  O173  1  0.321200  0.437700  0.631570  1.0  -0.8328
  O  O174  1  0.371500  0.083100  0.892630  1.0  -0.6315
  O  O175  1  0.369500  0.203000  0.964730  1.0  -0.6546
  O  O176  1  0.785700  0.577400  0.511360  1.0  -0.6341
  O  O177  1  0.751800  0.444200  0.562070  1.0  -0.6354
  O  O178  1  0.391600  0.870900  0.865220  1.0  -0.6333
  O  O179  1  0.538400  0.785700  0.889690  1.0  -0.6287
  O  O180  1  0.439960  0.476200  0.539770  1.0  -0.9878
