# generated using pymatgen
data_CoH9(C5N2)3
_symmetry_space_group_name_H-M   'P 1'
_cell_length_a   14.93590000
_cell_length_b   18.11820000
_cell_length_c   18.11820000
_cell_angle_alpha   80.21850000
_cell_angle_beta   65.65820000
_cell_angle_gamma   65.65820000
_symmetry_Int_Tables_number   1
_chemical_formula_structural   CoH9(C5N2)3
_chemical_formula_sum   'Co8 H72 C120 N48'
_cell_volume   4070.01746348
_cell_formula_units_Z   8
loop_
 _symmetry_equiv_pos_site_id
 _symmetry_equiv_pos_as_xyz
  1  'x, y, z'
loop_
 _atom_site_type_symbol
 _atom_site_label
 _atom_site_symmetry_multiplicity
 _atom_site_fract_x
 _atom_site_fract_y
 _atom_site_fract_z
 _atom_site_occupancy
 _atom_site_charge
  Co  Co1  1  0.537370  0.169230  0.577970  1.0  0.8219
  Co  Co2  1  0.784570  0.330770  0.922030  1.0  0.8232
  Co  Co3  1  0.115340  0.422030  0.669230  1.0  0.8204
  Co  Co4  1  0.706600  0.077970  0.830770  1.0  0.8197
  Co  Co5  1  0.462630  0.830770  0.422030  1.0  0.8242
  Co  Co6  1  0.215430  0.669230  0.077970  1.0  0.8208
  Co  Co7  1  0.884660  0.577970  0.330770  1.0  0.8217
  Co  Co8  1  0.293400  0.922030  0.169230  1.0  0.8219
  H  H9  1  0.109200  0.352500  0.503900  1.0  0.1165
  H  H10  1  0.901300  0.247300  0.555300  1.0  0.1109
  H  H11  1  0.129300  0.156400  0.645400  1.0  0.099
  H  H12  1  0.345200  0.142900  0.552500  1.0  0.1093
  H  H13  1  0.352600  0.333000  0.618800  1.0  0.0861
  H  H14  1  0.034100  0.437600  0.412800  1.0  0.1154
  H  H15  1  0.759600  0.463900  0.417300  1.0  0.0622
  H  H16  1  0.796500  0.194900  0.694300  1.0  0.1044
  H  H17  1  0.960600  0.978500  0.753300  1.0  0.0818
  H  H18  1  0.465600  0.147500  0.996100  1.0  0.1159
  H  H19  1  0.203900  0.252700  0.944700  1.0  0.1128
  H  H20  1  0.431100  0.343600  0.854600  1.0  0.0981
  H  H21  1  0.540600  0.357100  0.947500  1.0  0.1094
  H  H22  1  0.804400  0.167000  0.881200  1.0  0.0866
  H  H23  1  0.384500  0.062400  0.087200  1.0  0.1164
  H  H24  1  0.140800  0.036100  0.082700  1.0  0.0626
  H  H25  1  0.185700  0.305100  0.805700  1.0  0.1036
  H  H26  1  0.192400  0.521500  0.746700  1.0  0.0809
  H  H27  1  0.613100  0.496100  0.852500  1.0  0.1162
  H  H28  1  0.456600  0.444700  0.747300  1.0  0.1085
  H  H29  1  0.774700  0.354600  0.656400  1.0  0.0981
  H  H30  1  0.897700  0.447500  0.642900  1.0  0.1067
  H  H31  1  0.971400  0.381200  0.833000  1.0  0.0864
  H  H32  1  0.446900  0.587200  0.937600  1.0  0.1133
  H  H33  1  0.176900  0.582700  0.963900  1.0  0.0634
  H  H34  1  0.490800  0.305700  0.694900  1.0  0.1044
  H  H35  1  0.713900  0.246700  0.478500  1.0  0.0817
  H  H36  1  0.461700  0.003900  0.647500  1.0  0.1166
  H  H37  1  0.148600  0.055300  0.752700  1.0  0.1103
  H  H38  1  0.285700  0.145400  0.843600  1.0  0.0988
  H  H39  1  0.488100  0.052500  0.857100  1.0  0.1076
  H  H40  1  0.685600  0.118800  0.667000  1.0  0.0859
  H  H41  1  0.471700  0.912800  0.562400  1.0  0.1163
  H  H42  1  0.223500  0.917300  0.536100  1.0  0.0609
  H  H43  1  0.991400  0.194300  0.805100  1.0  0.1043
  H  H44  1  0.939100  0.253300  0.021500  1.0  0.08
  H  H45  1  0.890800  0.647500  0.496100  1.0  0.1168
  H  H46  1  0.098700  0.752700  0.444700  1.0  0.1096
  H  H47  1  0.870700  0.843600  0.354600  1.0  0.0986
  H  H48  1  0.654800  0.857100  0.447500  1.0  0.1093
  H  H49  1  0.647400  0.667000  0.381200  1.0  0.0856
  H  H50  1  0.965900  0.562400  0.587200  1.0  0.1154
  H  H51  1  0.240400  0.536100  0.582700  1.0  0.0626
  H  H52  1  0.203500  0.805100  0.305700  1.0  0.1052
  H  H53  1  0.039400  0.021500  0.246700  1.0  0.0801
  H  H54  1  0.534400  0.852500  0.003900  1.0  0.116
  H  H55  1  0.796100  0.747300  0.055300  1.0  0.1111
  H  H56  1  0.568900  0.656400  0.145400  1.0  0.0986
  H  H57  1  0.459400  0.642900  0.052500  1.0  0.1096
  H  H58  1  0.195600  0.833000  0.118800  1.0  0.0862
  H  H59  1  0.615500  0.937600  0.912800  1.0  0.1154
  H  H60  1  0.859200  0.963900  0.917300  1.0  0.063
  H  H61  1  0.814300  0.694900  0.194300  1.0  0.104
  H  H62  1  0.807600  0.478500  0.253300  1.0  0.0812
  H  H63  1  0.386900  0.503900  0.147500  1.0  0.1171
  H  H64  1  0.543400  0.555300  0.252700  1.0  0.1082
  H  H65  1  0.225300  0.645400  0.343600  1.0  0.0979
  H  H66  1  0.102300  0.552500  0.357100  1.0  0.1079
  H  H67  1  0.028600  0.618800  0.167000  1.0  0.0859
  H  H68  1  0.553100  0.412800  0.062400  1.0  0.113
  H  H69  1  0.823100  0.417300  0.036100  1.0  0.0624
  H  H70  1  0.509200  0.694300  0.305100  1.0  0.1046
  H  H71  1  0.286100  0.753300  0.521500  1.0  0.0805
  H  H72  1  0.538300  0.996100  0.352500  1.0  0.116
  H  H73  1  0.851400  0.944700  0.247300  1.0  0.1091
  H  H74  1  0.714300  0.854600  0.156400  1.0  0.0989
  H  H75  1  0.511900  0.947500  0.142900  1.0  0.1078
  H  H76  1  0.314400  0.881200  0.333000  1.0  0.0864
  H  H77  1  0.528300  0.087200  0.437600  1.0  0.1152
  H  H78  1  0.776500  0.082700  0.463900  1.0  0.0609
  H  H79  1  0.008600  0.805700  0.194900  1.0  0.1043
  H  H80  1  0.060900  0.746700  0.978500  1.0  0.0805
  C  C81  1  0.134090  0.254930  0.576290  1.0  -0.0464
  C  C82  1  0.083640  0.312270  0.530250  1.0  -0.0483
  C  C83  1  0.995340  0.310490  0.522830  1.0  -0.087
  C  C84  1  0.958390  0.250120  0.561700  1.0  -0.0713
  C  C85  1  0.005810  0.193570  0.610410  1.0  -0.0766
  C  C86  1  0.095000  0.195730  0.615270  1.0  -0.1189
  C  C87  1  0.228010  0.255510  0.583670  1.0  0.074
  C  C88  1  0.325590  0.195060  0.569160  1.0  0.0558
  C  C89  1  0.328700  0.299100  0.605500  1.0  0.2876
  C  C90  1  0.942610  0.372400  0.474580  1.0  0.0539
  C  C91  1  0.971300  0.430340  0.425060  1.0  0.0305
  C  C92  1  0.821400  0.444900  0.427700  1.0  0.2748
  C  C93  1  0.957210  0.136610  0.660170  1.0  0.0777
  C  C94  1  0.852800  0.148370  0.698230  1.0  0.0178
  C  C95  1  0.942730  0.029990  0.730750  1.0  0.3108
  C  C96  1  0.465310  0.245070  0.923710  1.0  -0.0449
  C  C97  1  0.426160  0.187730  0.969750  1.0  -0.0442
  C  C98  1  0.328660  0.189510  0.977170  1.0  -0.0895
  C  C99  1  0.270210  0.249880  0.938300  1.0  -0.0734
  C  C100  1  0.309790  0.306430  0.889590  1.0  -0.0746
  C  C101  1  0.406000  0.304270  0.884730  1.0  -0.1197
  C  C102  1  0.567190  0.244490  0.916330  1.0  0.0725
  C  C103  1  0.589810  0.304940  0.930840  1.0  0.0557
  C  C104  1  0.733300  0.200900  0.894500  1.0  0.2867
  C  C105  1  0.289590  0.127600  0.025420  1.0  0.0521
  C  C106  1  0.326700  0.069660  0.074940  1.0  0.0303
  C  C107  1  0.194000  0.055100  0.072300  1.0  0.273
  C  C108  1  0.253990  0.363390  0.839830  1.0  0.0765
  C  C109  1  0.199400  0.351630  0.801770  1.0  0.0165
  C  C110  1  0.203470  0.470010  0.769250  1.0  0.3107
  C  C111  1  0.710380  0.423710  0.754930  1.0  -0.0459
  C  C112  1  0.613890  0.469750  0.812270  1.0  -0.0508
  C  C113  1  0.518170  0.477170  0.810490  1.0  -0.0861
  C  C114  1  0.520090  0.438300  0.750120  1.0  -0.0729
  C  C115  1  0.616220  0.389590  0.693570  1.0  -0.073
  C  C116  1  0.710270  0.384730  0.695730  1.0  -0.1209
  C  C117  1  0.811680  0.416330  0.755510  1.0  0.0743
  C  C118  1  0.894750  0.430840  0.695060  1.0  0.0561
  C  C119  1  0.934200  0.394500  0.799100  1.0  0.2865
  C  C120  1  0.417190  0.525420  0.872400  1.0  0.0542
  C  C121  1  0.396360  0.574940  0.930340  1.0  0.0313
  C  C122  1  0.249100  0.572300  0.944900  1.0  0.2755
  C  C123  1  0.617380  0.339830  0.636610  1.0  0.078
  C  C124  1  0.551030  0.301770  0.648370  1.0  0.0189
  C  C125  1  0.673480  0.269250  0.529990  1.0  0.3151
  C  C126  1  0.389020  0.076290  0.745070  1.0  -0.0456
  C  C127  1  0.395910  0.030250  0.687730  1.0  -0.048
  C  C128  1  0.305830  0.022830  0.689510  1.0  -0.0878
  C  C129  1  0.208510  0.061700  0.749880  1.0  -0.0712
  C  C130  1  0.199380  0.110410  0.806430  1.0  -0.077
  C  C131  1  0.290730  0.115270  0.804270  1.0  -0.1218
  C  C132  1  0.483520  0.083670  0.744490  1.0  0.0735
  C  C133  1  0.520650  0.069160  0.804940  1.0  0.0554
  C  C134  1  0.627800  0.105500  0.700900  1.0  0.2886
  C  C135  1  0.315010  0.974580  0.627600  1.0  0.0546
  C  C136  1  0.401640  0.925060  0.569660  1.0  0.03
  C  C137  1  0.266300  0.927700  0.555100  1.0  0.2752
  C  C138  1  0.093820  0.160170  0.863390  1.0  0.0769
  C  C139  1  0.001170  0.198230  0.851630  1.0  0.0182
  C  C140  1  0.972720  0.230750  0.970010  1.0  0.3146
  C  C141  1  0.865910  0.745070  0.423710  1.0  -0.0467
  C  C142  1  0.916360  0.687730  0.469750  1.0  -0.0481
  C  C143  1  0.004660  0.689510  0.477170  1.0  -0.0857
  C  C144  1  0.041610  0.749880  0.438300  1.0  -0.0711
  C  C145  1  0.994190  0.806430  0.389590  1.0  -0.0756
  C  C146  1  0.905000  0.804270  0.384730  1.0  -0.1198
  C  C147  1  0.771990  0.744490  0.416330  1.0  0.0739
  C  C148  1  0.674410  0.804940  0.430840  1.0  0.0558
  C  C149  1  0.671300  0.700900  0.394500  1.0  0.289
  C  C150  1  0.057390  0.627600  0.525420  1.0  0.0528
  C  C151  1  0.028700  0.569660  0.574940  1.0  0.0274
  C  C152  1  0.178600  0.555100  0.572300  1.0  0.2743
  C  C153  1  0.042790  0.863390  0.339830  1.0  0.076
  C  C154  1  0.147200  0.851630  0.301770  1.0  0.0176
  C  C155  1  0.057270  0.970010  0.269250  1.0  0.3121
  C  C156  1  0.534690  0.754930  0.076290  1.0  -0.0447
  C  C157  1  0.573840  0.812270  0.030250  1.0  -0.0476
  C  C158  1  0.671340  0.810490  0.022830  1.0  -0.0903
  C  C159  1  0.729790  0.750120  0.061700  1.0  -0.0739
  C  C160  1  0.690210  0.693570  0.110410  1.0  -0.0762
  C  C161  1  0.594000  0.695730  0.115270  1.0  -0.1193
  C  C162  1  0.432810  0.755510  0.083670  1.0  0.0752
  C  C163  1  0.410190  0.695060  0.069160  1.0  0.0561
  C  C164  1  0.266700  0.799100  0.105500  1.0  0.2852
  C  C165  1  0.710410  0.872400  0.974580  1.0  0.0527
  C  C166  1  0.673300  0.930340  0.925060  1.0  0.0296
  C  C167  1  0.806000  0.944900  0.927700  1.0  0.2732
  C  C168  1  0.746010  0.636610  0.160170  1.0  0.0776
  C  C169  1  0.800600  0.648370  0.198230  1.0  0.0166
  C  C170  1  0.796530  0.529990  0.230750  1.0  0.3098
  C  C171  1  0.289620  0.576290  0.245070  1.0  -0.0469
  C  C172  1  0.386110  0.530250  0.187730  1.0  -0.0466
  C  C173  1  0.481830  0.522830  0.189510  1.0  -0.0865
  C  C174  1  0.479910  0.561700  0.249880  1.0  -0.0689
  C  C175  1  0.383780  0.610410  0.306430  1.0  -0.0735
  C  C176  1  0.289730  0.615270  0.304270  1.0  -0.1201
  C  C177  1  0.188320  0.583670  0.244490  1.0  0.0748
  C  C178  1  0.105250  0.569160  0.304940  1.0  0.0548
  C  C179  1  0.065800  0.605500  0.200900  1.0  0.2881
  C  C180  1  0.582810  0.474580  0.127600  1.0  0.0565
  C  C181  1  0.603640  0.425060  0.069660  1.0  0.0301
  C  C182  1  0.750900  0.427700  0.055100  1.0  0.2745
  C  C183  1  0.382620  0.660170  0.363390  1.0  0.0766
  C  C184  1  0.448970  0.698230  0.351630  1.0  0.0199
  C  C185  1  0.326520  0.730750  0.470010  1.0  0.3136
  C  C186  1  0.610980  0.923710  0.254930  1.0  -0.0435
  C  C187  1  0.604090  0.969750  0.312270  1.0  -0.0507
  C  C188  1  0.694170  0.977170  0.310490  1.0  -0.0861
  C  C189  1  0.791490  0.938300  0.250120  1.0  -0.0731
  C  C190  1  0.800620  0.889590  0.193570  1.0  -0.0775
  C  C191  1  0.709270  0.884730  0.195730  1.0  -0.1229
  C  C192  1  0.516480  0.916330  0.255510  1.0  0.0739
  C  C193  1  0.479350  0.930840  0.195060  1.0  0.0552
  C  C194  1  0.372200  0.894500  0.299100  1.0  0.2876
  C  C195  1  0.684990  0.025420  0.372400  1.0  0.0535
  C  C196  1  0.598360  0.074940  0.430340  1.0  0.0288
  C  C197  1  0.733700  0.072300  0.444900  1.0  0.2749
  C  C198  1  0.906180  0.839830  0.136610  1.0  0.0767
  C  C199  1  0.998830  0.801770  0.148370  1.0  0.0183
  C  C200  1  0.027280  0.769250  0.029990  1.0  0.3142
  N  N201  1  0.390070  0.222280  0.582600  1.0  -0.4196
  N  N202  1  0.230460  0.323380  0.607900  1.0  -0.4139
  N  N203  1  0.893510  0.477270  0.395310  1.0  -0.3858
  N  N204  1  0.844860  0.382520  0.476360  1.0  -0.4376
  N  N205  1  0.842720  0.080670  0.743690  1.0  -0.4048
  N  N206  1  0.014420  0.060820  0.681940  1.0  -0.3723
  N  N207  1  0.694950  0.277720  0.917400  1.0  -0.4176
  N  N208  1  0.661740  0.176620  0.892100  1.0  -0.4148
  N  N209  1  0.266090  0.022730  0.104690  1.0  -0.3871
  N  N210  1  0.203740  0.117480  0.023640  1.0  -0.4353
  N  N211  1  0.167080  0.419330  0.756310  1.0  -0.4056
  N  N212  1  0.257180  0.439180  0.818060  1.0  -0.3748
  N  N213  1  0.972670  0.417400  0.722280  1.0  -0.419
  N  N214  1  0.838360  0.392100  0.823380  1.0  -0.4129
  N  N215  1  0.288820  0.604690  0.977270  1.0  -0.3887
  N  N216  1  0.321220  0.523640  0.882520  1.0  -0.4347
  N  N217  1  0.586410  0.256310  0.580670  1.0  -0.406
  N  N218  1  0.696360  0.318060  0.560820  1.0  -0.3752
  N  N219  1  0.612350  0.082600  0.777720  1.0  -0.4181
  N  N220  1  0.553840  0.107900  0.676620  1.0  -0.4136
  N  N221  1  0.370780  0.895310  0.522730  1.0  -0.3874
  N  N222  1  0.227380  0.976360  0.617480  1.0  -0.437
  N  N223  1  0.923390  0.243690  0.919330  1.0  -0.4078
  N  N224  1  0.075240  0.181940  0.939180  1.0  -0.3754
  N  N225  1  0.609930  0.777720  0.417400  1.0  -0.4195
  N  N226  1  0.769540  0.676620  0.392100  1.0  -0.4123
  N  N227  1  0.106490  0.522730  0.604690  1.0  -0.3871
  N  N228  1  0.155140  0.617480  0.523640  1.0  -0.4404
  N  N229  1  0.157280  0.919330  0.256310  1.0  -0.4066
  N  N230  1  0.985580  0.939180  0.318060  1.0  -0.374
  N  N231  1  0.305050  0.722280  0.082600  1.0  -0.4196
  N  N232  1  0.338260  0.823380  0.107900  1.0  -0.4152
  N  N233  1  0.733910  0.977270  0.895310  1.0  -0.3862
  N  N234  1  0.796260  0.882520  0.976360  1.0  -0.4385
  N  N235  1  0.832920  0.580670  0.243690  1.0  -0.4023
  N  N236  1  0.742820  0.560820  0.181940  1.0  -0.3749
  N  N237  1  0.027330  0.582600  0.277720  1.0  -0.4197
  N  N238  1  0.161640  0.607900  0.176620  1.0  -0.4137
  N  N239  1  0.711180  0.395310  0.022730  1.0  -0.3887
  N  N240  1  0.678780  0.476360  0.117480  1.0  -0.4375
  N  N241  1  0.413590  0.743690  0.419330  1.0  -0.406
  N  N242  1  0.303640  0.681940  0.439180  1.0  -0.3733
  N  N243  1  0.387650  0.917400  0.222280  1.0  -0.4194
  N  N244  1  0.446160  0.892100  0.323380  1.0  -0.4128
  N  N245  1  0.629220  0.104690  0.477270  1.0  -0.3881
  N  N246  1  0.772620  0.023640  0.382520  1.0  -0.4383
  N  N247  1  0.076610  0.756310  0.080670  1.0  -0.4063
  N  N248  1  0.924760  0.818060  0.060820  1.0  -0.3754
