# generated using pymatgen
data_CuH11C17(NO)2
_symmetry_space_group_name_H-M   'P 1'
_cell_length_a   16.26900000
_cell_length_b   20.73000000
_cell_length_c   14.98280000
_cell_angle_alpha   90.00000000
_cell_angle_beta   90.00000000
_cell_angle_gamma   90.00000000
_symmetry_Int_Tables_number   1
_chemical_formula_structural   CuH11C17(NO)2
_chemical_formula_sum   'Cu8 H88 C136 N16 O16'
_cell_volume   5053.04474044
_cell_formula_units_Z   8
loop_
 _symmetry_equiv_pos_site_id
 _symmetry_equiv_pos_as_xyz
  1  'x, y, z'
loop_
 _atom_site_type_symbol
 _atom_site_label
 _atom_site_symmetry_multiplicity
 _atom_site_fract_x
 _atom_site_fract_y
 _atom_site_fract_z
 _atom_site_occupancy
 _atom_site_charge
  Cu  Cu1  1  0.106190  0.566300  0.533140  1.0  0.5783
  Cu  Cu2  1  0.393810  0.933700  0.533140  1.0  0.5778
  Cu  Cu3  1  0.893810  0.066300  0.966860  1.0  0.5795
  Cu  Cu4  1  0.606190  0.433700  0.966860  1.0  0.5789
  Cu  Cu5  1  0.893810  0.433700  0.466860  1.0  0.5782
  Cu  Cu6  1  0.606190  0.066300  0.466860  1.0  0.5804
  Cu  Cu7  1  0.106190  0.933700  0.033140  1.0  0.5773
  Cu  Cu8  1  0.393810  0.566300  0.033140  1.0  0.5784
  H  H9  1  0.133200  0.471600  0.717700  1.0  0.1093
  H  H10  1  0.143600  0.317600  0.884900  1.0  0.1078
  H  H11  1  0.257900  0.488600  0.757800  1.0  0.1265
  H  H12  1  0.838500  0.186500  0.877300  1.0  0.0803
  H  H13  1  0.300300  0.443300  0.054900  1.0  0.0779
  H  H14  1  0.203600  0.384200  0.978200  1.0  0.1228
  H  H15  1  0.119100  0.203100  0.854200  1.0  0.1241
  H  H16  1  0.347000  0.549400  0.843600  1.0  0.0826
  H  H17  1  0.893800  0.279300  0.817000  1.0  0.1258
  H  H18  1  0.057700  0.111900  0.910600  1.0  0.07
  H  H19  1  0.967700  0.327300  0.692700  1.0  0.1101
  H  H20  1  0.366800  0.028400  0.717700  1.0  0.1093
  H  H21  1  0.356400  0.182400  0.884900  1.0  0.1069
  H  H22  1  0.242100  0.011400  0.757800  1.0  0.1268
  H  H23  1  0.661500  0.313500  0.877300  1.0  0.0779
  H  H24  1  0.199700  0.056700  0.054900  1.0  0.0769
  H  H25  1  0.296400  0.115800  0.978200  1.0  0.1226
  H  H26  1  0.380900  0.296900  0.854200  1.0  0.1246
  H  H27  1  0.153000  0.950600  0.843600  1.0  0.0819
  H  H28  1  0.606200  0.220700  0.817000  1.0  0.1256
  H  H29  1  0.442300  0.388100  0.910600  1.0  0.0691
  H  H30  1  0.532300  0.172700  0.692700  1.0  0.1114
  H  H31  1  0.866800  0.971600  0.782300  1.0  0.1095
  H  H32  1  0.856400  0.817600  0.615100  1.0  0.107
  H  H33  1  0.742100  0.988600  0.742200  1.0  0.1265
  H  H34  1  0.161500  0.686500  0.622700  1.0  0.0806
  H  H35  1  0.699700  0.943300  0.445100  1.0  0.0777
  H  H36  1  0.796400  0.884200  0.521800  1.0  0.1225
  H  H37  1  0.880900  0.703100  0.645800  1.0  0.1245
  H  H38  1  0.653000  0.049400  0.656400  1.0  0.0823
  H  H39  1  0.106200  0.779300  0.683000  1.0  0.1251
  H  H40  1  0.942300  0.611900  0.589400  1.0  0.0699
  H  H41  1  0.032300  0.827300  0.807300  1.0  0.11
  H  H42  1  0.633200  0.528400  0.782300  1.0  0.1093
  H  H43  1  0.643600  0.682400  0.615100  1.0  0.1073
  H  H44  1  0.757900  0.511400  0.742200  1.0  0.1263
  H  H45  1  0.338500  0.813500  0.622700  1.0  0.0788
  H  H46  1  0.800300  0.556700  0.445100  1.0  0.0778
  H  H47  1  0.703600  0.615800  0.521800  1.0  0.1223
  H  H48  1  0.619100  0.796900  0.645800  1.0  0.1238
  H  H49  1  0.847000  0.450600  0.656400  1.0  0.0818
  H  H50  1  0.393800  0.720700  0.683000  1.0  0.1258
  H  H51  1  0.557700  0.888100  0.589400  1.0  0.0695
  H  H52  1  0.467700  0.672700  0.807300  1.0  0.1095
  H  H53  1  0.866800  0.528400  0.282300  1.0  0.1092
  H  H54  1  0.856400  0.682400  0.115100  1.0  0.1069
  H  H55  1  0.742100  0.511400  0.242200  1.0  0.1265
  H  H56  1  0.161500  0.813500  0.122700  1.0  0.0806
  H  H57  1  0.699700  0.556700  0.945100  1.0  0.0777
  H  H58  1  0.796400  0.615800  0.021800  1.0  0.1228
  H  H59  1  0.880900  0.796900  0.145800  1.0  0.1246
  H  H60  1  0.653000  0.450600  0.156400  1.0  0.0816
  H  H61  1  0.106200  0.720700  0.183000  1.0  0.1255
  H  H62  1  0.942300  0.888100  0.089400  1.0  0.0696
  H  H63  1  0.032300  0.672700  0.307300  1.0  0.1104
  H  H64  1  0.633200  0.971600  0.282300  1.0  0.1093
  H  H65  1  0.643600  0.817600  0.115100  1.0  0.1074
  H  H66  1  0.757900  0.988600  0.242200  1.0  0.1261
  H  H67  1  0.338500  0.686500  0.122700  1.0  0.0812
  H  H68  1  0.800300  0.943300  0.945100  1.0  0.078
  H  H69  1  0.703600  0.884200  0.021800  1.0  0.1221
  H  H70  1  0.619100  0.703100  0.145800  1.0  0.1239
  H  H71  1  0.847000  0.049400  0.156400  1.0  0.0826
  H  H72  1  0.393800  0.779300  0.183000  1.0  0.1255
  H  H73  1  0.557700  0.611900  0.089400  1.0  0.0704
  H  H74  1  0.467700  0.827300  0.307300  1.0  0.1095
  H  H75  1  0.133200  0.028400  0.217700  1.0  0.1094
  H  H76  1  0.143600  0.182400  0.384900  1.0  0.1072
  H  H77  1  0.257900  0.011400  0.257800  1.0  0.1263
  H  H78  1  0.838500  0.313500  0.377300  1.0  0.0779
  H  H79  1  0.300300  0.056700  0.554900  1.0  0.0775
  H  H80  1  0.203600  0.115800  0.478200  1.0  0.1225
  H  H81  1  0.119100  0.296900  0.354200  1.0  0.1239
  H  H82  1  0.347000  0.950600  0.343600  1.0  0.0821
  H  H83  1  0.893800  0.220700  0.317000  1.0  0.1259
  H  H84  1  0.057700  0.388100  0.410600  1.0  0.0691
  H  H85  1  0.967700  0.172700  0.192700  1.0  0.1105
  H  H86  1  0.366800  0.471600  0.217700  1.0  0.1096
  H  H87  1  0.356400  0.317600  0.384900  1.0  0.1075
  H  H88  1  0.242100  0.488600  0.257800  1.0  0.1271
  H  H89  1  0.661500  0.186500  0.377300  1.0  0.0804
  H  H90  1  0.199700  0.443300  0.554900  1.0  0.0769
  H  H91  1  0.296400  0.384200  0.478200  1.0  0.1228
  H  H92  1  0.380900  0.203100  0.354200  1.0  0.1247
  H  H93  1  0.153000  0.549400  0.343600  1.0  0.0822
  H  H94  1  0.606200  0.279300  0.317000  1.0  0.1255
  H  H95  1  0.442300  0.111900  0.410600  1.0  0.0697
  H  H96  1  0.532300  0.327300  0.192700  1.0  0.1106
  C  C97  1  0.216760  0.431590  0.859650  1.0  0.0847
  C  C98  1  0.013010  0.252370  0.829230  1.0  0.0782
  C  C99  1  0.008730  0.438870  0.614800  1.0  0.6387
  C  C100  1  0.112380  0.431090  0.737080  1.0  -0.089
  C  C101  1  0.117900  0.340130  0.837170  1.0  -0.1104
  C  C102  1  0.045880  0.403580  0.693460  1.0  -0.1536
  C  C103  1  0.263420  0.479950  0.819730  1.0  -0.2418
  C  C104  1  0.896530  0.189970  0.872300  1.0  0.1459
  C  C105  1  0.289580  0.454000  0.994390  1.0  0.1697
  C  C106  1  0.232330  0.418060  0.948870  1.0  -0.2039
  C  C107  1  0.060930  0.200810  0.858070  1.0  -0.2256
  C  C108  1  0.149180  0.399560  0.809730  1.0  0.0045
  C  C109  1  0.317670  0.515080  0.871080  1.0  0.1525
  C  C110  1  0.929100  0.245710  0.836500  1.0  -0.2161
  C  C111  1  0.023920  0.146820  0.892020  1.0  0.1693
  C  C112  1  0.048940  0.313270  0.795050  1.0  0.0383
  C  C113  1  0.013830  0.345460  0.722350  1.0  -0.0743
  C  C114  1  0.283240  0.068410  0.859650  1.0  0.0837
  C  C115  1  0.486990  0.247630  0.829230  1.0  0.0781
  C  C116  1  0.491270  0.061130  0.614800  1.0  0.6381
  C  C117  1  0.387620  0.068910  0.737080  1.0  -0.0913
  C  C118  1  0.382100  0.159870  0.837170  1.0  -0.1119
  C  C119  1  0.454120  0.096420  0.693460  1.0  -0.1543
  C  C120  1  0.236580  0.020050  0.819730  1.0  -0.2422
  C  C121  1  0.603470  0.310030  0.872300  1.0  0.1404
  C  C122  1  0.210420  0.046000  0.994390  1.0  0.1649
  C  C123  1  0.267670  0.081940  0.948870  1.0  -0.2029
  C  C124  1  0.439070  0.299190  0.858070  1.0  -0.2302
  C  C125  1  0.350820  0.100440  0.809730  1.0  0.0046
  C  C126  1  0.182330  0.984920  0.871080  1.0  0.1528
  C  C127  1  0.570900  0.254290  0.836500  1.0  -0.2185
  C  C128  1  0.476080  0.353180  0.892020  1.0  0.1725
  C  C129  1  0.451060  0.186730  0.795050  1.0  0.0373
  C  C130  1  0.486170  0.154540  0.722350  1.0  -0.0734
  C  C131  1  0.783240  0.931590  0.640350  1.0  0.0839
  C  C132  1  0.986990  0.752370  0.670770  1.0  0.0779
  C  C133  1  0.991270  0.938870  0.885200  1.0  0.6391
  C  C134  1  0.887620  0.931090  0.762920  1.0  -0.0912
  C  C135  1  0.882100  0.840130  0.662830  1.0  -0.1121
  C  C136  1  0.954120  0.903580  0.806540  1.0  -0.1539
  C  C137  1  0.736580  0.979950  0.680270  1.0  -0.242
  C  C138  1  0.103470  0.689970  0.627700  1.0  0.1404
  C  C139  1  0.710420  0.954000  0.505610  1.0  0.1686
  C  C140  1  0.767670  0.918060  0.551130  1.0  -0.2032
  C  C141  1  0.939070  0.700810  0.641930  1.0  -0.2278
  C  C142  1  0.850820  0.899560  0.690270  1.0  0.0044
  C  C143  1  0.682330  0.015080  0.628920  1.0  0.1536
  C  C144  1  0.070900  0.745710  0.663500  1.0  -0.2155
  C  C145  1  0.976080  0.646820  0.607980  1.0  0.1717
  C  C146  1  0.951060  0.813270  0.704950  1.0  0.0374
  C  C147  1  0.986170  0.845460  0.777650  1.0  -0.0738
  C  C148  1  0.716760  0.568410  0.640350  1.0  0.0844
  C  C149  1  0.513010  0.747630  0.670770  1.0  0.0778
  C  C150  1  0.508730  0.561130  0.885200  1.0  0.6383
  C  C151  1  0.612380  0.568910  0.762920  1.0  -0.0909
  C  C152  1  0.617900  0.659870  0.662830  1.0  -0.112
  C  C153  1  0.545880  0.596420  0.806540  1.0  -0.1537
  C  C154  1  0.763420  0.520050  0.680270  1.0  -0.2402
  C  C155  1  0.396530  0.810030  0.627700  1.0  0.1468
  C  C156  1  0.789580  0.546000  0.505610  1.0  0.1687
  C  C157  1  0.732330  0.581940  0.551130  1.0  -0.2021
  C  C158  1  0.560930  0.799190  0.641930  1.0  -0.2259
  C  C159  1  0.649180  0.600440  0.690270  1.0  0.0045
  C  C160  1  0.817670  0.484920  0.628920  1.0  0.1519
  C  C161  1  0.429100  0.754290  0.663500  1.0  -0.2194
  C  C162  1  0.523920  0.853180  0.607980  1.0  0.1679
  C  C163  1  0.548940  0.686730  0.704950  1.0  0.0387
  C  C164  1  0.513830  0.654540  0.777650  1.0  -0.0748
  C  C165  1  0.783240  0.568410  0.140350  1.0  0.0835
  C  C166  1  0.986990  0.747630  0.170770  1.0  0.0778
  C  C167  1  0.991270  0.561130  0.385200  1.0  0.6385
  C  C168  1  0.887620  0.568910  0.262920  1.0  -0.0914
  C  C169  1  0.882100  0.659870  0.162830  1.0  -0.1119
  C  C170  1  0.954120  0.596420  0.306540  1.0  -0.1541
  C  C171  1  0.736580  0.520050  0.180270  1.0  -0.2424
  C  C172  1  0.103470  0.810030  0.127700  1.0  0.14
  C  C173  1  0.710420  0.546000  0.005610  1.0  0.1643
  C  C174  1  0.767670  0.581940  0.051130  1.0  -0.2036
  C  C175  1  0.939070  0.799190  0.141930  1.0  -0.2285
  C  C176  1  0.850820  0.600440  0.190270  1.0  0.0045
  C  C177  1  0.682330  0.484920  0.128920  1.0  0.1533
  C  C178  1  0.070900  0.754290  0.163500  1.0  -0.2182
  C  C179  1  0.976080  0.853180  0.107980  1.0  0.1722
  C  C180  1  0.951060  0.686730  0.204950  1.0  0.0374
  C  C181  1  0.986170  0.654540  0.277650  1.0  -0.0738
  C  C182  1  0.716760  0.931590  0.140350  1.0  0.0847
  C  C183  1  0.513010  0.752370  0.170770  1.0  0.0778
  C  C184  1  0.508730  0.938870  0.385200  1.0  0.6392
  C  C185  1  0.612380  0.931090  0.262920  1.0  -0.0899
  C  C186  1  0.617900  0.840130  0.162830  1.0  -0.1117
  C  C187  1  0.545880  0.903580  0.306540  1.0  -0.1534
  C  C188  1  0.763420  0.979950  0.180270  1.0  -0.2404
  C  C189  1  0.396530  0.689970  0.127700  1.0  0.146
  C  C190  1  0.789580  0.954000  0.005610  1.0  0.168
  C  C191  1  0.732330  0.918060  0.051130  1.0  -0.202
  C  C192  1  0.560930  0.700810  0.141930  1.0  -0.2253
  C  C193  1  0.649180  0.899560  0.190270  1.0  0.0043
  C  C194  1  0.817670  0.015080  0.128920  1.0  0.1523
  C  C195  1  0.429100  0.745710  0.163500  1.0  -0.2168
  C  C196  1  0.523920  0.646820  0.107980  1.0  0.1685
  C  C197  1  0.548940  0.813270  0.204950  1.0  0.0385
  C  C198  1  0.513830  0.845460  0.277650  1.0  -0.0745
  C  C199  1  0.216760  0.068410  0.359650  1.0  0.0844
  C  C200  1  0.013010  0.247630  0.329230  1.0  0.0782
  C  C201  1  0.008730  0.061130  0.114800  1.0  0.6377
  C  C202  1  0.112380  0.068910  0.237080  1.0  -0.0897
  C  C203  1  0.117900  0.159870  0.337170  1.0  -0.1109
  C  C204  1  0.045880  0.096420  0.193460  1.0  -0.1539
  C  C205  1  0.263420  0.020050  0.319730  1.0  -0.2417
  C  C206  1  0.896530  0.310030  0.372300  1.0  0.1465
  C  C207  1  0.289580  0.046000  0.494390  1.0  0.1644
  C  C208  1  0.232330  0.081940  0.448870  1.0  -0.2034
  C  C209  1  0.060930  0.299190  0.358070  1.0  -0.2262
  C  C210  1  0.149180  0.100440  0.309730  1.0  0.0047
  C  C211  1  0.317670  0.984920  0.371080  1.0  0.1517
  C  C212  1  0.929100  0.254290  0.336500  1.0  -0.2178
  C  C213  1  0.023920  0.353180  0.392020  1.0  0.168
  C  C214  1  0.048940  0.186730  0.295050  1.0  0.0386
  C  C215  1  0.013830  0.154540  0.222350  1.0  -0.0743
  C  C216  1  0.283240  0.431590  0.359650  1.0  0.0841
  C  C217  1  0.486990  0.252370  0.329230  1.0  0.0782
  C  C218  1  0.491270  0.438870  0.114800  1.0  0.6386
  C  C219  1  0.387620  0.431090  0.237080  1.0  -0.0901
  C  C220  1  0.382100  0.340130  0.337170  1.0  -0.1115
  C  C221  1  0.454120  0.403580  0.193460  1.0  -0.154
  C  C222  1  0.236580  0.479950  0.319730  1.0  -0.2425
  C  C223  1  0.603470  0.189970  0.372300  1.0  0.1409
  C  C224  1  0.210420  0.454000  0.494390  1.0  0.1654
  C  C225  1  0.267670  0.418060  0.448870  1.0  -0.2033
  C  C226  1  0.439070  0.200810  0.358070  1.0  -0.2281
  C  C227  1  0.350820  0.399560  0.309730  1.0  0.0045
  C  C228  1  0.182330  0.515080  0.371080  1.0  0.1535
  C  C229  1  0.570900  0.245710  0.336500  1.0  -0.2155
  C  C230  1  0.476080  0.146820  0.392020  1.0  0.1723
  C  C231  1  0.451060  0.313270  0.295050  1.0  0.0372
  C  C232  1  0.486170  0.345460  0.222350  1.0  -0.0736
  N  N233  1  0.331180  0.503310  0.958020  1.0  -0.3112
  N  N234  1  0.942470  0.140970  0.900190  1.0  -0.3141
  N  N235  1  0.168820  0.996690  0.958020  1.0  -0.3137
  N  N236  1  0.557530  0.359030  0.900190  1.0  -0.3132
  N  N237  1  0.668820  0.003310  0.541980  1.0  -0.3134
  N  N238  1  0.057530  0.640970  0.599810  1.0  -0.3134
  N  N239  1  0.831180  0.496690  0.541980  1.0  -0.3115
  N  N240  1  0.442470  0.859030  0.599810  1.0  -0.3118
  N  N241  1  0.668820  0.496690  0.041980  1.0  -0.3136
  N  N242  1  0.057530  0.859030  0.099810  1.0  -0.3122
  N  N243  1  0.831180  0.003310  0.041980  1.0  -0.312
  N  N244  1  0.442470  0.640970  0.099810  1.0  -0.3139
  N  N245  1  0.331180  0.996690  0.458020  1.0  -0.3109
  N  N246  1  0.942470  0.359030  0.400190  1.0  -0.3125
  N  N247  1  0.168820  0.503310  0.458020  1.0  -0.3131
  N  N248  1  0.557530  0.140970  0.400190  1.0  -0.3143
  O  O249  1  0.026980  0.496020  0.602550  1.0  -0.6429
  O  O250  1  0.959310  0.405140  0.568230  1.0  -0.6038
  O  O251  1  0.473020  0.003980  0.602550  1.0  -0.6427
  O  O252  1  0.540690  0.094860  0.568230  1.0  -0.6012
  O  O253  1  0.973020  0.996020  0.897450  1.0  -0.6422
  O  O254  1  0.040690  0.905140  0.931770  1.0  -0.603
  O  O255  1  0.526980  0.503980  0.897450  1.0  -0.6423
  O  O256  1  0.459310  0.594860  0.931770  1.0  -0.6022
  O  O257  1  0.973020  0.503980  0.397450  1.0  -0.6421
  O  O258  1  0.040690  0.594860  0.431770  1.0  -0.6018
  O  O259  1  0.526980  0.996020  0.397450  1.0  -0.6413
  O  O260  1  0.459310  0.905140  0.431770  1.0  -0.6041
  O  O261  1  0.026980  0.003980  0.102550  1.0  -0.643
  O  O262  1  0.959310  0.094860  0.068230  1.0  -0.6021
  O  O263  1  0.473020  0.496020  0.102550  1.0  -0.6432
  O  O264  1  0.540690  0.405140  0.068230  1.0  -0.6022
