# generated using pymatgen
data_CdAs2H18C16(NO5)2
_symmetry_space_group_name_H-M   'P 1'
_cell_length_a   4.75950000
_cell_length_b   9.92500000
_cell_length_c   22.60900000
_cell_angle_alpha   90.00000000
_cell_angle_beta   91.81000000
_cell_angle_gamma   90.00000000
_symmetry_Int_Tables_number   1
_chemical_formula_structural   CdAs2H18C16(NO5)2
_chemical_formula_sum   'Cd2 As4 H36 C32 N4 O20'
_cell_volume   1067.47192266
_cell_formula_units_Z   2
loop_
 _symmetry_equiv_pos_site_id
 _symmetry_equiv_pos_as_xyz
  1  'x, y, z'
loop_
 _atom_site_type_symbol
 _atom_site_label
 _atom_site_symmetry_multiplicity
 _atom_site_fract_x
 _atom_site_fract_y
 _atom_site_fract_z
 _atom_site_occupancy
 _atom_site_charge
  Cd  Cd1  1  0.000000  0.000000  0.500000  1.0  1.2333
  Cd  Cd2  1  0.000000  0.500000  0.000000  1.0  1.2342
  As  As3  1  0.533370  0.860090  0.594760  1.0  1.774
  As  As4  1  0.466630  0.360090  0.905240  1.0  1.774
  As  As5  1  0.466630  0.139910  0.405240  1.0  1.7737
  As  As6  1  0.533370  0.639910  0.094760  1.0  1.7738
  H  H7  1  0.887800  0.031100  0.864500  1.0  0.2877
  H  H8  1  0.161400  0.748300  0.576600  1.0  0.4281
  H  H9  1  0.715000  0.643800  0.900100  1.0  0.4239
  H  H10  1  0.926700  0.733400  0.678300  1.0  0.0818
  H  H11  1  0.079900  0.765100  0.774900  1.0  0.1048
  H  H12  1  0.555600  0.081300  0.787800  1.0  0.1078
  H  H13  1  0.400700  0.047700  0.691900  1.0  0.0843
  H  H14  1  0.288800  0.847700  0.854500  1.0  0.1115
  H  H15  1  0.224500  0.925700  0.912600  1.0  0.1464
  H  H16  1  0.112200  0.531100  0.635500  1.0  0.2892
  H  H17  1  0.838600  0.248300  0.923400  1.0  0.4282
  H  H18  1  0.285000  0.143800  0.599900  1.0  0.4241
  H  H19  1  0.073300  0.233400  0.821700  1.0  0.0812
  H  H20  1  0.920100  0.265100  0.725100  1.0  0.1049
  H  H21  1  0.444400  0.581300  0.712200  1.0  0.1082
  H  H22  1  0.599300  0.547700  0.808100  1.0  0.0844
  H  H23  1  0.711200  0.347700  0.645500  1.0  0.1118
  H  H24  1  0.775500  0.425700  0.587400  1.0  0.1449
  H  H25  1  0.112200  0.968900  0.135500  1.0  0.2885
  H  H26  1  0.838600  0.251700  0.423400  1.0  0.428
  H  H27  1  0.285000  0.356200  0.099900  1.0  0.4246
  H  H28  1  0.073300  0.266600  0.321700  1.0  0.0804
  H  H29  1  0.920100  0.234900  0.225100  1.0  0.1052
  H  H30  1  0.444400  0.918700  0.212200  1.0  0.1081
  H  H31  1  0.599300  0.952300  0.308100  1.0  0.0847
  H  H32  1  0.711200  0.152300  0.145500  1.0  0.1116
  H  H33  1  0.775500  0.074300  0.087400  1.0  0.1448
  H  H34  1  0.887800  0.468900  0.364500  1.0  0.2878
  H  H35  1  0.161400  0.751700  0.076600  1.0  0.4263
  H  H36  1  0.715000  0.856200  0.400100  1.0  0.4243
  H  H37  1  0.926700  0.766600  0.178300  1.0  0.0811
  H  H38  1  0.079900  0.734900  0.274900  1.0  0.1046
  H  H39  1  0.555600  0.418700  0.287800  1.0  0.108
  H  H40  1  0.400700  0.452300  0.191900  1.0  0.0841
  H  H41  1  0.288800  0.652300  0.354500  1.0  0.1113
  H  H42  1  0.224500  0.574300  0.412600  1.0  0.1467
  C  C43  1  0.649800  0.888200  0.674690  1.0  -0.5333
  C  C44  1  0.853400  0.803600  0.700280  1.0  0.0826
  C  C45  1  0.947000  0.823500  0.758110  1.0  -0.231
  C  C46  1  0.845300  0.930100  0.791980  1.0  0.2427
  C  C47  1  0.633100  0.012300  0.765830  1.0  -0.2257
  C  C48  1  0.539200  0.991800  0.708370  1.0  0.0592
  C  C49  1  0.139700  0.873400  0.880520  1.0  -0.1632
  C  C50  1  0.015400  0.746300  0.906300  1.0  0.6803
  C  C51  1  0.350200  0.388200  0.825310  1.0  -0.5355
  C  C52  1  0.146600  0.303600  0.799720  1.0  0.0813
  C  C53  1  0.053000  0.323500  0.741890  1.0  -0.2318
  C  C54  1  0.154700  0.430100  0.708020  1.0  0.2422
  C  C55  1  0.366900  0.512300  0.734170  1.0  -0.2249
  C  C56  1  0.460800  0.491800  0.791630  1.0  0.0653
  C  C57  1  0.860300  0.373400  0.619480  1.0  -0.1633
  C  C58  1  0.984600  0.246300  0.593700  1.0  0.6789
  C  C59  1  0.350200  0.111800  0.325310  1.0  -0.5359
  C  C60  1  0.146600  0.196400  0.299720  1.0  0.0811
  C  C61  1  0.053000  0.176500  0.241890  1.0  -0.231
  C  C62  1  0.154700  0.069900  0.208020  1.0  0.2418
  C  C63  1  0.366900  0.987700  0.234170  1.0  -0.2252
  C  C64  1  0.460800  0.008200  0.291630  1.0  0.0667
  C  C65  1  0.860300  0.126600  0.119480  1.0  -0.162
  C  C66  1  0.984600  0.253700  0.093700  1.0  0.6792
  C  C67  1  0.649800  0.611800  0.174690  1.0  -0.5335
  C  C68  1  0.853400  0.696400  0.200280  1.0  0.081
  C  C69  1  0.947000  0.676500  0.258110  1.0  -0.2304
  C  C70  1  0.845300  0.569900  0.291980  1.0  0.2423
  C  C71  1  0.633100  0.487700  0.265830  1.0  -0.2258
  C  C72  1  0.539200  0.508200  0.208370  1.0  0.0621
  C  C73  1  0.139700  0.626600  0.380520  1.0  -0.163
  C  C74  1  0.015400  0.753700  0.406300  1.0  0.6804
  N  N75  1  0.944600  0.958500  0.847870  1.0  -0.3535
  N  N76  1  0.055400  0.458500  0.652130  1.0  -0.3529
  N  N77  1  0.055400  0.041500  0.152130  1.0  -0.3516
  N  N78  1  0.944600  0.541500  0.347870  1.0  -0.3521
  O  O79  1  0.806700  0.822600  0.553240  1.0  -0.9276
  O  O80  1  0.311700  0.721400  0.590900  1.0  -0.8044
  O  O81  1  0.352000  0.991500  0.567820  1.0  -0.9483
  O  O82  1  0.762800  0.716500  0.886440  1.0  -0.5068
  O  O83  1  0.151500  0.679100  0.942350  1.0  -0.5394
  O  O84  1  0.193300  0.322600  0.946760  1.0  -0.9278
  O  O85  1  0.688300  0.221400  0.909100  1.0  -0.806
  O  O86  1  0.648000  0.491500  0.932180  1.0  -0.9477
  O  O87  1  0.237200  0.216500  0.613560  1.0  -0.5072
  O  O88  1  0.848500  0.179100  0.557650  1.0  -0.5398
  O  O89  1  0.193300  0.177400  0.446760  1.0  -0.928
  O  O90  1  0.688300  0.278600  0.409100  1.0  -0.8061
  O  O91  1  0.648000  0.008500  0.432180  1.0  -0.9476
  O  O92  1  0.237200  0.283500  0.113560  1.0  -0.5055
  O  O93  1  0.848500  0.320900  0.057650  1.0  -0.5395
  O  O94  1  0.806700  0.677400  0.053240  1.0  -0.9274
  O  O95  1  0.311700  0.778600  0.090900  1.0  -0.8047
  O  O96  1  0.352000  0.508500  0.067820  1.0  -0.9484
  O  O97  1  0.762800  0.783500  0.386440  1.0  -0.507
  O  O98  1  0.151500  0.820900  0.442350  1.0  -0.5391
