# generated using pymatgen
data_CoH6(C3N2)2
_symmetry_space_group_name_H-M   'P 1'
_cell_length_a   9.08100000
_cell_length_b   9.91790000
_cell_length_c   14.57810000
_cell_angle_alpha   81.80230000
_cell_angle_beta   71.85270000
_cell_angle_gamma   62.75440000
_symmetry_Int_Tables_number   1
_chemical_formula_structural   CoH6(C3N2)2
_chemical_formula_sum   'Co4 H24 C24 N16'
_cell_volume   1109.23508144
_cell_formula_units_Z   4
loop_
 _symmetry_equiv_pos_site_id
 _symmetry_equiv_pos_as_xyz
  1  'x, y, z'
loop_
 _atom_site_type_symbol
 _atom_site_label
 _atom_site_symmetry_multiplicity
 _atom_site_fract_x
 _atom_site_fract_y
 _atom_site_fract_z
 _atom_site_occupancy
 _atom_site_charge
  Co  Co1  1  0.592390  0.570080  0.873960  1.0  0.7835
  Co  Co2  1  0.036430  0.429920  0.126040  1.0  0.7835
  Co  Co3  1  0.216350  0.070080  0.626040  1.0  0.7834
  Co  Co4  1  0.912470  0.929920  0.373960  1.0  0.7837
  H  H5  1  0.846400  0.242400  0.770200  1.0  0.0649
  H  H6  1  0.171000  0.409200  0.638800  1.0  0.0939
  H  H7  1  0.922800  0.604000  0.741800  1.0  0.0916
  H  H8  1  0.898600  0.463200  0.953000  1.0  0.0476
  H  H9  1  0.614300  0.650800  0.202000  1.0  0.0907
  H  H10  1  0.427400  0.708600  0.098600  1.0  0.0977
  H  H11  1  0.859000  0.757600  0.229800  1.0  0.0666
  H  H12  1  0.219000  0.590800  0.361200  1.0  0.094
  H  H13  1  0.268600  0.396000  0.258200  1.0  0.0919
  H  H14  1  0.314800  0.536800  0.047000  1.0  0.0457
  H  H15  1  0.467100  0.349200  0.798000  1.0  0.0929
  H  H16  1  0.234600  0.291400  0.901400  1.0  0.0981
  H  H17  1  0.366600  0.742400  0.729800  1.0  0.0657
  H  H18  1  0.559800  0.909200  0.861200  1.0  0.0934
  H  H19  1  0.414600  0.104000  0.758200  1.0  0.0914
  H  H20  1  0.601600  0.963200  0.547000  1.0  0.0465
  H  H21  1  0.566300  0.150800  0.298000  1.0  0.0915
  H  H22  1  0.276000  0.208600  0.401400  1.0  0.0988
  H  H23  1  0.838800  0.257600  0.270200  1.0  0.0654
  H  H24  1  0.330200  0.090800  0.138800  1.0  0.0936
  H  H25  1  0.276800  0.896000  0.241800  1.0  0.092
  H  H26  1  0.111800  0.036800  0.453000  1.0  0.0474
  H  H27  1  0.015100  0.849200  0.702000  1.0  0.0927
  H  H28  1  0.886000  0.791400  0.598600  1.0  0.0988
  C  C29  1  0.895930  0.309400  0.749540  1.0  0.2521
  C  C30  1  0.074000  0.399000  0.678000  1.0  -0.0112
  C  C31  1  0.936700  0.506800  0.734600  1.0  -0.0171
  C  C32  1  0.803200  0.519000  0.002600  1.0  0.2474
  C  C33  1  0.650700  0.619200  0.138400  1.0  -0.014
  C  C34  1  0.546700  0.652400  0.081200  1.0  -0.037
  C  C35  1  0.954870  0.690600  0.250460  1.0  0.2519
  C  C36  1  0.151000  0.601000  0.322000  1.0  -0.0102
  C  C37  1  0.178100  0.493200  0.265400  1.0  -0.015
  C  C38  1  0.324800  0.481000  0.997400  1.0  0.2488
  C  C39  1  0.408300  0.380800  0.861600  1.0  -0.0138
  C  C40  1  0.280300  0.347600  0.918800  1.0  -0.0369
  C  C41  1  0.395470  0.809400  0.750460  1.0  0.2518
  C  C42  1  0.502000  0.899000  0.822000  1.0  -0.0107
  C  C43  1  0.421300  0.006800  0.765400  1.0  -0.0159
  C  C44  1  0.555800  0.019000  0.497400  1.0  0.2489
  C  C45  1  0.539100  0.119200  0.361600  1.0  -0.0147
  C  C46  1  0.377900  0.152400  0.418800  1.0  -0.0377
  C  C47  1  0.955330  0.190600  0.249540  1.0  0.2516
  C  C48  1  0.223000  0.101000  0.178000  1.0  -0.0108
  C  C49  1  0.193500  0.993200  0.234600  1.0  -0.0162
  C  C50  1  0.072200  0.981000  0.502600  1.0  0.2479
  C  C51  1  0.019900  0.880800  0.638400  1.0  -0.0129
  C  C52  1  0.949100  0.847600  0.581200  1.0  -0.0359
  N  N53  1  0.818260  0.451600  0.780680  1.0  -0.4284
  N  N54  1  0.049620  0.271400  0.686760  1.0  -0.4255
  N  N55  1  0.648360  0.589000  0.992880  1.0  -0.4069
  N  N56  1  0.815040  0.533200  0.089320  1.0  -0.4343
  N  N57  1  0.050540  0.548400  0.219320  1.0  -0.4272
  N  N58  1  0.007780  0.728600  0.313240  1.0  -0.4248
  N  N59  1  0.230240  0.411000  0.007120  1.0  -0.4058
  N  N60  1  0.437560  0.466800  0.910680  1.0  -0.4355
  N  N61  1  0.348940  0.951600  0.719320  1.0  -0.4272
  N  N62  1  0.486380  0.771400  0.813240  1.0  -0.4246
  N  N63  1  0.391240  0.089000  0.507120  1.0  -0.4055
  N  N64  1  0.654360  0.033200  0.410680  1.0  -0.4358
  N  N65  1  0.019860  0.048400  0.280680  1.0  -0.4283
  N  N66  1  0.071020  0.228600  0.186760  1.0  -0.4251
  N  N67  1  0.987360  0.911000  0.492880  1.0  -0.4077
  N  N68  1  0.098240  0.966800  0.589320  1.0  -0.4344
