# generated using pymatgen
data_CoH6(C3N2)2
_symmetry_space_group_name_H-M   'P 1'
_cell_length_a   15.92530000
_cell_length_b   15.97120000
_cell_length_c   18.47500000
_cell_angle_alpha   90.00000000
_cell_angle_beta   90.00000000
_cell_angle_gamma   90.00000000
_symmetry_Int_Tables_number   1
_chemical_formula_structural   CoH6(C3N2)2
_chemical_formula_sum   'Co16 H96 C96 N64'
_cell_volume   4699.04514638
_cell_formula_units_Z   16
loop_
 _symmetry_equiv_pos_site_id
 _symmetry_equiv_pos_as_xyz
  1  'x, y, z'
loop_
 _atom_site_type_symbol
 _atom_site_label
 _atom_site_symmetry_multiplicity
 _atom_site_fract_x
 _atom_site_fract_y
 _atom_site_fract_z
 _atom_site_occupancy
 _atom_site_charge
  Co  Co1  1  0.863610  0.687970  0.399030  1.0  0.7089
  Co  Co2  1  0.678640  0.995060  0.325060  1.0  0.6879
  Co  Co3  1  0.136390  0.812030  0.899030  1.0  0.7091
  Co  Co4  1  0.321360  0.504940  0.825060  1.0  0.6892
  Co  Co5  1  0.363610  0.312030  0.100970  1.0  0.7089
  Co  Co6  1  0.178640  0.004940  0.174940  1.0  0.6878
  Co  Co7  1  0.636390  0.187970  0.600970  1.0  0.7089
  Co  Co8  1  0.821360  0.495060  0.674940  1.0  0.6889
  Co  Co9  1  0.136390  0.312030  0.600970  1.0  0.709
  Co  Co10  1  0.321360  0.004940  0.674940  1.0  0.689
  Co  Co11  1  0.863610  0.187970  0.100970  1.0  0.7088
  Co  Co12  1  0.678640  0.495060  0.174940  1.0  0.6878
  Co  Co13  1  0.636390  0.687970  0.899030  1.0  0.709
  Co  Co14  1  0.821360  0.995060  0.825060  1.0  0.689
  Co  Co15  1  0.363610  0.812030  0.399030  1.0  0.709
  Co  Co16  1  0.178640  0.504940  0.325060  1.0  0.6879
  H  H17  1  0.946000  0.869000  0.418500  1.0  0.0591
  H  H18  1  0.866000  0.997000  0.390000  1.0  0.2405
  H  H19  1  0.731300  0.815700  0.355700  1.0  0.2108
  H  H20  1  0.914000  0.748100  0.551100  1.0  0.1733
  H  H21  1  0.897000  0.669900  0.665200  1.0  0.2047
  H  H22  1  0.819300  0.548500  0.509300  1.0  0.1875
  H  H23  1  0.989000  0.739400  0.276100  1.0  0.2296
  H  H24  1  0.110000  0.663000  0.238900  1.0  0.2105
  H  H25  1  0.005800  0.559000  0.396000  1.0  0.1629
  H  H26  1  0.598000  0.548000  0.319800  1.0  0.0633
  H  H27  1  0.671000  0.634000  0.414000  1.0  0.1831
  H  H28  1  0.821700  0.583800  0.265400  1.0  0.1378
  H  H29  1  0.054000  0.631000  0.918500  1.0  0.0596
  H  H30  1  0.134000  0.503000  0.890000  1.0  0.2397
  H  H31  1  0.268700  0.684300  0.855700  1.0  0.2109
  H  H32  1  0.086000  0.751900  0.051100  1.0  0.173
  H  H33  1  0.103000  0.830100  0.165200  1.0  0.2053
  H  H34  1  0.180700  0.951500  0.009300  1.0  0.1867
  H  H35  1  0.011000  0.760600  0.776100  1.0  0.2288
  H  H36  1  0.890000  0.837000  0.738900  1.0  0.2104
  H  H37  1  0.994200  0.941000  0.896000  1.0  0.1627
  H  H38  1  0.402000  0.952000  0.819800  1.0  0.0629
  H  H39  1  0.329000  0.866000  0.914000  1.0  0.1823
  H  H40  1  0.178300  0.916200  0.765400  1.0  0.1396
  H  H41  1  0.446000  0.131000  0.081500  1.0  0.0592
  H  H42  1  0.366000  0.003000  0.110000  1.0  0.2386
  H  H43  1  0.231300  0.184300  0.144300  1.0  0.2097
  H  H44  1  0.414000  0.251900  0.948900  1.0  0.1711
  H  H45  1  0.397000  0.330100  0.834800  1.0  0.2054
  H  H46  1  0.319300  0.451500  0.990700  1.0  0.1863
  H  H47  1  0.489000  0.260600  0.223900  1.0  0.2287
  H  H48  1  0.610000  0.337000  0.261100  1.0  0.2111
  H  H49  1  0.505800  0.441000  0.104000  1.0  0.1635
  H  H50  1  0.098000  0.452000  0.180200  1.0  0.0634
  H  H51  1  0.171000  0.366000  0.086000  1.0  0.1819
  H  H52  1  0.321700  0.416200  0.234600  1.0  0.1377
  H  H53  1  0.554000  0.369000  0.581500  1.0  0.0596
  H  H54  1  0.634000  0.497000  0.610000  1.0  0.2404
  H  H55  1  0.768700  0.315700  0.644300  1.0  0.2112
  H  H56  1  0.586000  0.248100  0.448900  1.0  0.1735
  H  H57  1  0.603000  0.169900  0.334800  1.0  0.2061
  H  H58  1  0.680700  0.048500  0.490700  1.0  0.1869
  H  H59  1  0.511000  0.239400  0.723900  1.0  0.2318
  H  H60  1  0.390000  0.163000  0.761100  1.0  0.2111
  H  H61  1  0.494200  0.059000  0.604000  1.0  0.1641
  H  H62  1  0.902000  0.048000  0.680200  1.0  0.0622
  H  H63  1  0.829000  0.134000  0.586000  1.0  0.1814
  H  H64  1  0.678300  0.083800  0.734600  1.0  0.139
  H  H65  1  0.054000  0.131000  0.581500  1.0  0.0597
  H  H66  1  0.134000  0.003000  0.610000  1.0  0.2378
  H  H67  1  0.268700  0.184300  0.644300  1.0  0.2106
  H  H68  1  0.086000  0.251900  0.448900  1.0  0.1726
  H  H69  1  0.103000  0.330100  0.334800  1.0  0.2063
  H  H70  1  0.180700  0.451500  0.490700  1.0  0.1857
  H  H71  1  0.011000  0.260600  0.723900  1.0  0.2292
  H  H72  1  0.890000  0.337000  0.761100  1.0  0.211
  H  H73  1  0.994200  0.441000  0.604000  1.0  0.1633
  H  H74  1  0.402000  0.452000  0.680200  1.0  0.0631
  H  H75  1  0.329000  0.366000  0.586000  1.0  0.1814
  H  H76  1  0.178300  0.416200  0.734600  1.0  0.1389
  H  H77  1  0.946000  0.369000  0.081500  1.0  0.0592
  H  H78  1  0.866000  0.497000  0.110000  1.0  0.2394
  H  H79  1  0.731300  0.315700  0.144300  1.0  0.2104
  H  H80  1  0.914000  0.248100  0.948900  1.0  0.173
  H  H81  1  0.897000  0.169900  0.834800  1.0  0.2053
  H  H82  1  0.819300  0.048500  0.990700  1.0  0.1874
  H  H83  1  0.989000  0.239400  0.223900  1.0  0.2304
  H  H84  1  0.110000  0.163000  0.261100  1.0  0.2109
  H  H85  1  0.005800  0.059000  0.104000  1.0  0.164
  H  H86  1  0.598000  0.048000  0.180200  1.0  0.0633
  H  H87  1  0.671000  0.134000  0.086000  1.0  0.182
  H  H88  1  0.821700  0.083800  0.234600  1.0  0.1378
  H  H89  1  0.554000  0.869000  0.918500  1.0  0.0593
  H  H90  1  0.634000  0.997000  0.890000  1.0  0.2411
  H  H91  1  0.768700  0.815700  0.855700  1.0  0.2115
  H  H92  1  0.586000  0.748100  0.051100  1.0  0.1742
  H  H93  1  0.603000  0.669900  0.165200  1.0  0.2053
  H  H94  1  0.680700  0.548500  0.009300  1.0  0.1874
  H  H95  1  0.511000  0.739400  0.776100  1.0  0.2308
  H  H96  1  0.390000  0.663000  0.738900  1.0  0.2108
  H  H97  1  0.494200  0.559000  0.896000  1.0  0.163
  H  H98  1  0.902000  0.548000  0.819800  1.0  0.0624
  H  H99  1  0.829000  0.634000  0.914000  1.0  0.1822
  H  H100  1  0.678300  0.583800  0.765400  1.0  0.1393
  H  H101  1  0.446000  0.631000  0.418500  1.0  0.0595
  H  H102  1  0.366000  0.503000  0.390000  1.0  0.2394
  H  H103  1  0.231300  0.684300  0.355700  1.0  0.2099
  H  H104  1  0.414000  0.751900  0.551100  1.0  0.1713
  H  H105  1  0.397000  0.830100  0.665200  1.0  0.2047
  H  H106  1  0.319300  0.951500  0.509300  1.0  0.187
  H  H107  1  0.489000  0.760600  0.276100  1.0  0.2282
  H  H108  1  0.610000  0.837000  0.238900  1.0  0.2109
  H  H109  1  0.505800  0.941000  0.396000  1.0  0.1625
  H  H110  1  0.098000  0.952000  0.319800  1.0  0.0636
  H  H111  1  0.171000  0.866000  0.414000  1.0  0.1832
  H  H112  1  0.321700  0.916200  0.265400  1.0  0.138
  C  C113  1  0.894500  0.877800  0.399300  1.0  -0.0931
  C  C114  1  0.850500  0.947300  0.383700  1.0  0.0022
  C  C115  1  0.774700  0.844100  0.364200  1.0  0.1895
  C  C116  1  0.893500  0.703700  0.559300  1.0  -0.046
  C  C117  1  0.885400  0.660300  0.620700  1.0  -0.0755
  C  C118  1  0.839800  0.588600  0.535200  1.0  0.183
  C  C119  1  0.007100  0.694200  0.292100  1.0  -0.0473
  C  C120  1  0.073700  0.650400  0.271500  1.0  -0.074
  C  C121  1  0.018800  0.591300  0.359800  1.0  0.2083
  C  C122  1  0.649600  0.569300  0.322700  1.0  -0.1015
  C  C123  1  0.689900  0.613800  0.373200  1.0  -0.0739
  C  C124  1  0.773400  0.586100  0.289100  1.0  0.2055
  C  C125  1  0.105500  0.622200  0.899300  1.0  -0.0939
  C  C126  1  0.149500  0.552700  0.883700  1.0  0.0012
  C  C127  1  0.225300  0.655900  0.864200  1.0  0.1905
  C  C128  1  0.106500  0.796300  0.059300  1.0  -0.0462
  C  C129  1  0.114600  0.839700  0.120700  1.0  -0.0761
  C  C130  1  0.160200  0.911400  0.035200  1.0  0.1837
  C  C131  1  0.992900  0.805800  0.792100  1.0  -0.0458
  C  C132  1  0.926300  0.849600  0.771500  1.0  -0.0739
  C  C133  1  0.981200  0.908700  0.859800  1.0  0.2082
  C  C134  1  0.350400  0.930700  0.822700  1.0  -0.0995
  C  C135  1  0.310100  0.886200  0.873200  1.0  -0.0744
  C  C136  1  0.226600  0.913900  0.789100  1.0  0.2046
  C  C137  1  0.394500  0.122200  0.100700  1.0  -0.0936
  C  C138  1  0.350500  0.052700  0.116300  1.0  0.0017
  C  C139  1  0.274700  0.155900  0.135800  1.0  0.189
  C  C140  1  0.393500  0.296300  0.940700  1.0  -0.0472
  C  C141  1  0.385400  0.339700  0.879300  1.0  -0.076
  C  C142  1  0.339800  0.411400  0.964800  1.0  0.184
  C  C143  1  0.507100  0.305800  0.207900  1.0  -0.0455
  C  C144  1  0.573700  0.349600  0.228500  1.0  -0.0731
  C  C145  1  0.518800  0.408700  0.140200  1.0  0.21
  C  C146  1  0.149600  0.430700  0.177300  1.0  -0.1013
  C  C147  1  0.189900  0.386200  0.126800  1.0  -0.0735
  C  C148  1  0.273400  0.413900  0.210900  1.0  0.2052
  C  C149  1  0.605500  0.377800  0.600700  1.0  -0.0939
  C  C150  1  0.649500  0.447300  0.616300  1.0  0.0032
  C  C151  1  0.725300  0.344100  0.635800  1.0  0.1907
  C  C152  1  0.606500  0.203700  0.440700  1.0  -0.0462
  C  C153  1  0.614600  0.160300  0.379300  1.0  -0.0761
  C  C154  1  0.660200  0.088600  0.464800  1.0  0.1847
  C  C155  1  0.492900  0.194200  0.707900  1.0  -0.046
  C  C156  1  0.426300  0.150400  0.728500  1.0  -0.074
  C  C157  1  0.481200  0.091300  0.640200  1.0  0.2078
  C  C158  1  0.850400  0.069300  0.677300  1.0  -0.0986
  C  C159  1  0.810100  0.113800  0.626800  1.0  -0.0733
  C  C160  1  0.726600  0.086100  0.710900  1.0  0.204
  C  C161  1  0.105500  0.122200  0.600700  1.0  -0.0943
  C  C162  1  0.149500  0.052700  0.616300  1.0  0.0017
  C  C163  1  0.225300  0.155900  0.635800  1.0  0.1906
  C  C164  1  0.106500  0.296300  0.440700  1.0  -0.0465
  C  C165  1  0.114600  0.339700  0.379300  1.0  -0.0769
  C  C166  1  0.160200  0.411400  0.464800  1.0  0.1845
  C  C167  1  0.992900  0.305800  0.707900  1.0  -0.0446
  C  C168  1  0.926300  0.349600  0.728500  1.0  -0.0739
  C  C169  1  0.981200  0.408700  0.640200  1.0  0.2093
  C  C170  1  0.350400  0.430700  0.677300  1.0  -0.0985
  C  C171  1  0.310100  0.386200  0.626800  1.0  -0.0737
  C  C172  1  0.226600  0.413900  0.710900  1.0  0.204
  C  C173  1  0.894500  0.377800  0.100700  1.0  -0.0935
  C  C174  1  0.850500  0.447300  0.116300  1.0  0.0029
  C  C175  1  0.774700  0.344100  0.135800  1.0  0.1897
  C  C176  1  0.893500  0.203700  0.940700  1.0  -0.0462
  C  C177  1  0.885400  0.160300  0.879300  1.0  -0.0753
  C  C178  1  0.839800  0.088600  0.964800  1.0  0.1843
  C  C179  1  0.007100  0.194200  0.207900  1.0  -0.0471
  C  C180  1  0.073700  0.150400  0.228500  1.0  -0.0734
  C  C181  1  0.018800  0.091300  0.140200  1.0  0.2086
  C  C182  1  0.649600  0.069300  0.177300  1.0  -0.1015
  C  C183  1  0.689900  0.113800  0.126800  1.0  -0.0732
  C  C184  1  0.773400  0.086100  0.210900  1.0  0.2055
  C  C185  1  0.605500  0.877800  0.899300  1.0  -0.0936
  C  C186  1  0.649500  0.947300  0.883700  1.0  0.0024
  C  C187  1  0.725300  0.844100  0.864200  1.0  0.1904
  C  C188  1  0.606500  0.703700  0.059300  1.0  -0.0462
  C  C189  1  0.614600  0.660300  0.120700  1.0  -0.0762
  C  C190  1  0.660200  0.588600  0.035200  1.0  0.183
  C  C191  1  0.492900  0.694200  0.792100  1.0  -0.0467
  C  C192  1  0.426300  0.650400  0.771500  1.0  -0.0739
  C  C193  1  0.481200  0.591300  0.859800  1.0  0.2079
  C  C194  1  0.850400  0.569300  0.822700  1.0  -0.0994
  C  C195  1  0.810100  0.613800  0.873200  1.0  -0.0736
  C  C196  1  0.726600  0.586100  0.789100  1.0  0.2044
  C  C197  1  0.394500  0.622200  0.399300  1.0  -0.0933
  C  C198  1  0.350500  0.552700  0.383700  1.0  0.001
  C  C199  1  0.274700  0.655900  0.364200  1.0  0.1888
  C  C200  1  0.393500  0.796300  0.559300  1.0  -0.0471
  C  C201  1  0.385400  0.839700  0.620700  1.0  -0.0753
  C  C202  1  0.339800  0.911400  0.535200  1.0  0.1836
  C  C203  1  0.507100  0.805800  0.292100  1.0  -0.0461
  C  C204  1  0.573700  0.849600  0.271500  1.0  -0.0739
  C  C205  1  0.518800  0.908700  0.359800  1.0  0.2083
  C  C206  1  0.149600  0.930700  0.322700  1.0  -0.1014
  C  C207  1  0.189900  0.886200  0.373200  1.0  -0.0745
  C  C208  1  0.273400  0.913900  0.289100  1.0  0.2055
  N  N209  1  0.844700  0.809660  0.387280  1.0  -0.4689
  N  N210  1  0.773600  0.927120  0.360550  1.0  -0.4525
  N  N211  1  0.865780  0.657870  0.502300  1.0  -0.4731
  N  N212  1  0.850120  0.584650  0.605480  1.0  -0.4679
  N  N213  1  0.969000  0.656930  0.349060  1.0  -0.4664
  N  N214  1  0.082580  0.583580  0.315640  1.0  -0.4632
  N  N215  1  0.702600  0.550270  0.268250  1.0  -0.4601
  N  N216  1  0.770500  0.625630  0.352410  1.0  -0.4825
  N  N217  1  0.155300  0.690340  0.887280  1.0  -0.4703
  N  N218  1  0.226400  0.572880  0.860550  1.0  -0.4528
  N  N219  1  0.134220  0.842130  0.002300  1.0  -0.4746
  N  N220  1  0.149880  0.915350  0.105480  1.0  -0.4668
  N  N221  1  0.031000  0.843070  0.849060  1.0  -0.4678
  N  N222  1  0.917420  0.916420  0.815640  1.0  -0.463
  N  N223  1  0.297400  0.949730  0.768250  1.0  -0.461
  N  N224  1  0.229500  0.874370  0.852410  1.0  -0.485
  N  N225  1  0.344700  0.190340  0.112720  1.0  -0.4706
  N  N226  1  0.273600  0.072880  0.139450  1.0  -0.4534
  N  N227  1  0.365780  0.342130  0.997700  1.0  -0.4731
  N  N228  1  0.350120  0.415350  0.894520  1.0  -0.4669
  N  N229  1  0.469000  0.343070  0.150940  1.0  -0.4664
  N  N230  1  0.582580  0.416420  0.184360  1.0  -0.4629
  N  N231  1  0.202600  0.449730  0.231750  1.0  -0.4616
  N  N232  1  0.270500  0.374370  0.147590  1.0  -0.4835
  N  N233  1  0.655300  0.309660  0.612720  1.0  -0.4689
  N  N234  1  0.726400  0.427120  0.639450  1.0  -0.4524
  N  N235  1  0.634220  0.157870  0.497700  1.0  -0.4738
  N  N236  1  0.649880  0.084650  0.394520  1.0  -0.4674
  N  N237  1  0.531000  0.156930  0.650940  1.0  -0.4678
  N  N238  1  0.417420  0.083580  0.684360  1.0  -0.464
  N  N239  1  0.797400  0.050270  0.731750  1.0  -0.4616
  N  N240  1  0.729500  0.125630  0.647590  1.0  -0.4848
  N  N241  1  0.155300  0.190340  0.612720  1.0  -0.4702
  N  N242  1  0.226400  0.072880  0.639450  1.0  -0.4528
  N  N243  1  0.134220  0.342130  0.497700  1.0  -0.4736
  N  N244  1  0.149880  0.415350  0.394520  1.0  -0.467
  N  N245  1  0.031000  0.343070  0.650940  1.0  -0.4682
  N  N246  1  0.917420  0.416420  0.684360  1.0  -0.4632
  N  N247  1  0.297400  0.449730  0.731750  1.0  -0.4619
  N  N248  1  0.229500  0.374370  0.647590  1.0  -0.4851
  N  N249  1  0.844700  0.309660  0.112720  1.0  -0.4691
  N  N250  1  0.773600  0.427120  0.139450  1.0  -0.4526
  N  N251  1  0.865780  0.157870  0.997700  1.0  -0.4733
  N  N252  1  0.850120  0.084650  0.894520  1.0  -0.4674
  N  N253  1  0.969000  0.156930  0.150940  1.0  -0.4658
  N  N254  1  0.082580  0.083580  0.184360  1.0  -0.4633
  N  N255  1  0.702600  0.050270  0.231750  1.0  -0.4613
  N  N256  1  0.770500  0.125630  0.147590  1.0  -0.4829
  N  N257  1  0.655300  0.809660  0.887280  1.0  -0.4685
  N  N258  1  0.726400  0.927120  0.860550  1.0  -0.4524
  N  N259  1  0.634220  0.657870  0.002300  1.0  -0.4736
  N  N260  1  0.649880  0.584650  0.105480  1.0  -0.4678
  N  N261  1  0.531000  0.656930  0.849060  1.0  -0.4678
  N  N262  1  0.417420  0.583580  0.815640  1.0  -0.4641
  N  N263  1  0.797400  0.550270  0.768250  1.0  -0.4607
  N  N264  1  0.729500  0.625630  0.852410  1.0  -0.4848
  N  N265  1  0.344700  0.690340  0.387280  1.0  -0.4707
  N  N266  1  0.273600  0.572880  0.360550  1.0  -0.4532
  N  N267  1  0.365780  0.842130  0.502300  1.0  -0.4742
  N  N268  1  0.350120  0.915350  0.605480  1.0  -0.4668
  N  N269  1  0.469000  0.843070  0.349060  1.0  -0.4666
  N  N270  1  0.582580  0.916420  0.315640  1.0  -0.4626
  N  N271  1  0.202600  0.949730  0.268250  1.0  -0.4601
  N  N272  1  0.270500  0.874370  0.352410  1.0  -0.4833
