# generated using pymatgen
data_CoH6(C3N2)2
_symmetry_space_group_name_H-M   'P 1'
_cell_length_a   8.88300000
_cell_length_b   9.93550000
_cell_length_c   14.50520000
_cell_angle_alpha   82.13260000
_cell_angle_beta   72.16990000
_cell_angle_gamma   63.44660000
_symmetry_Int_Tables_number   1
_chemical_formula_structural   CoH6(C3N2)2
_chemical_formula_sum   'Co4 H24 C24 N16'
_cell_volume   1090.14659960
_cell_formula_units_Z   4
loop_
 _symmetry_equiv_pos_site_id
 _symmetry_equiv_pos_as_xyz
  1  'x, y, z'
loop_
 _atom_site_type_symbol
 _atom_site_label
 _atom_site_symmetry_multiplicity
 _atom_site_fract_x
 _atom_site_fract_y
 _atom_site_fract_z
 _atom_site_occupancy
 _atom_site_charge
  Co  Co1  1  0.025000  0.581160  0.872420  1.0  0.7749
  Co  Co2  1  0.478580  0.418840  0.127580  1.0  0.776
  Co  Co3  1  0.147420  0.081160  0.627580  1.0  0.7761
  Co  Co4  1  0.856160  0.918840  0.372420  1.0  0.7749
  H  H5  1  0.734700  0.472800  0.950400  1.0  0.0487
  H  H6  1  0.825200  0.714000  0.098600  1.0  0.0992
  H  H7  1  0.603300  0.648400  0.201200  1.0  0.0846
  H  H8  1  0.204500  0.257000  0.768400  1.0  0.0605
  H  H9  1  0.797500  0.616000  0.732000  1.0  0.0896
  H  H10  1  0.841600  0.417800  0.633000  1.0  0.0951
  H  H11  1  0.157900  0.527200  0.049600  1.0  0.049
  H  H12  1  0.637800  0.286000  0.901400  1.0  0.0985
  H  H13  1  0.452900  0.351600  0.798800  1.0  0.0849
  H  H14  1  0.229900  0.743000  0.231600  1.0  0.0602
  H  H15  1  0.145500  0.384000  0.268000  1.0  0.0886
  H  H16  1  0.892400  0.582200  0.367000  1.0  0.0949
  H  H17  1  0.935100  0.972800  0.549600  1.0  0.0496
  H  H18  1  0.173800  0.214000  0.401400  1.0  0.0985
  H  H19  1  0.054500  0.148400  0.298800  1.0  0.0847
  H  H20  1  0.222900  0.757000  0.731600  1.0  0.06
  H  H21  1  0.779500  0.116000  0.768000  1.0  0.0897
  H  H22  1  0.724600  0.917800  0.867000  1.0  0.0947
  H  H23  1  0.457500  0.027200  0.450400  1.0  0.0478
  H  H24  1  0.789200  0.786000  0.598600  1.0  0.0992
  H  H25  1  0.501700  0.851600  0.701200  1.0  0.0856
  H  H26  1  0.711500  0.243000  0.268400  1.0  0.0603
  H  H27  1  0.663500  0.884000  0.232000  1.0  0.0889
  H  H28  1  0.509400  0.082200  0.133000  1.0  0.0951
  C  C29  1  0.732200  0.522000  0.001200  1.0  0.2442
  C  C30  1  0.780700  0.655600  0.081000  1.0  -0.0092
  C  C31  1  0.660900  0.617600  0.137200  1.0  0.002
  C  C32  1  0.109100  0.323000  0.746200  1.0  0.2511
  C  C33  1  0.886500  0.518800  0.727400  1.0  -0.005
  C  C34  1  0.911200  0.410000  0.672000  1.0  -0.0296
  C  C35  1  0.255400  0.478000  0.998800  1.0  0.2457
  C  C36  1  0.517300  0.344400  0.919000  1.0  -0.0089
  C  C37  1  0.415700  0.382400  0.862800  1.0  0.0061
  C  C38  1  0.178300  0.677000  0.253800  1.0  0.25
  C  C39  1  0.132700  0.481200  0.272600  1.0  -0.0047
  C  C40  1  0.993200  0.590000  0.328000  1.0  -0.0294
  C  C41  1  0.983400  0.022000  0.498800  1.0  0.2461
  C  C42  1  0.111700  0.155600  0.419000  1.0  -0.0096
  C  C43  1  0.048100  0.117600  0.362800  1.0  0.0059
  C  C44  1  0.105300  0.823000  0.753800  1.0  0.25
  C  C45  1  0.863900  0.018800  0.772600  1.0  -0.0047
  C  C46  1  0.833200  0.910000  0.828000  1.0  -0.0294
  C  C47  1  0.504200  0.978000  0.501200  1.0  0.2444
  C  C48  1  0.686300  0.844400  0.581000  1.0  -0.0083
  C  C49  1  0.528500  0.882400  0.637200  1.0  0.0022
  C  C50  1  0.682100  0.177000  0.246200  1.0  0.2504
  C  C51  1  0.655300  0.981200  0.227400  1.0  -0.0049
  C  C52  1  0.571200  0.090000  0.172000  1.0  -0.0294
  N  N53  1  0.829900  0.595400  0.992600  1.0  -0.4201
  N  N54  1  0.630700  0.527000  0.090400  1.0  -0.4307
  N  N55  1  0.010800  0.466600  0.776400  1.0  -0.4362
  N  N56  1  0.056240  0.285400  0.682320  1.0  -0.4221
  N  N57  1  0.417900  0.404600  0.007400  1.0  -0.4202
  N  N58  1  0.248100  0.473000  0.909600  1.0  -0.4296
  N  N59  1  0.253800  0.533400  0.223600  1.0  -0.4373
  N  N60  1  0.023960  0.714600  0.317680  1.0  -0.4207
  N  N61  1  0.072500  0.095400  0.507400  1.0  -0.4202
  N  N62  1  0.971100  0.027000  0.409600  1.0  -0.4306
  N  N63  1  0.037200  0.966600  0.723600  1.0  -0.4373
  N  N64  1  0.988560  0.785400  0.817680  1.0  -0.4221
  N  N65  1  0.675300  0.904600  0.492600  1.0  -0.4206
  N  N66  1  0.407700  0.973000  0.590400  1.0  -0.4302
  N  N67  1  0.727400  0.033400  0.276400  1.0  -0.4364
  N  N68  1  0.591640  0.214600  0.182320  1.0  -0.4203
