# generated using pymatgen
data_ZnH7C12N2O3
_symmetry_space_group_name_H-M   'P 1'
_cell_length_a   14.74090000
_cell_length_b   15.34290000
_cell_length_c   22.19240000
_cell_angle_alpha   90.00000000
_cell_angle_beta   103.71600000
_cell_angle_gamma   90.00000000
_symmetry_Int_Tables_number   1
_chemical_formula_structural   ZnH7C12N2O3
_chemical_formula_sum   'Zn12 H84 C144 N24 O36'
_cell_volume   4876.08094541
_cell_formula_units_Z   12
loop_
 _symmetry_equiv_pos_site_id
 _symmetry_equiv_pos_as_xyz
  1  'x, y, z'
loop_
 _atom_site_type_symbol
 _atom_site_label
 _atom_site_symmetry_multiplicity
 _atom_site_fract_x
 _atom_site_fract_y
 _atom_site_fract_z
 _atom_site_occupancy
 _atom_site_charge
  Zn  Zn1  1  0.153940  0.599810  0.954040  1.0  0.975
  Zn  Zn2  1  0.148920  0.865950  0.987830  1.0  0.9132
  Zn  Zn3  1  0.152510  0.807520  0.805650  1.0  0.954
  Zn  Zn4  1  0.152400  0.538790  0.774900  1.0  0.9506
  Zn  Zn5  1  0.157370  0.477690  0.599800  1.0  1.0304
  Zn  Zn6  1  0.155650  0.742240  0.625980  1.0  0.9819
  Zn  Zn7  1  0.846060  0.099810  0.045960  1.0  0.9725
  Zn  Zn8  1  0.851080  0.365950  0.012170  1.0  0.9096
  Zn  Zn9  1  0.847490  0.307520  0.194350  1.0  0.9537
  Zn  Zn10  1  0.847600  0.038790  0.225100  1.0  0.9504
  Zn  Zn11  1  0.842630  0.977690  0.400200  1.0  1.0316
  Zn  Zn12  1  0.844350  0.242240  0.374020  1.0  0.9831
  H  H13  1  0.166300  0.614200  0.159400  1.0  0.114
  H  H14  1  0.156700  0.911800  0.187100  1.0  0.0822
  H  H15  1  0.165600  0.820500  0.268300  1.0  0.1266
  H  H16  1  0.863700  0.772800  0.690300  1.0  0.0889
  H  H17  1  0.849700  0.821000  0.890800  1.0  0.1008
  H  H18  1  0.723000  0.781000  0.711800  1.0  0.1205
  H  H19  1  0.260700  0.023700  0.052700  1.0  0.1002
  H  H20  1  0.266300  0.174300  0.045100  1.0  0.1105
  H  H21  1  0.036000  0.169600  0.905400  1.0  0.0982
  H  H22  1  0.030400  0.019000  0.913000  1.0  0.0942
  H  H23  1  0.295700  0.449700  0.990700  1.0  0.0998
  H  H24  1  0.295200  0.298900  0.998500  1.0  0.1173
  H  H25  1  0.016600  0.297300  0.933400  1.0  0.1012
  H  H26  1  0.017000  0.448100  0.925700  1.0  0.0995
  H  H27  1  0.452900  0.755900  0.722200  1.0  0.1308
  H  H28  1  0.581600  0.824600  0.897400  1.0  0.1107
  H  H29  1  0.442300  0.823000  0.925200  1.0  0.1071
  H  H30  1  0.158800  0.712800  0.425500  1.0  0.0946
  H  H31  1  0.165800  0.503400  0.322000  1.0  0.0926
  H  H32  1  0.162000  0.412100  0.405200  1.0  0.1139
  H  H33  1  0.281700  0.106300  0.828100  1.0  0.0736
  H  H34  1  0.290800  0.964100  0.813000  1.0  0.0996
  H  H35  1  0.027000  0.955200  0.764400  1.0  0.0337
  H  H36  1  0.010900  0.235600  0.741600  1.0  0.1117
  H  H37  1  0.012900  0.385900  0.737800  1.0  0.0862
  H  H38  1  0.274900  0.245500  0.845000  1.0  0.1063
  H  H39  1  0.267800  0.390800  0.843300  1.0  0.0788
  H  H40  1  0.013700  0.095600  0.753100  1.0  0.1087
  H  H41  1  0.856500  0.599000  0.856600  1.0  0.1053
  H  H42  1  0.723400  0.535200  0.685300  1.0  0.1046
  H  H43  1  0.858200  0.536200  0.655200  1.0  0.1052
  H  H44  1  0.444500  0.588000  0.894400  1.0  0.1138
  H  H45  1  0.585900  0.580500  0.868300  1.0  0.0961
  H  H46  1  0.461900  0.519200  0.694000  1.0  0.1278
  H  H47  1  0.281800  0.323700  0.671300  1.0  0.0811
  H  H48  1  0.287000  0.178600  0.669900  1.0  0.094
  H  H49  1  0.032600  0.176000  0.568100  1.0  0.093
  H  H50  1  0.034900  0.323600  0.565400  1.0  0.0698
  H  H51  1  0.289700  0.891100  0.645000  1.0  0.0714
  H  H52  1  0.295800  0.037700  0.653900  1.0  0.1121
  H  H53  1  0.022200  0.043600  0.594800  1.0  0.0939
  H  H54  1  0.023300  0.895900  0.598600  1.0  0.0847
  H  H55  1  0.833700  0.114200  0.840600  1.0  0.1131
  H  H56  1  0.843300  0.411800  0.812900  1.0  0.0823
  H  H57  1  0.834400  0.320500  0.731700  1.0  0.1278
  H  H58  1  0.136300  0.272800  0.309700  1.0  0.0875
  H  H59  1  0.150300  0.321000  0.109200  1.0  0.1006
  H  H60  1  0.277000  0.281000  0.288200  1.0  0.1205
  H  H61  1  0.739300  0.523700  0.947300  1.0  0.1001
  H  H62  1  0.733700  0.674300  0.954900  1.0  0.1113
  H  H63  1  0.964000  0.669600  0.094600  1.0  0.0986
  H  H64  1  0.969600  0.519000  0.087000  1.0  0.095
  H  H65  1  0.704300  0.949700  0.009300  1.0  0.0997
  H  H66  1  0.704800  0.798900  0.001500  1.0  0.1167
  H  H67  1  0.983400  0.797300  0.066600  1.0  0.1007
  H  H68  1  0.983000  0.948100  0.074300  1.0  0.0996
  H  H69  1  0.547100  0.255900  0.277800  1.0  0.1308
  H  H70  1  0.418400  0.324600  0.102600  1.0  0.111
  H  H71  1  0.557700  0.323000  0.074800  1.0  0.1078
  H  H72  1  0.841200  0.212800  0.574500  1.0  0.0953
  H  H73  1  0.834200  0.003400  0.678000  1.0  0.0932
  H  H74  1  0.838000  0.912100  0.594800  1.0  0.1147
  H  H75  1  0.718300  0.606300  0.171900  1.0  0.0731
  H  H76  1  0.709200  0.464100  0.187000  1.0  0.0989
  H  H77  1  0.973000  0.455200  0.235600  1.0  0.0342
  H  H78  1  0.989100  0.735600  0.258400  1.0  0.1112
  H  H79  1  0.987100  0.885900  0.262200  1.0  0.0855
  H  H80  1  0.725100  0.745500  0.155000  1.0  0.1055
  H  H81  1  0.732200  0.890800  0.156700  1.0  0.079
  H  H82  1  0.986300  0.595600  0.246900  1.0  0.1088
  H  H83  1  0.143500  0.099000  0.143400  1.0  0.1047
  H  H84  1  0.276600  0.035200  0.314700  1.0  0.1044
  H  H85  1  0.141800  0.036200  0.344800  1.0  0.1039
  H  H86  1  0.555500  0.088000  0.105600  1.0  0.1142
  H  H87  1  0.414100  0.080500  0.131700  1.0  0.0956
  H  H88  1  0.538100  0.019200  0.306000  1.0  0.1274
  H  H89  1  0.718200  0.823700  0.328700  1.0  0.0818
  H  H90  1  0.713000  0.678600  0.330100  1.0  0.0958
  H  H91  1  0.967400  0.676000  0.431900  1.0  0.0936
  H  H92  1  0.965100  0.823600  0.434600  1.0  0.0698
  H  H93  1  0.710300  0.391100  0.355000  1.0  0.0712
  H  H94  1  0.704200  0.537700  0.346100  1.0  0.1108
  H  H95  1  0.977800  0.543600  0.405200  1.0  0.0948
  H  H96  1  0.976700  0.395900  0.401400  1.0  0.0848
  C  C97  1  0.165800  0.674400  0.164400  1.0  -0.0641
  C  C98  1  0.166800  0.730100  0.113100  1.0  -0.1353
  C  C99  1  0.165400  0.821100  0.117800  1.0  0.3055
  C  C100  1  0.161300  0.852200  0.180800  1.0  -0.1406
  C  C101  1  0.164000  0.798100  0.229200  1.0  -0.1586
  C  C102  1  0.164300  0.708300  0.219900  1.0  0.2274
  C  C103  1  0.944500  0.795100  0.773200  1.0  0.4112
  C  C104  1  0.861500  0.784800  0.731000  1.0  -0.157
  C  C105  1  0.943400  0.817200  0.835100  1.0  -0.1091
  C  C106  1  0.852500  0.816800  0.849500  1.0  -0.1134
  C  C107  1  0.776300  0.790400  0.743200  1.0  -0.161
  C  C108  1  0.768200  0.810600  0.804000  1.0  0.1988
  C  C109  1  0.163800  0.687000  0.053400  1.0  0.6079
  C  C110  1  0.021700  0.828400  0.887300  1.0  0.6766
  C  C111  1  0.215700  0.053000  0.023200  1.0  0.1515
  C  C112  1  0.219000  0.143200  0.018600  1.0  -0.0912
  C  C113  1  0.151700  0.186900  0.974500  1.0  0.0204
  C  C114  1  0.081000  0.140400  0.934900  1.0  -0.1016
  C  C115  1  0.077700  0.050100  0.939500  1.0  0.1776
  C  C116  1  0.239700  0.419100  0.979200  1.0  0.1383
  C  C117  1  0.239500  0.328800  0.983900  1.0  -0.119
  C  C118  1  0.155800  0.283100  0.966700  1.0  0.021
  C  C119  1  0.072500  0.327800  0.944900  1.0  -0.0977
  C  C120  1  0.072700  0.418200  0.940300  1.0  0.1663
  C  C121  1  0.280300  0.748300  0.728600  1.0  0.6376
  C  C122  1  0.358300  0.791800  0.841000  1.0  0.2826
  C  C123  1  0.364600  0.771300  0.780000  1.0  -0.1635
  C  C124  1  0.450000  0.771500  0.762200  1.0  -0.0522
  C  C125  1  0.530000  0.795800  0.806200  1.0  0.0916
  C  C126  1  0.526900  0.812500  0.867900  1.0  -0.0739
  C  C127  1  0.443500  0.811100  0.884300  1.0  -0.2554
  C  C128  1  0.152800  0.648000  0.532400  1.0  0.6636
  C  C129  1  0.156300  0.605300  0.473700  1.0  -0.0799
  C  C130  1  0.158900  0.652500  0.421800  1.0  -0.04
  C  C131  1  0.161600  0.618500  0.363900  1.0  0.2516
  C  C132  1  0.163300  0.528300  0.359700  1.0  -0.0674
  C  C133  1  0.161500  0.472300  0.410200  1.0  -0.1602
  C  C134  1  0.158600  0.509900  0.470300  1.0  0.2842
  C  C135  1  0.227400  0.077200  0.808600  1.0  -0.1248
  C  C136  1  0.232600  0.991000  0.805400  1.0  0.1518
  C  C137  1  0.081900  0.987500  0.774300  1.0  0.1535
  C  C138  1  0.065000  0.266300  0.759600  1.0  -0.1593
  C  C139  1  0.066000  0.356200  0.758800  1.0  0.1614
  C  C140  1  0.150700  0.220500  0.789200  1.0  0.0455
  C  C141  1  0.221500  0.272200  0.821400  1.0  -0.1392
  C  C142  1  0.217200  0.359600  0.820500  1.0  0.1681
  C  C143  1  0.072000  0.070500  0.768700  1.0  -0.1774
  C  C144  1  0.155800  0.123800  0.787600  1.0  0.0598
  C  C145  1  0.027800  0.599900  0.851800  1.0  0.6356
  C  C146  1  0.943200  0.585100  0.799900  1.0  -0.1165
  C  C147  1  0.857400  0.587500  0.815600  1.0  -0.1424
  C  C148  1  0.772200  0.573600  0.772800  1.0  0.2491
  C  C149  1  0.778000  0.550300  0.714000  1.0  -0.0776
  C  C150  1  0.858600  0.548400  0.696300  1.0  -0.1746
  C  C151  1  0.947200  0.565500  0.740700  1.0  0.3222
  C  C152  1  0.288200  0.514200  0.693900  1.0  0.643
  C  C153  1  0.369800  0.537900  0.747100  1.0  -0.1641
  C  C154  1  0.360900  0.553700  0.807000  1.0  0.293
  C  C155  1  0.447200  0.574100  0.854100  1.0  -0.1045
  C  C156  1  0.530900  0.572400  0.838100  1.0  -0.0511
  C  C157  1  0.534100  0.558900  0.777300  1.0  0.1275
  C  C158  1  0.456600  0.536000  0.733300  1.0  -0.0999
  C  C159  1  0.230600  0.294200  0.647500  1.0  0.1682
  C  C160  1  0.233100  0.206300  0.648200  1.0  -0.1742
  C  C161  1  0.162600  0.158800  0.619600  1.0  0.0959
  C  C162  1  0.086300  0.205400  0.588600  1.0  -0.2059
  C  C163  1  0.088000  0.294800  0.587300  1.0  0.161
  C  C164  1  0.233100  0.920900  0.636200  1.0  0.1856
  C  C165  1  0.238300  0.011300  0.638200  1.0  -0.2155
  C  C166  1  0.160300  0.063200  0.617700  1.0  0.0507
  C  C167  1  0.079400  0.014900  0.605300  1.0  -0.2046
  C  C168  1  0.080700  0.924300  0.608100  1.0  0.152
  C  C169  1  0.834200  0.174400  0.835600  1.0  -0.0668
  C  C170  1  0.833200  0.230100  0.886900  1.0  -0.1358
  C  C171  1  0.834600  0.321100  0.882200  1.0  0.307
  C  C172  1  0.838700  0.352200  0.819200  1.0  -0.1394
  C  C173  1  0.836000  0.298100  0.770800  1.0  -0.1588
  C  C174  1  0.835700  0.208300  0.780100  1.0  0.227
  C  C175  1  0.055500  0.295100  0.226800  1.0  0.4088
  C  C176  1  0.138500  0.284800  0.269000  1.0  -0.1572
  C  C177  1  0.056600  0.317200  0.164900  1.0  -0.1094
  C  C178  1  0.147500  0.316800  0.150500  1.0  -0.1149
  C  C179  1  0.223700  0.290400  0.256800  1.0  -0.1622
  C  C180  1  0.231800  0.310600  0.196000  1.0  0.1967
  C  C181  1  0.836200  0.187000  0.946600  1.0  0.6072
  C  C182  1  0.978300  0.328400  0.112700  1.0  0.6761
  C  C183  1  0.784300  0.553000  0.976800  1.0  0.1497
  C  C184  1  0.781000  0.643200  0.981400  1.0  -0.0927
  C  C185  1  0.848300  0.686900  0.025500  1.0  0.0215
  C  C186  1  0.919000  0.640400  0.065100  1.0  -0.1019
  C  C187  1  0.922300  0.550100  0.060500  1.0  0.178
  C  C188  1  0.760300  0.919100  0.020800  1.0  0.1374
  C  C189  1  0.760500  0.828800  0.016100  1.0  -0.1178
  C  C190  1  0.844200  0.783100  0.033300  1.0  0.0218
  C  C191  1  0.927500  0.827800  0.055100  1.0  -0.0985
  C  C192  1  0.927300  0.918200  0.059700  1.0  0.1663
  C  C193  1  0.719700  0.248300  0.271400  1.0  0.6373
  C  C194  1  0.641700  0.291800  0.159000  1.0  0.2822
  C  C195  1  0.635400  0.271300  0.220000  1.0  -0.164
  C  C196  1  0.550000  0.271500  0.237800  1.0  -0.0493
  C  C197  1  0.470000  0.295800  0.193800  1.0  0.0916
  C  C198  1  0.473100  0.312500  0.132100  1.0  -0.0744
  C  C199  1  0.556500  0.311100  0.115700  1.0  -0.2554
  C  C200  1  0.847200  0.148000  0.467600  1.0  0.6639
  C  C201  1  0.843700  0.105300  0.526300  1.0  -0.0789
  C  C202  1  0.841100  0.152500  0.578200  1.0  -0.04
  C  C203  1  0.838400  0.118500  0.636100  1.0  0.2521
  C  C204  1  0.836700  0.028300  0.640300  1.0  -0.0705
  C  C205  1  0.838500  0.972300  0.589800  1.0  -0.1635
  C  C206  1  0.841400  0.009900  0.529700  1.0  0.2841
  C  C207  1  0.772600  0.577200  0.191400  1.0  -0.1226
  C  C208  1  0.767400  0.491000  0.194600  1.0  0.152
  C  C209  1  0.918100  0.487500  0.225700  1.0  0.1517
  C  C210  1  0.935000  0.766300  0.240400  1.0  -0.1607
  C  C211  1  0.934000  0.856200  0.241200  1.0  0.1619
  C  C212  1  0.849300  0.720500  0.210800  1.0  0.0428
  C  C213  1  0.778500  0.772200  0.178600  1.0  -0.1389
  C  C214  1  0.782800  0.859600  0.179500  1.0  0.1669
  C  C215  1  0.928000  0.570500  0.231300  1.0  -0.1757
  C  C216  1  0.844200  0.623800  0.212400  1.0  0.0611
  C  C217  1  0.972200  0.099900  0.148200  1.0  0.6348
  C  C218  1  0.056800  0.085100  0.200100  1.0  -0.1192
  C  C219  1  0.142600  0.087500  0.184400  1.0  -0.1441
  C  C220  1  0.227800  0.073600  0.227200  1.0  0.2496
  C  C221  1  0.222000  0.050300  0.286000  1.0  -0.08
  C  C222  1  0.141400  0.048400  0.303700  1.0  -0.1777
  C  C223  1  0.052800  0.065500  0.259300  1.0  0.3252
  C  C224  1  0.711800  0.014200  0.306100  1.0  0.6429
  C  C225  1  0.630200  0.037900  0.252900  1.0  -0.1619
  C  C226  1  0.639100  0.053700  0.193000  1.0  0.2924
  C  C227  1  0.552800  0.074100  0.145900  1.0  -0.1027
  C  C228  1  0.469100  0.072400  0.161900  1.0  -0.0513
  C  C229  1  0.465900  0.058900  0.222700  1.0  0.1282
  C  C230  1  0.543400  0.036000  0.266700  1.0  -0.1017
  C  C231  1  0.769400  0.794200  0.352500  1.0  0.1669
  C  C232  1  0.766900  0.706300  0.351800  1.0  -0.174
  C  C233  1  0.837400  0.658800  0.380400  1.0  0.0991
  C  C234  1  0.913700  0.705400  0.411400  1.0  -0.2054
  C  C235  1  0.912000  0.794800  0.412700  1.0  0.1599
  C  C236  1  0.766900  0.420900  0.363800  1.0  0.1868
  C  C237  1  0.761700  0.511300  0.361800  1.0  -0.2164
  C  C238  1  0.839700  0.563200  0.382300  1.0  0.0531
  C  C239  1  0.920600  0.514900  0.394700  1.0  -0.2056
  C  C240  1  0.919300  0.424300  0.391900  1.0  0.1538
  N  N241  1  0.163500  0.647800  0.266100  1.0  -0.2228
  N  N242  1  0.688600  0.810600  0.827100  1.0  -0.2124
  N  N243  1  0.145000  0.006400  0.983600  1.0  -0.3646
  N  N244  1  0.156400  0.463800  0.957400  1.0  -0.3374
  N  N245  1  0.162900  0.674100  0.317000  1.0  -0.2273
  N  N246  1  0.615000  0.793300  0.786700  1.0  -0.2765
  N  N247  1  0.156900  0.943600  0.791600  1.0  -0.3082
  N  N248  1  0.144300  0.403300  0.788600  1.0  -0.351
  N  N249  1  0.620600  0.559600  0.757000  1.0  -0.1894
  N  N250  1  0.691200  0.576700  0.797000  1.0  -0.1763
  N  N251  1  0.160100  0.342100  0.615100  1.0  -0.3043
  N  N252  1  0.158700  0.873500  0.623500  1.0  -0.3047
  N  N253  1  0.836500  0.147800  0.733900  1.0  -0.226
  N  N254  1  0.311400  0.310600  0.172900  1.0  -0.2112
  N  N255  1  0.855000  0.506400  0.016400  1.0  -0.365
  N  N256  1  0.843600  0.963800  0.042600  1.0  -0.336
  N  N257  1  0.837100  0.174100  0.683000  1.0  -0.2286
  N  N258  1  0.385000  0.293300  0.213300  1.0  -0.2749
  N  N259  1  0.843100  0.443600  0.208400  1.0  -0.308
  N  N260  1  0.855700  0.903300  0.211400  1.0  -0.3509
  N  N261  1  0.379400  0.059600  0.243000  1.0  -0.1884
  N  N262  1  0.308800  0.076700  0.203000  1.0  -0.1754
  N  N263  1  0.839900  0.842100  0.384900  1.0  -0.3042
  N  N264  1  0.841300  0.373500  0.376500  1.0  -0.3054
  O  O265  1  0.164600  0.876100  0.076000  1.0  -0.5972
  O  O266  1  0.020600  0.788700  0.754800  1.0  -0.592
  O  O267  1  0.166800  0.603000  0.048500  1.0  -0.6369
  O  O268  1  0.159200  0.728700  0.001200  1.0  -0.7078
  O  O269  1  0.105300  0.818500  0.880200  1.0  -0.6377
  O  O270  1  0.010800  0.856100  0.939100  1.0  -0.6154
  O  O271  1  0.279800  0.787900  0.860700  1.0  -0.5818
  O  O272  1  0.198100  0.745500  0.738500  1.0  -0.6728
  O  O273  1  0.288300  0.732100  0.675500  1.0  -0.6155
  O  O274  1  0.151500  0.607900  0.583300  1.0  -0.6545
  O  O275  1  0.145800  0.729100  0.532000  1.0  -0.5834
  O  O276  1  0.152700  0.456100  0.512600  1.0  -0.5875
  O  O277  1  0.278800  0.556500  0.825200  1.0  -0.585
  O  O278  1  0.203300  0.523200  0.698900  1.0  -0.6487
  O  O279  1  0.303000  0.487800  0.645200  1.0  -0.6024
  O  O280  1  0.019100  0.611500  0.905400  1.0  -0.5988
  O  O281  1  0.109100  0.596100  0.842300  1.0  -0.6443
  O  O282  1  0.023200  0.557100  0.720400  1.0  -0.5826
  O  O283  1  0.835400  0.376100  0.924000  1.0  -0.5991
  O  O284  1  0.979400  0.288700  0.245200  1.0  -0.5903
  O  O285  1  0.833200  0.103000  0.951500  1.0  -0.635
  O  O286  1  0.840800  0.228700  0.998800  1.0  -0.7054
  O  O287  1  0.894700  0.318500  0.119800  1.0  -0.638
  O  O288  1  0.989200  0.356100  0.060900  1.0  -0.6148
  O  O289  1  0.720200  0.287900  0.139300  1.0  -0.581
  O  O290  1  0.801900  0.245500  0.261500  1.0  -0.6713
  O  O291  1  0.711700  0.232100  0.324500  1.0  -0.6143
  O  O292  1  0.848500  0.107900  0.416700  1.0  -0.6544
  O  O293  1  0.854200  0.229100  0.468000  1.0  -0.5838
  O  O294  1  0.847300  0.956100  0.487400  1.0  -0.5883
  O  O295  1  0.721200  0.056500  0.174800  1.0  -0.5846
  O  O296  1  0.796700  0.023200  0.301100  1.0  -0.6473
  O  O297  1  0.697000  0.987800  0.354800  1.0  -0.6031
  O  O298  1  0.980900  0.111500  0.094600  1.0  -0.5977
  O  O299  1  0.890900  0.096100  0.157700  1.0  -0.6437
  O  O300  1  0.976800  0.057100  0.279600  1.0  -0.585
