# generated using pymatgen
data_EuH5C7SO6
_symmetry_space_group_name_H-M   'P 1'
_cell_length_a   8.53890000
_cell_length_b   17.20090000
_cell_length_c   17.20090000
_cell_angle_alpha   90.00000000
_cell_angle_beta   90.00000000
_cell_angle_gamma   90.00000000
_symmetry_Int_Tables_number   1
_chemical_formula_structural   EuH5C7SO6
_chemical_formula_sum   'Eu8 H40 C56 S8 O48'
_cell_volume   2526.41254726
_cell_formula_units_Z   8
loop_
 _symmetry_equiv_pos_site_id
 _symmetry_equiv_pos_as_xyz
  1  'x, y, z'
loop_
 _atom_site_type_symbol
 _atom_site_label
 _atom_site_symmetry_multiplicity
 _atom_site_fract_x
 _atom_site_fract_y
 _atom_site_fract_z
 _atom_site_occupancy
 _atom_site_charge
  Eu  Eu1  1  0.150470  0.963040  0.110610  1.0  2.1451
  Eu  Eu2  1  0.150470  0.036960  0.889390  1.0  2.1444
  Eu  Eu3  1  0.849530  0.110610  0.036960  1.0  2.1463
  Eu  Eu4  1  0.849530  0.889390  0.963040  1.0  2.1462
  Eu  Eu5  1  0.349530  0.536960  0.610610  1.0  2.1466
  Eu  Eu6  1  0.349530  0.463040  0.389390  1.0  2.1447
  Eu  Eu7  1  0.650470  0.389390  0.536960  1.0  2.1457
  Eu  Eu8  1  0.650470  0.610610  0.463040  1.0  2.145
  H  H9  1  0.444000  0.236200  0.248000  1.0  0.1071
  H  H10  1  0.676500  0.167400  0.438300  1.0  0.1079
  H  H11  1  0.742300  0.052200  0.377200  1.0  0.1099
  H  H12  1  0.651700  0.026700  0.252600  1.0  0.1102
  H  H13  1  0.201000  0.109000  0.040000  1.0  0.3624
  H  H14  1  0.444000  0.763800  0.752000  1.0  0.1064
  H  H15  1  0.676500  0.832600  0.561700  1.0  0.108
  H  H16  1  0.742300  0.947800  0.622800  1.0  0.1089
  H  H17  1  0.651700  0.973300  0.747400  1.0  0.1096
  H  H18  1  0.201000  0.891000  0.960000  1.0  0.3635
  H  H19  1  0.556000  0.248000  0.763800  1.0  0.1067
  H  H20  1  0.323500  0.438300  0.832600  1.0  0.1075
  H  H21  1  0.257700  0.377200  0.947800  1.0  0.1091
  H  H22  1  0.348300  0.252600  0.973300  1.0  0.1093
  H  H23  1  0.799000  0.040000  0.891000  1.0  0.3644
  H  H24  1  0.556000  0.752000  0.236200  1.0  0.1057
  H  H25  1  0.323500  0.561700  0.167400  1.0  0.1077
  H  H26  1  0.257700  0.622800  0.052200  1.0  0.1079
  H  H27  1  0.348300  0.747400  0.026700  1.0  0.1094
  H  H28  1  0.799000  0.960000  0.109000  1.0  0.365
  H  H29  1  0.056000  0.263800  0.748000  1.0  0.1071
  H  H30  1  0.823500  0.332600  0.938300  1.0  0.1079
  H  H31  1  0.757700  0.447800  0.877200  1.0  0.1087
  H  H32  1  0.848300  0.473300  0.752600  1.0  0.1101
  H  H33  1  0.299000  0.391000  0.540000  1.0  0.3655
  H  H34  1  0.056000  0.736200  0.252000  1.0  0.1063
  H  H35  1  0.823500  0.667400  0.061700  1.0  0.1079
  H  H36  1  0.757700  0.552200  0.122800  1.0  0.1087
  H  H37  1  0.848300  0.526700  0.247400  1.0  0.1097
  H  H38  1  0.299000  0.609000  0.460000  1.0  0.3648
  H  H39  1  0.944000  0.252000  0.263800  1.0  0.1068
  H  H40  1  0.176500  0.061700  0.332600  1.0  0.1076
  H  H41  1  0.242300  0.122800  0.447800  1.0  0.1096
  H  H42  1  0.151700  0.247400  0.473300  1.0  0.1099
  H  H43  1  0.701000  0.460000  0.391000  1.0  0.3627
  H  H44  1  0.944000  0.748000  0.736200  1.0  0.1058
  H  H45  1  0.176500  0.938300  0.667400  1.0  0.1074
  H  H46  1  0.242300  0.877200  0.552200  1.0  0.108
  H  H47  1  0.151700  0.752600  0.526700  1.0  0.1096
  H  H48  1  0.701000  0.540000  0.609000  1.0  0.3623
  C  C49  1  0.541400  0.129050  0.238510  1.0  -0.2649
  C  C50  1  0.503000  0.199070  0.274300  1.0  0.0231
  C  C51  1  0.553700  0.212700  0.349500  1.0  -0.1364
  C  C52  1  0.509700  0.286870  0.390100  1.0  0.7211
  C  C53  1  0.642400  0.157900  0.387900  1.0  -0.0344
  C  C54  1  0.681000  0.088700  0.351500  1.0  -0.1248
  C  C55  1  0.628400  0.073670  0.276700  1.0  -0.0778
  C  C56  1  0.541400  0.870950  0.761490  1.0  -0.2633
  C  C57  1  0.503000  0.800930  0.725700  1.0  0.0245
  C  C58  1  0.553700  0.787300  0.650500  1.0  -0.1364
  C  C59  1  0.509700  0.713130  0.609900  1.0  0.7215
  C  C60  1  0.642400  0.842100  0.612100  1.0  -0.035
  C  C61  1  0.681000  0.911300  0.648500  1.0  -0.1253
  C  C62  1  0.628400  0.926330  0.723300  1.0  -0.0773
  C  C63  1  0.458600  0.238510  0.870950  1.0  -0.2632
  C  C64  1  0.497000  0.274300  0.800930  1.0  0.0246
  C  C65  1  0.446300  0.349500  0.787300  1.0  -0.134
  C  C66  1  0.490300  0.390100  0.713130  1.0  0.7213
  C  C67  1  0.357600  0.387900  0.842100  1.0  -0.0371
  C  C68  1  0.319000  0.351500  0.911300  1.0  -0.1239
  C  C69  1  0.371600  0.276700  0.926330  1.0  -0.0747
  C  C70  1  0.458600  0.761490  0.129050  1.0  -0.2616
  C  C71  1  0.497000  0.725700  0.199070  1.0  0.0241
  C  C72  1  0.446300  0.650500  0.212700  1.0  -0.1341
  C  C73  1  0.490300  0.609900  0.286870  1.0  0.7212
  C  C74  1  0.357600  0.612100  0.157900  1.0  -0.0355
  C  C75  1  0.319000  0.648500  0.088700  1.0  -0.1218
  C  C76  1  0.371600  0.723300  0.073670  1.0  -0.0735
  C  C77  1  0.958600  0.370950  0.738510  1.0  -0.265
  C  C78  1  0.997000  0.300930  0.774300  1.0  0.0246
  C  C79  1  0.946300  0.287300  0.849500  1.0  -0.1361
  C  C80  1  0.990300  0.213130  0.890100  1.0  0.7202
  C  C81  1  0.857600  0.342100  0.887900  1.0  -0.0349
  C  C82  1  0.819000  0.411300  0.851500  1.0  -0.127
  C  C83  1  0.871600  0.426330  0.776700  1.0  -0.0768
  C  C84  1  0.958600  0.629050  0.261490  1.0  -0.2635
  C  C85  1  0.997000  0.699070  0.225700  1.0  0.0246
  C  C86  1  0.946300  0.712700  0.150500  1.0  -0.1363
  C  C87  1  0.990300  0.786870  0.109900  1.0  0.7199
  C  C88  1  0.857600  0.657900  0.112100  1.0  -0.0342
  C  C89  1  0.819000  0.588700  0.148500  1.0  -0.1248
  C  C90  1  0.871600  0.573670  0.223300  1.0  -0.0775
  C  C91  1  0.041400  0.261490  0.370950  1.0  -0.2613
  C  C92  1  0.003000  0.225700  0.300930  1.0  0.0227
  C  C93  1  0.053700  0.150500  0.287300  1.0  -0.1341
  C  C94  1  0.009700  0.109900  0.213130  1.0  0.7214
  C  C95  1  0.142400  0.112100  0.342100  1.0  -0.0353
  C  C96  1  0.181000  0.148500  0.411300  1.0  -0.1223
  C  C97  1  0.128400  0.223300  0.426330  1.0  -0.0737
  C  C98  1  0.041400  0.738510  0.629050  1.0  -0.2633
  C  C99  1  0.003000  0.774300  0.699070  1.0  0.025
  C  C100  1  0.053700  0.849500  0.712700  1.0  -0.1343
  C  C101  1  0.009700  0.890100  0.786870  1.0  0.7214
  C  C102  1  0.142400  0.887900  0.657900  1.0  -0.0369
  C  C103  1  0.181000  0.851500  0.588700  1.0  -0.121
  C  C104  1  0.128400  0.776700  0.573670  1.0  -0.0751
  S  S105  1  0.476190  0.108290  0.143230  1.0  1.3809
  S  S106  1  0.476190  0.891710  0.856770  1.0  1.3823
  S  S107  1  0.523810  0.143230  0.891710  1.0  1.3813
  S  S108  1  0.523810  0.856770  0.108290  1.0  1.3809
  S  S109  1  0.023810  0.391710  0.643230  1.0  1.3813
  S  S110  1  0.023810  0.608290  0.356770  1.0  1.3818
  S  S111  1  0.976190  0.356770  0.391710  1.0  1.3805
  S  S112  1  0.976190  0.643230  0.608290  1.0  1.381
  O  O113  1  0.353400  0.050710  0.151490  1.0  -0.7404
  O  O114  1  0.612400  0.075630  0.103690  1.0  -0.712
  O  O115  1  0.419100  0.179540  0.108650  1.0  -0.6663
  O  O116  1  0.457000  0.341530  0.350720  1.0  -0.6502
  O  O117  1  0.530500  0.289350  0.463280  1.0  -0.7006
  O  O118  1  0.121400  0.073660  0.025800  1.0  -0.9705
  O  O119  1  0.353400  0.949290  0.848510  1.0  -0.739
  O  O120  1  0.612400  0.924370  0.896310  1.0  -0.7117
  O  O121  1  0.419100  0.820460  0.891350  1.0  -0.6656
  O  O122  1  0.457000  0.658470  0.649280  1.0  -0.6487
  O  O123  1  0.530500  0.710650  0.536720  1.0  -0.6989
  O  O124  1  0.121400  0.926340  0.974200  1.0  -0.9712
  O  O125  1  0.646600  0.151490  0.949290  1.0  -0.7402
  O  O126  1  0.387600  0.103690  0.924370  1.0  -0.7125
  O  O127  1  0.580900  0.108650  0.820460  1.0  -0.6644
  O  O128  1  0.543000  0.350720  0.658470  1.0  -0.6488
  O  O129  1  0.469500  0.463280  0.710650  1.0  -0.6974
  O  O130  1  0.878600  0.025800  0.926340  1.0  -0.9696
  O  O131  1  0.646600  0.848510  0.050710  1.0  -0.7412
  O  O132  1  0.387600  0.896310  0.075630  1.0  -0.7124
  O  O133  1  0.580900  0.891350  0.179540  1.0  -0.6618
  O  O134  1  0.543000  0.649280  0.341530  1.0  -0.6482
  O  O135  1  0.469500  0.536720  0.289350  1.0  -0.6976
  O  O136  1  0.878600  0.974200  0.073660  1.0  -0.9721
  O  O137  1  0.146600  0.449290  0.651490  1.0  -0.7394
  O  O138  1  0.887600  0.424370  0.603690  1.0  -0.7125
  O  O139  1  0.080900  0.320460  0.608650  1.0  -0.6649
  O  O140  1  0.043000  0.158470  0.850720  1.0  -0.6491
  O  O141  1  0.969500  0.210650  0.963280  1.0  -0.702
  O  O142  1  0.378600  0.426340  0.525800  1.0  -0.9721
  O  O143  1  0.146600  0.550710  0.348510  1.0  -0.7405
  O  O144  1  0.887600  0.575630  0.396310  1.0  -0.7131
  O  O145  1  0.080900  0.679540  0.391350  1.0  -0.6661
  O  O146  1  0.043000  0.841530  0.149280  1.0  -0.6477
  O  O147  1  0.969500  0.789350  0.036720  1.0  -0.6996
  O  O148  1  0.378600  0.573660  0.474200  1.0  -0.9706
  O  O149  1  0.853400  0.348510  0.449290  1.0  -0.7401
  O  O150  1  0.112400  0.396310  0.424370  1.0  -0.7115
  O  O151  1  0.919100  0.391350  0.320460  1.0  -0.665
  O  O152  1  0.957000  0.149280  0.158470  1.0  -0.6488
  O  O153  1  0.030500  0.036720  0.210650  1.0  -0.6956
  O  O154  1  0.621400  0.474200  0.426340  1.0  -0.9698
  O  O155  1  0.853400  0.651490  0.550710  1.0  -0.7404
  O  O156  1  0.112400  0.603690  0.575630  1.0  -0.7119
  O  O157  1  0.919100  0.608650  0.679540  1.0  -0.6622
  O  O158  1  0.957000  0.850720  0.841530  1.0  -0.6479
  O  O159  1  0.030500  0.963280  0.789350  1.0  -0.6973
  O  O160  1  0.621400  0.525800  0.573660  1.0  -0.9709
