# generated using pymatgen
data_TbH5C7SO6
_symmetry_space_group_name_H-M   'P 1'
_cell_length_a   8.46720000
_cell_length_b   17.12050000
_cell_length_c   17.12050000
_cell_angle_alpha   90.00000000
_cell_angle_beta   90.00000000
_cell_angle_gamma   90.00000000
_symmetry_Int_Tables_number   1
_chemical_formula_structural   TbH5C7SO6
_chemical_formula_sum   'Tb8 H40 C56 S8 O48'
_cell_volume   2481.83386426
_cell_formula_units_Z   8
loop_
 _symmetry_equiv_pos_site_id
 _symmetry_equiv_pos_as_xyz
  1  'x, y, z'
loop_
 _atom_site_type_symbol
 _atom_site_label
 _atom_site_symmetry_multiplicity
 _atom_site_fract_x
 _atom_site_fract_y
 _atom_site_fract_z
 _atom_site_occupancy
 _atom_site_charge
  Tb  Tb1  1  0.149800  0.890180  0.962670  1.0  2.2808
  Tb  Tb2  1  0.149800  0.109820  0.037330  1.0  2.2796
  Tb  Tb3  1  0.850200  0.962670  0.109820  1.0  2.2794
  Tb  Tb4  1  0.850200  0.037330  0.890180  1.0  2.2805
  Tb  Tb5  1  0.350200  0.609820  0.462670  1.0  2.2787
  Tb  Tb6  1  0.350200  0.390180  0.537330  1.0  2.2789
  Tb  Tb7  1  0.649800  0.537330  0.609820  1.0  2.2761
  Tb  Tb8  1  0.649800  0.462670  0.390180  1.0  2.2779
  H  H9  1  0.053100  0.748700  0.736000  1.0  0.097
  H  H10  1  0.827900  0.941400  0.664900  1.0  0.0942
  H  H11  1  0.762800  0.879800  0.548800  1.0  0.0991
  H  H12  1  0.855400  0.756600  0.523500  1.0  0.1033
  H  H13  1  0.220000  0.966000  0.096000  1.0  0.3712
  H  H14  1  0.053100  0.251300  0.264000  1.0  0.0979
  H  H15  1  0.827900  0.058600  0.335100  1.0  0.0941
  H  H16  1  0.762800  0.120200  0.451200  1.0  0.0997
  H  H17  1  0.855400  0.243400  0.476500  1.0  0.1029
  H  H18  1  0.220000  0.034000  0.904000  1.0  0.3693
  H  H19  1  0.946900  0.736000  0.251300  1.0  0.0978
  H  H20  1  0.172100  0.664900  0.058600  1.0  0.0952
  H  H21  1  0.237200  0.548800  0.120200  1.0  0.0996
  H  H22  1  0.144600  0.523500  0.243400  1.0  0.1028
  H  H23  1  0.780000  0.096000  0.034000  1.0  0.3686
  H  H24  1  0.946900  0.264000  0.748700  1.0  0.0972
  H  H25  1  0.172100  0.335100  0.941400  1.0  0.0953
  H  H26  1  0.237200  0.451200  0.879800  1.0  0.0994
  H  H27  1  0.144600  0.476500  0.756600  1.0  0.1028
  H  H28  1  0.780000  0.904000  0.966000  1.0  0.368
  H  H29  1  0.446900  0.751300  0.236000  1.0  0.0971
  H  H30  1  0.672100  0.558600  0.164900  1.0  0.0944
  H  H31  1  0.737200  0.620200  0.048800  1.0  0.0986
  H  H32  1  0.644600  0.743400  0.023500  1.0  0.1032
  H  H33  1  0.280000  0.534000  0.596000  1.0  0.3694
  H  H34  1  0.446900  0.248700  0.764000  1.0  0.0971
  H  H35  1  0.672100  0.441400  0.835100  1.0  0.0941
  H  H36  1  0.737200  0.379800  0.951200  1.0  0.0996
  H  H37  1  0.644600  0.256600  0.976500  1.0  0.103
  H  H38  1  0.280000  0.466000  0.404000  1.0  0.3696
  H  H39  1  0.553100  0.764000  0.751300  1.0  0.0972
  H  H40  1  0.327900  0.835100  0.558600  1.0  0.0953
  H  H41  1  0.262800  0.951200  0.620200  1.0  0.1002
  H  H42  1  0.355400  0.976500  0.743400  1.0  0.1026
  H  H43  1  0.720000  0.404000  0.534000  1.0  0.3683
  H  H44  1  0.553100  0.236000  0.248700  1.0  0.0982
  H  H45  1  0.327900  0.164900  0.441400  1.0  0.0957
  H  H46  1  0.262800  0.048800  0.379800  1.0  0.0997
  H  H47  1  0.355400  0.023500  0.256600  1.0  0.1027
  H  H48  1  0.720000  0.596000  0.466000  1.0  0.3692
  C  C49  1  0.962300  0.741200  0.627000  1.0  -0.2495
  C  C50  1  0.997900  0.776300  0.698000  1.0  -0.0039
  C  C51  1  0.950700  0.852600  0.711800  1.0  -0.167
  C  C52  1  0.991900  0.892100  0.786400  1.0  0.7002
  C  C53  1  0.862400  0.890600  0.655700  1.0  -0.0402
  C  C54  1  0.824300  0.854000  0.585700  1.0  -0.1247
  C  C55  1  0.877000  0.780400  0.571100  1.0  -0.0697
  C  C56  1  0.962300  0.258800  0.373000  1.0  -0.2475
  C  C57  1  0.997900  0.223700  0.302000  1.0  -0.0072
  C  C58  1  0.950700  0.147400  0.288200  1.0  -0.167
  C  C59  1  0.991900  0.107900  0.213600  1.0  0.7003
  C  C60  1  0.862400  0.109400  0.344300  1.0  -0.0382
  C  C61  1  0.824300  0.146000  0.414300  1.0  -0.1246
  C  C62  1  0.877000  0.219600  0.428900  1.0  -0.069
  C  C63  1  0.037700  0.627000  0.258800  1.0  -0.2505
  C  C64  1  0.002100  0.698000  0.223700  1.0  -0.0081
  C  C65  1  0.049300  0.711800  0.147400  1.0  -0.1672
  C  C66  1  0.008100  0.786400  0.107900  1.0  0.7003
  C  C67  1  0.137600  0.655700  0.109400  1.0  -0.0371
  C  C68  1  0.175700  0.585700  0.146000  1.0  -0.1293
  C  C69  1  0.123000  0.571100  0.219600  1.0  -0.0661
  C  C70  1  0.037700  0.373000  0.741200  1.0  -0.2527
  C  C71  1  0.002100  0.302000  0.776300  1.0  -0.0067
  C  C72  1  0.049300  0.288200  0.852600  1.0  -0.1672
  C  C73  1  0.008100  0.213600  0.892100  1.0  0.7015
  C  C74  1  0.137600  0.344300  0.890600  1.0  -0.0355
  C  C75  1  0.175700  0.414300  0.854000  1.0  -0.1266
  C  C76  1  0.123000  0.428900  0.780400  1.0  -0.0677
  C  C77  1  0.537700  0.758800  0.127000  1.0  -0.2474
  C  C78  1  0.502100  0.723700  0.198000  1.0  -0.008
  C  C79  1  0.549300  0.647400  0.211800  1.0  -0.1667
  C  C80  1  0.508100  0.607900  0.286400  1.0  0.7015
  C  C81  1  0.637600  0.609400  0.155700  1.0  -0.0398
  C  C82  1  0.675700  0.646000  0.085700  1.0  -0.1268
  C  C83  1  0.623000  0.719600  0.071100  1.0  -0.0693
  C  C84  1  0.537700  0.241200  0.873000  1.0  -0.2497
  C  C85  1  0.502100  0.276300  0.802000  1.0  -0.0061
  C  C86  1  0.549300  0.352600  0.788200  1.0  -0.1663
  C  C87  1  0.508100  0.392100  0.713600  1.0  0.7014
  C  C88  1  0.637600  0.390600  0.844300  1.0  -0.0404
  C  C89  1  0.675700  0.354000  0.914300  1.0  -0.1235
  C  C90  1  0.623000  0.280400  0.928900  1.0  -0.0671
  C  C91  1  0.462300  0.873000  0.758800  1.0  -0.2508
  C  C92  1  0.497900  0.802000  0.723700  1.0  -0.0044
  C  C93  1  0.450700  0.788200  0.647400  1.0  -0.1674
  C  C94  1  0.491900  0.713600  0.607900  1.0  0.7002
  C  C95  1  0.362400  0.844300  0.609400  1.0  -0.0364
  C  C96  1  0.324300  0.914300  0.646000  1.0  -0.1271
  C  C97  1  0.377000  0.928900  0.719600  1.0  -0.0683
  C  C98  1  0.462300  0.127000  0.241200  1.0  -0.2524
  C  C99  1  0.497900  0.198000  0.276300  1.0  -0.0076
  C  C100  1  0.450700  0.211800  0.352600  1.0  -0.1673
  C  C101  1  0.491900  0.286400  0.392100  1.0  0.6991
  C  C102  1  0.362400  0.155700  0.390600  1.0  -0.036
  C  C103  1  0.324300  0.085700  0.354000  1.0  -0.1269
  C  C104  1  0.377000  0.071100  0.280400  1.0  -0.0688
  S  S105  1  0.023640  0.643860  0.607660  1.0  1.3792
  S  S106  1  0.023640  0.356140  0.392340  1.0  1.3792
  S  S107  1  0.976360  0.607660  0.356140  1.0  1.3794
  S  S108  1  0.976360  0.392340  0.643860  1.0  1.3795
  S  S109  1  0.476360  0.856140  0.107660  1.0  1.3786
  S  S110  1  0.476360  0.143860  0.892340  1.0  1.3794
  S  S111  1  0.523640  0.892340  0.856140  1.0  1.3799
  S  S112  1  0.523640  0.107660  0.143860  1.0  1.3798
  O  O113  1  0.147000  0.650900  0.549400  1.0  -0.7468
  O  O114  1  0.884300  0.604800  0.575300  1.0  -0.7095
  O  O115  1  0.081900  0.609600  0.679500  1.0  -0.6754
  O  O116  1  0.043800  0.851800  0.841300  1.0  -0.6504
  O  O117  1  0.969300  0.966100  0.789200  1.0  -0.7008
  O  O118  1  0.120800  0.974100  0.072500  1.0  -0.9852
  O  O119  1  0.147000  0.349100  0.450600  1.0  -0.7451
  O  O120  1  0.884300  0.395200  0.424700  1.0  -0.7089
  O  O121  1  0.081900  0.390400  0.320500  1.0  -0.6773
  O  O122  1  0.043800  0.148200  0.158700  1.0  -0.6505
  O  O123  1  0.969300  0.033900  0.210800  1.0  -0.7005
  O  O124  1  0.120800  0.025900  0.927500  1.0  -0.9857
  O  O125  1  0.853000  0.549400  0.349100  1.0  -0.7466
  O  O126  1  0.115700  0.575300  0.395200  1.0  -0.7081
  O  O127  1  0.918100  0.679500  0.390400  1.0  -0.6746
  O  O128  1  0.956200  0.841300  0.148200  1.0  -0.652
  O  O129  1  0.030700  0.789200  0.033900  1.0  -0.6987
  O  O130  1  0.879200  0.072500  0.025900  1.0  -0.9856
  O  O131  1  0.853000  0.450600  0.650900  1.0  -0.7458
  O  O132  1  0.115700  0.424700  0.604800  1.0  -0.7072
  O  O133  1  0.918100  0.320500  0.609600  1.0  -0.6744
  O  O134  1  0.956200  0.158700  0.851800  1.0  -0.6518
  O  O135  1  0.030700  0.210800  0.966100  1.0  -0.7009
  O  O136  1  0.879200  0.927500  0.974100  1.0  -0.9853
  O  O137  1  0.353000  0.849100  0.049400  1.0  -0.7476
  O  O138  1  0.615700  0.895200  0.075300  1.0  -0.7077
  O  O139  1  0.418100  0.890400  0.179500  1.0  -0.6759
  O  O140  1  0.456200  0.648200  0.341300  1.0  -0.652
  O  O141  1  0.530700  0.533900  0.289200  1.0  -0.7003
  O  O142  1  0.379200  0.525900  0.572500  1.0  -0.9849
  O  O143  1  0.353000  0.150900  0.950600  1.0  -0.7456
  O  O144  1  0.615700  0.104800  0.924700  1.0  -0.7077
  O  O145  1  0.418100  0.109600  0.820500  1.0  -0.6775
  O  O146  1  0.456200  0.351800  0.658700  1.0  -0.6514
  O  O147  1  0.530700  0.466100  0.710800  1.0  -0.6999
  O  O148  1  0.379200  0.474100  0.427500  1.0  -0.9856
  O  O149  1  0.647000  0.950600  0.849100  1.0  -0.7457
  O  O150  1  0.384300  0.924700  0.895200  1.0  -0.7092
  O  O151  1  0.581900  0.820500  0.890400  1.0  -0.6747
  O  O152  1  0.543800  0.658700  0.648200  1.0  -0.6496
  O  O153  1  0.469300  0.710800  0.533900  1.0  -0.6999
  O  O154  1  0.620800  0.427500  0.525900  1.0  -0.9854
  O  O155  1  0.647000  0.049400  0.150900  1.0  -0.7446
  O  O156  1  0.384300  0.075300  0.104800  1.0  -0.7091
  O  O157  1  0.581900  0.179500  0.109600  1.0  -0.6757
  O  O158  1  0.543800  0.341300  0.351800  1.0  -0.6514
  O  O159  1  0.469300  0.289200  0.466100  1.0  -0.7002
  O  O160  1  0.620800  0.572500  0.474100  1.0  -0.9857
