# generated using pymatgen
data_GdH5C7SO6
_symmetry_space_group_name_H-M   'P 1'
_cell_length_a   8.51060000
_cell_length_b   17.17430000
_cell_length_c   17.17430000
_cell_angle_alpha   90.00000000
_cell_angle_beta   90.00000000
_cell_angle_gamma   90.00000000
_symmetry_Int_Tables_number   1
_chemical_formula_structural   GdH5C7SO6
_chemical_formula_sum   'Gd8 H40 C56 S8 O48'
_cell_volume   2510.25747392
_cell_formula_units_Z   8
loop_
 _symmetry_equiv_pos_site_id
 _symmetry_equiv_pos_as_xyz
  1  'x, y, z'
loop_
 _atom_site_type_symbol
 _atom_site_label
 _atom_site_symmetry_multiplicity
 _atom_site_fract_x
 _atom_site_fract_y
 _atom_site_fract_z
 _atom_site_occupancy
 _atom_site_charge
  Gd  Gd1  1  0.849690  0.036870  0.889710  1.0  2.1841
  Gd  Gd2  1  0.849690  0.963130  0.110290  1.0  2.1836
  Gd  Gd3  1  0.150310  0.889710  0.963130  1.0  2.1825
  Gd  Gd4  1  0.150310  0.110290  0.036870  1.0  2.1828
  Gd  Gd5  1  0.650310  0.463130  0.389710  1.0  2.1827
  Gd  Gd6  1  0.650310  0.536870  0.610290  1.0  2.1832
  Gd  Gd7  1  0.349690  0.610290  0.463130  1.0  2.1825
  Gd  Gd8  1  0.349690  0.389710  0.536870  1.0  2.1834
  H  H9  1  0.554200  0.763800  0.752600  1.0  0.1032
  H  H10  1  0.324500  0.833300  0.560800  1.0  0.1009
  H  H11  1  0.259500  0.948800  0.621500  1.0  0.0991
  H  H12  1  0.351500  0.974800  0.746600  1.0  0.1122
  H  H13  1  0.797000  0.891000  0.961000  1.0  0.4338
  H  H14  1  0.554200  0.236200  0.247400  1.0  0.1034
  H  H15  1  0.324500  0.166700  0.439200  1.0  0.101
  H  H16  1  0.259500  0.051200  0.378500  1.0  0.0996
  H  H17  1  0.351500  0.025200  0.253400  1.0  0.1119
  H  H18  1  0.797000  0.109000  0.039000  1.0  0.4326
  H  H19  1  0.445800  0.752600  0.236200  1.0  0.1026
  H  H20  1  0.675500  0.560800  0.166700  1.0  0.1008
  H  H21  1  0.740500  0.621500  0.051200  1.0  0.098
  H  H22  1  0.648500  0.746600  0.025200  1.0  0.1119
  H  H23  1  0.203000  0.961000  0.109000  1.0  0.4319
  H  H24  1  0.445800  0.247400  0.763800  1.0  0.103
  H  H25  1  0.675500  0.439200  0.833300  1.0  0.1003
  H  H26  1  0.740500  0.378500  0.948800  1.0  0.0995
  H  H27  1  0.648500  0.253400  0.974800  1.0  0.1118
  H  H28  1  0.203000  0.039000  0.891000  1.0  0.4307
  H  H29  1  0.945800  0.736200  0.252600  1.0  0.1033
  H  H30  1  0.175500  0.666667  0.060800  1.0  0.1009
  H  H31  1  0.240500  0.551200  0.121500  1.0  0.099
  H  H32  1  0.148500  0.525200  0.246600  1.0  0.1119
  H  H33  1  0.703000  0.609000  0.461000  1.0  0.4302
  H  H34  1  0.945800  0.263800  0.747400  1.0  0.1032
  H  H35  1  0.175500  0.333333  0.939200  1.0  0.1004
  H  H36  1  0.240500  0.448800  0.878500  1.0  0.0987
  H  H37  1  0.148500  0.474800  0.753400  1.0  0.1125
  H  H38  1  0.703000  0.391000  0.539000  1.0  0.4323
  H  H39  1  0.054200  0.747400  0.736200  1.0  0.1026
  H  H40  1  0.824500  0.939200  0.666667  1.0  0.1002
  H  H41  1  0.759500  0.878500  0.551200  1.0  0.0986
  H  H42  1  0.851500  0.753400  0.525200  1.0  0.1119
  H  H43  1  0.297000  0.539000  0.609000  1.0  0.4329
  H  H44  1  0.054200  0.252600  0.263800  1.0  0.1032
  H  H45  1  0.824500  0.060800  0.333333  1.0  0.1002
  H  H46  1  0.759500  0.121500  0.448800  1.0  0.0993
  H  H47  1  0.851500  0.246600  0.474800  1.0  0.112
  H  H48  1  0.297000  0.461000  0.391000  1.0  0.4323
  C  C49  1  0.458300  0.871400  0.761100  1.0  -0.2781
  C  C50  1  0.496200  0.801100  0.725800  1.0  -0.0069
  C  C51  1  0.446500  0.787100  0.650100  1.0  -0.1578
  C  C52  1  0.489400  0.712800  0.610100  1.0  0.7131
  C  C53  1  0.358400  0.842700  0.611400  1.0  -0.0432
  C  C54  1  0.320500  0.912200  0.647500  1.0  -0.1238
  C  C55  1  0.373400  0.927400  0.722700  1.0  -0.0846
  C  C56  1  0.458300  0.128600  0.238900  1.0  -0.2799
  C  C57  1  0.496200  0.198900  0.274200  1.0  -0.0095
  C  C58  1  0.446500  0.212900  0.349900  1.0  -0.1567
  C  C59  1  0.489400  0.287200  0.389900  1.0  0.713
  C  C60  1  0.358400  0.157300  0.388600  1.0  -0.0432
  C  C61  1  0.320500  0.087800  0.352500  1.0  -0.1226
  C  C62  1  0.373400  0.072600  0.277300  1.0  -0.0848
  C  C63  1  0.541700  0.761100  0.128600  1.0  -0.276
  C  C64  1  0.503800  0.725800  0.198900  1.0  -0.0103
  C  C65  1  0.553500  0.650100  0.212900  1.0  -0.1571
  C  C66  1  0.510600  0.610100  0.287200  1.0  0.714
  C  C67  1  0.641600  0.611400  0.157300  1.0  -0.0472
  C  C68  1  0.679500  0.647500  0.087800  1.0  -0.1206
  C  C69  1  0.626600  0.722700  0.072600  1.0  -0.0827
  C  C70  1  0.541700  0.238900  0.871400  1.0  -0.2779
  C  C71  1  0.503800  0.274200  0.801100  1.0  -0.0086
  C  C72  1  0.553500  0.349900  0.787100  1.0  -0.1564
  C  C73  1  0.510600  0.389900  0.712800  1.0  0.7142
  C  C74  1  0.641600  0.388600  0.842700  1.0  -0.0467
  C  C75  1  0.679500  0.352500  0.912200  1.0  -0.1194
  C  C76  1  0.626600  0.277300  0.927400  1.0  -0.0834
  C  C77  1  0.041700  0.628600  0.261100  1.0  -0.278
  C  C78  1  0.003800  0.698900  0.225800  1.0  -0.0101
  C  C79  1  0.053500  0.712900  0.150100  1.0  -0.157
  C  C80  1  0.010600  0.787200  0.110100  1.0  0.7134
  C  C81  1  0.141600  0.657300  0.111400  1.0  -0.043
  C  C82  1  0.179500  0.587800  0.147500  1.0  -0.1244
  C  C83  1  0.126600  0.572600  0.222700  1.0  -0.0843
  C  C84  1  0.041700  0.371400  0.738900  1.0  -0.2799
  C  C85  1  0.003800  0.301100  0.774200  1.0  -0.0091
  C  C86  1  0.053500  0.287100  0.849900  1.0  -0.1579
  C  C87  1  0.010600  0.212800  0.889900  1.0  0.7138
  C  C88  1  0.141600  0.342700  0.888600  1.0  -0.0424
  C  C89  1  0.179500  0.412200  0.852500  1.0  -0.1228
  C  C90  1  0.126600  0.427400  0.777300  1.0  -0.0845
  C  C91  1  0.958300  0.738900  0.628600  1.0  -0.2776
  C  C92  1  0.996200  0.774200  0.698900  1.0  -0.0068
  C  C93  1  0.946500  0.849900  0.712900  1.0  -0.1573
  C  C94  1  0.989400  0.889900  0.787200  1.0  0.7137
  C  C95  1  0.858400  0.888600  0.657300  1.0  -0.0461
  C  C96  1  0.820500  0.852500  0.587800  1.0  -0.1191
  C  C97  1  0.873400  0.777300  0.572600  1.0  -0.0824
  C  C98  1  0.958300  0.261100  0.371400  1.0  -0.2758
  C  C99  1  0.996200  0.225800  0.301100  1.0  -0.0091
  C  C100  1  0.946500  0.150100  0.287100  1.0  -0.1574
  C  C101  1  0.989400  0.110100  0.212800  1.0  0.7136
  C  C102  1  0.858400  0.111400  0.342700  1.0  -0.0453
  C  C103  1  0.820500  0.147500  0.412200  1.0  -0.1206
  C  C104  1  0.873400  0.222700  0.427400  1.0  -0.0832
  S  S105  1  0.523660  0.891770  0.856860  1.0  1.3714
  S  S106  1  0.523660  0.108230  0.143140  1.0  1.3705
  S  S107  1  0.476340  0.856860  0.108230  1.0  1.37
  S  S108  1  0.476340  0.143140  0.891770  1.0  1.3708
  S  S109  1  0.976340  0.608230  0.356860  1.0  1.3709
  S  S110  1  0.976340  0.391770  0.643140  1.0  1.3706
  S  S111  1  0.023660  0.643140  0.608230  1.0  1.3706
  S  S112  1  0.023660  0.356860  0.391770  1.0  1.3703
  O  O113  1  0.647000  0.949540  0.848980  1.0  -0.729
  O  O114  1  0.386500  0.924470  0.896370  1.0  -0.7035
  O  O115  1  0.581700  0.820280  0.891710  1.0  -0.6625
  O  O116  1  0.542900  0.657850  0.649190  1.0  -0.6474
  O  O117  1  0.469200  0.710130  0.536030  1.0  -0.6975
  O  O118  1  0.878100  0.926330  0.974010  1.0  -0.9815
  O  O119  1  0.647000  0.050460  0.151020  1.0  -0.7304
  O  O120  1  0.386500  0.075530  0.103630  1.0  -0.7042
  O  O121  1  0.581700  0.179720  0.108290  1.0  -0.6634
  O  O122  1  0.542900  0.342150  0.350810  1.0  -0.649
  O  O123  1  0.469200  0.289870  0.463970  1.0  -0.6974
  O  O124  1  0.878100  0.073670  0.025990  1.0  -0.98
  O  O125  1  0.353000  0.848980  0.050460  1.0  -0.7308
  O  O126  1  0.613500  0.896370  0.075530  1.0  -0.702
  O  O127  1  0.418300  0.891710  0.179720  1.0  -0.6594
  O  O128  1  0.457100  0.649190  0.342150  1.0  -0.6495
  O  O129  1  0.530800  0.536030  0.289870  1.0  -0.6965
  O  O130  1  0.121900  0.974010  0.073670  1.0  -0.9802
  O  O131  1  0.353000  0.151020  0.949540  1.0  -0.7307
  O  O132  1  0.613500  0.103630  0.924470  1.0  -0.7026
  O  O133  1  0.418300  0.108290  0.820280  1.0  -0.6598
  O  O134  1  0.457100  0.350810  0.657850  1.0  -0.65
  O  O135  1  0.530800  0.463970  0.710130  1.0  -0.6957
  O  O136  1  0.121900  0.025990  0.926330  1.0  -0.9785
  O  O137  1  0.853000  0.550460  0.348980  1.0  -0.7294
  O  O138  1  0.113500  0.575530  0.396370  1.0  -0.7035
  O  O139  1  0.918300  0.679720  0.391710  1.0  -0.664
  O  O140  1  0.957100  0.842150  0.149190  1.0  -0.6492
  O  O141  1  0.030800  0.789870  0.036030  1.0  -0.6968
  O  O142  1  0.621900  0.573670  0.474010  1.0  -0.9789
  O  O143  1  0.853000  0.449540  0.651020  1.0  -0.729
  O  O144  1  0.113500  0.424470  0.603630  1.0  -0.7031
  O  O145  1  0.918300  0.320280  0.608290  1.0  -0.6629
  O  O146  1  0.957100  0.157850  0.850810  1.0  -0.6498
  O  O147  1  0.030800  0.210130  0.963970  1.0  -0.698
  O  O148  1  0.621900  0.426330  0.525990  1.0  -0.9802
  O  O149  1  0.147000  0.651020  0.550460  1.0  -0.7313
  O  O150  1  0.886500  0.603630  0.575530  1.0  -0.703
  O  O151  1  0.081700  0.608290  0.679720  1.0  -0.6591
  O  O152  1  0.042900  0.850810  0.842150  1.0  -0.6474
  O  O153  1  0.969200  0.963970  0.789870  1.0  -0.697
  O  O154  1  0.378100  0.525990  0.573670  1.0  -0.9814
  O  O155  1  0.147000  0.348980  0.449540  1.0  -0.7311
  O  O156  1  0.886500  0.396370  0.424470  1.0  -0.7028
  O  O157  1  0.081700  0.391710  0.320280  1.0  -0.6591
  O  O158  1  0.042900  0.149190  0.157850  1.0  -0.6477
  O  O159  1  0.969200  0.036030  0.210130  1.0  -0.6954
  O  O160  1  0.378100  0.474010  0.426330  1.0  -0.9794
