# generated using pymatgen
data_Sc3P4(HO6)3
_symmetry_space_group_name_H-M   'P 1'
_cell_length_a   8.60300000
_cell_length_b   15.47600000
_cell_length_c   16.50400000
_cell_angle_alpha   90.00000000
_cell_angle_beta   96.87700000
_cell_angle_gamma   90.00000000
_symmetry_Int_Tables_number   1
_chemical_formula_structural   Sc3P4(HO6)3
_chemical_formula_sum   'Sc12 P16 H12 O72'
_cell_volume   2181.53421128
_cell_formula_units_Z   4
loop_
 _symmetry_equiv_pos_site_id
 _symmetry_equiv_pos_as_xyz
  1  'x, y, z'
loop_
 _atom_site_type_symbol
 _atom_site_label
 _atom_site_symmetry_multiplicity
 _atom_site_fract_x
 _atom_site_fract_y
 _atom_site_fract_z
 _atom_site_occupancy
 _atom_site_charge
  Sc  Sc1  1  0.633550  0.798050  0.163640  1.0  2.053
  Sc  Sc2  1  0.495850  0.893230  0.522100  1.0  2.0453
  Sc  Sc3  1  0.021520  0.769140  0.299430  1.0  2.0453
  Sc  Sc4  1  0.866450  0.298050  0.336360  1.0  2.0532
  Sc  Sc5  1  0.004150  0.393230  0.977900  1.0  2.0451
  Sc  Sc6  1  0.478480  0.269140  0.200570  1.0  2.0454
  Sc  Sc7  1  0.366450  0.201950  0.836360  1.0  2.0509
  Sc  Sc8  1  0.504150  0.106770  0.477900  1.0  2.0471
  Sc  Sc9  1  0.978480  0.230860  0.700570  1.0  2.0453
  Sc  Sc10  1  0.133550  0.701950  0.663640  1.0  2.0509
  Sc  Sc11  1  0.995850  0.606770  0.022100  1.0  2.0472
  Sc  Sc12  1  0.521520  0.730860  0.799430  1.0  2.0458
  P  P13  1  0.227600  0.762000  0.133550  1.0  1.8199
  P  P14  1  0.764110  0.783660  0.976000  1.0  1.7841
  P  P15  1  0.816490  0.606980  0.197580  1.0  1.7581
  P  P16  1  0.668260  0.790020  0.371650  1.0  1.7278
  P  P17  1  0.272400  0.262000  0.366450  1.0  1.8182
  P  P18  1  0.735890  0.283660  0.524000  1.0  1.7869
  P  P19  1  0.683510  0.106980  0.302420  1.0  1.7583
  P  P20  1  0.831740  0.290020  0.128350  1.0  1.7285
  P  P21  1  0.772400  0.238000  0.866450  1.0  1.8179
  P  P22  1  0.235890  0.216340  0.024000  1.0  1.7864
  P  P23  1  0.183510  0.393020  0.802420  1.0  1.7597
  P  P24  1  0.331740  0.209980  0.628350  1.0  1.7294
  P  P25  1  0.727600  0.738000  0.633550  1.0  1.8197
  P  P26  1  0.264110  0.716340  0.476000  1.0  1.7836
  P  P27  1  0.316490  0.893020  0.697580  1.0  1.7598
  P  P28  1  0.168260  0.709980  0.871650  1.0  1.7287
  H  H29  1  0.545300  0.698700  0.420900  1.0  0.3506
  H  H30  1  0.075500  0.837500  0.065600  1.0  0.3867
  H  H31  1  0.794500  0.495600  0.257300  1.0  0.4197
  H  H32  1  0.954700  0.198700  0.079100  1.0  0.3497
  H  H33  1  0.424500  0.337500  0.434400  1.0  0.3884
  H  H34  1  0.705500  0.995600  0.242700  1.0  0.4173
  H  H35  1  0.454700  0.301300  0.579100  1.0  0.3491
  H  H36  1  0.924500  0.162500  0.934400  1.0  0.3887
  H  H37  1  0.205500  0.504400  0.742700  1.0  0.4205
  H  H38  1  0.045300  0.801300  0.920900  1.0  0.3512
  H  H39  1  0.575500  0.662500  0.565600  1.0  0.3882
  H  H40  1  0.294500  0.004400  0.757300  1.0  0.4206
  O  O41  1  0.370800  0.993910  0.458260  1.0  -0.6688
  O  O42  1  0.603500  0.861540  0.421010  1.0  -0.8612
  O  O43  1  0.814700  0.689180  0.989600  1.0  -0.8354
  O  O44  1  0.588000  0.790720  0.284260  1.0  -0.8304
  O  O45  1  0.660500  0.810280  0.041010  1.0  -0.8303
  O  O46  1  0.907500  0.573730  0.130450  1.0  -0.8156
  O  O47  1  0.154600  0.685840  0.085580  1.0  -0.9051
  O  O48  1  0.846200  0.793370  0.375420  1.0  -0.8532
  O  O49  1  0.866500  0.818770  0.204130  1.0  -0.7156
  O  O50  1  0.924600  0.646880  0.267450  1.0  -0.817
  O  O51  1  0.668400  0.794550  0.891770  1.0  -0.8523
  O  O52  1  0.402500  0.765000  0.129610  1.0  -0.8856
  O  O53  1  0.909100  0.842270  0.981630  1.0  -0.7845
  O  O54  1  0.635400  0.699900  0.409340  1.0  -0.68
  O  O55  1  0.683200  0.666440  0.164910  1.0  -0.7918
  O  O56  1  0.193000  0.760600  0.221810  1.0  -0.8723
  O  O57  1  0.160000  0.847560  0.092500  1.0  -0.6832
  O  O58  1  0.729800  0.528110  0.232760  1.0  -0.7072
  O  O59  1  0.129200  0.493910  0.041740  1.0  -0.6648
  O  O60  1  0.896500  0.361540  0.078990  1.0  -0.8623
  O  O61  1  0.685300  0.189180  0.510400  1.0  -0.8349
  O  O62  1  0.912000  0.290720  0.215740  1.0  -0.8319
  O  O63  1  0.839500  0.310280  0.458990  1.0  -0.8307
  O  O64  1  0.592500  0.073730  0.369550  1.0  -0.8174
  O  O65  1  0.345400  0.185840  0.414420  1.0  -0.9051
  O  O66  1  0.653800  0.293370  0.124580  1.0  -0.8542
  O  O67  1  0.633500  0.318770  0.295870  1.0  -0.7168
  O  O68  1  0.575400  0.146880  0.232550  1.0  -0.8168
  O  O69  1  0.831600  0.294550  0.608230  1.0  -0.8517
  O  O70  1  0.097500  0.265000  0.370390  1.0  -0.8839
  O  O71  1  0.590900  0.342270  0.518370  1.0  -0.7836
  O  O72  1  0.864600  0.199900  0.090660  1.0  -0.6822
  O  O73  1  0.816800  0.166440  0.335090  1.0  -0.7935
  O  O74  1  0.307000  0.260600  0.278190  1.0  -0.8726
  O  O75  1  0.340000  0.347560  0.407500  1.0  -0.686
  O  O76  1  0.770200  0.028110  0.267240  1.0  -0.704
  O  O77  1  0.629200  0.006090  0.541740  1.0  -0.6648
  O  O78  1  0.396500  0.138460  0.578990  1.0  -0.8613
  O  O79  1  0.185300  0.310820  0.010400  1.0  -0.8361
  O  O80  1  0.412000  0.209280  0.715740  1.0  -0.8314
  O  O81  1  0.339500  0.189720  0.958990  1.0  -0.8302
  O  O82  1  0.092500  0.426270  0.869550  1.0  -0.818
  O  O83  1  0.845400  0.314160  0.914420  1.0  -0.9072
  O  O84  1  0.153800  0.206630  0.624580  1.0  -0.8539
  O  O85  1  0.133500  0.181230  0.795870  1.0  -0.7157
  O  O86  1  0.075400  0.353120  0.732550  1.0  -0.8172
  O  O87  1  0.331600  0.205450  0.108230  1.0  -0.852
  O  O88  1  0.597500  0.235000  0.870390  1.0  -0.884
  O  O89  1  0.090900  0.157730  0.018370  1.0  -0.782
  O  O90  1  0.364600  0.300100  0.590660  1.0  -0.6822
  O  O91  1  0.316800  0.333560  0.835090  1.0  -0.7939
  O  O92  1  0.807000  0.239400  0.778190  1.0  -0.8728
  O  O93  1  0.840000  0.152440  0.907500  1.0  -0.6882
  O  O94  1  0.270200  0.471890  0.767240  1.0  -0.7052
  O  O95  1  0.870800  0.506090  0.958260  1.0  -0.6688
  O  O96  1  0.103500  0.638460  0.921010  1.0  -0.8603
  O  O97  1  0.314700  0.810820  0.489600  1.0  -0.8369
  O  O98  1  0.088000  0.709280  0.784260  1.0  -0.8312
  O  O99  1  0.160500  0.689720  0.541010  1.0  -0.8291
  O  O100  1  0.407500  0.926270  0.630450  1.0  -0.8167
  O  O101  1  0.654600  0.814160  0.585580  1.0  -0.907
  O  O102  1  0.346200  0.706630  0.875420  1.0  -0.8532
  O  O103  1  0.366500  0.681230  0.704130  1.0  -0.7147
  O  O104  1  0.424600  0.853120  0.767450  1.0  -0.8185
  O  O105  1  0.168400  0.705450  0.391770  1.0  -0.8519
  O  O106  1  0.902500  0.735000  0.629610  1.0  -0.8851
  O  O107  1  0.409100  0.657730  0.481630  1.0  -0.7822
  O  O108  1  0.135400  0.800100  0.909340  1.0  -0.6801
  O  O109  1  0.183200  0.833560  0.664910  1.0  -0.7929
  O  O110  1  0.693000  0.739400  0.721810  1.0  -0.8725
  O  O111  1  0.660000  0.652440  0.592500  1.0  -0.6862
  O  O112  1  0.229800  0.971890  0.732760  1.0  -0.7073
