# generated using pymatgen
data_In3H9C27O13
_symmetry_space_group_name_H-M   'P 1'
_cell_length_a   22.62300000
_cell_length_b   22.62300000
_cell_length_c   22.62300000
_cell_angle_alpha   90.00000000
_cell_angle_beta   90.00000000
_cell_angle_gamma   90.00000000
_symmetry_Int_Tables_number   1
_chemical_formula_structural   In3H9C27O13
_chemical_formula_sum   'In24 H72 C216 O104'
_cell_volume   11578.45431837
_cell_formula_units_Z   8
loop_
 _symmetry_equiv_pos_site_id
 _symmetry_equiv_pos_as_xyz
  1  'x, y, z'
loop_
 _atom_site_type_symbol
 _atom_site_label
 _atom_site_symmetry_multiplicity
 _atom_site_fract_x
 _atom_site_fract_y
 _atom_site_fract_z
 _atom_site_occupancy
 _atom_site_charge
  In  In1  1  0.250000  0.186330  0.313670  1.0  1.5172
  In  In2  1  0.750000  0.813670  0.313670  1.0  1.516
  In  In3  1  0.750000  0.186330  0.686330  1.0  1.5173
  In  In4  1  0.250000  0.813670  0.686330  1.0  1.5164
  In  In5  1  0.313670  0.250000  0.186330  1.0  1.5159
  In  In6  1  0.313670  0.750000  0.813670  1.0  1.5151
  In  In7  1  0.686330  0.750000  0.186330  1.0  1.5157
  In  In8  1  0.686330  0.250000  0.813670  1.0  1.5141
  In  In9  1  0.186330  0.313670  0.250000  1.0  1.5164
  In  In10  1  0.813670  0.313670  0.750000  1.0  1.5171
  In  In11  1  0.186330  0.686330  0.750000  1.0  1.5169
  In  In12  1  0.813670  0.686330  0.250000  1.0  1.5172
  In  In13  1  0.750000  0.813670  0.686330  1.0  1.5164
  In  In14  1  0.250000  0.186330  0.686330  1.0  1.5173
  In  In15  1  0.250000  0.813670  0.313670  1.0  1.516
  In  In16  1  0.750000  0.186330  0.313670  1.0  1.5172
  In  In17  1  0.686330  0.750000  0.813670  1.0  1.5141
  In  In18  1  0.686330  0.250000  0.186330  1.0  1.5157
  In  In19  1  0.313670  0.250000  0.813670  1.0  1.5151
  In  In20  1  0.313670  0.750000  0.186330  1.0  1.5159
  In  In21  1  0.813670  0.686330  0.750000  1.0  1.5172
  In  In22  1  0.186330  0.686330  0.250000  1.0  1.5169
  In  In23  1  0.813670  0.313670  0.250000  1.0  1.5171
  In  In24  1  0.186330  0.313670  0.750000  1.0  1.5164
  H  H25  1  0.310900  0.089500  0.097500  1.0  0.1033
  H  H26  1  0.689100  0.910500  0.097500  1.0  0.1032
  H  H27  1  0.689100  0.089500  0.902500  1.0  0.1032
  H  H28  1  0.310900  0.910500  0.902500  1.0  0.1028
  H  H29  1  0.097500  0.310900  0.089500  1.0  0.104
  H  H30  1  0.097500  0.689100  0.910500  1.0  0.1035
  H  H31  1  0.902500  0.689100  0.089500  1.0  0.1037
  H  H32  1  0.902500  0.310900  0.910500  1.0  0.1034
  H  H33  1  0.089500  0.097500  0.310900  1.0  0.1026
  H  H34  1  0.910500  0.097500  0.689100  1.0  0.1029
  H  H35  1  0.089500  0.902500  0.689100  1.0  0.1032
  H  H36  1  0.910500  0.902500  0.310900  1.0  0.1032
  H  H37  1  0.589500  0.810900  0.402500  1.0  0.1038
  H  H38  1  0.410500  0.189100  0.402500  1.0  0.1037
  H  H39  1  0.589500  0.189100  0.597500  1.0  0.1035
  H  H40  1  0.410500  0.810900  0.597500  1.0  0.1038
  H  H41  1  0.810900  0.597500  0.410500  1.0  0.1033
  H  H42  1  0.189100  0.597500  0.589500  1.0  0.1038
  H  H43  1  0.189100  0.402500  0.410500  1.0  0.1033
  H  H44  1  0.810900  0.402500  0.589500  1.0  0.1038
  H  H45  1  0.597500  0.589500  0.189100  1.0  0.1029
  H  H46  1  0.597500  0.410500  0.810900  1.0  0.102
  H  H47  1  0.402500  0.589500  0.810900  1.0  0.1026
  H  H48  1  0.402500  0.410500  0.189100  1.0  0.1021
  H  H49  1  0.689100  0.910500  0.902500  1.0  0.1031
  H  H50  1  0.310900  0.089500  0.902500  1.0  0.1032
  H  H51  1  0.310900  0.910500  0.097500  1.0  0.1029
  H  H52  1  0.689100  0.089500  0.097500  1.0  0.1032
  H  H53  1  0.902500  0.689100  0.910500  1.0  0.1035
  H  H54  1  0.902500  0.310900  0.089500  1.0  0.1037
  H  H55  1  0.097500  0.310900  0.910500  1.0  0.1036
  H  H56  1  0.097500  0.689100  0.089500  1.0  0.1039
  H  H57  1  0.910500  0.902500  0.689100  1.0  0.1033
  H  H58  1  0.089500  0.902500  0.310900  1.0  0.1031
  H  H59  1  0.910500  0.097500  0.310900  1.0  0.1029
  H  H60  1  0.089500  0.097500  0.689100  1.0  0.1027
  H  H61  1  0.410500  0.189100  0.597500  1.0  0.1037
  H  H62  1  0.589500  0.810900  0.597500  1.0  0.1035
  H  H63  1  0.410500  0.810900  0.402500  1.0  0.1037
  H  H64  1  0.589500  0.189100  0.402500  1.0  0.1039
  H  H65  1  0.189100  0.402500  0.589500  1.0  0.1038
  H  H66  1  0.810900  0.402500  0.410500  1.0  0.1032
  H  H67  1  0.810900  0.597500  0.589500  1.0  0.1035
  H  H68  1  0.189100  0.597500  0.410500  1.0  0.1036
  H  H69  1  0.402500  0.410500  0.810900  1.0  0.1019
  H  H70  1  0.402500  0.589500  0.189100  1.0  0.1027
  H  H71  1  0.597500  0.410500  0.189100  1.0  0.1019
  H  H72  1  0.597500  0.589500  0.810900  1.0  0.1029
  H  H73  1  0.274600  0.000000  0.244800  1.0  0.1044
  H  H74  1  0.725400  0.000000  0.244800  1.0  0.1045
  H  H75  1  0.725400  0.000000  0.755200  1.0  0.1046
  H  H76  1  0.274600  0.000000  0.755200  1.0  0.1045
  H  H77  1  0.244800  0.274600  0.000000  1.0  0.1036
  H  H78  1  0.244800  0.725400  0.000000  1.0  0.1039
  H  H79  1  0.755200  0.725400  0.000000  1.0  0.1029
  H  H80  1  0.755200  0.274600  0.000000  1.0  0.1031
  H  H81  1  0.000000  0.244800  0.274600  1.0  0.1048
  H  H82  1  0.000000  0.244800  0.725400  1.0  0.1048
  H  H83  1  0.000000  0.755200  0.725400  1.0  0.1045
  H  H84  1  0.000000  0.755200  0.274600  1.0  0.1048
  H  H85  1  0.500000  0.774600  0.255200  1.0  0.1043
  H  H86  1  0.500000  0.225400  0.255200  1.0  0.1044
  H  H87  1  0.500000  0.225400  0.744800  1.0  0.1042
  H  H88  1  0.500000  0.774600  0.744800  1.0  0.1041
  H  H89  1  0.774600  0.744800  0.500000  1.0  0.1052
  H  H90  1  0.225400  0.744800  0.500000  1.0  0.1054
  H  H91  1  0.225400  0.255200  0.500000  1.0  0.1053
  H  H92  1  0.774600  0.255200  0.500000  1.0  0.1051
  H  H93  1  0.744800  0.500000  0.225400  1.0  0.1033
  H  H94  1  0.744800  0.500000  0.774600  1.0  0.1035
  H  H95  1  0.255200  0.500000  0.774600  1.0  0.1033
  H  H96  1  0.255200  0.500000  0.225400  1.0  0.1029
  C  C97  1  0.308500  0.053600  0.117400  1.0  -0.1076
  C  C98  1  0.295600  0.052500  0.175100  1.0  -0.1467
  C  C99  1  0.286400  0.111200  0.206400  1.0  0.663
  C  C100  1  0.691500  0.946400  0.117400  1.0  -0.1078
  C  C101  1  0.704400  0.947500  0.175100  1.0  -0.1467
  C  C102  1  0.713600  0.888800  0.206400  1.0  0.6633
  C  C103  1  0.691500  0.053600  0.882600  1.0  -0.1073
  C  C104  1  0.704400  0.052500  0.824900  1.0  -0.1473
  C  C105  1  0.713600  0.111200  0.793600  1.0  0.6639
  C  C106  1  0.308500  0.946400  0.882600  1.0  -0.1076
  C  C107  1  0.295600  0.947500  0.824900  1.0  -0.1472
  C  C108  1  0.286400  0.888800  0.793600  1.0  0.6632
  C  C109  1  0.117400  0.308500  0.053600  1.0  -0.109
  C  C110  1  0.175100  0.295600  0.052500  1.0  -0.1482
  C  C111  1  0.206400  0.286400  0.111200  1.0  0.6631
  C  C112  1  0.117400  0.691500  0.946400  1.0  -0.1086
  C  C113  1  0.175100  0.704400  0.947500  1.0  -0.1471
  C  C114  1  0.206400  0.713600  0.888800  1.0  0.6616
  C  C115  1  0.882600  0.691500  0.053600  1.0  -0.1074
  C  C116  1  0.824900  0.704400  0.052500  1.0  -0.1482
  C  C117  1  0.793600  0.713600  0.111200  1.0  0.6627
  C  C118  1  0.882600  0.308500  0.946400  1.0  -0.1087
  C  C119  1  0.824900  0.295600  0.947500  1.0  -0.1475
  C  C120  1  0.793600  0.286400  0.888800  1.0  0.6618
  C  C121  1  0.053600  0.117400  0.308500  1.0  -0.1086
  C  C122  1  0.052500  0.175100  0.295600  1.0  -0.1467
  C  C123  1  0.111200  0.206400  0.286400  1.0  0.6615
  C  C124  1  0.946400  0.117400  0.691500  1.0  -0.1087
  C  C125  1  0.947500  0.175100  0.704400  1.0  -0.1461
  C  C126  1  0.888800  0.206400  0.713600  1.0  0.6616
  C  C127  1  0.053600  0.882600  0.691500  1.0  -0.109
  C  C128  1  0.052500  0.824900  0.704400  1.0  -0.1461
  C  C129  1  0.111200  0.793600  0.713600  1.0  0.6615
  C  C130  1  0.946400  0.882600  0.308500  1.0  -0.1094
  C  C131  1  0.947500  0.824900  0.295600  1.0  -0.1463
  C  C132  1  0.888800  0.793600  0.286400  1.0  0.6614
  C  C133  1  0.553600  0.808500  0.382600  1.0  -0.1073
  C  C134  1  0.552500  0.795600  0.324900  1.0  -0.148
  C  C135  1  0.611200  0.786400  0.293600  1.0  0.6619
  C  C136  1  0.446400  0.191500  0.382600  1.0  -0.1084
  C  C137  1  0.447500  0.204400  0.324900  1.0  -0.1477
  C  C138  1  0.388800  0.213600  0.293600  1.0  0.662
  C  C139  1  0.553600  0.191500  0.617400  1.0  -0.1076
  C  C140  1  0.552500  0.204400  0.675100  1.0  -0.1479
  C  C141  1  0.611200  0.213600  0.706400  1.0  0.6617
  C  C142  1  0.446400  0.808500  0.617400  1.0  -0.1076
  C  C143  1  0.447500  0.795600  0.675100  1.0  -0.1475
  C  C144  1  0.388800  0.786400  0.706400  1.0  0.662
  C  C145  1  0.808500  0.617400  0.446400  1.0  -0.1101
  C  C146  1  0.795600  0.675100  0.447500  1.0  -0.1465
  C  C147  1  0.786400  0.706400  0.388800  1.0  0.6628
  C  C148  1  0.191500  0.617400  0.553600  1.0  -0.1091
  C  C149  1  0.204400  0.675100  0.552500  1.0  -0.1473
  C  C150  1  0.213600  0.706400  0.611200  1.0  0.6643
  C  C151  1  0.191500  0.382600  0.446400  1.0  -0.1098
  C  C152  1  0.204400  0.324900  0.447500  1.0  -0.147
  C  C153  1  0.213600  0.293600  0.388800  1.0  0.6631
  C  C154  1  0.808500  0.382600  0.553600  1.0  -0.1089
  C  C155  1  0.795600  0.324900  0.552500  1.0  -0.1473
  C  C156  1  0.786400  0.293600  0.611200  1.0  0.6637
  C  C157  1  0.617400  0.553600  0.191500  1.0  -0.108
  C  C158  1  0.675100  0.552500  0.204400  1.0  -0.1466
  C  C159  1  0.706400  0.611200  0.213600  1.0  0.6621
  C  C160  1  0.617400  0.446400  0.808500  1.0  -0.1086
  C  C161  1  0.675100  0.447500  0.795600  1.0  -0.1461
  C  C162  1  0.706400  0.388800  0.786400  1.0  0.6614
  C  C163  1  0.382600  0.553600  0.808500  1.0  -0.108
  C  C164  1  0.324900  0.552500  0.795600  1.0  -0.1468
  C  C165  1  0.293600  0.611200  0.786400  1.0  0.6615
  C  C166  1  0.382600  0.446400  0.191500  1.0  -0.1081
  C  C167  1  0.324900  0.447500  0.204400  1.0  -0.1466
  C  C168  1  0.293600  0.388800  0.213600  1.0  0.6616
  C  C169  1  0.691500  0.946400  0.882600  1.0  -0.1068
  C  C170  1  0.704400  0.947500  0.824900  1.0  -0.1473
  C  C171  1  0.713600  0.888800  0.793600  1.0  0.6634
  C  C172  1  0.308500  0.053600  0.882600  1.0  -0.1053
  C  C173  1  0.295600  0.052500  0.824900  1.0  -0.1472
  C  C174  1  0.286400  0.111200  0.793600  1.0  0.6634
  C  C175  1  0.308500  0.946400  0.117400  1.0  -0.1062
  C  C176  1  0.295600  0.947500  0.175100  1.0  -0.1467
  C  C177  1  0.286400  0.888800  0.206400  1.0  0.6629
  C  C178  1  0.691500  0.053600  0.117400  1.0  -0.1063
  C  C179  1  0.704400  0.052500  0.175100  1.0  -0.1468
  C  C180  1  0.713600  0.111200  0.206400  1.0  0.6637
  C  C181  1  0.882600  0.691500  0.946400  1.0  -0.1074
  C  C182  1  0.824900  0.704400  0.947500  1.0  -0.1476
  C  C183  1  0.793600  0.713600  0.888800  1.0  0.6618
  C  C184  1  0.882600  0.308500  0.053600  1.0  -0.1062
  C  C185  1  0.824900  0.295600  0.052500  1.0  -0.1482
  C  C186  1  0.793600  0.286400  0.111200  1.0  0.663
  C  C187  1  0.117400  0.308500  0.946400  1.0  -0.1069
  C  C188  1  0.175100  0.295600  0.947500  1.0  -0.1471
  C  C189  1  0.206400  0.286400  0.888800  1.0  0.6616
  C  C190  1  0.117400  0.691500  0.053600  1.0  -0.1072
  C  C191  1  0.175100  0.704400  0.052500  1.0  -0.1482
  C  C192  1  0.206400  0.713600  0.111200  1.0  0.6629
  C  C193  1  0.946400  0.882600  0.691500  1.0  -0.1084
  C  C194  1  0.947500  0.824900  0.704400  1.0  -0.1463
  C  C195  1  0.888800  0.793600  0.713600  1.0  0.6617
  C  C196  1  0.053600  0.882600  0.308500  1.0  -0.1076
  C  C197  1  0.052500  0.824900  0.295600  1.0  -0.1462
  C  C198  1  0.111200  0.793600  0.286400  1.0  0.6613
  C  C199  1  0.946400  0.117400  0.308500  1.0  -0.1069
  C  C200  1  0.947500  0.175100  0.295600  1.0  -0.1462
  C  C201  1  0.888800  0.206400  0.286400  1.0  0.6613
  C  C202  1  0.053600  0.117400  0.691500  1.0  -0.1076
  C  C203  1  0.052500  0.175100  0.704400  1.0  -0.1466
  C  C204  1  0.111200  0.206400  0.713600  1.0  0.6617
  C  C205  1  0.446400  0.191500  0.617400  1.0  -0.1059
  C  C206  1  0.447500  0.204400  0.675100  1.0  -0.1475
  C  C207  1  0.388800  0.213600  0.706400  1.0  0.6618
  C  C208  1  0.553600  0.808500  0.617400  1.0  -0.1064
  C  C209  1  0.552500  0.795600  0.675100  1.0  -0.1479
  C  C210  1  0.611200  0.786400  0.706400  1.0  0.6618
  C  C211  1  0.446400  0.808500  0.382600  1.0  -0.1072
  C  C212  1  0.447500  0.795600  0.324900  1.0  -0.1477
  C  C213  1  0.388800  0.786400  0.293600  1.0  0.662
  C  C214  1  0.553600  0.191500  0.382600  1.0  -0.1059
  C  C215  1  0.552500  0.204400  0.324900  1.0  -0.148
  C  C216  1  0.611200  0.213600  0.293600  1.0  0.662
  C  C217  1  0.191500  0.382600  0.553600  1.0  -0.1084
  C  C218  1  0.204400  0.324900  0.552500  1.0  -0.1473
  C  C219  1  0.213600  0.293600  0.611200  1.0  0.6644
  C  C220  1  0.808500  0.382600  0.446400  1.0  -0.1085
  C  C221  1  0.795600  0.324900  0.447500  1.0  -0.1468
  C  C222  1  0.786400  0.293600  0.388800  1.0  0.6627
  C  C223  1  0.808500  0.617400  0.553600  1.0  -0.1074
  C  C224  1  0.795600  0.675100  0.552500  1.0  -0.1473
  C  C225  1  0.786400  0.706400  0.611200  1.0  0.6636
  C  C226  1  0.191500  0.617400  0.446400  1.0  -0.1085
  C  C227  1  0.204400  0.675100  0.447500  1.0  -0.1466
  C  C228  1  0.213600  0.706400  0.388800  1.0  0.6632
  C  C229  1  0.382600  0.446400  0.808500  1.0  -0.1068
  C  C230  1  0.324900  0.447500  0.795600  1.0  -0.1468
  C  C231  1  0.293600  0.388800  0.786400  1.0  0.6613
  C  C232  1  0.382600  0.553600  0.191500  1.0  -0.107
  C  C233  1  0.324900  0.552500  0.204400  1.0  -0.1466
  C  C234  1  0.293600  0.611200  0.213600  1.0  0.6619
  C  C235  1  0.617400  0.446400  0.191500  1.0  -0.1076
  C  C236  1  0.675100  0.447500  0.204400  1.0  -0.1459
  C  C237  1  0.706400  0.388800  0.213600  1.0  0.6617
  C  C238  1  0.617400  0.553600  0.808500  1.0  -0.1063
  C  C239  1  0.675100  0.552500  0.795600  1.0  -0.1467
  C  C240  1  0.706400  0.611200  0.786400  1.0  0.6617
  C  C241  1  0.318700  0.000000  0.086700  1.0  -0.0053
  C  C242  1  0.286500  0.000000  0.205500  1.0  -0.0211
  C  C243  1  0.330700  0.000000  0.025600  1.0  0.1837
  C  C244  1  0.681300  0.000000  0.086700  1.0  -0.0057
  C  C245  1  0.713500  0.000000  0.205500  1.0  -0.02
  C  C246  1  0.669300  0.000000  0.025600  1.0  0.1846
  C  C247  1  0.681300  0.000000  0.913300  1.0  -0.0024
  C  C248  1  0.713500  0.000000  0.794500  1.0  -0.019
  C  C249  1  0.669300  0.000000  0.974400  1.0  0.1854
  C  C250  1  0.318700  0.000000  0.913300  1.0  -0.0017
  C  C251  1  0.286500  0.000000  0.794500  1.0  -0.0188
  C  C252  1  0.330700  0.000000  0.974400  1.0  0.1846
  C  C253  1  0.086700  0.318700  0.000000  1.0  -0.0069
  C  C254  1  0.205500  0.286500  0.000000  1.0  -0.0212
  C  C255  1  0.025600  0.330700  0.000000  1.0  0.1823
  C  C256  1  0.086700  0.681300  0.000000  1.0  -0.0091
  C  C257  1  0.205500  0.713500  0.000000  1.0  -0.0221
  C  C258  1  0.025600  0.669300  0.000000  1.0  0.1822
  C  C259  1  0.913300  0.681300  0.000000  1.0  -0.0035
  C  C260  1  0.794500  0.713500  0.000000  1.0  -0.0239
  C  C261  1  0.974400  0.669300  0.000000  1.0  0.1835
  C  C262  1  0.913300  0.318700  0.000000  1.0  -0.0024
  C  C263  1  0.794500  0.286500  0.000000  1.0  -0.0234
  C  C264  1  0.974400  0.330700  0.000000  1.0  0.1834
  C  C265  1  0.000000  0.086700  0.318700  1.0  -0.0101
  C  C266  1  0.000000  0.205500  0.286500  1.0  -0.0218
  C  C267  1  0.000000  0.025600  0.330700  1.0  0.1831
  C  C268  1  0.000000  0.086700  0.681300  1.0  -0.0102
  C  C269  1  0.000000  0.205500  0.713500  1.0  -0.0218
  C  C270  1  0.000000  0.025600  0.669300  1.0  0.1821
  C  C271  1  0.000000  0.913300  0.681300  1.0  -0.0032
  C  C272  1  0.000000  0.794500  0.713500  1.0  -0.0214
  C  C273  1  0.000000  0.974400  0.669300  1.0  0.1814
  C  C274  1  0.000000  0.913300  0.318700  1.0  -0.0045
  C  C275  1  0.000000  0.794500  0.286500  1.0  -0.021
  C  C276  1  0.000000  0.974400  0.330700  1.0  0.1828
  C  C277  1  0.500000  0.818700  0.413300  1.0  -0.0055
  C  C278  1  0.500000  0.786500  0.294500  1.0  -0.0186
  C  C279  1  0.500000  0.830700  0.474400  1.0  0.1828
  C  C280  1  0.500000  0.181300  0.413300  1.0  -0.0076
  C  C281  1  0.500000  0.213500  0.294500  1.0  -0.0193
  C  C282  1  0.500000  0.169300  0.474400  1.0  0.1829
  C  C283  1  0.500000  0.181300  0.586700  1.0  -0.0043
  C  C284  1  0.500000  0.213500  0.705500  1.0  -0.021
  C  C285  1  0.500000  0.169300  0.525600  1.0  0.1817
  C  C286  1  0.500000  0.818700  0.586700  1.0  -0.001
  C  C287  1  0.500000  0.786500  0.705500  1.0  -0.0205
  C  C288  1  0.500000  0.830700  0.525600  1.0  0.1821
  C  C289  1  0.818700  0.586700  0.500000  1.0  -0.008
  C  C290  1  0.786500  0.705500  0.500000  1.0  -0.0218
  C  C291  1  0.830700  0.525600  0.500000  1.0  0.185
  C  C292  1  0.181300  0.586700  0.500000  1.0  -0.009
  C  C293  1  0.213500  0.705500  0.500000  1.0  -0.0213
  C  C294  1  0.169300  0.525600  0.500000  1.0  0.1854
  C  C295  1  0.181300  0.413300  0.500000  1.0  -0.0031
  C  C296  1  0.213500  0.294500  0.500000  1.0  -0.021
  C  C297  1  0.169300  0.474400  0.500000  1.0  0.1849
  C  C298  1  0.818700  0.413300  0.500000  1.0  -0.0026
  C  C299  1  0.786500  0.294500  0.500000  1.0  -0.0216
  C  C300  1  0.830700  0.474400  0.500000  1.0  0.1841
  C  C301  1  0.586700  0.500000  0.181300  1.0  -0.0081
  C  C302  1  0.705500  0.500000  0.213500  1.0  -0.0222
  C  C303  1  0.525600  0.500000  0.169300  1.0  0.1819
  C  C304  1  0.586700  0.500000  0.818700  1.0  -0.0092
  C  C305  1  0.705500  0.500000  0.786500  1.0  -0.0221
  C  C306  1  0.525600  0.500000  0.830700  1.0  0.183
  C  C307  1  0.413300  0.500000  0.818700  1.0  -0.0041
  C  C308  1  0.294500  0.500000  0.786500  1.0  -0.0241
  C  C309  1  0.474400  0.500000  0.830700  1.0  0.1841
  C  C310  1  0.413300  0.500000  0.181300  1.0  -0.0033
  C  C311  1  0.294500  0.500000  0.213500  1.0  -0.0242
  C  C312  1  0.474400  0.500000  0.169300  1.0  0.1827
  O  O313  1  0.264900  0.113200  0.254900  1.0  -0.6108
  O  O314  1  0.305900  0.156300  0.174200  1.0  -0.6217
  O  O315  1  0.735100  0.886800  0.254900  1.0  -0.6112
  O  O316  1  0.694100  0.843700  0.174200  1.0  -0.6228
  O  O317  1  0.735100  0.113200  0.745100  1.0  -0.612
  O  O318  1  0.694100  0.156300  0.825800  1.0  -0.6202
  O  O319  1  0.264900  0.886800  0.745100  1.0  -0.6112
  O  O320  1  0.305900  0.843700  0.825800  1.0  -0.6214
  O  O321  1  0.254900  0.264900  0.113200  1.0  -0.6116
  O  O322  1  0.174200  0.305900  0.156300  1.0  -0.6202
  O  O323  1  0.254900  0.735100  0.886800  1.0  -0.6119
  O  O324  1  0.174200  0.694100  0.843700  1.0  -0.6212
  O  O325  1  0.745100  0.735100  0.113200  1.0  -0.6109
  O  O326  1  0.825800  0.694100  0.156300  1.0  -0.6206
  O  O327  1  0.745100  0.264900  0.886800  1.0  -0.6109
  O  O328  1  0.825800  0.305900  0.843700  1.0  -0.6208
  O  O329  1  0.113200  0.254900  0.264900  1.0  -0.6129
  O  O330  1  0.156300  0.174200  0.305900  1.0  -0.6195
  O  O331  1  0.886800  0.254900  0.735100  1.0  -0.6117
  O  O332  1  0.843700  0.174200  0.694100  1.0  -0.6211
  O  O333  1  0.113200  0.745100  0.735100  1.0  -0.6112
  O  O334  1  0.156300  0.825800  0.694100  1.0  -0.6203
  O  O335  1  0.886800  0.745100  0.264900  1.0  -0.6116
  O  O336  1  0.843700  0.825800  0.305900  1.0  -0.6206
  O  O337  1  0.613200  0.764900  0.245100  1.0  -0.6122
  O  O338  1  0.656300  0.805900  0.325800  1.0  -0.6182
  O  O339  1  0.386800  0.235100  0.245100  1.0  -0.6122
  O  O340  1  0.343700  0.194100  0.325800  1.0  -0.6196
  O  O341  1  0.613200  0.235100  0.754900  1.0  -0.6128
  O  O342  1  0.656300  0.194100  0.674200  1.0  -0.6202
  O  O343  1  0.386800  0.764900  0.754900  1.0  -0.6117
  O  O344  1  0.343700  0.805900  0.674200  1.0  -0.6203
  O  O345  1  0.764900  0.754900  0.386800  1.0  -0.6104
  O  O346  1  0.805900  0.674200  0.343700  1.0  -0.6225
  O  O347  1  0.235100  0.754900  0.613200  1.0  -0.6113
  O  O348  1  0.194100  0.674200  0.656300  1.0  -0.6216
  O  O349  1  0.235100  0.245100  0.386800  1.0  -0.6107
  O  O350  1  0.194100  0.325800  0.343700  1.0  -0.6227
  O  O351  1  0.764900  0.245100  0.613200  1.0  -0.6102
  O  O352  1  0.805900  0.325800  0.656300  1.0  -0.6215
  O  O353  1  0.754900  0.613200  0.235100  1.0  -0.6122
  O  O354  1  0.674200  0.656300  0.194100  1.0  -0.6208
  O  O355  1  0.754900  0.386800  0.764900  1.0  -0.6123
  O  O356  1  0.674200  0.343700  0.805900  1.0  -0.6208
  O  O357  1  0.245100  0.613200  0.764900  1.0  -0.6121
  O  O358  1  0.325800  0.656300  0.805900  1.0  -0.6199
  O  O359  1  0.245100  0.386800  0.235100  1.0  -0.6109
  O  O360  1  0.325800  0.343700  0.194100  1.0  -0.6223
  O  O361  1  0.735100  0.886800  0.745100  1.0  -0.6118
  O  O362  1  0.694100  0.843700  0.825800  1.0  -0.6213
  O  O363  1  0.264900  0.113200  0.745100  1.0  -0.6114
  O  O364  1  0.305900  0.156300  0.825800  1.0  -0.62
  O  O365  1  0.264900  0.886800  0.254900  1.0  -0.6107
  O  O366  1  0.305900  0.843700  0.174200  1.0  -0.6231
  O  O367  1  0.735100  0.113200  0.254900  1.0  -0.6115
  O  O368  1  0.694100  0.156300  0.174200  1.0  -0.6216
  O  O369  1  0.745100  0.735100  0.886800  1.0  -0.6111
  O  O370  1  0.825800  0.694100  0.843700  1.0  -0.6214
  O  O371  1  0.745100  0.264900  0.113200  1.0  -0.6107
  O  O372  1  0.825800  0.305900  0.156300  1.0  -0.6202
  O  O373  1  0.254900  0.264900  0.886800  1.0  -0.6116
  O  O374  1  0.174200  0.305900  0.843700  1.0  -0.6208
  O  O375  1  0.254900  0.735100  0.113200  1.0  -0.6118
  O  O376  1  0.174200  0.694100  0.156300  1.0  -0.6203
  O  O377  1  0.886800  0.745100  0.735100  1.0  -0.611
  O  O378  1  0.843700  0.825800  0.694100  1.0  -0.6212
  O  O379  1  0.113200  0.745100  0.264900  1.0  -0.612
  O  O380  1  0.156300  0.825800  0.305900  1.0  -0.6195
  O  O381  1  0.886800  0.254900  0.264900  1.0  -0.6119
  O  O382  1  0.843700  0.174200  0.305900  1.0  -0.6203
  O  O383  1  0.113200  0.254900  0.735100  1.0  -0.6127
  O  O384  1  0.156300  0.174200  0.694100  1.0  -0.6203
  O  O385  1  0.386800  0.235100  0.754900  1.0  -0.6119
  O  O386  1  0.343700  0.194100  0.674200  1.0  -0.621
  O  O387  1  0.613200  0.764900  0.754900  1.0  -0.6124
  O  O388  1  0.656300  0.805900  0.674200  1.0  -0.6194
  O  O389  1  0.386800  0.764900  0.245100  1.0  -0.6121
  O  O390  1  0.343700  0.805900  0.325800  1.0  -0.619
  O  O391  1  0.613200  0.235100  0.245100  1.0  -0.6126
  O  O392  1  0.656300  0.194100  0.325800  1.0  -0.619
  O  O393  1  0.235100  0.245100  0.613200  1.0  -0.6108
  O  O394  1  0.194100  0.325800  0.656300  1.0  -0.6219
  O  O395  1  0.764900  0.245100  0.386800  1.0  -0.6098
  O  O396  1  0.805900  0.325800  0.343700  1.0  -0.6224
  O  O397  1  0.764900  0.754900  0.613200  1.0  -0.6108
  O  O398  1  0.805900  0.674200  0.656300  1.0  -0.6216
  O  O399  1  0.235100  0.754900  0.386800  1.0  -0.611
  O  O400  1  0.194100  0.674200  0.343700  1.0  -0.6222
  O  O401  1  0.245100  0.386800  0.764900  1.0  -0.6113
  O  O402  1  0.325800  0.343700  0.805900  1.0  -0.6212
  O  O403  1  0.245100  0.613200  0.235100  1.0  -0.6112
  O  O404  1  0.325800  0.656300  0.194100  1.0  -0.6209
  O  O405  1  0.754900  0.386800  0.235100  1.0  -0.6118
  O  O406  1  0.674200  0.343700  0.194100  1.0  -0.6218
  O  O407  1  0.754900  0.613200  0.764900  1.0  -0.613
  O  O408  1  0.674200  0.656300  0.805900  1.0  -0.6198
  O  O409  1  0.250000  0.250000  0.250000  1.0  -1.0016
  O  O410  1  0.750000  0.750000  0.250000  1.0  -1.0016
  O  O411  1  0.750000  0.250000  0.750000  1.0  -1.0016
  O  O412  1  0.250000  0.750000  0.750000  1.0  -1.0016
  O  O413  1  0.750000  0.750000  0.750000  1.0  -1.0016
  O  O414  1  0.250000  0.250000  0.750000  1.0  -1.0016
  O  O415  1  0.250000  0.750000  0.250000  1.0  -1.0016
  O  O416  1  0.750000  0.250000  0.250000  1.0  -1.0016
