# generated using pymatgen
data_In9H36(C54O25)2
_symmetry_space_group_name_H-M   'P 1'
_cell_length_a   22.18110000
_cell_length_b   22.18110000
_cell_length_c   41.96100000
_cell_angle_alpha   90.00000000
_cell_angle_beta   90.00000000
_cell_angle_gamma   120.00000000
_symmetry_Int_Tables_number   1
_chemical_formula_structural   In9H36(C54O25)2
_chemical_formula_sum   'In27 H108 C324 O150'
_cell_volume   17878.97515412
_cell_formula_units_Z   3
loop_
 _symmetry_equiv_pos_site_id
 _symmetry_equiv_pos_as_xyz
  1  'x, y, z'
loop_
 _atom_site_type_symbol
 _atom_site_label
 _atom_site_symmetry_multiplicity
 _atom_site_fract_x
 _atom_site_fract_y
 _atom_site_fract_z
 _atom_site_occupancy
 _atom_site_charge
  In  In1  1  0.622780  0.227980  0.999610  1.0  1.556
  In  In2  1  0.289440  0.561310  0.332950  1.0  1.556
  In  In3  1  0.956110  0.894650  0.666280  1.0  1.556
  In  In4  1  0.772020  0.394800  0.999610  1.0  1.5566
  In  In5  1  0.438690  0.728130  0.332950  1.0  1.5562
  In  In6  1  0.105350  0.061460  0.666280  1.0  1.5566
  In  In7  1  0.605200  0.377220  0.999610  1.0  1.5564
  In  In8  1  0.271870  0.710560  0.332950  1.0  1.5563
  In  In9  1  0.938540  0.043890  0.666280  1.0  1.5564
  In  In10  1  0.227980  0.622780  0.000390  1.0  1.5562
  In  In11  1  0.894650  0.956110  0.333720  1.0  1.5562
  In  In12  1  0.561310  0.289440  0.667050  1.0  1.5562
  In  In13  1  0.394800  0.772020  0.000390  1.0  1.5573
  In  In14  1  0.061460  0.105350  0.333720  1.0  1.5573
  In  In15  1  0.728130  0.438690  0.667050  1.0  1.5569
  In  In16  1  0.377220  0.605200  0.000390  1.0  1.5564
  In  In17  1  0.043890  0.938540  0.333720  1.0  1.5565
  In  In18  1  0.710560  0.271870  0.667050  1.0  1.5564
  In  In19  1  0.333333  0.331830  0.166670  1.0  1.471
  In  In20  1  0.000000  0.665160  0.500000  1.0  1.4709
  In  In21  1  0.668170  0.001500  0.166670  1.0  1.4716
  In  In22  1  0.334840  0.334840  0.500000  1.0  1.4714
  In  In23  1  0.998500  0.666667  0.166670  1.0  1.4691
  In  In24  1  0.665160  0.000000  0.500000  1.0  1.4691
  In  In25  1  0.331830  0.333333  0.833330  1.0  1.4688
  In  In26  1  0.001500  0.668170  0.833330  1.0  1.4714
  In  In27  1  0.666667  0.998500  0.833330  1.0  1.4709
  H  H28  1  0.184500  0.876300  0.123700  1.0  0.1314
  H  H29  1  0.165800  0.698300  0.086400  1.0  0.1231
  H  H30  1  0.319100  0.885000  0.056300  1.0  0.1232
  H  H31  1  0.432700  0.114800  0.053500  1.0  0.1156
  H  H32  1  0.460300  0.298700  0.081500  1.0  0.123
  H  H33  1  0.300100  0.121400  0.117300  1.0  0.1292
  H  H34  1  0.851170  0.209630  0.457030  1.0  0.1315
  H  H35  1  0.832470  0.031630  0.419730  1.0  0.122
  H  H36  1  0.985770  0.218330  0.389630  1.0  0.1232
  H  H37  1  0.099370  0.448130  0.386830  1.0  0.1156
  H  H38  1  0.126970  0.632030  0.414830  1.0  0.1246
  H  H39  1  0.966770  0.454730  0.450630  1.0  0.1307
  H  H40  1  0.517830  0.542970  0.790370  1.0  0.1314
  H  H41  1  0.499130  0.364970  0.753070  1.0  0.1231
  H  H42  1  0.652430  0.551670  0.722970  1.0  0.1232
  H  H43  1  0.766030  0.781470  0.720170  1.0  0.1156
  H  H44  1  0.793630  0.965370  0.748170  1.0  0.123
  H  H45  1  0.633430  0.788070  0.783970  1.0  0.1292
  H  H46  1  0.123700  0.308200  0.123700  1.0  0.1319
  H  H47  1  0.301700  0.467500  0.086400  1.0  0.1211
  H  H48  1  0.115000  0.434100  0.056300  1.0  0.123
  H  H49  1  0.885200  0.317900  0.053500  1.0  0.116
  H  H50  1  0.701300  0.161600  0.081500  1.0  0.1228
  H  H51  1  0.878600  0.178700  0.117300  1.0  0.1298
  H  H52  1  0.790370  0.641530  0.457030  1.0  0.1319
  H  H53  1  0.968370  0.800830  0.419730  1.0  0.1221
  H  H54  1  0.781670  0.767430  0.389630  1.0  0.123
  H  H55  1  0.551870  0.651230  0.386830  1.0  0.116
  H  H56  1  0.367970  0.494930  0.414830  1.0  0.1211
  H  H57  1  0.545270  0.512030  0.450630  1.0  0.1289
  H  H58  1  0.457030  0.974870  0.790370  1.0  0.1319
  H  H59  1  0.635030  0.134170  0.753070  1.0  0.1211
  H  H60  1  0.448330  0.100770  0.722970  1.0  0.123
  H  H61  1  0.218530  0.984570  0.720170  1.0  0.116
  H  H62  1  0.034630  0.828270  0.748170  1.0  0.1228
  H  H63  1  0.211930  0.845370  0.783970  1.0  0.1297
  H  H64  1  0.691800  0.815500  0.123700  1.0  0.1314
  H  H65  1  0.532500  0.834200  0.086400  1.0  0.1209
  H  H66  1  0.565900  0.680900  0.056300  1.0  0.1227
  H  H67  1  0.682100  0.567300  0.053500  1.0  0.1161
  H  H68  1  0.838400  0.539700  0.081500  1.0  0.1212
  H  H69  1  0.821300  0.699900  0.117300  1.0  0.1315
  H  H70  1  0.358470  0.148830  0.457030  1.0  0.1314
  H  H71  1  0.199170  0.167530  0.419730  1.0  0.1211
  H  H72  1  0.232570  0.014230  0.389630  1.0  0.1227
  H  H73  1  0.348770  0.900630  0.386830  1.0  0.1161
  H  H74  1  0.505070  0.873030  0.414830  1.0  0.1216
  H  H75  1  0.487970  0.033230  0.450630  1.0  0.1304
  H  H76  1  0.025130  0.482170  0.790370  1.0  0.1314
  H  H77  1  0.865830  0.500870  0.753070  1.0  0.1209
  H  H78  1  0.899230  0.347570  0.722970  1.0  0.1227
  H  H79  1  0.015430  0.233970  0.720170  1.0  0.1161
  H  H80  1  0.171730  0.206370  0.748170  1.0  0.1212
  H  H81  1  0.154630  0.366570  0.783970  1.0  0.1304
  H  H82  1  0.876300  0.184500  0.876300  1.0  0.1304
  H  H83  1  0.698300  0.165800  0.913600  1.0  0.1219
  H  H84  1  0.885000  0.319100  0.943700  1.0  0.1218
  H  H85  1  0.114800  0.432700  0.946500  1.0  0.1161
  H  H86  1  0.298700  0.460300  0.918500  1.0  0.1217
  H  H87  1  0.121400  0.300100  0.882700  1.0  0.1295
  H  H88  1  0.542970  0.517830  0.209630  1.0  0.1304
  H  H89  1  0.364970  0.499130  0.246930  1.0  0.1219
  H  H90  1  0.551670  0.652430  0.277030  1.0  0.1218
  H  H91  1  0.781470  0.766030  0.279830  1.0  0.1161
  H  H92  1  0.965370  0.793630  0.251830  1.0  0.1217
  H  H93  1  0.788070  0.633430  0.216030  1.0  0.1295
  H  H94  1  0.209630  0.851170  0.542970  1.0  0.1304
  H  H95  1  0.031630  0.832470  0.580270  1.0  0.121
  H  H96  1  0.218330  0.985770  0.610370  1.0  0.1218
  H  H97  1  0.448130  0.099370  0.613170  1.0  0.1161
  H  H98  1  0.632030  0.126970  0.585170  1.0  0.1233
  H  H99  1  0.454730  0.966770  0.549370  1.0  0.1308
  H  H100  1  0.308200  0.123700  0.876300  1.0  0.1306
  H  H101  1  0.467500  0.301700  0.913600  1.0  0.1207
  H  H102  1  0.434100  0.115000  0.943700  1.0  0.122
  H  H103  1  0.317900  0.885200  0.946500  1.0  0.116
  H  H104  1  0.161600  0.701300  0.918500  1.0  0.1252
  H  H105  1  0.178700  0.878600  0.882700  1.0  0.131
  H  H106  1  0.974870  0.457030  0.209630  1.0  0.1306
  H  H107  1  0.134170  0.635030  0.246930  1.0  0.1207
  H  H108  1  0.100770  0.448330  0.277030  1.0  0.122
  H  H109  1  0.984570  0.218530  0.279830  1.0  0.116
  H  H110  1  0.828270  0.034630  0.251830  1.0  0.1252
  H  H111  1  0.845370  0.211930  0.216030  1.0  0.1305
  H  H112  1  0.641530  0.790370  0.542970  1.0  0.1306
  H  H113  1  0.800830  0.968370  0.580270  1.0  0.1218
  H  H114  1  0.767430  0.781670  0.610370  1.0  0.122
  H  H115  1  0.651230  0.551870  0.613170  1.0  0.116
  H  H116  1  0.494930  0.367970  0.585170  1.0  0.1231
  H  H117  1  0.512030  0.545270  0.549370  1.0  0.1293
  H  H118  1  0.815500  0.691800  0.876300  1.0  0.1315
  H  H119  1  0.834200  0.532500  0.913600  1.0  0.1207
  H  H120  1  0.680900  0.565900  0.943700  1.0  0.1222
  H  H121  1  0.567300  0.682100  0.946500  1.0  0.1154
  H  H122  1  0.539700  0.838400  0.918500  1.0  0.121
  H  H123  1  0.699900  0.821300  0.882700  1.0  0.1313
  H  H124  1  0.482170  0.025130  0.209630  1.0  0.1315
  H  H125  1  0.500870  0.865830  0.246930  1.0  0.1207
  H  H126  1  0.347570  0.899230  0.277030  1.0  0.1222
  H  H127  1  0.233970  0.015430  0.279830  1.0  0.1154
  H  H128  1  0.206370  0.171730  0.251830  1.0  0.121
  H  H129  1  0.366570  0.154630  0.216030  1.0  0.1311
  H  H130  1  0.148830  0.358470  0.542970  1.0  0.1314
  H  H131  1  0.167530  0.199170  0.580270  1.0  0.1211
  H  H132  1  0.014230  0.232570  0.610370  1.0  0.1222
  H  H133  1  0.900630  0.348770  0.613170  1.0  0.1154
  H  H134  1  0.873030  0.505070  0.585170  1.0  0.1215
  H  H135  1  0.033230  0.487970  0.549370  1.0  0.1304
  C  C136  1  0.273100  0.753600  0.044970  1.0  0.7233
  C  C137  1  0.198800  0.853900  0.109440  1.0  -0.0391
  C  C138  1  0.255200  0.892400  0.088530  1.0  -0.0201
  C  C139  1  0.164700  0.780500  0.108110  1.0  -0.1367
  C  C140  1  0.188400  0.746600  0.087180  1.0  0.038
  C  C141  1  0.246600  0.786800  0.067470  1.0  -0.1635
  C  C142  1  0.279800  0.858700  0.068790  1.0  0.0023
  C  C143  1  0.458450  0.210800  0.066200  1.0  -0.1276
  C  C144  1  0.519500  0.245370  0.044110  1.0  0.7311
  C  C145  1  0.420100  0.140100  0.066890  1.0  -0.0815
  C  C146  1  0.293700  0.969500  0.089150  1.0  0.0151
  C  C147  1  0.322400  0.029700  0.088550  1.0  0.0129
  C  C148  1  0.362200  0.103900  0.086950  1.0  0.0227
  C  C149  1  0.437200  0.250600  0.083640  1.0  0.0174
  C  C150  1  0.380200  0.216500  0.104620  1.0  -0.1614
  C  C151  1  0.340500  0.143600  0.105130  1.0  -0.0649
  C  C152  1  0.364590  0.261200  0.126750  1.0  0.6612
  C  C153  1  0.106400  0.740600  0.129990  1.0  0.6774
  C  C154  1  0.939770  0.086930  0.378300  1.0  0.7233
  C  C155  1  0.865470  0.187230  0.442770  1.0  -0.0391
  C  C156  1  0.921870  0.225730  0.421860  1.0  -0.0201
  C  C157  1  0.831370  0.113830  0.441440  1.0  -0.1367
  C  C158  1  0.855070  0.079930  0.420510  1.0  0.038
  C  C159  1  0.913270  0.120130  0.400800  1.0  -0.1635
  C  C160  1  0.946470  0.192030  0.402120  1.0  0.0023
  C  C161  1  0.125120  0.544130  0.399530  1.0  -0.1276
  C  C162  1  0.186170  0.578700  0.377440  1.0  0.7311
  C  C163  1  0.086770  0.473430  0.400220  1.0  -0.0815
  C  C164  1  0.960370  0.302830  0.422480  1.0  0.0151
  C  C165  1  0.989070  0.363030  0.421880  1.0  0.0129
  C  C166  1  0.028870  0.437230  0.420280  1.0  0.0227
  C  C167  1  0.103870  0.583930  0.416970  1.0  0.0174
  C  C168  1  0.046870  0.549830  0.437950  1.0  -0.1614
  C  C169  1  0.007170  0.476930  0.438460  1.0  -0.0649
  C  C170  1  0.031260  0.594530  0.460080  1.0  0.6611
  C  C171  1  0.773070  0.073930  0.463320  1.0  0.6774
  C  C172  1  0.606430  0.420270  0.711640  1.0  0.7233
  C  C173  1  0.532130  0.520570  0.776110  1.0  -0.0391
  C  C174  1  0.588530  0.559070  0.755200  1.0  -0.0201
  C  C175  1  0.498030  0.447170  0.774780  1.0  -0.1367
  C  C176  1  0.521730  0.413270  0.753850  1.0  0.038
  C  C177  1  0.579930  0.453470  0.734140  1.0  -0.1635
  C  C178  1  0.613130  0.525370  0.735460  1.0  0.0023
  C  C179  1  0.791780  0.877470  0.732870  1.0  -0.1276
  C  C180  1  0.852830  0.912040  0.710780  1.0  0.7311
  C  C181  1  0.753430  0.806770  0.733560  1.0  -0.0815
  C  C182  1  0.627030  0.636170  0.755820  1.0  0.0151
  C  C183  1  0.655730  0.696370  0.755220  1.0  0.0129
  C  C184  1  0.695530  0.770570  0.753620  1.0  0.0227
  C  C185  1  0.770530  0.917270  0.750310  1.0  0.0174
  C  C186  1  0.713530  0.883170  0.771290  1.0  -0.1614
  C  C187  1  0.673830  0.810270  0.771800  1.0  -0.0649
  C  C188  1  0.697920  0.927870  0.793420  1.0  0.6612
  C  C189  1  0.439730  0.407270  0.796660  1.0  0.6774
  C  C190  1  0.246400  0.519500  0.044970  1.0  0.7248
  C  C191  1  0.146100  0.344900  0.109440  1.0  -0.0367
  C  C192  1  0.107600  0.362800  0.088530  1.0  -0.0209
  C  C193  1  0.219500  0.384200  0.108110  1.0  -0.1368
  C  C194  1  0.253400  0.441800  0.087180  1.0  0.0372
  C  C195  1  0.213200  0.459800  0.067470  1.0  -0.1629
  C  C196  1  0.141300  0.421100  0.068790  1.0  0.0017
  C  C197  1  0.789200  0.247650  0.066200  1.0  -0.1263
  C  C198  1  0.754630  0.274130  0.044110  1.0  0.7334
  C  C199  1  0.859900  0.280000  0.066890  1.0  -0.0806
  C  C200  1  0.030500  0.324200  0.089150  1.0  0.0133
  C  C201  1  0.970300  0.292700  0.088550  1.0  0.011
  C  C202  1  0.896100  0.258300  0.086950  1.0  0.0227
  C  C203  1  0.749400  0.186600  0.083640  1.0  0.0179
  C  C204  1  0.783500  0.163700  0.104620  1.0  -0.1584
  C  C205  1  0.856400  0.196900  0.105130  1.0  -0.0687
  C  C206  1  0.738800  0.103390  0.126750  1.0  0.663
  C  C207  1  0.259400  0.365800  0.129990  1.0  0.6787
  C  C208  1  0.913070  0.852830  0.378300  1.0  0.7248
  C  C209  1  0.812770  0.678230  0.442770  1.0  -0.0367
  C  C210  1  0.774270  0.696130  0.421860  1.0  -0.0208
  C  C211  1  0.886170  0.717530  0.441440  1.0  -0.1368
  C  C212  1  0.920070  0.775130  0.420510  1.0  0.0372
  C  C213  1  0.879870  0.793130  0.400800  1.0  -0.1629
  C  C214  1  0.807970  0.754430  0.402120  1.0  0.0016
  C  C215  1  0.455870  0.580980  0.399530  1.0  -0.1263
  C  C216  1  0.421300  0.607460  0.377440  1.0  0.7334
  C  C217  1  0.526570  0.613330  0.400220  1.0  -0.0806
  C  C218  1  0.697170  0.657530  0.422480  1.0  0.0133
  C  C219  1  0.636970  0.626030  0.421880  1.0  0.011
  C  C220  1  0.562770  0.591630  0.420280  1.0  0.0227
  C  C221  1  0.416070  0.519930  0.416970  1.0  0.0179
  C  C222  1  0.450170  0.497030  0.437950  1.0  -0.1612
  C  C223  1  0.523070  0.530230  0.438460  1.0  -0.0643
  C  C224  1  0.405470  0.436720  0.460080  1.0  0.663
  C  C225  1  0.926070  0.699130  0.463320  1.0  0.6782
  C  C226  1  0.579730  0.186170  0.711640  1.0  0.7248
  C  C227  1  0.479430  0.011570  0.776110  1.0  -0.0367
  C  C228  1  0.440930  0.029470  0.755200  1.0  -0.0209
  C  C229  1  0.552830  0.050870  0.774780  1.0  -0.1368
  C  C230  1  0.586730  0.108470  0.753850  1.0  0.0372
  C  C231  1  0.546530  0.126470  0.734140  1.0  -0.1629
  C  C232  1  0.474630  0.087770  0.735460  1.0  0.0017
  C  C233  1  0.122530  0.914320  0.732870  1.0  -0.1263
  C  C234  1  0.087960  0.940800  0.710780  1.0  0.7334
  C  C235  1  0.193230  0.946670  0.733560  1.0  -0.0806
  C  C236  1  0.363830  0.990870  0.755820  1.0  0.0133
  C  C237  1  0.303630  0.959370  0.755220  1.0  0.011
  C  C238  1  0.229430  0.924970  0.753620  1.0  0.0227
  C  C239  1  0.082730  0.853270  0.750310  1.0  0.0179
  C  C240  1  0.116830  0.830370  0.771290  1.0  -0.1612
  C  C241  1  0.189730  0.863570  0.771800  1.0  -0.0643
  C  C242  1  0.072130  0.770060  0.793420  1.0  0.663
  C  C243  1  0.592730  0.032470  0.796660  1.0  0.6787
  C  C244  1  0.480500  0.726900  0.044970  1.0  0.7251
  C  C245  1  0.655100  0.801200  0.109440  1.0  -0.0374
  C  C246  1  0.637200  0.744800  0.088530  1.0  -0.0186
  C  C247  1  0.615800  0.835300  0.108110  1.0  -0.1362
  C  C248  1  0.558200  0.811600  0.087180  1.0  0.0328
  C  C249  1  0.540200  0.753400  0.067470  1.0  -0.1633
  C  C250  1  0.578900  0.720200  0.068790  1.0  0.005
  C  C251  1  0.752350  0.541550  0.066200  1.0  -0.1261
  C  C252  1  0.725870  0.480500  0.044110  1.0  0.7317
  C  C253  1  0.720000  0.579900  0.066890  1.0  -0.0807
  C  C254  1  0.675800  0.706300  0.089150  1.0  0.0161
  C  C255  1  0.707300  0.677600  0.088550  1.0  0.0095
  C  C256  1  0.741700  0.637800  0.086950  1.0  0.0213
  C  C257  1  0.813400  0.562800  0.083640  1.0  0.0187
  C  C258  1  0.836300  0.619800  0.104620  1.0  -0.1583
  C  C259  1  0.803100  0.659500  0.105130  1.0  -0.07
  C  C260  1  0.896610  0.635410  0.126750  1.0  0.6622
  C  C261  1  0.634200  0.893600  0.129990  1.0  0.6788
  C  C262  1  0.147170  0.060230  0.378300  1.0  0.7251
  C  C263  1  0.321770  0.134530  0.442770  1.0  -0.0374
  C  C264  1  0.303870  0.078130  0.421860  1.0  -0.0185
  C  C265  1  0.282470  0.168630  0.441440  1.0  -0.1362
  C  C266  1  0.224870  0.144930  0.420510  1.0  0.0328
  C  C267  1  0.206870  0.086730  0.400800  1.0  -0.1633
  C  C268  1  0.245570  0.053530  0.402120  1.0  0.005
  C  C269  1  0.419020  0.874880  0.399530  1.0  -0.1261
  C  C270  1  0.392540  0.813830  0.377440  1.0  0.7317
  C  C271  1  0.386670  0.913230  0.400220  1.0  -0.0807
  C  C272  1  0.342470  0.039630  0.422480  1.0  0.0161
  C  C273  1  0.373970  0.010930  0.421880  1.0  0.0095
  C  C274  1  0.408370  0.971130  0.420280  1.0  0.0213
  C  C275  1  0.480070  0.896130  0.416970  1.0  0.0187
  C  C276  1  0.502970  0.953130  0.437950  1.0  -0.1609
  C  C277  1  0.469770  0.992830  0.438460  1.0  -0.0643
  C  C278  1  0.563280  0.968740  0.460080  1.0  0.6621
  C  C279  1  0.300870  0.226930  0.463320  1.0  0.6788
  C  C280  1  0.813830  0.393570  0.711640  1.0  0.7251
  C  C281  1  0.988430  0.467870  0.776110  1.0  -0.0374
  C  C282  1  0.970530  0.411470  0.755200  1.0  -0.0186
  C  C283  1  0.949130  0.501970  0.774780  1.0  -0.1362
  C  C284  1  0.891530  0.478270  0.753850  1.0  0.0328
  C  C285  1  0.873530  0.420070  0.734140  1.0  -0.1633
  C  C286  1  0.912230  0.386870  0.735460  1.0  0.005
  C  C287  1  0.085680  0.208220  0.732870  1.0  -0.1261
  C  C288  1  0.059200  0.147170  0.710780  1.0  0.7317
  C  C289  1  0.053330  0.246570  0.733560  1.0  -0.0807
  C  C290  1  0.009130  0.372970  0.755820  1.0  0.0161
  C  C291  1  0.040630  0.344270  0.755220  1.0  0.0095
  C  C292  1  0.075030  0.304470  0.753620  1.0  0.0213
  C  C293  1  0.146730  0.229470  0.750310  1.0  0.0187
  C  C294  1  0.169630  0.286470  0.771290  1.0  -0.1609
  C  C295  1  0.136430  0.326170  0.771800  1.0  -0.0643
  C  C296  1  0.229940  0.302080  0.793420  1.0  0.6622
  C  C297  1  0.967530  0.560270  0.796660  1.0  0.6788
  C  C298  1  0.753600  0.273100  0.955030  1.0  0.7255
  C  C299  1  0.853900  0.198800  0.890560  1.0  -0.037
  C  C300  1  0.892400  0.255200  0.911470  1.0  -0.0187
  C  C301  1  0.780500  0.164700  0.891890  1.0  -0.1362
  C  C302  1  0.746600  0.188400  0.912820  1.0  0.0334
  C  C303  1  0.786800  0.246600  0.932530  1.0  -0.1631
  C  C304  1  0.858700  0.279800  0.931210  1.0  0.0033
  C  C305  1  0.210800  0.458450  0.933800  1.0  -0.126
  C  C306  1  0.245370  0.519500  0.955890  1.0  0.7312
  C  C307  1  0.140100  0.420100  0.933110  1.0  -0.0804
  C  C308  1  0.969500  0.293700  0.910850  1.0  0.0161
  C  C309  1  0.029700  0.322400  0.911450  1.0  0.0098
  C  C310  1  0.103900  0.362200  0.913050  1.0  0.0207
  C  C311  1  0.250600  0.437200  0.916360  1.0  0.0183
  C  C312  1  0.216500  0.380200  0.895380  1.0  -0.1611
  C  C313  1  0.143600  0.340500  0.894870  1.0  -0.0638
  C  C314  1  0.261200  0.364590  0.873250  1.0  0.6622
  C  C315  1  0.740600  0.106400  0.870010  1.0  0.6783
  C  C316  1  0.420270  0.606430  0.288360  1.0  0.7258
  C  C317  1  0.520570  0.532130  0.223890  1.0  -0.037
  C  C318  1  0.559070  0.588530  0.244800  1.0  -0.0187
  C  C319  1  0.447170  0.498030  0.225220  1.0  -0.1362
  C  C320  1  0.413270  0.521730  0.246150  1.0  0.0334
  C  C321  1  0.453470  0.579930  0.265860  1.0  -0.1631
  C  C322  1  0.525370  0.613130  0.264540  1.0  0.0033
  C  C323  1  0.877470  0.791780  0.267130  1.0  -0.126
  C  C324  1  0.912040  0.852830  0.289220  1.0  0.7312
  C  C325  1  0.806770  0.753430  0.266440  1.0  -0.0804
  C  C326  1  0.636170  0.627030  0.244180  1.0  0.0161
  C  C327  1  0.696370  0.655730  0.244780  1.0  0.0098
  C  C328  1  0.770570  0.695530  0.246380  1.0  0.0207
  C  C329  1  0.917270  0.770530  0.249690  1.0  0.0183
  C  C330  1  0.883170  0.713530  0.228710  1.0  -0.1611
  C  C331  1  0.810270  0.673830  0.228200  1.0  -0.0638
  C  C332  1  0.927870  0.697920  0.206580  1.0  0.6622
  C  C333  1  0.407270  0.439730  0.203340  1.0  0.6783
  C  C334  1  0.086930  0.939770  0.621700  1.0  0.7255
  C  C335  1  0.187230  0.865470  0.557230  1.0  -0.037
  C  C336  1  0.225730  0.921870  0.578140  1.0  -0.0187
  C  C337  1  0.113830  0.831370  0.558560  1.0  -0.1362
  C  C338  1  0.079930  0.855070  0.579490  1.0  0.0334
  C  C339  1  0.120130  0.913270  0.599200  1.0  -0.1631
  C  C340  1  0.192030  0.946470  0.597880  1.0  0.0033
  C  C341  1  0.544130  0.125120  0.600470  1.0  -0.126
  C  C342  1  0.578700  0.186170  0.622560  1.0  0.7312
  C  C343  1  0.473430  0.086770  0.599780  1.0  -0.0804
  C  C344  1  0.302830  0.960370  0.577520  1.0  0.0161
  C  C345  1  0.363030  0.989070  0.578120  1.0  0.0098
  C  C346  1  0.437230  0.028870  0.579720  1.0  0.0207
  C  C347  1  0.583930  0.103870  0.583030  1.0  0.0183
  C  C348  1  0.549830  0.046870  0.562050  1.0  -0.1611
  C  C349  1  0.476930  0.007170  0.561540  1.0  -0.0638
  C  C350  1  0.594530  0.031260  0.539920  1.0  0.6622
  C  C351  1  0.073930  0.773070  0.536680  1.0  0.6783
  C  C352  1  0.519500  0.246400  0.955030  1.0  0.7234
  C  C353  1  0.344900  0.146100  0.890560  1.0  -0.0382
  C  C354  1  0.362800  0.107600  0.911470  1.0  -0.0192
  C  C355  1  0.384200  0.219500  0.891890  1.0  -0.1359
  C  C356  1  0.441800  0.253400  0.912820  1.0  0.0361
  C  C357  1  0.459800  0.213200  0.932530  1.0  -0.1636
  C  C358  1  0.421100  0.141300  0.931210  1.0  0.0037
  C  C359  1  0.247650  0.789200  0.933800  1.0  -0.1271
  C  C360  1  0.274130  0.754630  0.955890  1.0  0.7307
  C  C361  1  0.280000  0.859900  0.933110  1.0  -0.0817
  C  C362  1  0.324200  0.030500  0.910850  1.0  0.0155
  C  C363  1  0.292700  0.970300  0.911450  1.0  0.0119
  C  C364  1  0.258300  0.896100  0.913050  1.0  0.0249
  C  C365  1  0.186600  0.749400  0.916360  1.0  0.0191
  C  C366  1  0.163700  0.783500  0.895380  1.0  -0.1588
  C  C367  1  0.196900  0.856400  0.894870  1.0  -0.0714
  C  C368  1  0.103390  0.738800  0.873250  1.0  0.6614
  C  C369  1  0.365800  0.259400  0.870010  1.0  0.6765
  C  C370  1  0.186170  0.579730  0.288360  1.0  0.7234
  C  C371  1  0.011570  0.479430  0.223890  1.0  -0.0382
  C  C372  1  0.029470  0.440930  0.244800  1.0  -0.0192
  C  C373  1  0.050870  0.552830  0.225220  1.0  -0.1359
  C  C374  1  0.108470  0.586730  0.246150  1.0  0.0361
  C  C375  1  0.126470  0.546530  0.265860  1.0  -0.1636
  C  C376  1  0.087770  0.474630  0.264540  1.0  0.0037
  C  C377  1  0.914320  0.122530  0.267130  1.0  -0.1271
  C  C378  1  0.940800  0.087960  0.289220  1.0  0.7307
  C  C379  1  0.946670  0.193230  0.266440  1.0  -0.0817
  C  C380  1  0.990870  0.363830  0.244180  1.0  0.0155
  C  C381  1  0.959370  0.303630  0.244780  1.0  0.0119
  C  C382  1  0.924970  0.229430  0.246380  1.0  0.0249
  C  C383  1  0.853270  0.082730  0.249690  1.0  0.0191
  C  C384  1  0.830370  0.116830  0.228710  1.0  -0.1619
  C  C385  1  0.863570  0.189730  0.228200  1.0  -0.0659
  C  C386  1  0.770060  0.072130  0.206580  1.0  0.6614
  C  C387  1  0.032470  0.592730  0.203340  1.0  0.6765
  C  C388  1  0.852830  0.913070  0.621700  1.0  0.7234
  C  C389  1  0.678230  0.812770  0.557230  1.0  -0.0382
  C  C390  1  0.696130  0.774270  0.578140  1.0  -0.0191
  C  C391  1  0.717530  0.886170  0.558560  1.0  -0.1359
  C  C392  1  0.775130  0.920070  0.579490  1.0  0.0361
  C  C393  1  0.793130  0.879870  0.599200  1.0  -0.1636
  C  C394  1  0.754430  0.807970  0.597880  1.0  0.0037
  C  C395  1  0.580980  0.455870  0.600470  1.0  -0.1271
  C  C396  1  0.607460  0.421300  0.622560  1.0  0.7307
  C  C397  1  0.613330  0.526570  0.599780  1.0  -0.0817
  C  C398  1  0.657530  0.697170  0.577520  1.0  0.0155
  C  C399  1  0.626030  0.636970  0.578120  1.0  0.0119
  C  C400  1  0.591630  0.562770  0.579720  1.0  0.0249
  C  C401  1  0.519930  0.416070  0.583030  1.0  0.0191
  C  C402  1  0.497030  0.450170  0.562050  1.0  -0.1619
  C  C403  1  0.530230  0.523070  0.561540  1.0  -0.0659
  C  C404  1  0.436720  0.405470  0.539920  1.0  0.6614
  C  C405  1  0.699130  0.926070  0.536680  1.0  0.6761
  C  C406  1  0.726900  0.480500  0.955030  1.0  0.7244
  C  C407  1  0.801200  0.655100  0.890560  1.0  -0.0379
  C  C408  1  0.744800  0.637200  0.911470  1.0  -0.0208
  C  C409  1  0.835300  0.615800  0.891890  1.0  -0.1367
  C  C410  1  0.811600  0.558200  0.912820  1.0  0.0378
  C  C411  1  0.753400  0.540200  0.932530  1.0  -0.1632
  C  C412  1  0.720200  0.578900  0.931210  1.0  0.0013
  C  C413  1  0.541550  0.752350  0.933800  1.0  -0.1262
  C  C414  1  0.480500  0.725870  0.955890  1.0  0.7333
  C  C415  1  0.579900  0.720000  0.933110  1.0  -0.0795
  C  C416  1  0.706300  0.675800  0.910850  1.0  0.0134
  C  C417  1  0.677600  0.707300  0.911450  1.0  0.0109
  C  C418  1  0.637800  0.741700  0.913050  1.0  0.0231
  C  C419  1  0.562800  0.813400  0.916360  1.0  0.0177
  C  C420  1  0.619800  0.836300  0.895380  1.0  -0.159
  C  C421  1  0.659500  0.803100  0.894870  1.0  -0.0702
  C  C422  1  0.635410  0.896610  0.873250  1.0  0.662
  C  C423  1  0.893600  0.634200  0.870010  1.0  0.6775
  C  C424  1  0.393570  0.813830  0.288360  1.0  0.7244
  C  C425  1  0.467870  0.988430  0.223890  1.0  -0.0379
  C  C426  1  0.411470  0.970530  0.244800  1.0  -0.0208
  C  C427  1  0.501970  0.949130  0.225220  1.0  -0.1367
  C  C428  1  0.478270  0.891530  0.246150  1.0  0.0378
  C  C429  1  0.420070  0.873530  0.265860  1.0  -0.1632
  C  C430  1  0.386870  0.912230  0.264540  1.0  0.0013
  C  C431  1  0.208220  0.085680  0.267130  1.0  -0.1262
  C  C432  1  0.147170  0.059200  0.289220  1.0  0.7333
  C  C433  1  0.246570  0.053330  0.266440  1.0  -0.0795
  C  C434  1  0.372970  0.009130  0.244180  1.0  0.0134
  C  C435  1  0.344270  0.040630  0.244780  1.0  0.0109
  C  C436  1  0.304470  0.075030  0.246380  1.0  0.0231
  C  C437  1  0.229470  0.146730  0.249690  1.0  0.0177
  C  C438  1  0.286470  0.169630  0.228710  1.0  -0.1617
  C  C439  1  0.326170  0.136430  0.228200  1.0  -0.0652
  C  C440  1  0.302080  0.229940  0.206580  1.0  0.662
  C  C441  1  0.560270  0.967530  0.203340  1.0  0.6775
  C  C442  1  0.060230  0.147170  0.621700  1.0  0.7244
  C  C443  1  0.134530  0.321770  0.557230  1.0  -0.0379
  C  C444  1  0.078130  0.303870  0.578140  1.0  -0.0207
  C  C445  1  0.168630  0.282470  0.558560  1.0  -0.1367
  C  C446  1  0.144930  0.224870  0.579490  1.0  0.0378
  C  C447  1  0.086730  0.206870  0.599200  1.0  -0.1632
  C  C448  1  0.053530  0.245570  0.597880  1.0  0.0013
  C  C449  1  0.874880  0.419020  0.600470  1.0  -0.1263
  C  C450  1  0.813830  0.392540  0.622560  1.0  0.7333
  C  C451  1  0.913230  0.386670  0.599780  1.0  -0.0795
  C  C452  1  0.039630  0.342470  0.577520  1.0  0.0134
  C  C453  1  0.010930  0.373970  0.578120  1.0  0.0109
  C  C454  1  0.971130  0.408370  0.579720  1.0  0.0231
  C  C455  1  0.896130  0.480070  0.583030  1.0  0.0177
  C  C456  1  0.953130  0.502970  0.562050  1.0  -0.1617
  C  C457  1  0.992830  0.469770  0.561540  1.0  -0.0652
  C  C458  1  0.968740  0.563280  0.539920  1.0  0.662
  C  C459  1  0.226930  0.300870  0.536680  1.0  0.6775
  O  O460  1  0.542590  0.211720  0.034410  1.0  -0.6341
  O  O461  1  0.331340  0.788990  0.034790  1.0  -0.6328
  O  O462  1  0.228410  0.689180  0.037710  1.0  -0.6722
  O  O463  1  0.537600  0.308430  0.035910  1.0  -0.6616
  O  O464  1  0.404060  0.325230  0.129300  1.0  -0.5298
  O  O465  1  0.300610  0.232770  0.135700  1.0  -0.5983
  O  O466  1  0.075230  0.673790  0.128630  1.0  -0.5575
  O  O467  1  0.086820  0.769430  0.148860  1.0  -0.5412
  O  O468  1  0.209260  0.545050  0.367740  1.0  -0.6341
  O  O469  1  0.998010  0.122320  0.368120  1.0  -0.6329
  O  O470  1  0.895080  0.022510  0.371040  1.0  -0.6722
  O  O471  1  0.204270  0.641760  0.369240  1.0  -0.6614
  O  O472  1  0.070730  0.658560  0.462630  1.0  -0.5299
  O  O473  1  0.967280  0.566100  0.469030  1.0  -0.5983
  O  O474  1  0.741900  0.007120  0.461960  1.0  -0.5575
  O  O475  1  0.753490  0.102760  0.482190  1.0  -0.5412
  O  O476  1  0.875920  0.878390  0.701080  1.0  -0.6341
  O  O477  1  0.664670  0.455660  0.701460  1.0  -0.6326
  O  O478  1  0.561740  0.355850  0.704380  1.0  -0.6722
  O  O479  1  0.870930  0.975100  0.702580  1.0  -0.6614
  O  O480  1  0.737390  0.991900  0.795970  1.0  -0.5299
  O  O481  1  0.633940  0.899440  0.802370  1.0  -0.5991
  O  O482  1  0.408560  0.340460  0.795300  1.0  -0.5573
  O  O483  1  0.420150  0.436100  0.815530  1.0  -0.5411
  O  O484  1  0.788280  0.330870  0.034410  1.0  -0.634
  O  O485  1  0.211010  0.542350  0.034790  1.0  -0.6368
  O  O486  1  0.310820  0.539230  0.037710  1.0  -0.6688
  O  O487  1  0.691570  0.229170  0.035910  1.0  -0.6598
  O  O488  1  0.674770  0.078830  0.129300  1.0  -0.536
  O  O489  1  0.767230  0.067840  0.135700  1.0  -0.5982
  O  O490  1  0.326210  0.401440  0.128630  1.0  -0.5626
  O  O491  1  0.230570  0.317390  0.148860  1.0  -0.545
  O  O492  1  0.454950  0.664200  0.367740  1.0  -0.634
  O  O493  1  0.877680  0.875680  0.368120  1.0  -0.6363
  O  O494  1  0.977490  0.872560  0.371040  1.0  -0.6688
  O  O495  1  0.358240  0.562500  0.369240  1.0  -0.6596
  O  O496  1  0.341440  0.412160  0.462630  1.0  -0.5361
  O  O497  1  0.433900  0.401170  0.469030  1.0  -0.599
  O  O498  1  0.992880  0.734770  0.461960  1.0  -0.5626
  O  O499  1  0.897240  0.650720  0.482190  1.0  -0.545
  O  O500  1  0.121610  0.997540  0.701080  1.0  -0.634
  O  O501  1  0.544340  0.209020  0.701460  1.0  -0.6363
  O  O502  1  0.644150  0.205900  0.704380  1.0  -0.6688
  O  O503  1  0.024900  0.895840  0.702580  1.0  -0.6598
  O  O504  1  0.008100  0.745500  0.795970  1.0  -0.5361
  O  O505  1  0.100560  0.734510  0.802370  1.0  -0.5988
  O  O506  1  0.659540  0.068110  0.795300  1.0  -0.5624
  O  O507  1  0.563900  0.984060  0.815530  1.0  -0.545
  O  O508  1  0.669130  0.457410  0.034410  1.0  -0.6382
  O  O509  1  0.457650  0.668660  0.034790  1.0  -0.6328
  O  O510  1  0.460770  0.771590  0.037710  1.0  -0.6706
  O  O511  1  0.770830  0.462400  0.035910  1.0  -0.662
  O  O512  1  0.921170  0.595940  0.129300  1.0  -0.5329
  O  O513  1  0.932160  0.699390  0.135700  1.0  -0.5995
  O  O514  1  0.598560  0.924770  0.128630  1.0  -0.5625
  O  O515  1  0.682610  0.913180  0.148860  1.0  -0.5478
  O  O516  1  0.335800  0.790740  0.367740  1.0  -0.6381
  O  O517  1  0.124320  0.001990  0.368120  1.0  -0.6329
  O  O518  1  0.127440  0.104920  0.371040  1.0  -0.6706
  O  O519  1  0.437500  0.795730  0.369240  1.0  -0.6618
  O  O520  1  0.587840  0.929270  0.462630  1.0  -0.533
  O  O521  1  0.598830  0.032720  0.469030  1.0  -0.5994
  O  O522  1  0.265230  0.258100  0.461960  1.0  -0.5625
  O  O523  1  0.349280  0.246510  0.482190  1.0  -0.5479
  O  O524  1  0.002460  0.124080  0.701080  1.0  -0.6381
  O  O525  1  0.790980  0.335330  0.701460  1.0  -0.6325
  O  O526  1  0.794100  0.438260  0.704380  1.0  -0.6706
  O  O527  1  0.104160  0.129070  0.702580  1.0  -0.6618
  O  O528  1  0.254500  0.262610  0.795970  1.0  -0.533
  O  O529  1  0.265490  0.366060  0.802370  1.0  -0.6006
  O  O530  1  0.931890  0.591440  0.795300  1.0  -0.5622
  O  O531  1  0.015940  0.579850  0.815530  1.0  -0.5478
  O  O532  1  0.211720  0.542590  0.965590  1.0  -0.6375
  O  O533  1  0.788990  0.331340  0.965210  1.0  -0.633
  O  O534  1  0.689180  0.228410  0.962290  1.0  -0.6719
  O  O535  1  0.308430  0.537600  0.964090  1.0  -0.6624
  O  O536  1  0.325230  0.404060  0.870700  1.0  -0.5339
  O  O537  1  0.232770  0.300610  0.864300  1.0  -0.5965
  O  O538  1  0.673790  0.075230  0.871370  1.0  -0.5625
  O  O539  1  0.769430  0.086820  0.851140  1.0  -0.5486
  O  O540  1  0.878390  0.875920  0.298920  1.0  -0.6375
  O  O541  1  0.455660  0.664670  0.298540  1.0  -0.6328
  O  O542  1  0.355850  0.561740  0.295620  1.0  -0.6719
  O  O543  1  0.975100  0.870930  0.297420  1.0  -0.6622
  O  O544  1  0.991900  0.737390  0.204030  1.0  -0.534
  O  O545  1  0.899440  0.633940  0.197630  1.0  -0.5973
  O  O546  1  0.340460  0.408560  0.204700  1.0  -0.5623
  O  O547  1  0.436100  0.420150  0.184470  1.0  -0.5485
  O  O548  1  0.545050  0.209260  0.632260  1.0  -0.6374
  O  O549  1  0.122320  0.998010  0.631880  1.0  -0.6331
  O  O550  1  0.022510  0.895080  0.628960  1.0  -0.6719
  O  O551  1  0.641760  0.204270  0.630760  1.0  -0.6621
  O  O552  1  0.658560  0.070730  0.537370  1.0  -0.534
  O  O553  1  0.566100  0.967280  0.530970  1.0  -0.5965
  O  O554  1  0.007120  0.741900  0.538040  1.0  -0.5625
  O  O555  1  0.102760  0.753490  0.517810  1.0  -0.5486
  O  O556  1  0.330870  0.788280  0.965590  1.0  -0.6348
  O  O557  1  0.542350  0.211010  0.965210  1.0  -0.6326
  O  O558  1  0.539230  0.310820  0.962290  1.0  -0.6726
  O  O559  1  0.229170  0.691570  0.964090  1.0  -0.6627
  O  O560  1  0.078830  0.674770  0.870700  1.0  -0.5295
  O  O561  1  0.067840  0.767230  0.864300  1.0  -0.5979
  O  O562  1  0.401440  0.326210  0.871370  1.0  -0.5573
  O  O563  1  0.317390  0.230570  0.851140  1.0  -0.5453
  O  O564  1  0.997540  0.121610  0.298920  1.0  -0.6347
  O  O565  1  0.209020  0.544340  0.298540  1.0  -0.6322
  O  O566  1  0.205900  0.644150  0.295620  1.0  -0.6726
  O  O567  1  0.895840  0.024900  0.297420  1.0  -0.6627
  O  O568  1  0.745500  0.008100  0.204030  1.0  -0.5297
  O  O569  1  0.734510  0.100560  0.197630  1.0  -0.5985
  O  O570  1  0.068110  0.659540  0.204700  1.0  -0.5571
  O  O571  1  0.984060  0.563900  0.184470  1.0  -0.5453
  O  O572  1  0.664200  0.454950  0.632260  1.0  -0.6347
  O  O573  1  0.875680  0.877680  0.631880  1.0  -0.6322
  O  O574  1  0.872560  0.977490  0.628960  1.0  -0.6726
  O  O575  1  0.562500  0.358240  0.630760  1.0  -0.6625
  O  O576  1  0.412160  0.341440  0.537370  1.0  -0.5297
  O  O577  1  0.401170  0.433900  0.530970  1.0  -0.5987
  O  O578  1  0.734770  0.992880  0.538040  1.0  -0.5573
  O  O579  1  0.650720  0.897240  0.517810  1.0  -0.5453
  O  O580  1  0.457410  0.669130  0.965590  1.0  -0.6321
  O  O581  1  0.668660  0.457650  0.965210  1.0  -0.6365
  O  O582  1  0.771590  0.460770  0.962290  1.0  -0.6694
  O  O583  1  0.462400  0.770830  0.964090  1.0  -0.6617
  O  O584  1  0.595940  0.921170  0.870700  1.0  -0.5367
  O  O585  1  0.699390  0.932160  0.864300  1.0  -0.5977
  O  O586  1  0.924770  0.598560  0.871370  1.0  -0.5613
  O  O587  1  0.913180  0.682610  0.851140  1.0  -0.5465
  O  O588  1  0.124080  0.002460  0.298920  1.0  -0.6321
  O  O589  1  0.335330  0.790980  0.298540  1.0  -0.6362
  O  O590  1  0.438260  0.794100  0.295620  1.0  -0.6694
  O  O591  1  0.129070  0.104160  0.297420  1.0  -0.6615
  O  O592  1  0.262610  0.254500  0.204030  1.0  -0.5368
  O  O593  1  0.366060  0.265490  0.197630  1.0  -0.5988
  O  O594  1  0.591440  0.931890  0.204700  1.0  -0.5611
  O  O595  1  0.579850  0.015940  0.184470  1.0  -0.5465
  O  O596  1  0.790740  0.335800  0.632260  1.0  -0.6321
  O  O597  1  0.001990  0.124320  0.631880  1.0  -0.6366
  O  O598  1  0.104920  0.127440  0.628960  1.0  -0.6694
  O  O599  1  0.795730  0.437500  0.630760  1.0  -0.6615
  O  O600  1  0.929270  0.587840  0.537370  1.0  -0.5368
  O  O601  1  0.032720  0.598830  0.530970  1.0  -0.5977
  O  O602  1  0.258100  0.265230  0.538040  1.0  -0.5613
  O  O603  1  0.246510  0.349280  0.517810  1.0  -0.5466
  O  O604  1  0.666667  0.333333  0.000090  1.0  -0.9194
  O  O605  1  0.333333  0.666667  0.333420  1.0  -0.9196
  O  O606  1  0.000000  0.000000  0.666760  1.0  -0.9192
  O  O607  1  0.333333  0.666667  0.999910  1.0  -0.9193
  O  O608  1  0.000000  0.000000  0.333240  1.0  -0.9195
  O  O609  1  0.666667  0.333333  0.666580  1.0  -0.9191
