# generated using pymatgen
data_CoH16AuC22(BrN3)2
_symmetry_space_group_name_H-M   'P 1'
_cell_length_a   11.45000000
_cell_length_b   11.46700000
_cell_length_c   20.94400000
_cell_angle_alpha   90.00000000
_cell_angle_beta   90.00000000
_cell_angle_gamma   90.00000000
_symmetry_Int_Tables_number   1
_chemical_formula_structural   CoH16AuC22(BrN3)2
_chemical_formula_sum   'Co2 H32 Au2 C44 Br4 N12'
_cell_volume   2749.88750960
_cell_formula_units_Z   2
loop_
 _symmetry_equiv_pos_site_id
 _symmetry_equiv_pos_as_xyz
  1  'x, y, z'
loop_
 _atom_site_type_symbol
 _atom_site_label
 _atom_site_symmetry_multiplicity
 _atom_site_fract_x
 _atom_site_fract_y
 _atom_site_fract_z
 _atom_site_occupancy
 _atom_site_charge
  Co  Co1  1  0.000000  0.000000  0.750000  1.0  0.564
  Co  Co2  1  0.000000  0.000000  0.250000  1.0  0.564
  H  H3  1  0.068800  0.788100  0.665500  1.0  0.0768
  H  H4  1  0.064200  0.589300  0.660300  1.0  0.1213
  H  H5  1  0.790000  0.919200  0.669000  1.0  0.0804
  H  H6  1  0.590300  0.922800  0.665300  1.0  0.1189
  H  H7  1  0.931200  0.211900  0.665500  1.0  0.0768
  H  H8  1  0.935800  0.410700  0.660300  1.0  0.1212
  H  H9  1  0.210000  0.080800  0.669000  1.0  0.0807
  H  H10  1  0.409700  0.077200  0.665300  1.0  0.1187
  H  H11  1  0.931200  0.788100  0.834500  1.0  0.0773
  H  H12  1  0.935800  0.589300  0.839700  1.0  0.1215
  H  H13  1  0.210000  0.919200  0.831000  1.0  0.0817
  H  H14  1  0.409700  0.922800  0.834700  1.0  0.1186
  H  H15  1  0.068800  0.211900  0.834500  1.0  0.0767
  H  H16  1  0.064200  0.410700  0.839700  1.0  0.121
  H  H17  1  0.790000  0.080800  0.831000  1.0  0.082
  H  H18  1  0.590300  0.077200  0.834700  1.0  0.1185
  H  H19  1  0.931200  0.211900  0.334500  1.0  0.0774
  H  H20  1  0.935800  0.410700  0.339700  1.0  0.1214
  H  H21  1  0.210000  0.080800  0.331000  1.0  0.0817
  H  H22  1  0.409700  0.077200  0.334700  1.0  0.1183
  H  H23  1  0.068800  0.788100  0.334500  1.0  0.0774
  H  H24  1  0.064200  0.589300  0.339700  1.0  0.1208
  H  H25  1  0.790000  0.919200  0.331000  1.0  0.0815
  H  H26  1  0.590300  0.922800  0.334700  1.0  0.1189
  H  H27  1  0.068800  0.211900  0.165500  1.0  0.0768
  H  H28  1  0.064200  0.410700  0.160300  1.0  0.1214
  H  H29  1  0.790000  0.080800  0.169000  1.0  0.0806
  H  H30  1  0.590300  0.077200  0.165300  1.0  0.119
  H  H31  1  0.931200  0.788100  0.165500  1.0  0.0764
  H  H32  1  0.935800  0.589300  0.160300  1.0  0.1212
  H  H33  1  0.210000  0.919200  0.169000  1.0  0.0809
  H  H34  1  0.409700  0.922800  0.165300  1.0  0.1189
  Au  Au35  1  0.000000  0.000000  0.500000  1.0  0.2916
  Au  Au36  1  0.000000  0.000000  0.000000  1.0  0.2916
  C  C37  1  0.039300  0.747400  0.700100  1.0  0.1706
  C  C38  1  0.038300  0.627500  0.697200  1.0  -0.2037
  C  C39  1  0.748500  0.954900  0.702700  1.0  0.1744
  C  C40  1  0.628300  0.955500  0.700500  1.0  -0.1894
  C  C41  1  0.960700  0.252600  0.700100  1.0  0.1708
  C  C42  1  0.961700  0.372500  0.697200  1.0  -0.2028
  C  C43  1  0.251500  0.045100  0.702700  1.0  0.174
  C  C44  1  0.371700  0.044500  0.700500  1.0  -0.1908
  C  C45  1  0.960700  0.747400  0.799900  1.0  0.1697
  C  C46  1  0.961700  0.627500  0.802800  1.0  -0.203
  C  C47  1  0.251500  0.954900  0.797300  1.0  0.1735
  C  C48  1  0.371700  0.955500  0.799500  1.0  -0.1877
  C  C49  1  0.039300  0.252600  0.799900  1.0  0.1708
  C  C50  1  0.038300  0.372500  0.802800  1.0  -0.202
  C  C51  1  0.748500  0.045100  0.797300  1.0  0.173
  C  C52  1  0.628300  0.044500  0.799500  1.0  -0.1904
  C  C53  1  0.960700  0.252600  0.299900  1.0  0.1698
  C  C54  1  0.961700  0.372500  0.302800  1.0  -0.203
  C  C55  1  0.251500  0.045100  0.297300  1.0  0.173
  C  C56  1  0.371700  0.044500  0.299500  1.0  -0.1893
  C  C57  1  0.039300  0.747400  0.299900  1.0  0.1709
  C  C58  1  0.038300  0.627500  0.302800  1.0  -0.2017
  C  C59  1  0.748500  0.954900  0.297300  1.0  0.1736
  C  C60  1  0.628300  0.955500  0.299500  1.0  -0.1891
  C  C61  1  0.039300  0.252600  0.200100  1.0  0.1705
  C  C62  1  0.038300  0.372500  0.197200  1.0  -0.204
  C  C63  1  0.748500  0.045100  0.202700  1.0  0.1739
  C  C64  1  0.628300  0.044500  0.200500  1.0  -0.1894
  C  C65  1  0.960700  0.747400  0.200100  1.0  0.1708
  C  C66  1  0.961700  0.627500  0.197200  1.0  -0.2036
  C  C67  1  0.251500  0.954900  0.202700  1.0  0.1741
  C  C68  1  0.371700  0.955500  0.200500  1.0  -0.1896
  C  C69  1  0.000000  0.000000  0.594500  1.0  0.1088
  C  C70  1  0.000000  0.000000  0.905500  1.0  0.11
  C  C71  1  0.000000  0.000000  0.405500  1.0  0.11
  C  C72  1  0.000000  0.000000  0.094500  1.0  0.1088
  C  C73  1  0.000000  0.564500  0.750000  1.0  0.1153
  C  C74  1  0.000000  0.435500  0.750000  1.0  0.1158
  C  C75  1  0.000000  0.435500  0.250000  1.0  0.1158
  C  C76  1  0.000000  0.564500  0.250000  1.0  0.1153
  C  C77  1  0.564400  0.000000  0.750000  1.0  0.0972
  C  C78  1  0.435600  0.000000  0.750000  1.0  0.0973
  C  C79  1  0.435600  0.000000  0.250000  1.0  0.0973
  C  C80  1  0.564400  0.000000  0.250000  1.0  0.0972
  Br  Br81  1  0.060600  0.796330  0.500000  1.0  -0.3827
  Br  Br82  1  0.939400  0.203670  0.500000  1.0  -0.3834
  Br  Br83  1  0.939400  0.796330  0.000000  1.0  -0.3831
  Br  Br84  1  0.060600  0.203670  0.000000  1.0  -0.3831
  N  N85  1  0.000000  0.000000  0.649300  1.0  -0.4215
  N  N86  1  0.000000  0.000000  0.850700  1.0  -0.4221
  N  N87  1  0.000000  0.000000  0.350700  1.0  -0.4221
  N  N88  1  0.000000  0.000000  0.149300  1.0  -0.4215
  N  N89  1  0.000000  0.811400  0.750000  1.0  -0.3316
  N  N90  1  0.000000  0.188600  0.750000  1.0  -0.3318
  N  N91  1  0.000000  0.188600  0.250000  1.0  -0.3318
  N  N92  1  0.000000  0.811400  0.250000  1.0  -0.3316
  N  N93  1  0.810100  0.000000  0.750000  1.0  -0.3129
  N  N94  1  0.189900  0.000000  0.750000  1.0  -0.3134
  N  N95  1  0.189900  0.000000  0.250000  1.0  -0.3134
  N  N96  1  0.810100  0.000000  0.250000  1.0  -0.3129
