# generated using pymatgen
data_Zr3H14C34(O2F3)6
_symmetry_space_group_name_H-M   'P 1'
_cell_length_a   34.88200000
_cell_length_b   34.88200000
_cell_length_c   12.08600000
_cell_angle_alpha   90.00000000
_cell_angle_beta   90.00000000
_cell_angle_gamma   90.00000000
_symmetry_Int_Tables_number   1
_chemical_formula_structural   Zr3H14C34(O2F3)6
_chemical_formula_sum   'Zr24 H112 C272 O96 F144'
_cell_volume   14705.68792546
_cell_formula_units_Z   8
loop_
 _symmetry_equiv_pos_site_id
 _symmetry_equiv_pos_as_xyz
  1  'x, y, z'
loop_
 _atom_site_type_symbol
 _atom_site_label
 _atom_site_symmetry_multiplicity
 _atom_site_fract_x
 _atom_site_fract_y
 _atom_site_fract_z
 _atom_site_occupancy
 _atom_site_charge
  Zr  Zr1  1  0.454990  0.454990  0.405800  1.0  2.1097
  Zr  Zr2  1  0.476830  0.476830  0.683750  1.0  2.1338
  Zr  Zr3  1  0.045010  0.045010  0.405800  1.0  2.107
  Zr  Zr4  1  0.023170  0.023170  0.683750  1.0  2.1353
  Zr  Zr5  1  0.045010  0.454990  0.905800  1.0  2.1064
  Zr  Zr6  1  0.023170  0.476830  0.183750  1.0  2.1345
  Zr  Zr7  1  0.454990  0.045010  0.905800  1.0  2.1095
  Zr  Zr8  1  0.476830  0.023170  0.183750  1.0  2.1342
  Zr  Zr9  1  0.545010  0.954990  0.094200  1.0  2.108
  Zr  Zr10  1  0.523170  0.976830  0.816250  1.0  2.1355
  Zr  Zr11  1  0.954990  0.545010  0.094200  1.0  2.112
  Zr  Zr12  1  0.976830  0.523170  0.816250  1.0  2.1354
  Zr  Zr13  1  0.954990  0.954990  0.594200  1.0  2.1116
  Zr  Zr14  1  0.976830  0.976830  0.316250  1.0  2.1356
  Zr  Zr15  1  0.545010  0.545010  0.594200  1.0  2.1096
  Zr  Zr16  1  0.523170  0.523170  0.316250  1.0  2.1354
  Zr  Zr17  1  0.450210  0.549790  0.500000  1.0  2.1466
  Zr  Zr18  1  0.049790  0.950210  0.500000  1.0  2.1475
  Zr  Zr19  1  0.950210  0.450210  0.000000  1.0  2.1465
  Zr  Zr20  1  0.549790  0.049790  0.000000  1.0  2.1472
  Zr  Zr21  1  0.549790  0.450210  0.500000  1.0  2.1496
  Zr  Zr22  1  0.950210  0.049790  0.500000  1.0  2.1487
  Zr  Zr23  1  0.049790  0.549790  0.000000  1.0  2.1493
  Zr  Zr24  1  0.450210  0.950210  0.000000  1.0  2.1487
  H  H25  1  0.332200  0.568300  0.416100  1.0  0.1814
  H  H26  1  0.327100  0.457200  0.319500  1.0  0.1758
  H  H27  1  0.266100  0.574300  0.387900  1.0  0.3651
  H  H28  1  0.161100  0.554200  0.117000  1.0  0.173
  H  H29  1  0.225300  0.547600  0.169900  1.0  0.1791
  H  H30  1  0.127700  0.502000  0.400700  1.0  0.1833
  H  H31  1  0.261000  0.463200  0.291300  1.0  0.2971
  H  H32  1  0.167800  0.931700  0.416100  1.0  0.1812
  H  H33  1  0.172900  0.042800  0.319500  1.0  0.1757
  H  H34  1  0.233900  0.925700  0.387900  1.0  0.3657
  H  H35  1  0.338900  0.945800  0.117000  1.0  0.1731
  H  H36  1  0.274700  0.952400  0.169900  1.0  0.1793
  H  H37  1  0.372300  0.998000  0.400700  1.0  0.1831
  H  H38  1  0.239000  0.036800  0.291300  1.0  0.2959
  H  H39  1  0.931700  0.332200  0.916100  1.0  0.1826
  H  H40  1  0.042800  0.327100  0.819500  1.0  0.1752
  H  H41  1  0.925700  0.266100  0.887900  1.0  0.367
  H  H42  1  0.945800  0.161100  0.617000  1.0  0.1728
  H  H43  1  0.952400  0.225300  0.669900  1.0  0.1798
  H  H44  1  0.998000  0.127700  0.900700  1.0  0.1836
  H  H45  1  0.036800  0.261000  0.791300  1.0  0.298
  H  H46  1  0.568300  0.167800  0.916100  1.0  0.1828
  H  H47  1  0.457200  0.172900  0.819500  1.0  0.1751
  H  H48  1  0.574300  0.233900  0.887900  1.0  0.3665
  H  H49  1  0.554200  0.338900  0.617000  1.0  0.1727
  H  H50  1  0.547600  0.274700  0.669900  1.0  0.1803
  H  H51  1  0.502000  0.372300  0.900700  1.0  0.1838
  H  H52  1  0.463200  0.239000  0.791300  1.0  0.3001
  H  H53  1  0.667800  0.068300  0.083900  1.0  0.1816
  H  H54  1  0.672900  0.957200  0.180500  1.0  0.1746
  H  H55  1  0.733900  0.074300  0.112100  1.0  0.3634
  H  H56  1  0.838900  0.054200  0.383000  1.0  0.1731
  H  H57  1  0.774700  0.047600  0.330100  1.0  0.1795
  H  H58  1  0.872300  0.002000  0.099300  1.0  0.1833
  H  H59  1  0.739000  0.963200  0.208700  1.0  0.2968
  H  H60  1  0.832200  0.431700  0.083900  1.0  0.1823
  H  H61  1  0.827100  0.542800  0.180500  1.0  0.175
  H  H62  1  0.766100  0.425700  0.112100  1.0  0.3668
  H  H63  1  0.661100  0.445800  0.383000  1.0  0.1737
  H  H64  1  0.725300  0.452400  0.330100  1.0  0.1799
  H  H65  1  0.627700  0.498000  0.099300  1.0  0.183
  H  H66  1  0.761000  0.536800  0.208700  1.0  0.2971
  H  H67  1  0.068300  0.832200  0.583900  1.0  0.1831
  H  H68  1  0.957200  0.827100  0.680500  1.0  0.1752
  H  H69  1  0.074300  0.766100  0.612100  1.0  0.3658
  H  H70  1  0.054200  0.661100  0.883000  1.0  0.173
  H  H71  1  0.047600  0.725300  0.830100  1.0  0.1798
  H  H72  1  0.002000  0.627700  0.599300  1.0  0.1832
  H  H73  1  0.963200  0.761000  0.708700  1.0  0.3005
  H  H74  1  0.431700  0.667800  0.583900  1.0  0.1822
  H  H75  1  0.542800  0.672900  0.680500  1.0  0.175
  H  H76  1  0.425700  0.733900  0.612100  1.0  0.3669
  H  H77  1  0.445800  0.838900  0.883000  1.0  0.1726
  H  H78  1  0.452400  0.774700  0.830100  1.0  0.1804
  H  H79  1  0.498000  0.872300  0.599300  1.0  0.1833
  H  H80  1  0.536800  0.739000  0.708700  1.0  0.2988
  H  H81  1  0.667800  0.431700  0.583900  1.0  0.1813
  H  H82  1  0.672900  0.542800  0.680500  1.0  0.1759
  H  H83  1  0.733900  0.425700  0.612100  1.0  0.3651
  H  H84  1  0.838900  0.445800  0.883000  1.0  0.1738
  H  H85  1  0.774700  0.452400  0.830100  1.0  0.1798
  H  H86  1  0.872300  0.498000  0.599300  1.0  0.1836
  H  H87  1  0.739000  0.536800  0.708700  1.0  0.2962
  H  H88  1  0.832200  0.068300  0.583900  1.0  0.1812
  H  H89  1  0.827100  0.957200  0.680500  1.0  0.1756
  H  H90  1  0.766100  0.074300  0.612100  1.0  0.3655
  H  H91  1  0.661100  0.054200  0.883000  1.0  0.1729
  H  H92  1  0.725300  0.047600  0.830100  1.0  0.1794
  H  H93  1  0.627700  0.002000  0.599300  1.0  0.183
  H  H94  1  0.761000  0.963200  0.708700  1.0  0.2979
  H  H95  1  0.068300  0.667800  0.083900  1.0  0.1833
  H  H96  1  0.957200  0.672900  0.180500  1.0  0.1751
  H  H97  1  0.074300  0.733900  0.112100  1.0  0.3661
  H  H98  1  0.054200  0.838900  0.383000  1.0  0.1726
  H  H99  1  0.047600  0.774700  0.330100  1.0  0.1805
  H  H100  1  0.002000  0.872300  0.099300  1.0  0.1838
  H  H101  1  0.963200  0.739000  0.208700  1.0  0.3008
  H  H102  1  0.431700  0.832200  0.083900  1.0  0.1825
  H  H103  1  0.542800  0.827100  0.180500  1.0  0.1749
  H  H104  1  0.425700  0.766100  0.112100  1.0  0.3668
  H  H105  1  0.445800  0.661100  0.383000  1.0  0.1733
  H  H106  1  0.452400  0.725300  0.330100  1.0  0.1801
  H  H107  1  0.498000  0.627700  0.099300  1.0  0.1831
  H  H108  1  0.536800  0.761000  0.208700  1.0  0.299
  H  H109  1  0.332200  0.931700  0.916100  1.0  0.1816
  H  H110  1  0.327100  0.042800  0.819500  1.0  0.1751
  H  H111  1  0.266100  0.925700  0.887900  1.0  0.3669
  H  H112  1  0.161100  0.945800  0.617000  1.0  0.1731
  H  H113  1  0.225300  0.952400  0.669900  1.0  0.1794
  H  H114  1  0.127700  0.998000  0.900700  1.0  0.1829
  H  H115  1  0.261000  0.036800  0.791300  1.0  0.2968
  H  H116  1  0.167800  0.568300  0.916100  1.0  0.1816
  H  H117  1  0.172900  0.457200  0.819500  1.0  0.1746
  H  H118  1  0.233900  0.574300  0.887900  1.0  0.3632
  H  H119  1  0.338900  0.554200  0.617000  1.0  0.173
  H  H120  1  0.274700  0.547600  0.669900  1.0  0.1793
  H  H121  1  0.372300  0.502000  0.900700  1.0  0.1832
  H  H122  1  0.239000  0.463200  0.791300  1.0  0.2959
  H  H123  1  0.931700  0.167800  0.416100  1.0  0.1818
  H  H124  1  0.042800  0.172900  0.319500  1.0  0.1753
  H  H125  1  0.925700  0.233900  0.387900  1.0  0.3669
  H  H126  1  0.945800  0.338900  0.117000  1.0  0.1728
  H  H127  1  0.952400  0.274700  0.169900  1.0  0.1799
  H  H128  1  0.998000  0.372300  0.400700  1.0  0.1834
  H  H129  1  0.036800  0.239000  0.291300  1.0  0.2981
  H  H130  1  0.568300  0.332200  0.416100  1.0  0.1828
  H  H131  1  0.457200  0.327100  0.319500  1.0  0.1751
  H  H132  1  0.574300  0.266100  0.387900  1.0  0.3666
  H  H133  1  0.554200  0.161100  0.117000  1.0  0.1726
  H  H134  1  0.547600  0.225300  0.169900  1.0  0.1798
  H  H135  1  0.502000  0.127700  0.400700  1.0  0.1836
  H  H136  1  0.463200  0.261000  0.291300  1.0  0.3
  C  C137  1  0.378520  0.510100  0.390200  1.0  0.8035
  C  C138  1  0.335880  0.512210  0.370500  1.0  -0.0532
  C  C139  1  0.317750  0.546990  0.390800  1.0  -0.1146
  C  C140  1  0.257340  0.519300  0.337000  1.0  0.0233
  C  C141  1  0.314740  0.480980  0.333400  1.0  -0.1188
  C  C142  1  0.278480  0.550540  0.374000  1.0  -0.0145
  C  C143  1  0.275470  0.484510  0.316600  1.0  -0.0465
  C  C144  1  0.256900  0.447600  0.276000  1.0  0.0616
  C  C145  1  0.097130  0.533190  0.218300  1.0  0.7797
  C  C146  1  0.138330  0.528720  0.253800  1.0  -0.0608
  C  C147  1  0.167340  0.542260  0.185400  1.0  0.0535
  C  C148  1  0.205470  0.538380  0.216800  1.0  -0.1374
  C  C149  1  0.214620  0.520950  0.316800  1.0  0.1121
  C  C150  1  0.185610  0.507410  0.385300  1.0  0.1672
  C  C151  1  0.147480  0.511300  0.353800  1.0  -0.019
  C  C152  1  0.195700  0.490100  0.484700  1.0  0.3432
  C  C153  1  0.262200  0.587800  0.397300  1.0  0.0442
  C  C154  1  0.121480  0.989900  0.390200  1.0  0.8014
  C  C155  1  0.164120  0.987790  0.370500  1.0  -0.0526
  C  C156  1  0.182250  0.953010  0.390800  1.0  -0.1161
  C  C157  1  0.242660  0.980700  0.337000  1.0  0.0228
  C  C158  1  0.185260  0.019020  0.333400  1.0  -0.1198
  C  C159  1  0.221520  0.949460  0.374000  1.0  -0.018
  C  C160  1  0.224530  0.015490  0.316600  1.0  -0.0492
  C  C161  1  0.243100  0.052400  0.276000  1.0  0.0596
  C  C162  1  0.402870  0.966810  0.218300  1.0  0.7809
  C  C163  1  0.361670  0.971280  0.253800  1.0  -0.0622
  C  C164  1  0.332660  0.957740  0.185400  1.0  0.0532
  C  C165  1  0.294530  0.961620  0.216800  1.0  -0.1373
  C  C166  1  0.285380  0.979050  0.316800  1.0  0.1129
  C  C167  1  0.314390  0.992590  0.385300  1.0  0.1658
  C  C168  1  0.352520  0.988700  0.353800  1.0  -0.0182
  C  C169  1  0.304300  0.009900  0.484700  1.0  0.3441
  C  C170  1  0.237800  0.912200  0.397300  1.0  0.0437
  C  C171  1  0.989900  0.378520  0.890200  1.0  0.8038
  C  C172  1  0.987790  0.335880  0.870500  1.0  -0.0478
  C  C173  1  0.953010  0.317750  0.890800  1.0  -0.1174
  C  C174  1  0.980700  0.257340  0.837000  1.0  0.0225
  C  C175  1  0.019020  0.314740  0.833400  1.0  -0.1166
  C  C176  1  0.949460  0.278480  0.874000  1.0  -0.0132
  C  C177  1  0.015490  0.275470  0.816600  1.0  -0.045
  C  C178  1  0.052400  0.256900  0.776000  1.0  0.0559
  C  C179  1  0.966810  0.097130  0.718300  1.0  0.7798
  C  C180  1  0.971280  0.138330  0.753800  1.0  -0.0595
  C  C181  1  0.957740  0.167340  0.685400  1.0  0.0519
  C  C182  1  0.961620  0.205470  0.716800  1.0  -0.1416
  C  C183  1  0.979050  0.214620  0.816800  1.0  0.1126
  C  C184  1  0.992590  0.185610  0.885300  1.0  0.1694
  C  C185  1  0.988700  0.147480  0.853800  1.0  -0.0164
  C  C186  1  0.009900  0.195700  0.984700  1.0  0.3434
  C  C187  1  0.912200  0.262200  0.897300  1.0  0.0412
  C  C188  1  0.510100  0.121480  0.890200  1.0  0.8029
  C  C189  1  0.512210  0.164120  0.870500  1.0  -0.0486
  C  C190  1  0.546990  0.182250  0.890800  1.0  -0.1173
  C  C191  1  0.519300  0.242660  0.837000  1.0  0.0226
  C  C192  1  0.480980  0.185260  0.833400  1.0  -0.1198
  C  C193  1  0.550540  0.221520  0.874000  1.0  -0.0138
  C  C194  1  0.484510  0.224530  0.816600  1.0  -0.044
  C  C195  1  0.447600  0.243100  0.776000  1.0  0.0539
  C  C196  1  0.533190  0.402870  0.718300  1.0  0.7791
  C  C197  1  0.528720  0.361670  0.753800  1.0  -0.0616
  C  C198  1  0.542260  0.332660  0.685400  1.0  0.0527
  C  C199  1  0.538380  0.294530  0.716800  1.0  -0.1399
  C  C200  1  0.520950  0.285380  0.816800  1.0  0.1133
  C  C201  1  0.507410  0.314390  0.885300  1.0  0.1703
  C  C202  1  0.511300  0.352520  0.853800  1.0  -0.017
  C  C203  1  0.490100  0.304300  0.984700  1.0  0.341
  C  C204  1  0.587800  0.237800  0.897300  1.0  0.0392
  C  C205  1  0.621480  0.010100  0.109800  1.0  0.8011
  C  C206  1  0.664120  0.012210  0.129500  1.0  -0.0524
  C  C207  1  0.682250  0.046990  0.109200  1.0  -0.1155
  C  C208  1  0.742660  0.019300  0.163000  1.0  0.0227
  C  C209  1  0.685260  0.980980  0.166600  1.0  -0.1194
  C  C210  1  0.721520  0.050540  0.126000  1.0  -0.018
  C  C211  1  0.724530  0.984510  0.183400  1.0  -0.0455
  C  C212  1  0.743100  0.947600  0.224000  1.0  0.0616
  C  C213  1  0.902870  0.033190  0.281700  1.0  0.7801
  C  C214  1  0.861670  0.028720  0.246200  1.0  -0.0626
  C  C215  1  0.832660  0.042260  0.314600  1.0  0.0532
  C  C216  1  0.794530  0.038380  0.283200  1.0  -0.1363
  C  C217  1  0.785380  0.020950  0.183200  1.0  0.112
  C  C218  1  0.814390  0.007410  0.114700  1.0  0.1653
  C  C219  1  0.852520  0.011300  0.146200  1.0  -0.0187
  C  C220  1  0.804300  0.990100  0.015300  1.0  0.3444
  C  C221  1  0.737800  0.087800  0.102700  1.0  0.0441
  C  C222  1  0.878520  0.489900  0.109800  1.0  0.8031
  C  C223  1  0.835880  0.487790  0.129500  1.0  -0.0534
  C  C224  1  0.817750  0.453010  0.109200  1.0  -0.1143
  C  C225  1  0.757340  0.480700  0.163000  1.0  0.0229
  C  C226  1  0.814740  0.519020  0.166600  1.0  -0.1184
  C  C227  1  0.778480  0.449460  0.126000  1.0  -0.014
  C  C228  1  0.775470  0.515490  0.183400  1.0  -0.0482
  C  C229  1  0.756900  0.552400  0.224000  1.0  0.0596
  C  C230  1  0.597130  0.466810  0.281700  1.0  0.7811
  C  C231  1  0.638330  0.471280  0.246200  1.0  -0.0618
  C  C232  1  0.667340  0.457740  0.314600  1.0  0.0535
  C  C233  1  0.705470  0.461620  0.283200  1.0  -0.1369
  C  C234  1  0.714620  0.479050  0.183200  1.0  0.1119
  C  C235  1  0.685610  0.492590  0.114700  1.0  0.1651
  C  C236  1  0.647480  0.488700  0.146200  1.0  -0.0183
  C  C237  1  0.695700  0.509900  0.015300  1.0  0.3424
  C  C238  1  0.762200  0.412200  0.102700  1.0  0.0445
  C  C239  1  0.010100  0.878520  0.609800  1.0  0.8029
  C  C240  1  0.012210  0.835880  0.629500  1.0  -0.0456
  C  C241  1  0.046990  0.817750  0.609200  1.0  -0.1132
  C  C242  1  0.019300  0.757340  0.663000  1.0  0.0169
  C  C243  1  0.980980  0.814740  0.666667  1.0  -0.1208
  C  C244  1  0.050540  0.778480  0.626000  1.0  -0.0129
  C  C245  1  0.984510  0.775470  0.683400  1.0  -0.0482
  C  C246  1  0.947600  0.756900  0.724000  1.0  0.0545
  C  C247  1  0.033190  0.597130  0.781700  1.0  0.7787
  C  C248  1  0.028720  0.638330  0.746200  1.0  -0.0607
  C  C249  1  0.042260  0.667340  0.814600  1.0  0.053
  C  C250  1  0.038380  0.705470  0.783200  1.0  -0.1389
  C  C251  1  0.020950  0.714620  0.683200  1.0  0.1129
  C  C252  1  0.007410  0.685610  0.614700  1.0  0.1687
  C  C253  1  0.011300  0.647480  0.646200  1.0  -0.0147
  C  C254  1  0.990100  0.695700  0.515300  1.0  0.3428
  C  C255  1  0.087800  0.762200  0.602700  1.0  0.0404
  C  C256  1  0.489900  0.621480  0.609800  1.0  0.8038
  C  C257  1  0.487790  0.664120  0.629500  1.0  -0.0463
  C  C258  1  0.453010  0.682250  0.609200  1.0  -0.1165
  C  C259  1  0.480700  0.742660  0.663000  1.0  0.0166
  C  C260  1  0.519020  0.685260  0.666667  1.0  -0.1208
  C  C261  1  0.449460  0.721520  0.626000  1.0  -0.0122
  C  C262  1  0.515490  0.724530  0.683400  1.0  -0.046
  C  C263  1  0.552400  0.743100  0.724000  1.0  0.0556
  C  C264  1  0.466810  0.902870  0.781700  1.0  0.7798
  C  C265  1  0.471280  0.861670  0.746200  1.0  -0.0613
  C  C266  1  0.457740  0.832660  0.814600  1.0  0.0524
  C  C267  1  0.461620  0.794530  0.783200  1.0  -0.1407
  C  C268  1  0.479050  0.785380  0.683200  1.0  0.1113
  C  C269  1  0.492590  0.814390  0.614700  1.0  0.1685
  C  C270  1  0.488700  0.852520  0.646200  1.0  -0.0171
  C  C271  1  0.509900  0.804300  0.515300  1.0  0.3418
  C  C272  1  0.412200  0.737800  0.602700  1.0  0.043
  C  C273  1  0.621480  0.489900  0.609800  1.0  0.8009
  C  C274  1  0.664120  0.487790  0.629500  1.0  -0.0503
  C  C275  1  0.682250  0.453010  0.609200  1.0  -0.1153
  C  C276  1  0.742660  0.480700  0.663000  1.0  0.0169
  C  C277  1  0.685260  0.519020  0.666667  1.0  -0.1222
  C  C278  1  0.721520  0.449460  0.626000  1.0  -0.0183
  C  C279  1  0.724530  0.515490  0.683400  1.0  -0.0494
  C  C280  1  0.743100  0.552400  0.724000  1.0  0.0591
  C  C281  1  0.902870  0.466810  0.781700  1.0  0.7797
  C  C282  1  0.861670  0.471280  0.746200  1.0  -0.0629
  C  C283  1  0.832660  0.457740  0.814600  1.0  0.0537
  C  C284  1  0.794530  0.461620  0.783200  1.0  -0.136
  C  C285  1  0.785380  0.479050  0.683200  1.0  0.1124
  C  C286  1  0.814390  0.492590  0.614700  1.0  0.1649
  C  C287  1  0.852520  0.488700  0.646200  1.0  -0.0187
  C  C288  1  0.804300  0.509900  0.515300  1.0  0.3436
  C  C289  1  0.737800  0.412200  0.602700  1.0  0.0445
  C  C290  1  0.878520  0.010100  0.609800  1.0  0.8029
  C  C291  1  0.835880  0.012210  0.629500  1.0  -0.0509
  C  C292  1  0.817750  0.046990  0.609200  1.0  -0.1137
  C  C293  1  0.757340  0.019300  0.663000  1.0  0.0177
  C  C294  1  0.814740  0.980980  0.666667  1.0  -0.1206
  C  C295  1  0.778480  0.050540  0.626000  1.0  -0.0134
  C  C296  1  0.775470  0.984510  0.683400  1.0  -0.0485
  C  C297  1  0.756900  0.947600  0.724000  1.0  0.0617
  C  C298  1  0.597130  0.033190  0.781700  1.0  0.7809
  C  C299  1  0.638330  0.028720  0.746200  1.0  -0.0614
  C  C300  1  0.667340  0.042260  0.814600  1.0  0.0533
  C  C301  1  0.705470  0.038380  0.783200  1.0  -0.1367
  C  C302  1  0.714620  0.020950  0.683200  1.0  0.1114
  C  C303  1  0.685610  0.007410  0.614700  1.0  0.1654
  C  C304  1  0.647480  0.011300  0.646200  1.0  -0.0184
  C  C305  1  0.695700  0.990100  0.515300  1.0  0.3434
  C  C306  1  0.762200  0.087800  0.602700  1.0  0.0447
  C  C307  1  0.010100  0.621480  0.109800  1.0  0.8032
  C  C308  1  0.012210  0.664120  0.129500  1.0  -0.0474
  C  C309  1  0.046990  0.682250  0.109200  1.0  -0.1158
  C  C310  1  0.019300  0.742660  0.163000  1.0  0.0224
  C  C311  1  0.980980  0.685260  0.166600  1.0  -0.1197
  C  C312  1  0.050540  0.721520  0.126000  1.0  -0.0128
  C  C313  1  0.984510  0.724530  0.183400  1.0  -0.0438
  C  C314  1  0.947600  0.743100  0.224000  1.0  0.0539
  C  C315  1  0.033190  0.902870  0.281700  1.0  0.7792
  C  C316  1  0.028720  0.861670  0.246200  1.0  -0.0621
  C  C317  1  0.042260  0.832660  0.314600  1.0  0.0525
  C  C318  1  0.038380  0.794530  0.283200  1.0  -0.1387
  C  C319  1  0.020950  0.785380  0.183200  1.0  0.1123
  C  C320  1  0.007410  0.814390  0.114700  1.0  0.1688
  C  C321  1  0.011300  0.852520  0.146200  1.0  -0.0173
  C  C322  1  0.990100  0.804300  0.015300  1.0  0.3416
  C  C323  1  0.087800  0.737800  0.102700  1.0  0.0401
  C  C324  1  0.489900  0.878520  0.109800  1.0  0.8036
  C  C325  1  0.487790  0.835880  0.129500  1.0  -0.0474
  C  C326  1  0.453010  0.817750  0.109200  1.0  -0.1165
  C  C327  1  0.480700  0.757340  0.163000  1.0  0.0222
  C  C328  1  0.519020  0.814740  0.166600  1.0  -0.1169
  C  C329  1  0.449460  0.778480  0.126000  1.0  -0.013
  C  C330  1  0.515490  0.775470  0.183400  1.0  -0.0442
  C  C331  1  0.552400  0.756900  0.224000  1.0  0.0567
  C  C332  1  0.466810  0.597130  0.281700  1.0  0.7792
  C  C333  1  0.471280  0.638330  0.246200  1.0  -0.0599
  C  C334  1  0.457740  0.667340  0.314600  1.0  0.0524
  C  C335  1  0.461620  0.705470  0.283200  1.0  -0.1407
  C  C336  1  0.479050  0.714620  0.183200  1.0  0.1118
  C  C337  1  0.492590  0.685610  0.114700  1.0  0.1687
  C  C338  1  0.488700  0.647480  0.146200  1.0  -0.0161
  C  C339  1  0.509900  0.695700  0.015300  1.0  0.3437
  C  C340  1  0.412200  0.762200  0.102700  1.0  0.0422
  C  C341  1  0.378520  0.989900  0.890200  1.0  0.8036
  C  C342  1  0.335880  0.987790  0.870500  1.0  -0.0532
  C  C343  1  0.317750  0.953010  0.890800  1.0  -0.1152
  C  C344  1  0.257340  0.980700  0.837000  1.0  0.0231
  C  C345  1  0.314740  0.019020  0.833400  1.0  -0.1184
  C  C346  1  0.278480  0.949460  0.874000  1.0  -0.0144
  C  C347  1  0.275470  0.015490  0.816600  1.0  -0.0482
  C  C348  1  0.256900  0.052400  0.776000  1.0  0.0599
  C  C349  1  0.097130  0.966810  0.718300  1.0  0.7803
  C  C350  1  0.138330  0.971280  0.753800  1.0  -0.0611
  C  C351  1  0.167340  0.957740  0.685400  1.0  0.0531
  C  C352  1  0.205470  0.961620  0.716800  1.0  -0.1381
  C  C353  1  0.214620  0.979050  0.816800  1.0  0.1125
  C  C354  1  0.185610  0.992590  0.885300  1.0  0.167
  C  C355  1  0.147480  0.988700  0.853800  1.0  -0.0191
  C  C356  1  0.195700  0.009900  0.984700  1.0  0.3422
  C  C357  1  0.262200  0.912200  0.897300  1.0  0.0443
  C  C358  1  0.121480  0.510100  0.890200  1.0  0.8014
  C  C359  1  0.164120  0.512210  0.870500  1.0  -0.0526
  C  C360  1  0.182250  0.546990  0.890800  1.0  -0.1159
  C  C361  1  0.242660  0.519300  0.837000  1.0  0.0229
  C  C362  1  0.185260  0.480980  0.833400  1.0  -0.1196
  C  C363  1  0.221520  0.550540  0.874000  1.0  -0.018
  C  C364  1  0.224530  0.484510  0.816600  1.0  -0.0467
  C  C365  1  0.243100  0.447600  0.776000  1.0  0.0607
  C  C366  1  0.402870  0.533190  0.718300  1.0  0.7806
  C  C367  1  0.361670  0.528720  0.753800  1.0  -0.0622
  C  C368  1  0.332660  0.542260  0.685400  1.0  0.0534
  C  C369  1  0.294530  0.538380  0.716800  1.0  -0.1375
  C  C370  1  0.285380  0.520950  0.816800  1.0  0.1127
  C  C371  1  0.314390  0.507410  0.885300  1.0  0.1661
  C  C372  1  0.352520  0.511300  0.853800  1.0  -0.0182
  C  C373  1  0.304300  0.490100  0.984700  1.0  0.3449
  C  C374  1  0.237800  0.587800  0.897300  1.0  0.0435
  C  C375  1  0.989900  0.121480  0.390200  1.0  0.8038
  C  C376  1  0.987790  0.164120  0.370500  1.0  -0.0488
  C  C377  1  0.953010  0.182250  0.390800  1.0  -0.1173
  C  C378  1  0.980700  0.242660  0.337000  1.0  0.0224
  C  C379  1  0.019020  0.185260  0.333400  1.0  -0.1198
  C  C380  1  0.949460  0.221520  0.374000  1.0  -0.0133
  C  C381  1  0.015490  0.224530  0.316600  1.0  -0.0453
  C  C382  1  0.052400  0.243100  0.276000  1.0  0.056
  C  C383  1  0.966810  0.402870  0.218300  1.0  0.7792
  C  C384  1  0.971280  0.361670  0.253800  1.0  -0.0608
  C  C385  1  0.957740  0.332660  0.185400  1.0  0.0528
  C  C386  1  0.961620  0.294530  0.216800  1.0  -0.1416
  C  C387  1  0.979050  0.285380  0.316800  1.0  0.1121
  C  C388  1  0.992590  0.314390  0.385300  1.0  0.17
  C  C389  1  0.988700  0.352520  0.353800  1.0  -0.0164
  C  C390  1  0.009900  0.304300  0.484700  1.0  0.3418
  C  C391  1  0.912200  0.237800  0.397300  1.0  0.0418
  C  C392  1  0.510100  0.378520  0.390200  1.0  0.8031
  C  C393  1  0.512210  0.335880  0.370500  1.0  -0.048
  C  C394  1  0.546990  0.317750  0.390800  1.0  -0.1147
  C  C395  1  0.519300  0.257340  0.337000  1.0  0.0227
  C  C396  1  0.480980  0.314740  0.333400  1.0  -0.1193
  C  C397  1  0.550540  0.278480  0.374000  1.0  -0.0132
  C  C398  1  0.484510  0.275470  0.316600  1.0  -0.0449
  C  C399  1  0.447600  0.256900  0.276000  1.0  0.054
  C  C400  1  0.533190  0.097130  0.218300  1.0  0.78
  C  C401  1  0.528720  0.138330  0.253800  1.0  -0.0602
  C  C402  1  0.542260  0.167340  0.185400  1.0  0.0521
  C  C403  1  0.538380  0.205470  0.216800  1.0  -0.14
  C  C404  1  0.520950  0.214620  0.316800  1.0  0.1137
  C  C405  1  0.507410  0.185610  0.385300  1.0  0.1693
  C  C406  1  0.511300  0.147480  0.353800  1.0  -0.0155
  C  C407  1  0.490100  0.195700  0.484700  1.0  0.3421
  C  C408  1  0.587800  0.262200  0.397300  1.0  0.0397
  O  O409  1  0.394550  0.539410  0.429400  1.0  -0.5285
  O  O410  1  0.395370  0.478800  0.368100  1.0  -0.6368
  O  O411  1  0.073910  0.507730  0.259900  1.0  -0.6162
  O  O412  1  0.090600  0.554430  0.137900  1.0  -0.5479
  O  O413  1  0.440700  0.489700  0.542900  1.0  -1.0188
  O  O414  1  0.485950  0.535200  0.640500  1.0  -1.042
  O  O415  1  0.105450  0.960590  0.429400  1.0  -0.5278
  O  O416  1  0.104630  0.021200  0.368100  1.0  -0.6371
  O  O417  1  0.426090  0.992270  0.259900  1.0  -0.6145
  O  O418  1  0.409400  0.945570  0.137900  1.0  -0.549
  O  O419  1  0.059300  0.010300  0.542900  1.0  -1.0172
  O  O420  1  0.014050  0.964800  0.640500  1.0  -1.0433
  O  O421  1  0.960590  0.394550  0.929400  1.0  -0.5284
  O  O422  1  0.021200  0.395370  0.868100  1.0  -0.6376
  O  O423  1  0.992270  0.073910  0.759900  1.0  -0.6151
  O  O424  1  0.945570  0.090600  0.637900  1.0  -0.5512
  O  O425  1  0.010300  0.440700  0.042900  1.0  -1.0181
  O  O426  1  0.964800  0.485950  0.140500  1.0  -1.0423
  O  O427  1  0.539410  0.105450  0.929400  1.0  -0.5286
  O  O428  1  0.478800  0.104630  0.868100  1.0  -0.6357
  O  O429  1  0.507730  0.426090  0.759900  1.0  -0.6163
  O  O430  1  0.554430  0.409400  0.637900  1.0  -0.5519
  O  O431  1  0.489700  0.059300  0.042900  1.0  -1.019
  O  O432  1  0.535200  0.014050  0.140500  1.0  -1.0423
  O  O433  1  0.605450  0.039410  0.070600  1.0  -0.5291
  O  O434  1  0.604630  0.978800  0.131900  1.0  -0.6373
  O  O435  1  0.926090  0.007730  0.240100  1.0  -0.6132
  O  O436  1  0.909400  0.054430  0.362100  1.0  -0.5487
  O  O437  1  0.559300  0.989700  0.957100  1.0  -1.0184
  O  O438  1  0.514050  0.035200  0.859500  1.0  -1.0445
  O  O439  1  0.894550  0.460590  0.070600  1.0  -0.5273
  O  O440  1  0.895370  0.521200  0.131900  1.0  -0.6359
  O  O441  1  0.573910  0.492270  0.240100  1.0  -0.616
  O  O442  1  0.590600  0.445570  0.362100  1.0  -0.5487
  O  O443  1  0.940700  0.510300  0.957100  1.0  -1.0192
  O  O444  1  0.985950  0.464800  0.859500  1.0  -1.0445
  O  O445  1  0.039410  0.894550  0.570600  1.0  -0.5288
  O  O446  1  0.978800  0.895370  0.631900  1.0  -0.6367
  O  O447  1  0.007730  0.573910  0.740100  1.0  -0.6153
  O  O448  1  0.054430  0.590600  0.862100  1.0  -0.5511
  O  O449  1  0.989700  0.940700  0.457100  1.0  -1.0206
  O  O450  1  0.035200  0.985950  0.359500  1.0  -1.0451
  O  O451  1  0.460590  0.605450  0.570600  1.0  -0.5281
  O  O452  1  0.521200  0.604630  0.631900  1.0  -0.6385
  O  O453  1  0.492270  0.926090  0.740100  1.0  -0.6153
  O  O454  1  0.445570  0.909400  0.862100  1.0  -0.5517
  O  O455  1  0.510300  0.559300  0.457100  1.0  -1.0181
  O  O456  1  0.464800  0.514050  0.359500  1.0  -1.0437
  O  O457  1  0.605450  0.460590  0.570600  1.0  -0.5276
  O  O458  1  0.604630  0.521200  0.631900  1.0  -0.6371
  O  O459  1  0.926090  0.492270  0.740100  1.0  -0.6168
  O  O460  1  0.909400  0.445570  0.862100  1.0  -0.5488
  O  O461  1  0.559300  0.510300  0.457100  1.0  -1.0191
  O  O462  1  0.514050  0.464800  0.359500  1.0  -1.0444
  O  O463  1  0.894550  0.039410  0.570600  1.0  -0.529
  O  O464  1  0.895370  0.978800  0.631900  1.0  -0.6372
  O  O465  1  0.573910  0.007730  0.740100  1.0  -0.6181
  O  O466  1  0.590600  0.054430  0.862100  1.0  -0.5483
  O  O467  1  0.940700  0.989700  0.457100  1.0  -1.019
  O  O468  1  0.985950  0.035200  0.359500  1.0  -1.0449
  O  O469  1  0.039410  0.605450  0.070600  1.0  -0.529
  O  O470  1  0.978800  0.604630  0.131900  1.0  -0.6363
  O  O471  1  0.007730  0.926090  0.240100  1.0  -0.6191
  O  O472  1  0.054430  0.909400  0.362100  1.0  -0.5515
  O  O473  1  0.989700  0.559300  0.957100  1.0  -1.0204
  O  O474  1  0.035200  0.514050  0.859500  1.0  -1.0448
  O  O475  1  0.460590  0.894550  0.070600  1.0  -0.5282
  O  O476  1  0.521200  0.895370  0.131900  1.0  -0.6384
  O  O477  1  0.492270  0.573910  0.240100  1.0  -0.6164
  O  O478  1  0.445570  0.590600  0.362100  1.0  -0.5516
  O  O479  1  0.510300  0.940700  0.957100  1.0  -1.0183
  O  O480  1  0.464800  0.985950  0.859500  1.0  -1.044
  O  O481  1  0.394550  0.960590  0.929400  1.0  -0.5272
  O  O482  1  0.395370  0.021200  0.868100  1.0  -0.6363
  O  O483  1  0.073910  0.992270  0.759900  1.0  -0.6187
  O  O484  1  0.090600  0.945570  0.637900  1.0  -0.5487
  O  O485  1  0.440700  0.010300  0.042900  1.0  -1.0175
  O  O486  1  0.485950  0.964800  0.140500  1.0  -1.042
  O  O487  1  0.105450  0.539410  0.929400  1.0  -0.5288
  O  O488  1  0.104630  0.478800  0.868100  1.0  -0.6371
  O  O489  1  0.426090  0.507730  0.759900  1.0  -0.6174
  O  O490  1  0.409400  0.554430  0.637900  1.0  -0.5484
  O  O491  1  0.059300  0.489700  0.042900  1.0  -1.0183
  O  O492  1  0.014050  0.535200  0.140500  1.0  -1.0433
  O  O493  1  0.960590  0.105450  0.429400  1.0  -0.5284
  O  O494  1  0.021200  0.104630  0.368100  1.0  -0.6383
  O  O495  1  0.992270  0.426090  0.259900  1.0  -0.6174
  O  O496  1  0.945570  0.409400  0.137900  1.0  -0.5516
  O  O497  1  0.010300  0.059300  0.542900  1.0  -1.0168
  O  O498  1  0.964800  0.014050  0.640500  1.0  -1.0428
  O  O499  1  0.539410  0.394550  0.429400  1.0  -0.5284
  O  O500  1  0.478800  0.395370  0.368100  1.0  -0.6359
  O  O501  1  0.507730  0.073910  0.259900  1.0  -0.6185
  O  O502  1  0.554430  0.090600  0.137900  1.0  -0.5516
  O  O503  1  0.489700  0.440700  0.542900  1.0  -1.0202
  O  O504  1  0.535200  0.485950  0.640500  1.0  -1.0416
  F  F505  1  0.232400  0.449500  0.189700  1.0  -0.296
  F  F506  1  0.279500  0.417600  0.250000  1.0  -0.2161
  F  F507  1  0.234200  0.432800  0.357900  1.0  -0.2999
  F  F508  1  0.167000  0.481500  0.552500  1.0  -0.1223
  F  F509  1  0.210000  0.452800  0.465300  1.0  -0.3523
  F  F510  1  0.222700  0.503400  0.550300  1.0  -0.1552
  F  F511  1  0.251600  0.609600  0.319500  1.0  -0.2437
  F  F512  1  0.229900  0.584900  0.460700  1.0  -0.274
  F  F513  1  0.282300  0.611800  0.464700  1.0  -0.2248
  F  F514  1  0.267600  0.050500  0.189700  1.0  -0.2971
  F  F515  1  0.220500  0.082400  0.250000  1.0  -0.2172
  F  F516  1  0.265800  0.067200  0.357900  1.0  -0.2961
  F  F517  1  0.333000  0.018500  0.552500  1.0  -0.1213
  F  F518  1  0.290000  0.047200  0.465300  1.0  -0.3522
  F  F519  1  0.277300  0.996600  0.550300  1.0  -0.1571
  F  F520  1  0.248400  0.890400  0.319500  1.0  -0.2456
  F  F521  1  0.270100  0.915100  0.460700  1.0  -0.2781
  F  F522  1  0.217700  0.888200  0.464700  1.0  -0.2224
  F  F523  1  0.050500  0.232400  0.689700  1.0  -0.3006
  F  F524  1  0.082400  0.279500  0.750000  1.0  -0.2105
  F  F525  1  0.067200  0.234200  0.857900  1.0  -0.2868
  F  F526  1  0.018500  0.167000  0.052500  1.0  -0.1223
  F  F527  1  0.047200  0.210000  0.965300  1.0  -0.3538
  F  F528  1  0.996600  0.222700  0.050300  1.0  -0.1562
  F  F529  1  0.890400  0.251600  0.819500  1.0  -0.242
  F  F530  1  0.915100  0.229900  0.960700  1.0  -0.2796
  F  F531  1  0.888200  0.282300  0.964700  1.0  -0.218
  F  F532  1  0.449500  0.267600  0.689700  1.0  -0.296
  F  F533  1  0.417600  0.220500  0.750000  1.0  -0.2125
  F  F534  1  0.432800  0.265800  0.857900  1.0  -0.2826
  F  F535  1  0.481500  0.333000  0.052500  1.0  -0.1252
  F  F536  1  0.452800  0.290000  0.965300  1.0  -0.3494
  F  F537  1  0.503400  0.277300  0.050300  1.0  -0.156
  F  F538  1  0.609600  0.248400  0.819500  1.0  -0.2418
  F  F539  1  0.584900  0.270100  0.960700  1.0  -0.2826
  F  F540  1  0.611800  0.217700  0.964700  1.0  -0.2204
  F  F541  1  0.767600  0.949500  0.310300  1.0  -0.2961
  F  F542  1  0.720500  0.917600  0.250000  1.0  -0.2149
  F  F543  1  0.765800  0.932800  0.142100  1.0  -0.3003
  F  F544  1  0.833000  0.981500  0.947500  1.0  -0.1197
  F  F545  1  0.790000  0.952800  0.034700  1.0  -0.3538
  F  F546  1  0.777300  0.003400  0.949700  1.0  -0.1559
  F  F547  1  0.748400  0.109600  0.180500  1.0  -0.2437
  F  F548  1  0.770100  0.084900  0.039300  1.0  -0.2768
  F  F549  1  0.717700  0.111800  0.035300  1.0  -0.2219
  F  F550  1  0.732400  0.550500  0.310300  1.0  -0.2947
  F  F551  1  0.779500  0.582400  0.250000  1.0  -0.2188
  F  F552  1  0.734200  0.567200  0.142100  1.0  -0.2973
  F  F553  1  0.667000  0.518500  0.947500  1.0  -0.1215
  F  F554  1  0.710000  0.547200  0.034700  1.0  -0.3534
  F  F555  1  0.722700  0.496600  0.949700  1.0  -0.1547
  F  F556  1  0.751600  0.390400  0.180500  1.0  -0.2457
  F  F557  1  0.729900  0.415100  0.039300  1.0  -0.2752
  F  F558  1  0.782300  0.388200  0.035300  1.0  -0.2241
  F  F559  1  0.949500  0.732400  0.810300  1.0  -0.293
  F  F560  1  0.917600  0.779500  0.750000  1.0  -0.2134
  F  F561  1  0.932800  0.734200  0.642100  1.0  -0.2835
  F  F562  1  0.981500  0.667000  0.447500  1.0  -0.1219
  F  F563  1  0.952800  0.710000  0.534700  1.0  -0.3499
  F  F564  1  0.003400  0.722700  0.449700  1.0  -0.1543
  F  F565  1  0.109600  0.751600  0.680500  1.0  -0.2424
  F  F566  1  0.084900  0.729900  0.539300  1.0  -0.2861
  F  F567  1  0.111800  0.782300  0.535300  1.0  -0.2194
  F  F568  1  0.550500  0.767600  0.810300  1.0  -0.3002
  F  F569  1  0.582400  0.720500  0.750000  1.0  -0.2124
  F  F570  1  0.567200  0.765800  0.642100  1.0  -0.2885
  F  F571  1  0.518500  0.833000  0.447500  1.0  -0.1225
  F  F572  1  0.547200  0.790000  0.534700  1.0  -0.3545
  F  F573  1  0.496600  0.777300  0.449700  1.0  -0.1526
  F  F574  1  0.390400  0.748400  0.680500  1.0  -0.24
  F  F575  1  0.415100  0.770100  0.539300  1.0  -0.2787
  F  F576  1  0.388200  0.717700  0.535300  1.0  -0.2169
  F  F577  1  0.767600  0.550500  0.810300  1.0  -0.2961
  F  F578  1  0.720500  0.582400  0.750000  1.0  -0.2175
  F  F579  1  0.765800  0.567200  0.642100  1.0  -0.2988
  F  F580  1  0.833000  0.518500  0.447500  1.0  -0.1197
  F  F581  1  0.790000  0.547200  0.534700  1.0  -0.3529
  F  F582  1  0.777300  0.496600  0.449700  1.0  -0.1539
  F  F583  1  0.748400  0.390400  0.680500  1.0  -0.246
  F  F584  1  0.770100  0.415100  0.539300  1.0  -0.2786
  F  F585  1  0.717700  0.388200  0.535300  1.0  -0.2221
  F  F586  1  0.732400  0.949500  0.810300  1.0  -0.2955
  F  F587  1  0.779500  0.917600  0.750000  1.0  -0.2172
  F  F588  1  0.734200  0.932800  0.642100  1.0  -0.2987
  F  F589  1  0.667000  0.981500  0.447500  1.0  -0.1217
  F  F590  1  0.710000  0.952800  0.534700  1.0  -0.3534
  F  F591  1  0.722700  0.003400  0.449700  1.0  -0.1523
  F  F592  1  0.751600  0.109600  0.680500  1.0  -0.2424
  F  F593  1  0.729900  0.084900  0.539300  1.0  -0.2745
  F  F594  1  0.782300  0.111800  0.535300  1.0  -0.2253
  F  F595  1  0.949500  0.767600  0.310300  1.0  -0.2959
  F  F596  1  0.917600  0.720500  0.250000  1.0  -0.2131
  F  F597  1  0.932800  0.765800  0.142100  1.0  -0.2837
  F  F598  1  0.981500  0.833000  0.947500  1.0  -0.1242
  F  F599  1  0.952800  0.790000  0.034700  1.0  -0.3502
  F  F600  1  0.003400  0.777300  0.949700  1.0  -0.1551
  F  F601  1  0.109600  0.748400  0.180500  1.0  -0.2415
  F  F602  1  0.084900  0.770100  0.039300  1.0  -0.2819
  F  F603  1  0.111800  0.717700  0.035300  1.0  -0.2198
  F  F604  1  0.550500  0.732400  0.310300  1.0  -0.299
  F  F605  1  0.582400  0.779500  0.250000  1.0  -0.2112
  F  F606  1  0.567200  0.734200  0.142100  1.0  -0.2884
  F  F607  1  0.518500  0.667000  0.947500  1.0  -0.1213
  F  F608  1  0.547200  0.710000  0.034700  1.0  -0.3545
  F  F609  1  0.496600  0.722700  0.949700  1.0  -0.1562
  F  F610  1  0.390400  0.751600  0.180500  1.0  -0.2405
  F  F611  1  0.415100  0.729900  0.039300  1.0  -0.2813
  F  F612  1  0.388200  0.782300  0.035300  1.0  -0.2169
  F  F613  1  0.232400  0.050500  0.689700  1.0  -0.2943
  F  F614  1  0.279500  0.082400  0.750000  1.0  -0.2185
  F  F615  1  0.234200  0.067200  0.857900  1.0  -0.2947
  F  F616  1  0.167000  0.018500  0.052500  1.0  -0.1232
  F  F617  1  0.210000  0.047200  0.965300  1.0  -0.3526
  F  F618  1  0.222700  0.996600  0.050300  1.0  -0.1555
  F  F619  1  0.251600  0.890400  0.819500  1.0  -0.2443
  F  F620  1  0.229900  0.915100  0.960700  1.0  -0.2739
  F  F621  1  0.282300  0.888200  0.964700  1.0  -0.2242
  F  F622  1  0.267600  0.449500  0.689700  1.0  -0.2984
  F  F623  1  0.220500  0.417600  0.750000  1.0  -0.2152
  F  F624  1  0.265800  0.432800  0.857900  1.0  -0.3002
  F  F625  1  0.333000  0.481500  0.052500  1.0  -0.1207
  F  F626  1  0.290000  0.452800  0.965300  1.0  -0.3528
  F  F627  1  0.277300  0.503400  0.050300  1.0  -0.1568
  F  F628  1  0.248400  0.609600  0.819500  1.0  -0.2451
  F  F629  1  0.270100  0.584900  0.960700  1.0  -0.2767
  F  F630  1  0.217700  0.611800  0.964700  1.0  -0.2217
  F  F631  1  0.050500  0.267600  0.189700  1.0  -0.3009
  F  F632  1  0.082400  0.220500  0.250000  1.0  -0.2119
  F  F633  1  0.067200  0.265800  0.357900  1.0  -0.2875
  F  F634  1  0.018500  0.333000  0.552500  1.0  -0.1234
  F  F635  1  0.047200  0.290000  0.465300  1.0  -0.3535
  F  F636  1  0.996600  0.277300  0.550300  1.0  -0.1558
  F  F637  1  0.890400  0.248400  0.319500  1.0  -0.2404
  F  F638  1  0.915100  0.270100  0.460700  1.0  -0.2797
  F  F639  1  0.888200  0.217700  0.464700  1.0  -0.2169
  F  F640  1  0.449500  0.232400  0.189700  1.0  -0.2945
  F  F641  1  0.417600  0.279500  0.250000  1.0  -0.2134
  F  F642  1  0.432800  0.234200  0.357900  1.0  -0.2824
  F  F643  1  0.481500  0.167000  0.552500  1.0  -0.1236
  F  F644  1  0.452800  0.210000  0.465300  1.0  -0.3491
  F  F645  1  0.503400  0.222700  0.550300  1.0  -0.1564
  F  F646  1  0.609600  0.251600  0.319500  1.0  -0.2438
  F  F647  1  0.584900  0.229900  0.460700  1.0  -0.2853
  F  F648  1  0.611800  0.282300  0.464700  1.0  -0.2211
