# generated using pymatgen
data_Zr3H32(C3O)12
_symmetry_space_group_name_H-M   'P 1'
_cell_length_a   24.21800000
_cell_length_b   24.21800000
_cell_length_c   15.35900000
_cell_angle_alpha   90.00000000
_cell_angle_beta   90.00000000
_cell_angle_gamma   90.00000000
_symmetry_Int_Tables_number   1
_chemical_formula_structural   Zr3H32(C3O)12
_chemical_formula_sum   'Zr12 H128 C144 O48'
_cell_volume   9008.23049712
_cell_formula_units_Z   4
loop_
 _symmetry_equiv_pos_site_id
 _symmetry_equiv_pos_as_xyz
  1  'x, y, z'
loop_
 _atom_site_type_symbol
 _atom_site_label
 _atom_site_symmetry_multiplicity
 _atom_site_fract_x
 _atom_site_fract_y
 _atom_site_fract_z
 _atom_site_occupancy
 _atom_site_charge
  Zr  Zr1  1  0.000000  0.398540  0.500000  1.0  2.1424
  Zr  Zr2  1  0.000000  0.601460  0.500000  1.0  2.1388
  Zr  Zr3  1  0.601460  0.000000  0.000000  1.0  2.1376
  Zr  Zr4  1  0.398540  0.000000  0.000000  1.0  2.1379
  Zr  Zr5  1  0.927290  0.500000  0.614880  1.0  2.1243
  Zr  Zr6  1  0.072710  0.500000  0.614880  1.0  2.1243
  Zr  Zr7  1  0.500000  0.927290  0.114880  1.0  2.1249
  Zr  Zr8  1  0.500000  0.072710  0.114880  1.0  2.1265
  Zr  Zr9  1  0.072710  0.500000  0.385120  1.0  2.1226
  Zr  Zr10  1  0.927290  0.500000  0.385120  1.0  2.1223
  Zr  Zr11  1  0.500000  0.927290  0.885120  1.0  2.123
  Zr  Zr12  1  0.500000  0.072710  0.885120  1.0  2.1234
  H  H13  1  0.107400  0.263400  0.588400  1.0  0.1153
  H  H14  1  0.166300  0.373500  0.764300  1.0  0.1268
  H  H15  1  0.141500  0.152200  0.655500  1.0  0.1362
  H  H16  1  0.206400  0.158800  0.639000  1.0  0.1195
  H  H17  1  0.163400  0.177000  0.565300  1.0  0.1221
  H  H18  1  0.238800  0.280600  0.889000  1.0  0.1216
  H  H19  1  0.235000  0.345400  0.869500  1.0  0.1332
  H  H20  1  0.280800  0.308600  0.821800  1.0  0.1204
  H  H21  1  0.892600  0.736600  0.588400  1.0  0.1159
  H  H22  1  0.833700  0.626500  0.764300  1.0  0.1273
  H  H23  1  0.858500  0.847800  0.655500  1.0  0.1378
  H  H24  1  0.793600  0.841200  0.639000  1.0  0.1203
  H  H25  1  0.836600  0.823000  0.565300  1.0  0.1221
  H  H26  1  0.761200  0.719400  0.889000  1.0  0.1228
  H  H27  1  0.765000  0.654600  0.869500  1.0  0.1316
  H  H28  1  0.719200  0.691400  0.821800  1.0  0.1219
  H  H29  1  0.736600  0.107400  0.088400  1.0  0.1172
  H  H30  1  0.626500  0.166300  0.264300  1.0  0.1259
  H  H31  1  0.847800  0.141500  0.155500  1.0  0.1365
  H  H32  1  0.841200  0.206400  0.139000  1.0  0.1223
  H  H33  1  0.823000  0.163400  0.065300  1.0  0.1207
  H  H34  1  0.719400  0.238800  0.389000  1.0  0.1236
  H  H35  1  0.654600  0.235000  0.369500  1.0  0.1302
  H  H36  1  0.691400  0.280800  0.321800  1.0  0.1226
  H  H37  1  0.263400  0.892600  0.088400  1.0  0.1177
  H  H38  1  0.373500  0.833700  0.264300  1.0  0.1272
  H  H39  1  0.152200  0.858500  0.155500  1.0  0.1358
  H  H40  1  0.158800  0.793600  0.139000  1.0  0.1208
  H  H41  1  0.177000  0.836600  0.065300  1.0  0.1203
  H  H42  1  0.280600  0.761200  0.389000  1.0  0.1229
  H  H43  1  0.345400  0.765000  0.369500  1.0  0.1306
  H  H44  1  0.308600  0.719200  0.321800  1.0  0.1227
  H  H45  1  0.892600  0.263400  0.411600  1.0  0.1152
  H  H46  1  0.833700  0.373500  0.235700  1.0  0.1263
  H  H47  1  0.858500  0.152200  0.344500  1.0  0.1372
  H  H48  1  0.793600  0.158800  0.361000  1.0  0.1192
  H  H49  1  0.836600  0.177000  0.434700  1.0  0.1229
  H  H50  1  0.761200  0.280600  0.111000  1.0  0.121
  H  H51  1  0.765000  0.345400  0.130500  1.0  0.1337
  H  H52  1  0.719200  0.308600  0.178200  1.0  0.1201
  H  H53  1  0.107400  0.736600  0.411600  1.0  0.1152
  H  H54  1  0.166300  0.626500  0.235700  1.0  0.1277
  H  H55  1  0.141500  0.847800  0.344500  1.0  0.1385
  H  H56  1  0.206400  0.841200  0.361000  1.0  0.1195
  H  H57  1  0.163400  0.823000  0.434700  1.0  0.1226
  H  H58  1  0.238800  0.719400  0.111000  1.0  0.1216
  H  H59  1  0.235000  0.654600  0.130500  1.0  0.1314
  H  H60  1  0.280800  0.691400  0.178200  1.0  0.1218
  H  H61  1  0.263400  0.107400  0.911600  1.0  0.117
  H  H62  1  0.373500  0.166300  0.735700  1.0  0.1275
  H  H63  1  0.152200  0.141500  0.844500  1.0  0.1362
  H  H64  1  0.158800  0.206400  0.861000  1.0  0.1209
  H  H65  1  0.177000  0.163400  0.934700  1.0  0.1211
  H  H66  1  0.280600  0.238800  0.611000  1.0  0.1241
  H  H67  1  0.345400  0.235000  0.630500  1.0  0.1315
  H  H68  1  0.308600  0.280800  0.678200  1.0  0.1229
  H  H69  1  0.736600  0.892600  0.911600  1.0  0.1169
  H  H70  1  0.626500  0.833700  0.735700  1.0  0.126
  H  H71  1  0.847800  0.858500  0.844500  1.0  0.1371
  H  H72  1  0.841200  0.793600  0.861000  1.0  0.122
  H  H73  1  0.823000  0.836600  0.934700  1.0  0.1203
  H  H74  1  0.719400  0.761200  0.611000  1.0  0.1216
  H  H75  1  0.654600  0.765000  0.630500  1.0  0.1294
  H  H76  1  0.691400  0.719200  0.678200  1.0  0.1225
  H  H77  1  0.892600  0.736600  0.411600  1.0  0.1149
  H  H78  1  0.833700  0.626500  0.235700  1.0  0.1273
  H  H79  1  0.858500  0.847800  0.344500  1.0  0.1389
  H  H80  1  0.793600  0.841200  0.361000  1.0  0.12
  H  H81  1  0.836600  0.823000  0.434700  1.0  0.1223
  H  H82  1  0.761200  0.719400  0.111000  1.0  0.1216
  H  H83  1  0.765000  0.654600  0.130500  1.0  0.131
  H  H84  1  0.719200  0.691400  0.178200  1.0  0.1212
  H  H85  1  0.107400  0.263400  0.411600  1.0  0.1152
  H  H86  1  0.166300  0.373500  0.235700  1.0  0.127
  H  H87  1  0.141500  0.152200  0.344500  1.0  0.1366
  H  H88  1  0.206400  0.158800  0.361000  1.0  0.1194
  H  H89  1  0.163400  0.177000  0.434700  1.0  0.1218
  H  H90  1  0.238800  0.280600  0.111000  1.0  0.1213
  H  H91  1  0.235000  0.345400  0.130500  1.0  0.1339
  H  H92  1  0.280800  0.308600  0.178200  1.0  0.1219
  H  H93  1  0.263400  0.892600  0.911600  1.0  0.1167
  H  H94  1  0.373500  0.833700  0.735700  1.0  0.1275
  H  H95  1  0.152200  0.858500  0.844500  1.0  0.1367
  H  H96  1  0.158800  0.793600  0.861000  1.0  0.1211
  H  H97  1  0.177000  0.836600  0.934700  1.0  0.1204
  H  H98  1  0.280600  0.761200  0.611000  1.0  0.1232
  H  H99  1  0.345400  0.765000  0.630500  1.0  0.1315
  H  H100  1  0.308600  0.719200  0.678200  1.0  0.1232
  H  H101  1  0.736600  0.107400  0.911600  1.0  0.117
  H  H102  1  0.626500  0.166300  0.735700  1.0  0.126
  H  H103  1  0.847800  0.141500  0.844500  1.0  0.137
  H  H104  1  0.841200  0.206400  0.861000  1.0  0.1214
  H  H105  1  0.823000  0.163400  0.934700  1.0  0.1204
  H  H106  1  0.719400  0.238800  0.611000  1.0  0.122
  H  H107  1  0.654600  0.235000  0.630500  1.0  0.1296
  H  H108  1  0.691400  0.280800  0.678200  1.0  0.123
  H  H109  1  0.107400  0.736600  0.588400  1.0  0.1157
  H  H110  1  0.166300  0.626500  0.764300  1.0  0.1277
  H  H111  1  0.141500  0.847800  0.655500  1.0  0.1376
  H  H112  1  0.206400  0.841200  0.639000  1.0  0.1204
  H  H113  1  0.163400  0.823000  0.565300  1.0  0.1215
  H  H114  1  0.238800  0.719400  0.889000  1.0  0.1227
  H  H115  1  0.235000  0.654600  0.869500  1.0  0.132
  H  H116  1  0.280800  0.691400  0.821800  1.0  0.121
  H  H117  1  0.892600  0.263400  0.588400  1.0  0.1154
  H  H118  1  0.833700  0.373500  0.764300  1.0  0.1261
  H  H119  1  0.858500  0.152200  0.655500  1.0  0.137
  H  H120  1  0.793600  0.158800  0.639000  1.0  0.1194
  H  H121  1  0.836600  0.177000  0.565300  1.0  0.1222
  H  H122  1  0.761200  0.280600  0.889000  1.0  0.1218
  H  H123  1  0.765000  0.345400  0.869500  1.0  0.1336
  H  H124  1  0.719200  0.308600  0.821800  1.0  0.1204
  H  H125  1  0.736600  0.892600  0.088400  1.0  0.1174
  H  H126  1  0.626500  0.833700  0.264300  1.0  0.1258
  H  H127  1  0.847800  0.858500  0.155500  1.0  0.1363
  H  H128  1  0.841200  0.793600  0.139000  1.0  0.1225
  H  H129  1  0.823000  0.836600  0.065300  1.0  0.1204
  H  H130  1  0.719400  0.761200  0.389000  1.0  0.1234
  H  H131  1  0.654600  0.765000  0.369500  1.0  0.1303
  H  H132  1  0.691400  0.719200  0.321800  1.0  0.1219
  H  H133  1  0.263400  0.107400  0.088400  1.0  0.117
  H  H134  1  0.373500  0.166300  0.264300  1.0  0.1274
  H  H135  1  0.152200  0.141500  0.155500  1.0  0.1355
  H  H136  1  0.158800  0.206400  0.139000  1.0  0.1211
  H  H137  1  0.177000  0.163400  0.065300  1.0  0.12
  H  H138  1  0.280600  0.238800  0.389000  1.0  0.1233
  H  H139  1  0.345400  0.235000  0.369500  1.0  0.1306
  H  H140  1  0.308600  0.280800  0.321800  1.0  0.1221
  C  C141  1  0.168170  0.232480  0.666300  1.0  0.0991
  C  C142  1  0.131760  0.272190  0.634800  1.0  -0.0844
  C  C143  1  0.131120  0.324670  0.671400  1.0  -0.1182
  C  C144  1  0.203120  0.297900  0.770700  1.0  0.1073
  C  C145  1  0.203830  0.245390  0.734200  1.0  0.0074
  C  C146  1  0.166750  0.337580  0.739300  1.0  -0.1001
  C  C147  1  0.170000  0.175110  0.628200  1.0  -0.3594
  C  C148  1  0.091810  0.368000  0.637800  1.0  0.7308
  C  C149  1  0.242900  0.309100  0.844200  1.0  -0.3947
  C  C150  1  0.831830  0.767520  0.666300  1.0  0.0978
  C  C151  1  0.868240  0.727810  0.634800  1.0  -0.0856
  C  C152  1  0.868880  0.675330  0.671400  1.0  -0.1166
  C  C153  1  0.796880  0.702100  0.770700  1.0  0.1086
  C  C154  1  0.796170  0.754610  0.734200  1.0  0.0073
  C  C155  1  0.833250  0.662420  0.739300  1.0  -0.1027
  C  C156  1  0.830000  0.824890  0.628200  1.0  -0.3592
  C  C157  1  0.908190  0.632000  0.637800  1.0  0.73
  C  C158  1  0.757100  0.690900  0.844200  1.0  -0.3899
  C  C159  1  0.767520  0.168170  0.166300  1.0  0.0997
  C  C160  1  0.727810  0.131760  0.134800  1.0  -0.0873
  C  C161  1  0.675330  0.131120  0.171400  1.0  -0.1177
  C  C162  1  0.702100  0.203120  0.270700  1.0  0.1048
  C  C163  1  0.754610  0.203830  0.234200  1.0  0.007
  C  C164  1  0.662420  0.166750  0.239300  1.0  -0.1069
  C  C165  1  0.824890  0.170000  0.128200  1.0  -0.3592
  C  C166  1  0.632000  0.091810  0.137800  1.0  0.7309
  C  C167  1  0.690900  0.242900  0.344200  1.0  -0.3951
  C  C168  1  0.232480  0.831830  0.166300  1.0  0.1012
  C  C169  1  0.272190  0.868240  0.134800  1.0  -0.0862
  C  C170  1  0.324670  0.868880  0.171400  1.0  -0.1185
  C  C171  1  0.297900  0.796880  0.270700  1.0  0.1057
  C  C172  1  0.245390  0.796170  0.234200  1.0  0.0081
  C  C173  1  0.337580  0.833250  0.239300  1.0  -0.1072
  C  C174  1  0.175110  0.830000  0.128200  1.0  -0.3599
  C  C175  1  0.368000  0.908190  0.137800  1.0  0.7305
  C  C176  1  0.309100  0.757100  0.344200  1.0  -0.3972
  C  C177  1  0.831830  0.232480  0.333700  1.0  0.0994
  C  C178  1  0.868240  0.272190  0.365200  1.0  -0.0856
  C  C179  1  0.868880  0.324670  0.328600  1.0  -0.1187
  C  C180  1  0.796880  0.297900  0.229300  1.0  0.1084
  C  C181  1  0.796170  0.245390  0.265800  1.0  0.0073
  C  C182  1  0.833250  0.337580  0.260700  1.0  -0.1025
  C  C183  1  0.830000  0.175110  0.371800  1.0  -0.3586
  C  C184  1  0.908190  0.368000  0.362200  1.0  0.7306
  C  C185  1  0.757100  0.309100  0.155800  1.0  -0.3908
  C  C186  1  0.168170  0.767520  0.333700  1.0  0.0992
  C  C187  1  0.131760  0.727810  0.365200  1.0  -0.0852
  C  C188  1  0.131120  0.675330  0.328600  1.0  -0.1178
  C  C189  1  0.203120  0.702100  0.229300  1.0  0.1069
  C  C190  1  0.203830  0.754610  0.265800  1.0  0.0065
  C  C191  1  0.166750  0.662420  0.260700  1.0  -0.1002
  C  C192  1  0.170000  0.824890  0.371800  1.0  -0.3585
  C  C193  1  0.091810  0.632000  0.362200  1.0  0.7309
  C  C194  1  0.242900  0.690900  0.155800  1.0  -0.3947
  C  C195  1  0.232480  0.168170  0.833700  1.0  0.1011
  C  C196  1  0.272190  0.131760  0.865200  1.0  -0.0873
  C  C197  1  0.324670  0.131120  0.828600  1.0  -0.1182
  C  C198  1  0.297900  0.203120  0.729300  1.0  0.106
  C  C199  1  0.245390  0.203830  0.765800  1.0  0.0069
  C  C200  1  0.337580  0.166750  0.760700  1.0  -0.1069
  C  C201  1  0.175110  0.170000  0.871800  1.0  -0.3604
  C  C202  1  0.368000  0.091810  0.862200  1.0  0.7307
  C  C203  1  0.309100  0.242900  0.655800  1.0  -0.398
  C  C204  1  0.767520  0.831830  0.833700  1.0  0.1024
  C  C205  1  0.727810  0.868240  0.865200  1.0  -0.087
  C  C206  1  0.675330  0.868880  0.828600  1.0  -0.1177
  C  C207  1  0.702100  0.796880  0.729300  1.0  0.1057
  C  C208  1  0.754610  0.796170  0.765800  1.0  0.0079
  C  C209  1  0.662420  0.833250  0.760700  1.0  -0.1044
  C  C210  1  0.824890  0.830000  0.871800  1.0  -0.3584
  C  C211  1  0.632000  0.908190  0.862200  1.0  0.7312
  C  C212  1  0.690900  0.757100  0.655800  1.0  -0.3951
  C  C213  1  0.831830  0.767520  0.333700  1.0  0.0989
  C  C214  1  0.868240  0.727810  0.365200  1.0  -0.0857
  C  C215  1  0.868880  0.675330  0.328600  1.0  -0.1174
  C  C216  1  0.796880  0.702100  0.229300  1.0  0.1085
  C  C217  1  0.796170  0.754610  0.265800  1.0  0.007
  C  C218  1  0.833250  0.662420  0.260700  1.0  -0.1022
  C  C219  1  0.830000  0.824890  0.371800  1.0  -0.3591
  C  C220  1  0.908190  0.632000  0.362200  1.0  0.7303
  C  C221  1  0.757100  0.690900  0.155800  1.0  -0.3906
  C  C222  1  0.168170  0.232480  0.333700  1.0  0.0999
  C  C223  1  0.131760  0.272190  0.365200  1.0  -0.0851
  C  C224  1  0.131120  0.324670  0.328600  1.0  -0.1183
  C  C225  1  0.203120  0.297900  0.229300  1.0  0.1071
  C  C226  1  0.203830  0.245390  0.265800  1.0  0.0073
  C  C227  1  0.166750  0.337580  0.260700  1.0  -0.1
  C  C228  1  0.170000  0.175110  0.371800  1.0  -0.359
  C  C229  1  0.091810  0.368000  0.362200  1.0  0.7312
  C  C230  1  0.242900  0.309100  0.155800  1.0  -0.3935
  C  C231  1  0.232480  0.831830  0.833700  1.0  0.1019
  C  C232  1  0.272190  0.868240  0.865200  1.0  -0.0871
  C  C233  1  0.324670  0.868880  0.828600  1.0  -0.1192
  C  C234  1  0.297900  0.796880  0.729300  1.0  0.1066
  C  C235  1  0.245390  0.796170  0.765800  1.0  0.008
  C  C236  1  0.337580  0.833250  0.760700  1.0  -0.1077
  C  C237  1  0.175110  0.830000  0.871800  1.0  -0.3602
  C  C238  1  0.368000  0.908190  0.862200  1.0  0.7307
  C  C239  1  0.309100  0.757100  0.655800  1.0  -0.3975
  C  C240  1  0.767520  0.168170  0.833700  1.0  0.1012
  C  C241  1  0.727810  0.131760  0.865200  1.0  -0.0878
  C  C242  1  0.675330  0.131120  0.828600  1.0  -0.1179
  C  C243  1  0.702100  0.203120  0.729300  1.0  0.1055
  C  C244  1  0.754610  0.203830  0.765800  1.0  0.0068
  C  C245  1  0.662420  0.166750  0.760700  1.0  -0.1052
  C  C246  1  0.824890  0.170000  0.871800  1.0  -0.358
  C  C247  1  0.632000  0.091810  0.862200  1.0  0.7313
  C  C248  1  0.690900  0.242900  0.655800  1.0  -0.3941
  C  C249  1  0.168170  0.767520  0.666300  1.0  0.0981
  C  C250  1  0.131760  0.727810  0.634800  1.0  -0.085
  C  C251  1  0.131120  0.675330  0.671400  1.0  -0.1176
  C  C252  1  0.203120  0.702100  0.770700  1.0  0.1072
  C  C253  1  0.203830  0.754610  0.734200  1.0  0.0068
  C  C254  1  0.166750  0.662420  0.739300  1.0  -0.1005
  C  C255  1  0.170000  0.824890  0.628200  1.0  -0.3582
  C  C256  1  0.091810  0.632000  0.637800  1.0  0.7303
  C  C257  1  0.242900  0.690900  0.844200  1.0  -0.3934
  C  C258  1  0.831830  0.232480  0.666300  1.0  0.0985
  C  C259  1  0.868240  0.272190  0.634800  1.0  -0.085
  C  C260  1  0.868880  0.324670  0.671400  1.0  -0.1181
  C  C261  1  0.796880  0.297900  0.770700  1.0  0.1085
  C  C262  1  0.796170  0.245390  0.734200  1.0  0.0075
  C  C263  1  0.833250  0.337580  0.739300  1.0  -0.1025
  C  C264  1  0.830000  0.175110  0.628200  1.0  -0.3592
  C  C265  1  0.908190  0.368000  0.637800  1.0  0.7304
  C  C266  1  0.757100  0.309100  0.844200  1.0  -0.393
  C  C267  1  0.767520  0.831830  0.166300  1.0  0.1017
  C  C268  1  0.727810  0.868240  0.134800  1.0  -0.0862
  C  C269  1  0.675330  0.868880  0.171400  1.0  -0.1176
  C  C270  1  0.702100  0.796880  0.270700  1.0  0.1051
  C  C271  1  0.754610  0.796170  0.234200  1.0  0.008
  C  C272  1  0.662420  0.833250  0.239300  1.0  -0.1064
  C  C273  1  0.824890  0.830000  0.128200  1.0  -0.359
  C  C274  1  0.632000  0.908190  0.137800  1.0  0.7311
  C  C275  1  0.690900  0.757100  0.344200  1.0  -0.3961
  C  C276  1  0.232480  0.168170  0.166300  1.0  0.0999
  C  C277  1  0.272190  0.131760  0.134800  1.0  -0.0865
  C  C278  1  0.324670  0.131120  0.171400  1.0  -0.1172
  C  C279  1  0.297900  0.203120  0.270700  1.0  0.105
  C  C280  1  0.245390  0.203830  0.234200  1.0  0.0071
  C  C281  1  0.337580  0.166750  0.239300  1.0  -0.1065
  C  C282  1  0.175110  0.170000  0.128200  1.0  -0.3607
  C  C283  1  0.368000  0.091810  0.137800  1.0  0.7305
  C  C284  1  0.309100  0.242900  0.344200  1.0  -0.3974
  O  O285  1  0.054580  0.351400  0.585100  1.0  -0.5995
  O  O286  1  0.102250  0.417280  0.661200  1.0  -0.6879
  O  O287  1  0.945420  0.648600  0.585100  1.0  -0.6005
  O  O288  1  0.897750  0.582720  0.661200  1.0  -0.6889
  O  O289  1  0.648600  0.054580  0.085100  1.0  -0.6006
  O  O290  1  0.582720  0.102250  0.161200  1.0  -0.6894
  O  O291  1  0.351400  0.945420  0.085100  1.0  -0.5992
  O  O292  1  0.417280  0.897750  0.161200  1.0  -0.6891
  O  O293  1  0.945420  0.351400  0.414900  1.0  -0.6017
  O  O294  1  0.897750  0.417280  0.338800  1.0  -0.6883
  O  O295  1  0.054580  0.648600  0.414900  1.0  -0.6005
  O  O296  1  0.102250  0.582720  0.338800  1.0  -0.6872
  O  O297  1  0.351400  0.054580  0.914900  1.0  -0.5999
  O  O298  1  0.417280  0.102250  0.838800  1.0  -0.6874
  O  O299  1  0.648600  0.945420  0.914900  1.0  -0.6015
  O  O300  1  0.582720  0.897750  0.838800  1.0  -0.6896
  O  O301  1  0.945420  0.648600  0.414900  1.0  -0.6014
  O  O302  1  0.897750  0.582720  0.338800  1.0  -0.688
  O  O303  1  0.054580  0.351400  0.414900  1.0  -0.6007
  O  O304  1  0.102250  0.417280  0.338800  1.0  -0.6869
  O  O305  1  0.351400  0.945420  0.914900  1.0  -0.6002
  O  O306  1  0.417280  0.897750  0.838800  1.0  -0.6881
  O  O307  1  0.648600  0.054580  0.914900  1.0  -0.6016
  O  O308  1  0.582720  0.102250  0.838800  1.0  -0.6883
  O  O309  1  0.054580  0.648600  0.585100  1.0  -0.5994
  O  O310  1  0.102250  0.582720  0.661200  1.0  -0.688
  O  O311  1  0.945420  0.351400  0.585100  1.0  -0.6008
  O  O312  1  0.897750  0.417280  0.661200  1.0  -0.69
  O  O313  1  0.648600  0.945420  0.085100  1.0  -0.6006
  O  O314  1  0.582720  0.897750  0.161200  1.0  -0.6899
  O  O315  1  0.351400  0.054580  0.085100  1.0  -0.5989
  O  O316  1  0.417280  0.102250  0.161200  1.0  -0.6891
  O  O317  1  0.000000  0.449840  0.613200  1.0  -1.1886
  O  O318  1  0.000000  0.550160  0.613200  1.0  -1.1887
  O  O319  1  0.550160  0.000000  0.113200  1.0  -1.1862
  O  O320  1  0.449840  0.000000  0.113200  1.0  -1.187
  O  O321  1  0.000000  0.449840  0.386800  1.0  -1.194
  O  O322  1  0.000000  0.550160  0.386800  1.0  -1.1941
  O  O323  1  0.449840  0.000000  0.886800  1.0  -1.1921
  O  O324  1  0.550160  0.000000  0.886800  1.0  -1.1915
  O  O325  1  0.073100  0.450850  0.500000  1.0  -1.1879
  O  O326  1  0.926900  0.549150  0.500000  1.0  -1.1877
  O  O327  1  0.549150  0.073100  0.000000  1.0  -1.1872
  O  O328  1  0.450850  0.926900  0.000000  1.0  -1.1862
  O  O329  1  0.926900  0.450850  0.500000  1.0  -1.1878
  O  O330  1  0.073100  0.549150  0.500000  1.0  -1.1873
  O  O331  1  0.450850  0.073100  0.000000  1.0  -1.1874
  O  O332  1  0.549150  0.926900  0.000000  1.0  -1.1857
