# generated using pymatgen
data_Zr3H8C28(N2O11)4
_symmetry_space_group_name_H-M   'P 1'
_cell_length_a   23.02400000
_cell_length_b   23.02400000
_cell_length_c   18.64840000
_cell_angle_alpha   90.00000000
_cell_angle_beta   90.00000000
_cell_angle_gamma   90.00000000
_symmetry_Int_Tables_number   1
_chemical_formula_structural   Zr3H8C28(N2O11)4
_chemical_formula_sum   'Zr12 H32 C112 N32 O176'
_cell_volume   9885.60217508
_cell_formula_units_Z   4
loop_
 _symmetry_equiv_pos_site_id
 _symmetry_equiv_pos_as_xyz
  1  'x, y, z'
loop_
 _atom_site_type_symbol
 _atom_site_label
 _atom_site_symmetry_multiplicity
 _atom_site_fract_x
 _atom_site_fract_y
 _atom_site_fract_z
 _atom_site_occupancy
 _atom_site_charge
  Zr  Zr1  1  0.500000  0.106700  0.000000  1.0  2.2457
  Zr  Zr2  1  0.500000  0.893300  0.000000  1.0  2.2497
  Zr  Zr3  1  0.893300  0.500000  0.500000  1.0  2.2455
  Zr  Zr4  1  0.106700  0.500000  0.500000  1.0  2.245
  Zr  Zr5  1  0.423870  0.000000  0.092480  1.0  2.2812
  Zr  Zr6  1  0.576130  0.000000  0.092480  1.0  2.2803
  Zr  Zr7  1  0.000000  0.423870  0.592480  1.0  2.2819
  Zr  Zr8  1  0.000000  0.576130  0.592480  1.0  2.282
  Zr  Zr9  1  0.576130  0.000000  0.907520  1.0  2.2803
  Zr  Zr10  1  0.423870  0.000000  0.907520  1.0  2.2802
  Zr  Zr11  1  0.000000  0.423870  0.407520  1.0  2.2819
  Zr  Zr12  1  0.000000  0.576130  0.407520  1.0  2.2805
  H  H13  1  0.393500  0.254300  0.094600  1.0  0.3107
  H  H14  1  0.341700  0.126100  0.229100  1.0  0.3081
  H  H15  1  0.606500  0.745700  0.094600  1.0  0.3105
  H  H16  1  0.658300  0.873900  0.229100  1.0  0.307
  H  H17  1  0.745700  0.393500  0.594600  1.0  0.3112
  H  H18  1  0.873900  0.341700  0.729100  1.0  0.3077
  H  H19  1  0.254300  0.606500  0.594600  1.0  0.3112
  H  H20  1  0.126100  0.658300  0.729100  1.0  0.307
  H  H21  1  0.606500  0.254300  0.905400  1.0  0.311
  H  H22  1  0.658300  0.126100  0.770900  1.0  0.3071
  H  H23  1  0.393500  0.745700  0.905400  1.0  0.3109
  H  H24  1  0.341700  0.873900  0.770900  1.0  0.3068
  H  H25  1  0.254300  0.393500  0.405400  1.0  0.3117
  H  H26  1  0.126100  0.341700  0.270900  1.0  0.3068
  H  H27  1  0.745700  0.606500  0.405400  1.0  0.3116
  H  H28  1  0.873900  0.658300  0.270900  1.0  0.3077
  H  H29  1  0.606500  0.745700  0.905400  1.0  0.3112
  H  H30  1  0.658300  0.873900  0.770900  1.0  0.3067
  H  H31  1  0.393500  0.254300  0.905400  1.0  0.3107
  H  H32  1  0.341700  0.126100  0.770900  1.0  0.3074
  H  H33  1  0.254300  0.606500  0.405400  1.0  0.3116
  H  H34  1  0.126100  0.658300  0.270900  1.0  0.3068
  H  H35  1  0.745700  0.393500  0.405400  1.0  0.3116
  H  H36  1  0.873900  0.341700  0.270900  1.0  0.3077
  H  H37  1  0.393500  0.745700  0.094600  1.0  0.3108
  H  H38  1  0.341700  0.873900  0.229100  1.0  0.3071
  H  H39  1  0.606500  0.254300  0.094600  1.0  0.3106
  H  H40  1  0.658300  0.126100  0.229100  1.0  0.3078
  H  H41  1  0.745700  0.606500  0.594600  1.0  0.3111
  H  H42  1  0.873900  0.658300  0.729100  1.0  0.308
  H  H43  1  0.254300  0.393500  0.594600  1.0  0.3113
  H  H44  1  0.126100  0.341700  0.729100  1.0  0.3068
  C  C45  1  0.404800  0.139300  0.113000  1.0  0.9432
  C  C46  1  0.372900  0.183900  0.155800  1.0  0.0331
  C  C47  1  0.371600  0.241800  0.134900  1.0  0.0485
  C  C48  1  0.340900  0.165680  0.214800  1.0  0.0716
  C  C49  1  0.338400  0.281580  0.173200  1.0  0.2887
  C  C50  1  0.307600  0.205400  0.253100  1.0  0.274
  C  C51  1  0.306300  0.263400  0.232200  1.0  0.1888
  C  C52  1  0.595200  0.860700  0.113000  1.0  0.9434
  C  C53  1  0.627100  0.816100  0.155800  1.0  0.0335
  C  C54  1  0.628400  0.758200  0.134900  1.0  0.049
  C  C55  1  0.659100  0.834320  0.214800  1.0  0.0721
  C  C56  1  0.661600  0.718420  0.173200  1.0  0.291
  C  C57  1  0.692400  0.794600  0.253100  1.0  0.2746
  C  C58  1  0.693700  0.736600  0.232200  1.0  0.1885
  C  C59  1  0.860700  0.404800  0.613000  1.0  0.9444
  C  C60  1  0.816100  0.372900  0.655800  1.0  0.0328
  C  C61  1  0.758200  0.371600  0.634900  1.0  0.0487
  C  C62  1  0.834320  0.340900  0.714800  1.0  0.0724
  C  C63  1  0.718420  0.338400  0.673200  1.0  0.2907
  C  C64  1  0.794600  0.307600  0.753100  1.0  0.2748
  C  C65  1  0.736600  0.306300  0.732200  1.0  0.1887
  C  C66  1  0.139300  0.595200  0.613000  1.0  0.943
  C  C67  1  0.183900  0.627100  0.655800  1.0  0.033
  C  C68  1  0.241800  0.628400  0.634900  1.0  0.048
  C  C69  1  0.165680  0.659100  0.714800  1.0  0.0714
  C  C70  1  0.281580  0.661600  0.673200  1.0  0.2911
  C  C71  1  0.205400  0.692400  0.753100  1.0  0.2735
  C  C72  1  0.263400  0.693700  0.732200  1.0  0.188
  C  C73  1  0.595200  0.139300  0.887000  1.0  0.9439
  C  C74  1  0.627100  0.183900  0.844200  1.0  0.0332
  C  C75  1  0.628400  0.241800  0.865100  1.0  0.0491
  C  C76  1  0.659100  0.165680  0.785200  1.0  0.0731
  C  C77  1  0.661600  0.281580  0.826800  1.0  0.2888
  C  C78  1  0.692400  0.205400  0.746900  1.0  0.2755
  C  C79  1  0.693700  0.263400  0.767800  1.0  0.1884
  C  C80  1  0.404800  0.860700  0.887000  1.0  0.9429
  C  C81  1  0.372900  0.816100  0.844200  1.0  0.0324
  C  C82  1  0.371600  0.758200  0.865100  1.0  0.0502
  C  C83  1  0.340900  0.834320  0.785200  1.0  0.0705
  C  C84  1  0.338400  0.718420  0.826800  1.0  0.2867
  C  C85  1  0.307600  0.794600  0.746900  1.0  0.2741
  C  C86  1  0.306300  0.736600  0.767800  1.0  0.1885
  C  C87  1  0.139300  0.404800  0.387000  1.0  0.944
  C  C88  1  0.183900  0.372900  0.344200  1.0  0.0344
  C  C89  1  0.241800  0.371600  0.365100  1.0  0.0495
  C  C90  1  0.165680  0.340900  0.285200  1.0  0.0717
  C  C91  1  0.281580  0.338400  0.326800  1.0  0.2889
  C  C92  1  0.205400  0.307600  0.246900  1.0  0.2749
  C  C93  1  0.263400  0.306300  0.267800  1.0  0.1887
  C  C94  1  0.860700  0.595200  0.387000  1.0  0.9438
  C  C95  1  0.816100  0.627100  0.344200  1.0  0.0327
  C  C96  1  0.758200  0.628400  0.365100  1.0  0.0491
  C  C97  1  0.834320  0.659100  0.285200  1.0  0.0718
  C  C98  1  0.718420  0.661600  0.326800  1.0  0.2908
  C  C99  1  0.794600  0.692400  0.246900  1.0  0.2749
  C  C100  1  0.736600  0.693700  0.267800  1.0  0.1874
  C  C101  1  0.595200  0.860700  0.887000  1.0  0.9436
  C  C102  1  0.627100  0.816100  0.844200  1.0  0.0336
  C  C103  1  0.628400  0.758200  0.865100  1.0  0.0491
  C  C104  1  0.659100  0.834320  0.785200  1.0  0.0724
  C  C105  1  0.661600  0.718420  0.826800  1.0  0.2892
  C  C106  1  0.692400  0.794600  0.746900  1.0  0.2748
  C  C107  1  0.693700  0.736600  0.767800  1.0  0.1883
  C  C108  1  0.404800  0.139300  0.887000  1.0  0.9435
  C  C109  1  0.372900  0.183900  0.844200  1.0  0.0328
  C  C110  1  0.371600  0.241800  0.865100  1.0  0.0501
  C  C111  1  0.340900  0.165680  0.785200  1.0  0.0716
  C  C112  1  0.338400  0.281580  0.826800  1.0  0.2868
  C  C113  1  0.307600  0.205400  0.746900  1.0  0.2747
  C  C114  1  0.306300  0.263400  0.767800  1.0  0.1888
  C  C115  1  0.139300  0.595200  0.387000  1.0  0.9434
  C  C116  1  0.183900  0.627100  0.344200  1.0  0.0335
  C  C117  1  0.241800  0.628400  0.365100  1.0  0.0493
  C  C118  1  0.165680  0.659100  0.285200  1.0  0.0715
  C  C119  1  0.281580  0.661600  0.326800  1.0  0.2895
  C  C120  1  0.205400  0.692400  0.246900  1.0  0.2739
  C  C121  1  0.263400  0.693700  0.267800  1.0  0.1879
  C  C122  1  0.860700  0.404800  0.387000  1.0  0.9447
  C  C123  1  0.816100  0.372900  0.344200  1.0  0.0323
  C  C124  1  0.758200  0.371600  0.365100  1.0  0.0496
  C  C125  1  0.834320  0.340900  0.285200  1.0  0.0722
  C  C126  1  0.718420  0.338400  0.326800  1.0  0.2898
  C  C127  1  0.794600  0.307600  0.246900  1.0  0.2761
  C  C128  1  0.736600  0.306300  0.267800  1.0  0.1883
  C  C129  1  0.404800  0.860700  0.113000  1.0  0.9428
  C  C130  1  0.372900  0.816100  0.155800  1.0  0.0329
  C  C131  1  0.371600  0.758200  0.134900  1.0  0.0488
  C  C132  1  0.340900  0.834320  0.214800  1.0  0.0702
  C  C133  1  0.338400  0.718420  0.173200  1.0  0.2892
  C  C134  1  0.307600  0.794600  0.253100  1.0  0.2739
  C  C135  1  0.306300  0.736600  0.232200  1.0  0.1888
  C  C136  1  0.595200  0.139300  0.113000  1.0  0.9435
  C  C137  1  0.627100  0.183900  0.155800  1.0  0.033
  C  C138  1  0.628400  0.241800  0.134900  1.0  0.0489
  C  C139  1  0.659100  0.165680  0.214800  1.0  0.0731
  C  C140  1  0.661600  0.281580  0.173200  1.0  0.29
  C  C141  1  0.692400  0.205400  0.253100  1.0  0.2748
  C  C142  1  0.693700  0.263400  0.232200  1.0  0.1884
  C  C143  1  0.860700  0.595200  0.613000  1.0  0.9437
  C  C144  1  0.816100  0.627100  0.655800  1.0  0.033
  C  C145  1  0.758200  0.628400  0.634900  1.0  0.0483
  C  C146  1  0.834320  0.659100  0.714800  1.0  0.0722
  C  C147  1  0.718420  0.661600  0.673200  1.0  0.2918
  C  C148  1  0.794600  0.692400  0.753100  1.0  0.2739
  C  C149  1  0.736600  0.693700  0.732200  1.0  0.1876
  C  C150  1  0.139300  0.404800  0.613000  1.0  0.9435
  C  C151  1  0.183900  0.372900  0.655800  1.0  0.0341
  C  C152  1  0.241800  0.371600  0.634900  1.0  0.0485
  C  C153  1  0.165680  0.340900  0.714800  1.0  0.0714
  C  C154  1  0.281580  0.338400  0.673200  1.0  0.2902
  C  C155  1  0.205400  0.307600  0.753100  1.0  0.2745
  C  C156  1  0.263400  0.306300  0.732200  1.0  0.189
  N  N157  1  0.341400  0.341100  0.144700  1.0  0.074
  N  N158  1  0.275900  0.179800  0.314600  1.0  0.039
  N  N159  1  0.658600  0.658900  0.144700  1.0  0.073
  N  N160  1  0.724100  0.820200  0.314600  1.0  0.0409
  N  N161  1  0.658900  0.341400  0.644700  1.0  0.0679
  N  N162  1  0.820200  0.275900  0.814600  1.0  0.0374
  N  N163  1  0.341100  0.658600  0.644700  1.0  0.0713
  N  N164  1  0.179800  0.724100  0.814600  1.0  0.0405
  N  N165  1  0.658600  0.341100  0.855300  1.0  0.0735
  N  N166  1  0.724100  0.179800  0.685400  1.0  0.0371
  N  N167  1  0.341400  0.658900  0.855300  1.0  0.0752
  N  N168  1  0.275900  0.820200  0.685400  1.0  0.0409
  N  N169  1  0.341100  0.341400  0.355300  1.0  0.0671
  N  N170  1  0.179800  0.275900  0.185400  1.0  0.0396
  N  N171  1  0.658900  0.658600  0.355300  1.0  0.0735
  N  N172  1  0.820200  0.724100  0.185400  1.0  0.0349
  N  N173  1  0.658600  0.658900  0.855300  1.0  0.0751
  N  N174  1  0.724100  0.820200  0.685400  1.0  0.0394
  N  N175  1  0.341400  0.341100  0.855300  1.0  0.0726
  N  N176  1  0.275900  0.179800  0.685400  1.0  0.0387
  N  N177  1  0.341100  0.658600  0.355300  1.0  0.0719
  N  N178  1  0.179800  0.724100  0.185400  1.0  0.0376
  N  N179  1  0.658900  0.341400  0.355300  1.0  0.0686
  N  N180  1  0.820200  0.275900  0.185400  1.0  0.0366
  N  N181  1  0.341400  0.658900  0.144700  1.0  0.0737
  N  N182  1  0.275900  0.820200  0.314600  1.0  0.0412
  N  N183  1  0.658600  0.341100  0.144700  1.0  0.0745
  N  N184  1  0.724100  0.179800  0.314600  1.0  0.0389
  N  N185  1  0.658900  0.658600  0.644700  1.0  0.0725
  N  N186  1  0.820200  0.724100  0.814600  1.0  0.0373
  N  N187  1  0.341100  0.341400  0.644700  1.0  0.0661
  N  N188  1  0.179800  0.275900  0.814600  1.0  0.0406
  O  O189  1  0.442500  0.157300  0.068900  1.0  -0.3983
  O  O190  1  0.394200  0.087700  0.129400  1.0  -0.4722
  O  O191  1  0.387500  0.360400  0.123300  1.0  -0.3051
  O  O192  1  0.294100  0.367600  0.145000  1.0  -0.3497
  O  O193  1  0.300800  0.144500  0.352400  1.0  -0.3045
  O  O194  1  0.225100  0.196700  0.323000  1.0  -0.2892
  O  O195  1  0.339000  0.349500  0.080200  1.0  -0.3265
  O  O196  1  0.346800  0.380200  0.190600  1.0  -0.318
  O  O197  1  0.271500  0.208300  0.369900  1.0  -0.3216
  O  O198  1  0.255400  0.130800  0.307200  1.0  -0.3034
  O  O199  1  0.557500  0.842700  0.068900  1.0  -0.3979
  O  O200  1  0.605800  0.912300  0.129400  1.0  -0.4709
  O  O201  1  0.612500  0.639600  0.123300  1.0  -0.3175
  O  O202  1  0.705900  0.632400  0.145000  1.0  -0.3406
  O  O203  1  0.699200  0.855500  0.352400  1.0  -0.3061
  O  O204  1  0.774900  0.803300  0.323000  1.0  -0.2804
  O  O205  1  0.661000  0.650500  0.080200  1.0  -0.3226
  O  O206  1  0.653200  0.619800  0.190600  1.0  -0.3213
  O  O207  1  0.728500  0.791700  0.369900  1.0  -0.321
  O  O208  1  0.744600  0.869200  0.307200  1.0  -0.2994
  O  O209  1  0.842700  0.442500  0.568900  1.0  -0.3987
  O  O210  1  0.912300  0.394200  0.629400  1.0  -0.472
  O  O211  1  0.639600  0.387500  0.623300  1.0  -0.3192
  O  O212  1  0.632400  0.294100  0.645000  1.0  -0.3473
  O  O213  1  0.855500  0.300800  0.852400  1.0  -0.3018
  O  O214  1  0.803300  0.225100  0.823000  1.0  -0.296
  O  O215  1  0.650500  0.339000  0.580200  1.0  -0.3228
  O  O216  1  0.619800  0.346800  0.690600  1.0  -0.3179
  O  O217  1  0.791700  0.271500  0.869900  1.0  -0.3214
  O  O218  1  0.869200  0.255400  0.807200  1.0  -0.2958
  O  O219  1  0.157300  0.557500  0.568900  1.0  -0.3996
  O  O220  1  0.087700  0.605800  0.629400  1.0  -0.4722
  O  O221  1  0.360400  0.612500  0.623300  1.0  -0.3183
  O  O222  1  0.367600  0.705900  0.645000  1.0  -0.3429
  O  O223  1  0.144500  0.699200  0.852400  1.0  -0.3057
  O  O224  1  0.196700  0.774900  0.823000  1.0  -0.2951
  O  O225  1  0.349500  0.661000  0.580200  1.0  -0.3226
  O  O226  1  0.380200  0.653200  0.690600  1.0  -0.3138
  O  O227  1  0.208300  0.728500  0.869900  1.0  -0.3169
  O  O228  1  0.130800  0.744600  0.807200  1.0  -0.3055
  O  O229  1  0.557500  0.157300  0.931100  1.0  -0.3986
  O  O230  1  0.605800  0.087700  0.870600  1.0  -0.47
  O  O231  1  0.612500  0.360400  0.876700  1.0  -0.3226
  O  O232  1  0.705900  0.367600  0.855000  1.0  -0.3409
  O  O233  1  0.699200  0.144500  0.647600  1.0  -0.3083
  O  O234  1  0.774900  0.196700  0.677000  1.0  -0.2799
  O  O235  1  0.661000  0.349500  0.919800  1.0  -0.3196
  O  O236  1  0.653200  0.380200  0.809400  1.0  -0.3173
  O  O237  1  0.728500  0.208300  0.630100  1.0  -0.3218
  O  O238  1  0.744600  0.130800  0.692800  1.0  -0.3003
  O  O239  1  0.442500  0.842700  0.931100  1.0  -0.3982
  O  O240  1  0.394200  0.912300  0.870600  1.0  -0.4711
  O  O241  1  0.387500  0.639600  0.876700  1.0  -0.3027
  O  O242  1  0.294100  0.632400  0.855000  1.0  -0.3471
  O  O243  1  0.300800  0.855500  0.647600  1.0  -0.3093
  O  O244  1  0.225100  0.803300  0.677000  1.0  -0.2876
  O  O245  1  0.339000  0.650500  0.919800  1.0  -0.3216
  O  O246  1  0.346800  0.619800  0.809400  1.0  -0.3203
  O  O247  1  0.271500  0.791700  0.630100  1.0  -0.3224
  O  O248  1  0.255400  0.869200  0.692800  1.0  -0.3047
  O  O249  1  0.157300  0.442500  0.431100  1.0  -0.3995
  O  O250  1  0.087700  0.394200  0.370600  1.0  -0.4705
  O  O251  1  0.360400  0.387500  0.376700  1.0  -0.3184
  O  O252  1  0.367600  0.294100  0.355000  1.0  -0.3425
  O  O253  1  0.144500  0.300800  0.147600  1.0  -0.3086
  O  O254  1  0.196700  0.225100  0.177000  1.0  -0.2941
  O  O255  1  0.349500  0.339000  0.419800  1.0  -0.3183
  O  O256  1  0.380200  0.346800  0.309400  1.0  -0.3134
  O  O257  1  0.208300  0.271500  0.130100  1.0  -0.3203
  O  O258  1  0.130800  0.255400  0.192800  1.0  -0.305
  O  O259  1  0.842700  0.557500  0.431100  1.0  -0.3998
  O  O260  1  0.912300  0.605800  0.370600  1.0  -0.4708
  O  O261  1  0.639600  0.612500  0.376700  1.0  -0.3198
  O  O262  1  0.632400  0.705900  0.355000  1.0  -0.3474
  O  O263  1  0.855500  0.699200  0.147600  1.0  -0.3066
  O  O264  1  0.803300  0.774900  0.177000  1.0  -0.2936
  O  O265  1  0.650500  0.661000  0.419800  1.0  -0.3186
  O  O266  1  0.619800  0.653200  0.309400  1.0  -0.3156
  O  O267  1  0.791700  0.728500  0.130100  1.0  -0.3198
  O  O268  1  0.869200  0.744600  0.192800  1.0  -0.2961
  O  O269  1  0.557500  0.842700  0.931100  1.0  -0.3982
  O  O270  1  0.605800  0.912300  0.870600  1.0  -0.4702
  O  O271  1  0.612500  0.639600  0.876700  1.0  -0.3185
  O  O272  1  0.705900  0.632400  0.855000  1.0  -0.3409
  O  O273  1  0.699200  0.855500  0.647600  1.0  -0.3103
  O  O274  1  0.774900  0.803300  0.677000  1.0  -0.2783
  O  O275  1  0.661000  0.650500  0.919800  1.0  -0.3211
  O  O276  1  0.653200  0.619800  0.809400  1.0  -0.3225
  O  O277  1  0.728500  0.791700  0.630100  1.0  -0.321
  O  O278  1  0.744600  0.869200  0.692800  1.0  -0.3002
  O  O279  1  0.442500  0.157300  0.931100  1.0  -0.3989
  O  O280  1  0.394200  0.087700  0.870600  1.0  -0.4704
  O  O281  1  0.387500  0.360400  0.876700  1.0  -0.3066
  O  O282  1  0.294100  0.367600  0.855000  1.0  -0.348
  O  O283  1  0.300800  0.144500  0.647600  1.0  -0.3074
  O  O284  1  0.225100  0.196700  0.677000  1.0  -0.2865
  O  O285  1  0.339000  0.349500  0.919800  1.0  -0.3207
  O  O286  1  0.346800  0.380200  0.809400  1.0  -0.3155
  O  O287  1  0.271500  0.208300  0.630100  1.0  -0.3222
  O  O288  1  0.255400  0.130800  0.692800  1.0  -0.3038
  O  O289  1  0.157300  0.557500  0.431100  1.0  -0.3999
  O  O290  1  0.087700  0.605800  0.370600  1.0  -0.4704
  O  O291  1  0.360400  0.612500  0.376700  1.0  -0.3188
  O  O292  1  0.367600  0.705900  0.355000  1.0  -0.3431
  O  O293  1  0.144500  0.699200  0.147600  1.0  -0.3093
  O  O294  1  0.196700  0.774900  0.177000  1.0  -0.2956
  O  O295  1  0.349500  0.661000  0.419800  1.0  -0.3192
  O  O296  1  0.380200  0.653200  0.309400  1.0  -0.3125
  O  O297  1  0.208300  0.728500  0.130100  1.0  -0.3202
  O  O298  1  0.130800  0.744600  0.192800  1.0  -0.305
  O  O299  1  0.842700  0.442500  0.431100  1.0  -0.3995
  O  O300  1  0.912300  0.394200  0.370600  1.0  -0.4706
  O  O301  1  0.639600  0.387500  0.376700  1.0  -0.32
  O  O302  1  0.632400  0.294100  0.355000  1.0  -0.3465
  O  O303  1  0.855500  0.300800  0.147600  1.0  -0.3064
  O  O304  1  0.803300  0.225100  0.177000  1.0  -0.2943
  O  O305  1  0.650500  0.339000  0.419800  1.0  -0.3177
  O  O306  1  0.619800  0.346800  0.309400  1.0  -0.3158
  O  O307  1  0.791700  0.271500  0.130100  1.0  -0.3199
  O  O308  1  0.869200  0.255400  0.192800  1.0  -0.2959
  O  O309  1  0.442500  0.842700  0.068900  1.0  -0.3979
  O  O310  1  0.394200  0.912300  0.129400  1.0  -0.4724
  O  O311  1  0.387500  0.639600  0.123300  1.0  -0.3015
  O  O312  1  0.294100  0.632400  0.145000  1.0  -0.3464
  O  O313  1  0.300800  0.855500  0.352400  1.0  -0.3015
  O  O314  1  0.225100  0.803300  0.323000  1.0  -0.2893
  O  O315  1  0.339000  0.650500  0.080200  1.0  -0.3236
  O  O316  1  0.346800  0.619800  0.190600  1.0  -0.3196
  O  O317  1  0.271500  0.791700  0.369900  1.0  -0.3209
  O  O318  1  0.255400  0.869200  0.307200  1.0  -0.3044
  O  O319  1  0.557500  0.157300  0.068900  1.0  -0.3982
  O  O320  1  0.605800  0.087700  0.129400  1.0  -0.4716
  O  O321  1  0.612500  0.360400  0.123300  1.0  -0.3213
  O  O322  1  0.705900  0.367600  0.145000  1.0  -0.3421
  O  O323  1  0.699200  0.144500  0.352400  1.0  -0.3088
  O  O324  1  0.774900  0.196700  0.323000  1.0  -0.2833
  O  O325  1  0.661000  0.349500  0.080200  1.0  -0.3258
  O  O326  1  0.653200  0.380200  0.190600  1.0  -0.3199
  O  O327  1  0.728500  0.208300  0.369900  1.0  -0.3218
  O  O328  1  0.744600  0.130800  0.307200  1.0  -0.2994
  O  O329  1  0.842700  0.557500  0.568900  1.0  -0.3994
  O  O330  1  0.912300  0.605800  0.629400  1.0  -0.4723
  O  O331  1  0.639600  0.612500  0.623300  1.0  -0.3193
  O  O332  1  0.632400  0.705900  0.645000  1.0  -0.3477
  O  O333  1  0.855500  0.699200  0.852400  1.0  -0.3029
  O  O334  1  0.803300  0.774900  0.823000  1.0  -0.2933
  O  O335  1  0.650500  0.661000  0.580200  1.0  -0.3224
  O  O336  1  0.619800  0.653200  0.690600  1.0  -0.3168
  O  O337  1  0.791700  0.728500  0.869900  1.0  -0.3209
  O  O338  1  0.869200  0.744600  0.807200  1.0  -0.2963
  O  O339  1  0.157300  0.442500  0.568900  1.0  -0.3988
  O  O340  1  0.087700  0.394200  0.629400  1.0  -0.4722
  O  O341  1  0.360400  0.387500  0.623300  1.0  -0.3181
  O  O342  1  0.367600  0.294100  0.645000  1.0  -0.343
  O  O343  1  0.144500  0.300800  0.852400  1.0  -0.3063
  O  O344  1  0.196700  0.225100  0.823000  1.0  -0.295
  O  O345  1  0.349500  0.339000  0.580200  1.0  -0.3222
  O  O346  1  0.380200  0.346800  0.690600  1.0  -0.3152
  O  O347  1  0.208300  0.271500  0.869900  1.0  -0.3176
  O  O348  1  0.130800  0.255400  0.807200  1.0  -0.305
  O  O349  1  0.500000  0.052000  0.092000  1.0  -0.9387
  O  O350  1  0.500000  0.948000  0.092000  1.0  -0.9387
  O  O351  1  0.948000  0.500000  0.592000  1.0  -0.9395
  O  O352  1  0.052000  0.500000  0.592000  1.0  -0.9388
  O  O353  1  0.500000  0.052000  0.908000  1.0  -0.9449
  O  O354  1  0.500000  0.948000  0.908000  1.0  -0.9448
  O  O355  1  0.052000  0.500000  0.408000  1.0  -0.9447
  O  O356  1  0.948000  0.500000  0.408000  1.0  -0.9455
  O  O357  1  0.422500  0.053000  0.000000  1.0  -0.8477
  O  O358  1  0.577500  0.947000  0.000000  1.0  -0.8481
  O  O359  1  0.947000  0.422500  0.500000  1.0  -0.8464
  O  O360  1  0.053000  0.577500  0.500000  1.0  -0.846
  O  O361  1  0.577500  0.053000  0.000000  1.0  -0.8474
  O  O362  1  0.422500  0.947000  0.000000  1.0  -0.8478
  O  O363  1  0.053000  0.422500  0.500000  1.0  -0.846
  O  O364  1  0.947000  0.577500  0.500000  1.0  -0.8459
