# generated using pymatgen
data_ZnH12C20(NO2)2
_symmetry_space_group_name_H-M   'P 1'
_cell_length_a   13.17410000
_cell_length_b   13.21900000
_cell_length_c   14.02880000
_cell_angle_alpha   82.98900000
_cell_angle_beta   82.36900000
_cell_angle_gamma   84.05400000
_symmetry_Int_Tables_number   1
_chemical_formula_structural   ZnH12C20(NO2)2
_chemical_formula_sum   'Zn4 H48 C80 N8 O16'
_cell_volume   2393.85078947
_cell_formula_units_Z   4
loop_
 _symmetry_equiv_pos_site_id
 _symmetry_equiv_pos_as_xyz
  1  'x, y, z'
loop_
 _atom_site_type_symbol
 _atom_site_label
 _atom_site_symmetry_multiplicity
 _atom_site_fract_x
 _atom_site_fract_y
 _atom_site_fract_z
 _atom_site_occupancy
 _atom_site_charge
  Zn  Zn1  1  0.363970  0.171970  0.799010  1.0  0.9419
  Zn  Zn2  1  0.373840  0.177610  0.588830  1.0  0.8961
  Zn  Zn3  1  0.636030  0.828030  0.200990  1.0  0.9416
  Zn  Zn4  1  0.626160  0.822390  0.411170  1.0  0.8956
  H  H5  1  0.339900  0.495900  0.805300  1.0  0.0937
  H  H6  1  0.338000  0.659200  0.867100  1.0  0.0909
  H  H7  1  0.344400  0.843600  0.856000  1.0  0.0645
  H  H8  1  0.398900  0.511800  0.519800  1.0  0.0921
  H  H9  1  0.407200  0.685700  0.513400  1.0  0.0624
  H  H10  1  0.386300  0.846600  0.583400  1.0  0.0705
  H  H11  1  0.049900  0.180100  0.589000  1.0  0.0933
  H  H12  1  0.890800  0.164600  0.522400  1.0  0.0659
  H  H13  1  0.711000  0.161400  0.534400  1.0  0.0726
  H  H14  1  0.851000  0.178000  0.876400  1.0  0.0751
  H  H15  1  0.026400  0.173700  0.870100  1.0  0.0863
  H  H16  1  0.691900  0.169800  0.806900  1.0  0.0804
  H  H17  1  0.238700  0.272300  0.956700  1.0  0.0696
  H  H18  1  0.491700  0.093900  0.121500  1.0  0.0953
  H  H19  1  0.493900  0.091200  0.956800  1.0  0.0739
  H  H20  1  0.341700  0.342600  0.254100  1.0  0.1177
  H  H21  1  0.350800  0.331300  0.418500  1.0  0.0701
  H  H22  1  0.385600  0.031600  0.440300  1.0  0.0705
  H  H23  1  0.384200  0.033800  0.275000  1.0  0.0894
  H  H24  1  0.152610  0.383640  0.786080  1.0  0.0874
  H  H25  1  0.992340  0.414060  0.712110  1.0  0.0923
  H  H26  1  0.193560  0.496610  0.905190  1.0  0.1115
  H  H27  1  0.041920  0.641830  0.961130  1.0  0.113
  H  H28  1  0.151890  0.450860  0.235880  1.0  0.1004
  H  H29  1  0.660100  0.504100  0.194700  1.0  0.0943
  H  H30  1  0.662000  0.340800  0.132900  1.0  0.0913
  H  H31  1  0.655600  0.156400  0.144000  1.0  0.0638
  H  H32  1  0.601100  0.488200  0.480200  1.0  0.0913
  H  H33  1  0.592800  0.314300  0.486600  1.0  0.0616
  H  H34  1  0.613700  0.153400  0.416600  1.0  0.0711
  H  H35  1  0.950100  0.819900  0.411000  1.0  0.0936
  H  H36  1  0.109200  0.835400  0.477600  1.0  0.0653
  H  H37  1  0.289000  0.838600  0.465600  1.0  0.0734
  H  H38  1  0.149000  0.822000  0.123600  1.0  0.0748
  H  H39  1  0.973600  0.826300  0.129900  1.0  0.0862
  H  H40  1  0.308100  0.830200  0.193100  1.0  0.0815
  H  H41  1  0.761300  0.727700  0.043300  1.0  0.0693
  H  H42  1  0.508300  0.906100  0.878500  1.0  0.0956
  H  H43  1  0.506100  0.908800  0.043200  1.0  0.0735
  H  H44  1  0.658300  0.657400  0.745900  1.0  0.1171
  H  H45  1  0.649200  0.668700  0.581500  1.0  0.0704
  H  H46  1  0.614400  0.968400  0.559700  1.0  0.0706
  H  H47  1  0.615800  0.966200  0.725000  1.0  0.0897
  H  H48  1  0.847390  0.616360  0.213920  1.0  0.0872
  H  H49  1  0.007660  0.585940  0.287890  1.0  0.0918
  H  H50  1  0.806440  0.503390  0.094810  1.0  0.1122
  H  H51  1  0.958080  0.358170  0.038870  1.0  0.1127
  H  H52  1  0.848110  0.549140  0.764120  1.0  0.1003
  C  C53  1  0.366700  0.372000  0.670300  1.0  0.6786
  C  C54  1  0.367600  0.485000  0.662500  1.0  -0.1432
  C  C55  1  0.352300  0.534700  0.744000  1.0  -0.1579
  C  C56  1  0.347600  0.693800  0.803600  1.0  -0.1484
  C  C57  1  0.352300  0.812100  0.797800  1.0  -0.1859
  C  C58  1  0.387300  0.542900  0.578300  1.0  -0.1617
  C  C59  1  0.391100  0.648400  0.575000  1.0  -0.146
  C  C60  1  0.365500  0.864000  0.721800  1.0  0.2096
  C  C61  1  0.376300  0.809900  0.646000  1.0  -0.1497
  C  C62  1  0.354300  0.640800  0.739800  1.0  0.2634
  C  C63  1  0.373900  0.700500  0.651300  1.0  0.0814
  C  C64  1  0.369500  0.977300  0.710500  1.0  0.6677
  C  C65  1  0.172000  0.181900  0.720900  1.0  0.6825
  C  C66  1  0.057600  0.180300  0.729200  1.0  -0.0279
  C  C67  1  0.009600  0.178700  0.650500  1.0  -0.1329
  C  C68  1  0.852700  0.168200  0.584500  1.0  -0.1137
  C  C69  1  0.740200  0.165300  0.592100  1.0  -0.113
  C  C70  1  0.890800  0.176500  0.814800  1.0  -0.1184
  C  C71  1  0.997100  0.176500  0.811400  1.0  -0.1658
  C  C72  1  0.680600  0.167500  0.669600  1.0  0.2632
  C  C73  1  0.730800  0.170400  0.744800  1.0  -0.1273
  C  C74  1  0.902300  0.175200  0.654700  1.0  0.1812
  C  C75  1  0.840700  0.174500  0.739200  1.0  0.0365
  C  C76  1  0.567200  0.165100  0.679700  1.0  0.665
  C  C77  1  0.290700  0.235400  0.991200  1.0  0.1691
  C  C78  1  0.286100  0.243800  0.088800  1.0  0.1759
  C  C79  1  0.360400  0.188200  0.140600  1.0  0.0137
  C  C80  1  0.438300  0.131400  0.089200  1.0  -0.1996
  C  C81  1  0.438800  0.129200  0.991200  1.0  0.153
  C  C82  1  0.359500  0.187200  0.246400  1.0  0.0788
  C  C83  1  0.350900  0.277700  0.290700  1.0  -0.2465
  C  C84  1  0.356100  0.269800  0.388800  1.0  0.1588
  C  C85  1  0.377200  0.095500  0.401800  1.0  0.1625
  C  C86  1  0.375000  0.096400  0.303300  1.0  -0.1991
  C  C87  1  0.058600  0.412200  0.138300  1.0  0.1018
  C  C88  1  0.907400  0.552300  0.191700  1.0  -0.0468
  C  C89  1  0.075800  0.465100  0.204000  1.0  -0.0709
  C  C90  1  0.994100  0.537700  0.229500  1.0  -0.0581
  C  C91  1  0.884500  0.490800  0.123100  1.0  -0.0088
  C  C92  1  0.963800  0.414400  0.093000  1.0  0.014
  C  C93  1  0.633300  0.628000  0.329700  1.0  0.6785
  C  C94  1  0.632400  0.515000  0.337500  1.0  -0.1434
  C  C95  1  0.647700  0.465300  0.256000  1.0  -0.156
  C  C96  1  0.652400  0.306200  0.196400  1.0  -0.1441
  C  C97  1  0.647700  0.187900  0.202200  1.0  -0.1854
  C  C98  1  0.612700  0.457100  0.421700  1.0  -0.1621
  C  C99  1  0.608900  0.351600  0.425000  1.0  -0.1457
  C  C100  1  0.634500  0.136000  0.278200  1.0  0.2123
  C  C101  1  0.623700  0.190100  0.354000  1.0  -0.1423
  C  C102  1  0.645700  0.359200  0.260200  1.0  0.2648
  C  C103  1  0.626100  0.299500  0.348700  1.0  0.0808
  C  C104  1  0.630500  0.022700  0.289500  1.0  0.6677
  C  C105  1  0.828000  0.818100  0.279100  1.0  0.6826
  C  C106  1  0.942400  0.819700  0.270800  1.0  -0.028
  C  C107  1  0.990400  0.821300  0.349500  1.0  -0.1315
  C  C108  1  0.147300  0.831800  0.415500  1.0  -0.1157
  C  C109  1  0.259800  0.834700  0.407900  1.0  -0.1144
  C  C110  1  0.109200  0.823500  0.185200  1.0  -0.1195
  C  C111  1  0.002900  0.823500  0.188600  1.0  -0.1665
  C  C112  1  0.319400  0.832500  0.330400  1.0  0.2642
  C  C113  1  0.269200  0.829600  0.255200  1.0  -0.1278
  C  C114  1  0.097700  0.824800  0.345300  1.0  0.1776
  C  C115  1  0.159300  0.825500  0.260800  1.0  0.0366
  C  C116  1  0.432800  0.834900  0.320300  1.0  0.6659
  C  C117  1  0.709300  0.764600  0.008800  1.0  0.1693
  C  C118  1  0.713900  0.756200  0.911200  1.0  0.1752
  C  C119  1  0.639600  0.811800  0.859400  1.0  0.0153
  C  C120  1  0.561700  0.868600  0.910800  1.0  -0.2005
  C  C121  1  0.561200  0.870800  0.008800  1.0  0.1522
  C  C122  1  0.640500  0.812800  0.753600  1.0  0.0787
  C  C123  1  0.649100  0.722300  0.709300  1.0  -0.247
  C  C124  1  0.643900  0.730200  0.611200  1.0  0.1587
  C  C125  1  0.622800  0.904500  0.598200  1.0  0.1634
  C  C126  1  0.625000  0.903600  0.696700  1.0  -0.1983
  C  C127  1  0.941400  0.587800  0.861700  1.0  0.102
  C  C128  1  0.092600  0.447700  0.808300  1.0  -0.0481
  C  C129  1  0.924200  0.534900  0.796000  1.0  -0.0717
  C  C130  1  0.005900  0.462300  0.770500  1.0  -0.0601
  C  C131  1  0.115500  0.509200  0.876900  1.0  -0.0062
  C  C132  1  0.036200  0.585600  0.907000  1.0  0.015
  N  N133  1  0.364200  0.178600  0.943000  1.0  -0.3284
  N  N134  1  0.205400  0.306600  0.138000  1.0  -0.2345
  N  N135  1  0.144300  0.348700  0.092700  1.0  -0.1866
  N  N136  1  0.368100  0.181200  0.444500  1.0  -0.3246
  N  N137  1  0.635800  0.821400  0.057000  1.0  -0.3258
  N  N138  1  0.794600  0.693400  0.862000  1.0  -0.2359
  N  N139  1  0.855700  0.651300  0.907300  1.0  -0.1875
  N  N140  1  0.631900  0.818800  0.555500  1.0  -0.3242
  O  O141  1  0.357000  0.323800  0.753400  1.0  -0.6148
  O  O142  1  0.374500  0.330600  0.593400  1.0  -0.5984
  O  O143  1  0.221000  0.188000  0.639000  1.0  -0.6216
  O  O144  1  0.210000  0.176900  0.799200  1.0  -0.5894
  O  O145  1  0.527200  0.164600  0.602700  1.0  -0.5968
  O  O146  1  0.518200  0.162200  0.762700  1.0  -0.6137
  O  O147  1  0.368200  0.018200  0.787500  1.0  -0.6086
  O  O148  1  0.374500  0.024100  0.627900  1.0  -0.6002
  O  O149  1  0.643000  0.676200  0.246600  1.0  -0.6158
  O  O150  1  0.625500  0.669400  0.406600  1.0  -0.5971
  O  O151  1  0.779000  0.812000  0.361000  1.0  -0.622
  O  O152  1  0.790000  0.823100  0.200800  1.0  -0.5892
  O  O153  1  0.472800  0.835400  0.397300  1.0  -0.5954
  O  O154  1  0.481800  0.837800  0.237300  1.0  -0.6152
  O  O155  1  0.631800  0.981800  0.212500  1.0  -0.609
  O  O156  1  0.625500  0.975900  0.372100  1.0  -0.5995
