# generated using pymatgen
data_Cd2H24(C11O4)3
_symmetry_space_group_name_H-M   'P 1'
_cell_length_a   17.30600000
_cell_length_b   19.51700000
_cell_length_c   18.72200000
_cell_angle_alpha   90.00000000
_cell_angle_beta   90.00000000
_cell_angle_gamma   90.00000000
_symmetry_Int_Tables_number   1
_chemical_formula_structural   Cd2H24(C11O4)3
_chemical_formula_sum   'Cd8 H96 C132 O48'
_cell_volume   6323.56522384
_cell_formula_units_Z   4
loop_
 _symmetry_equiv_pos_site_id
 _symmetry_equiv_pos_as_xyz
  1  'x, y, z'
loop_
 _atom_site_type_symbol
 _atom_site_label
 _atom_site_symmetry_multiplicity
 _atom_site_fract_x
 _atom_site_fract_y
 _atom_site_fract_z
 _atom_site_occupancy
 _atom_site_charge
  Cd  Cd1  1  0.780500  0.558750  0.657080  1.0  1.1049
  Cd  Cd2  1  0.929180  0.577450  0.786400  1.0  0.8922
  Cd  Cd3  1  0.280500  0.941250  0.157080  1.0  1.1047
  Cd  Cd4  1  0.429180  0.922550  0.286400  1.0  0.8925
  Cd  Cd5  1  0.219500  0.441250  0.157080  1.0  1.1026
  Cd  Cd6  1  0.070820  0.422560  0.286400  1.0  0.8927
  Cd  Cd7  1  0.719500  0.058750  0.657080  1.0  1.1026
  Cd  Cd8  1  0.570820  0.077440  0.786400  1.0  0.8923
  H  H9  1  0.435300  0.502800  0.110000  1.0  0.0693
  H  H10  1  0.418600  0.497000  0.194200  1.0  0.0715
  H  H11  1  0.430100  0.374200  0.183600  1.0  0.0711
  H  H12  1  0.448800  0.381900  0.100000  1.0  0.0707
  H  H13  1  0.508400  0.442100  0.275400  1.0  0.0715
  H  H14  1  0.575400  0.392300  0.247200  1.0  0.0691
  H  H15  1  0.613500  0.494900  0.124200  1.0  0.071
  H  H16  1  0.621900  0.413100  0.118900  1.0  0.0824
  H  H17  1  0.341100  0.163400  0.133900  1.0  0.1098
  H  H18  1  0.284800  0.688600  0.161000  1.0  0.1196
  H  H19  1  0.350800  0.584600  0.151100  1.0  0.1122
  H  H20  1  0.632500  0.445000  0.483300  1.0  0.104
  H  H21  1  0.384300  0.275000  0.117700  1.0  0.131
  H  H22  1  0.581100  0.418900  0.370800  1.0  0.1369
  H  H23  1  0.593200  0.501200  0.819400  1.0  0.0854
  H  H24  1  0.517900  0.469000  0.916300  1.0  0.125
  H  H25  1  0.594800  0.218500  0.192600  1.0  0.133
  H  H26  1  0.545000  0.109900  0.218300  1.0  0.1127
  H  H27  1  0.709200  0.477000  0.040900  1.0  0.1318
  H  H28  1  0.777100  0.513100  0.945800  1.0  0.1029
  H  H29  1  0.691500  0.584700  0.287500  1.0  0.1196
  H  H30  1  0.747500  0.607600  0.398600  1.0  0.122
  H  H31  1  0.553700  0.681200  0.194300  1.0  0.1395
  H  H32  1  0.487600  0.786400  0.193200  1.0  0.1138
  H  H33  1  0.935300  0.997200  0.610000  1.0  0.0687
  H  H34  1  0.918600  0.003000  0.694200  1.0  0.0715
  H  H35  1  0.930100  0.125800  0.683600  1.0  0.0706
  H  H36  1  0.948800  0.118100  0.600000  1.0  0.0713
  H  H37  1  0.008400  0.057900  0.775400  1.0  0.0704
  H  H38  1  0.075400  0.107700  0.747200  1.0  0.0687
  H  H39  1  0.113500  0.005100  0.624200  1.0  0.0713
  H  H40  1  0.121900  0.086900  0.618900  1.0  0.0828
  H  H41  1  0.841100  0.336600  0.633900  1.0  0.1099
  H  H42  1  0.784800  0.811400  0.661000  1.0  0.1196
  H  H43  1  0.850800  0.915400  0.651100  1.0  0.112
  H  H44  1  0.132500  0.055000  0.983300  1.0  0.1041
  H  H45  1  0.884300  0.225000  0.617700  1.0  0.1297
  H  H46  1  0.081100  0.081100  0.870800  1.0  0.1367
  H  H47  1  0.093200  0.998800  0.319400  1.0  0.0855
  H  H48  1  0.017900  0.031000  0.416300  1.0  0.1249
  H  H49  1  0.094800  0.281500  0.692600  1.0  0.1348
  H  H50  1  0.045000  0.390100  0.718300  1.0  0.1124
  H  H51  1  0.209200  0.023000  0.540900  1.0  0.1315
  H  H52  1  0.277100  0.986900  0.445800  1.0  0.1029
  H  H53  1  0.191500  0.915300  0.787500  1.0  0.1192
  H  H54  1  0.247500  0.892400  0.898600  1.0  0.1214
  H  H55  1  0.053700  0.818800  0.694300  1.0  0.138
  H  H56  1  0.987600  0.713600  0.693200  1.0  0.1141
  H  H57  1  0.564700  0.497200  0.610000  1.0  0.0685
  H  H58  1  0.581400  0.503000  0.694200  1.0  0.0706
  H  H59  1  0.569900  0.625800  0.683600  1.0  0.0694
  H  H60  1  0.551200  0.618100  0.600000  1.0  0.0709
  H  H61  1  0.491600  0.557900  0.775400  1.0  0.0707
  H  H62  1  0.424600  0.607700  0.747200  1.0  0.0699
  H  H63  1  0.386500  0.505100  0.624200  1.0  0.0708
  H  H64  1  0.378100  0.586900  0.618900  1.0  0.0835
  H  H65  1  0.658900  0.836600  0.633900  1.0  0.11
  H  H66  1  0.715200  0.311400  0.661000  1.0  0.1217
  H  H67  1  0.649200  0.415400  0.651100  1.0  0.112
  H  H68  1  0.367500  0.555000  0.983300  1.0  0.1039
  H  H69  1  0.615700  0.725000  0.617700  1.0  0.1309
  H  H70  1  0.418900  0.581100  0.870800  1.0  0.1359
  H  H71  1  0.406800  0.498800  0.319400  1.0  0.0858
  H  H72  1  0.482100  0.531000  0.416300  1.0  0.125
  H  H73  1  0.405200  0.781500  0.692600  1.0  0.1343
  H  H74  1  0.455000  0.890100  0.718300  1.0  0.1124
  H  H75  1  0.290800  0.523000  0.540900  1.0  0.1319
  H  H76  1  0.222900  0.486900  0.445800  1.0  0.1031
  H  H77  1  0.308500  0.415300  0.787500  1.0  0.1191
  H  H78  1  0.252500  0.392400  0.898600  1.0  0.1217
  H  H79  1  0.446300  0.318800  0.694300  1.0  0.14
  H  H80  1  0.512400  0.213600  0.693200  1.0  0.1137
  H  H81  1  0.064700  0.002800  0.110000  1.0  0.0686
  H  H82  1  0.081400  0.997000  0.194200  1.0  0.0701
  H  H83  1  0.069900  0.874200  0.183600  1.0  0.0695
  H  H84  1  0.051200  0.881900  0.100000  1.0  0.0703
  H  H85  1  0.991600  0.942100  0.275400  1.0  0.0721
  H  H86  1  0.924600  0.892300  0.247200  1.0  0.0697
  H  H87  1  0.886500  0.994900  0.124200  1.0  0.0708
  H  H88  1  0.878100  0.913100  0.118900  1.0  0.083
  H  H89  1  0.158900  0.663400  0.133900  1.0  0.11
  H  H90  1  0.215200  0.188600  0.161000  1.0  0.1203
  H  H91  1  0.149200  0.084600  0.151100  1.0  0.1119
  H  H92  1  0.867500  0.945000  0.483300  1.0  0.1039
  H  H93  1  0.115700  0.775000  0.117700  1.0  0.1309
  H  H94  1  0.918900  0.918900  0.370800  1.0  0.1365
  H  H95  1  0.906800  0.001200  0.819400  1.0  0.0856
  H  H96  1  0.982100  0.969000  0.916300  1.0  0.1252
  H  H97  1  0.905200  0.718500  0.192600  1.0  0.133
  H  H98  1  0.955000  0.609900  0.218300  1.0  0.1127
  H  H99  1  0.790800  0.977000  0.040900  1.0  0.1321
  H  H100  1  0.722900  0.013100  0.945800  1.0  0.103
  H  H101  1  0.808500  0.084700  0.287500  1.0  0.1195
  H  H102  1  0.752500  0.107600  0.398600  1.0  0.1224
  H  H103  1  0.946300  0.181200  0.194300  1.0  0.1399
  H  H104  1  0.012400  0.286400  0.193200  1.0  0.1141
  C  C105  1  0.339900  0.815440  0.174950  1.0  0.6751
  C  C106  1  0.725100  0.543800  0.523900  1.0  0.7316
  C  C107  1  0.518480  0.443500  0.163400  1.0  -0.0286
  C  C108  1  0.459620  0.502510  0.157900  1.0  0.0586
  C  C109  1  0.472180  0.379090  0.148100  1.0  0.0663
  C  C110  1  0.693100  0.529400  0.453250  1.0  -0.1222
  C  C111  1  0.551000  0.437660  0.240450  1.0  0.0492
  C  C112  1  0.585500  0.451890  0.113520  1.0  0.0879
  C  C113  1  0.490840  0.258280  0.159200  1.0  0.3011
  C  C114  1  0.392500  0.175050  0.147100  1.0  -0.0272
  C  C115  1  0.440100  0.124800  0.174840  1.0  -0.1109
  C  C116  1  0.339400  0.687360  0.165800  1.0  -0.0353
  C  C117  1  0.378600  0.625360  0.161400  1.0  -0.2688
  C  C118  1  0.630400  0.499700  0.319080  1.0  0.2698
  C  C119  1  0.644700  0.473330  0.443540  1.0  -0.0119
  C  C120  1  0.380700  0.747560  0.177300  1.0  -0.1207
  C  C121  1  0.417400  0.241430  0.138100  1.0  -0.2602
  C  C122  1  0.604700  0.471580  0.988840  1.0  0.3064
  C  C123  1  0.693800  0.511640  0.871570  1.0  -0.1101
  C  C124  1  0.613500  0.457760  0.376730  1.0  -0.2486
  C  C125  1  0.456400  0.622160  0.171600  1.0  0.2982
  C  C126  1  0.740700  0.532600  0.809570  1.0  0.7522
  C  C127  1  0.410800  0.052940  0.185600  1.0  0.7405
  C  C128  1  0.616600  0.497400  0.865130  1.0  -0.0637
  C  C129  1  0.571400  0.477900  0.922590  1.0  -0.2407
  C  C130  1  0.542000  0.208120  0.184000  1.0  -0.193
  C  C131  1  0.513200  0.142990  0.195500  1.0  -0.0106
  C  C132  1  0.684300  0.483400  0.996160  1.0  -0.2428
  C  C133  1  0.723800  0.503500  0.939400  1.0  -0.0429
  C  C134  1  0.680100  0.556200  0.327300  1.0  -0.223
  C  C135  1  0.712500  0.570500  0.393400  1.0  -0.0296
  C  C136  1  0.499600  0.682900  0.185700  1.0  -0.2071
  C  C137  1  0.459700  0.745000  0.186400  1.0  -0.0224
  C  C138  1  0.839900  0.684560  0.674950  1.0  0.6744
  C  C139  1  0.225100  0.956200  0.023900  1.0  0.7305
  C  C140  1  0.018480  0.056500  0.663400  1.0  -0.0289
  C  C141  1  0.959620  0.997490  0.657900  1.0  0.0587
  C  C142  1  0.972180  0.120910  0.648100  1.0  0.0636
  C  C143  1  0.193100  0.970600  0.953250  1.0  -0.1224
  C  C144  1  0.051000  0.062340  0.740450  1.0  0.0494
  C  C145  1  0.085500  0.048110  0.613520  1.0  0.0875
  C  C146  1  0.990840  0.241720  0.659200  1.0  0.2935
  C  C147  1  0.892500  0.324950  0.647100  1.0  -0.0274
  C  C148  1  0.940100  0.375200  0.674840  1.0  -0.1112
  C  C149  1  0.839400  0.812640  0.665800  1.0  -0.0347
  C  C150  1  0.878600  0.874640  0.661400  1.0  -0.2684
  C  C151  1  0.130400  0.000300  0.819080  1.0  0.2607
  C  C152  1  0.144700  0.026670  0.943540  1.0  -0.0114
  C  C153  1  0.880700  0.752440  0.677300  1.0  -0.1214
  C  C154  1  0.917400  0.258570  0.638100  1.0  -0.2605
  C  C155  1  0.104700  0.028420  0.488840  1.0  0.3064
  C  C156  1  0.193800  0.988360  0.371570  1.0  -0.1096
  C  C157  1  0.113500  0.042240  0.876730  1.0  -0.2444
  C  C158  1  0.956400  0.877840  0.671600  1.0  0.2986
  C  C159  1  0.240700  0.967400  0.309570  1.0  0.7516
  C  C160  1  0.910800  0.447060  0.685600  1.0  0.7411
  C  C161  1  0.116600  0.002600  0.365130  1.0  -0.0637
  C  C162  1  0.071400  0.022100  0.422590  1.0  -0.2415
  C  C163  1  0.042000  0.291880  0.684000  1.0  -0.1933
  C  C164  1  0.013200  0.357010  0.695500  1.0  -0.0093
  C  C165  1  0.184300  0.016600  0.496160  1.0  -0.2422
  C  C166  1  0.223800  0.996500  0.439400  1.0  -0.0432
  C  C167  1  0.180100  0.943800  0.827300  1.0  -0.2217
  C  C168  1  0.212500  0.929500  0.893400  1.0  -0.0309
  C  C169  1  0.999600  0.817100  0.685700  1.0  -0.2066
  C  C170  1  0.959700  0.755000  0.686400  1.0  -0.0235
  C  C171  1  0.660100  0.184560  0.674950  1.0  0.6746
  C  C172  1  0.274900  0.456200  0.023900  1.0  0.731
  C  C173  1  0.481520  0.556500  0.663400  1.0  -0.0288
  C  C174  1  0.540380  0.497490  0.657900  1.0  0.0588
  C  C175  1  0.527820  0.620910  0.648100  1.0  0.0649
  C  C176  1  0.306900  0.470600  0.953250  1.0  -0.1212
  C  C177  1  0.449000  0.562340  0.740450  1.0  0.0481
  C  C178  1  0.414500  0.548110  0.613520  1.0  0.0892
  C  C179  1  0.509160  0.741720  0.659200  1.0  0.2913
  C  C180  1  0.607500  0.824950  0.647100  1.0  -0.0273
  C  C181  1  0.559900  0.875200  0.674840  1.0  -0.1119
  C  C182  1  0.660600  0.312640  0.665800  1.0  -0.0336
  C  C183  1  0.621400  0.374640  0.661400  1.0  -0.2679
  C  C184  1  0.369600  0.500300  0.819080  1.0  0.2712
  C  C185  1  0.355300  0.526670  0.943540  1.0  -0.0123
  C  C186  1  0.619300  0.252440  0.677300  1.0  -0.1209
  C  C187  1  0.582600  0.758570  0.638100  1.0  -0.2595
  C  C188  1  0.395300  0.528420  0.488840  1.0  0.3151
  C  C189  1  0.306200  0.488360  0.371570  1.0  -0.1101
  C  C190  1  0.386500  0.542240  0.876730  1.0  -0.2437
  C  C191  1  0.543600  0.377840  0.671600  1.0  0.2907
  C  C192  1  0.259300  0.467400  0.309570  1.0  0.7491
  C  C193  1  0.589200  0.947060  0.685600  1.0  0.7403
  C  C194  1  0.383400  0.502600  0.365130  1.0  -0.0651
  C  C195  1  0.428600  0.522100  0.422590  1.0  -0.2337
  C  C196  1  0.458000  0.791880  0.684000  1.0  -0.1946
  C  C197  1  0.486800  0.857010  0.695500  1.0  -0.0107
  C  C198  1  0.315700  0.516600  0.496160  1.0  -0.243
  C  C199  1  0.276200  0.496500  0.439400  1.0  -0.0503
  C  C200  1  0.319900  0.443800  0.827300  1.0  -0.2279
  C  C201  1  0.287500  0.429500  0.893400  1.0  -0.0323
  C  C202  1  0.500400  0.317100  0.685700  1.0  -0.2064
  C  C203  1  0.540300  0.255000  0.686400  1.0  -0.0257
  C  C204  1  0.160100  0.315440  0.174950  1.0  0.6761
  C  C205  1  0.774900  0.043800  0.523900  1.0  0.7324
  C  C206  1  0.981520  0.943500  0.163400  1.0  -0.0287
  C  C207  1  0.040380  0.002510  0.157900  1.0  0.06
  C  C208  1  0.027820  0.879090  0.148100  1.0  0.0654
  C  C209  1  0.806900  0.029400  0.453250  1.0  -0.1212
  C  C210  1  0.949000  0.937660  0.240450  1.0  0.0475
  C  C211  1  0.914500  0.951890  0.113520  1.0  0.0889
  C  C212  1  0.009160  0.758280  0.159200  1.0  0.3005
  C  C213  1  0.107500  0.675050  0.147100  1.0  -0.0276
  C  C214  1  0.059900  0.624800  0.174840  1.0  -0.1114
  C  C215  1  0.160600  0.187360  0.165800  1.0  -0.0338
  C  C216  1  0.121400  0.125360  0.161400  1.0  -0.2677
  C  C217  1  0.869600  0.999700  0.319080  1.0  0.2711
  C  C218  1  0.855300  0.973330  0.443540  1.0  -0.013
  C  C219  1  0.119300  0.247560  0.177300  1.0  -0.1207
  C  C220  1  0.082600  0.741430  0.138100  1.0  -0.2595
  C  C221  1  0.895300  0.971580  0.988840  1.0  0.3153
  C  C222  1  0.806200  0.011640  0.871570  1.0  -0.1104
  C  C223  1  0.886500  0.957760  0.376730  1.0  -0.2474
  C  C224  1  0.043600  0.122160  0.171600  1.0  0.2883
  C  C225  1  0.759300  0.032600  0.809570  1.0  0.7491
  C  C226  1  0.089200  0.552940  0.185600  1.0  0.7392
  C  C227  1  0.883400  0.997400  0.865130  1.0  -0.065
  C  C228  1  0.928600  0.977900  0.922590  1.0  -0.232
  C  C229  1  0.958000  0.708120  0.184000  1.0  -0.1933
  C  C230  1  0.986800  0.642990  0.195500  1.0  -0.0111
  C  C231  1  0.815700  0.983400  0.996160  1.0  -0.2431
  C  C232  1  0.776200  0.003500  0.939400  1.0  -0.0467
  C  C233  1  0.819900  0.056200  0.327300  1.0  -0.226
  C  C234  1  0.787500  0.070500  0.393400  1.0  -0.0331
  C  C235  1  0.000400  0.182900  0.185700  1.0  -0.2096
  C  C236  1  0.040300  0.245000  0.186400  1.0  -0.0255
  O  O237  1  0.270970  0.818430  0.164770  1.0  -0.5971
  O  O238  1  0.380430  0.869390  0.185290  1.0  -0.6614
  O  O239  1  0.784920  0.581220  0.527890  1.0  -0.6574
  O  O240  1  0.694280  0.519180  0.577500  1.0  -0.5756
  O  O241  1  0.522460  0.321830  0.152020  1.0  -0.2672
  O  O242  1  0.345620  0.038780  0.160880  1.0  -0.6301
  O  O243  1  0.500850  0.564770  0.169500  1.0  -0.2657
  O  O244  1  0.555290  0.453740  0.041880  1.0  -0.2678
  O  O245  1  0.707670  0.539280  0.750960  1.0  -0.5959
  O  O246  1  0.605870  0.489710  0.251900  1.0  -0.2555
  O  O247  1  0.454100  0.013740  0.221210  1.0  -0.6538
  O  O248  1  0.811000  0.541000  0.818850  1.0  -0.7442
  O  O249  1  0.770970  0.681570  0.664770  1.0  -0.5949
  O  O250  1  0.880430  0.630610  0.685290  1.0  -0.6612
  O  O251  1  0.284920  0.918780  0.027890  1.0  -0.6567
  O  O252  1  0.194280  0.980820  0.077500  1.0  -0.5763
  O  O253  1  0.022460  0.178170  0.652020  1.0  -0.2658
  O  O254  1  0.845620  0.461220  0.660880  1.0  -0.6321
  O  O255  1  0.000850  0.935230  0.669500  1.0  -0.265
  O  O256  1  0.055290  0.046260  0.541880  1.0  -0.2671
  O  O257  1  0.207670  0.960720  0.250960  1.0  -0.5955
  O  O258  1  0.105870  0.010290  0.751900  1.0  -0.2555
  O  O259  1  0.954100  0.486260  0.721210  1.0  -0.6564
  O  O260  1  0.311000  0.959000  0.318850  1.0  -0.7439
  O  O261  1  0.729030  0.181570  0.664770  1.0  -0.5929
  O  O262  1  0.619570  0.130610  0.685290  1.0  -0.6665
  O  O263  1  0.215080  0.418780  0.027890  1.0  -0.6625
  O  O264  1  0.305720  0.480820  0.077500  1.0  -0.5747
  O  O265  1  0.477540  0.678170  0.652020  1.0  -0.2665
  O  O266  1  0.654380  0.961220  0.660880  1.0  -0.6337
  O  O267  1  0.499150  0.435230  0.669500  1.0  -0.266
  O  O268  1  0.444710  0.546260  0.541880  1.0  -0.2675
  O  O269  1  0.292330  0.460720  0.250960  1.0  -0.5951
  O  O270  1  0.394130  0.510290  0.751900  1.0  -0.256
  O  O271  1  0.545900  0.986260  0.721210  1.0  -0.6551
  O  O272  1  0.189000  0.459000  0.318850  1.0  -0.7443
  O  O273  1  0.229030  0.318430  0.164770  1.0  -0.5936
  O  O274  1  0.119570  0.369390  0.185290  1.0  -0.6674
  O  O275  1  0.715080  0.081220  0.527890  1.0  -0.6625
  O  O276  1  0.805720  0.019180  0.577500  1.0  -0.5746
  O  O277  1  0.977540  0.821830  0.152020  1.0  -0.2673
  O  O278  1  0.154380  0.538780  0.160880  1.0  -0.6317
  O  O279  1  0.999150  0.064770  0.169500  1.0  -0.2657
  O  O280  1  0.944710  0.953740  0.041880  1.0  -0.2671
  O  O281  1  0.792330  0.039280  0.750960  1.0  -0.5959
  O  O282  1  0.894130  0.989710  0.251900  1.0  -0.2565
  O  O283  1  0.045900  0.513740  0.221210  1.0  -0.6536
  O  O284  1  0.689000  0.041000  0.818850  1.0  -0.7451
