# generated using pymatgen
data_ZnH52AuC38Br2N7
_symmetry_space_group_name_H-M   'P 1'
_cell_length_a   11.45070000
_cell_length_b   11.46350000
_cell_length_c   21.12100000
_cell_angle_alpha   90.00000000
_cell_angle_beta   90.00000000
_cell_angle_gamma   90.00000000
_symmetry_Int_Tables_number   1
_chemical_formula_structural   ZnH52AuC38Br2N7
_chemical_formula_sum   'Zn2 H104 Au2 C76 Br4 N14'
_cell_volume   2772.45016548
_cell_formula_units_Z   2
loop_
 _symmetry_equiv_pos_site_id
 _symmetry_equiv_pos_as_xyz
  1  'x, y, z'
loop_
 _atom_site_type_symbol
 _atom_site_label
 _atom_site_symmetry_multiplicity
 _atom_site_fract_x
 _atom_site_fract_y
 _atom_site_fract_z
 _atom_site_occupancy
 _atom_site_charge
  Zn  Zn1  1  0.000000  0.000000  0.750000  1.0  0.5752
  Zn  Zn2  1  0.000000  0.000000  0.250000  1.0  0.5752
  H  H3  1  0.083200  0.788400  0.669800  1.0  0.0773
  H  H4  1  0.078500  0.590000  0.666000  1.0  0.1091
  H  H5  1  0.788900  0.936700  0.665200  1.0  0.0705
  H  H6  1  0.588500  0.934900  0.662200  1.0  0.1156
  H  H7  1  0.916800  0.211600  0.669800  1.0  0.0771
  H  H8  1  0.921500  0.410000  0.666000  1.0  0.1086
  H  H9  1  0.211100  0.063300  0.665200  1.0  0.07
  H  H10  1  0.411500  0.065100  0.662200  1.0  0.1157
  H  H11  1  0.916800  0.788400  0.830200  1.0  0.0773
  H  H12  1  0.921500  0.590000  0.834000  1.0  0.108
  H  H13  1  0.211100  0.936700  0.834800  1.0  0.0691
  H  H14  1  0.411500  0.934900  0.837800  1.0  0.1149
  H  H15  1  0.083200  0.211600  0.830200  1.0  0.0777
  H  H16  1  0.078500  0.410000  0.834000  1.0  0.1087
  H  H17  1  0.788900  0.063300  0.834800  1.0  0.0697
  H  H18  1  0.588500  0.065100  0.837800  1.0  0.1156
  H  H19  1  0.916800  0.211600  0.330200  1.0  0.0775
  H  H20  1  0.921500  0.410000  0.334000  1.0  0.109
  H  H21  1  0.211100  0.063300  0.334800  1.0  0.0692
  H  H22  1  0.411500  0.065100  0.337800  1.0  0.1154
  H  H23  1  0.083200  0.788400  0.330200  1.0  0.077
  H  H24  1  0.078500  0.590000  0.334000  1.0  0.1074
  H  H25  1  0.788900  0.936700  0.334800  1.0  0.0692
  H  H26  1  0.588500  0.934900  0.337800  1.0  0.1153
  H  H27  1  0.083200  0.211600  0.169800  1.0  0.0776
  H  H28  1  0.078500  0.410000  0.166000  1.0  0.1094
  H  H29  1  0.788900  0.063300  0.165200  1.0  0.0703
  H  H30  1  0.588500  0.065100  0.162200  1.0  0.1154
  H  H31  1  0.916800  0.788400  0.169800  1.0  0.0773
  H  H32  1  0.921500  0.590000  0.166000  1.0  0.1085
  H  H33  1  0.211100  0.936700  0.165200  1.0  0.0703
  H  H34  1  0.411500  0.934900  0.162200  1.0  0.1157
  H  H35  1  0.616600  0.364800  0.240800  1.0  0.0882
  H  H36  1  0.518000  0.358300  0.190600  1.0  0.0867
  H  H37  1  0.692300  0.497500  0.187000  1.0  0.0773
  H  H38  1  0.596200  0.484000  0.135800  1.0  0.109
  H  H39  1  0.775500  0.308000  0.166900  1.0  0.0888
  H  H40  1  0.669500  0.278300  0.124100  1.0  0.0799
  H  H41  1  0.821400  0.337000  0.065300  1.0  0.1032
  H  H42  1  0.823300  0.452700  0.103400  1.0  0.1107
  H  H43  1  0.717200  0.423100  0.060600  1.0  0.0906
  H  H44  1  0.383400  0.635200  0.240800  1.0  0.086
  H  H45  1  0.482000  0.641700  0.190600  1.0  0.0876
  H  H46  1  0.307700  0.502500  0.187000  1.0  0.0732
  H  H47  1  0.403800  0.516000  0.135800  1.0  0.1086
  H  H48  1  0.224500  0.692000  0.166900  1.0  0.0883
  H  H49  1  0.330500  0.721700  0.124100  1.0  0.0797
  H  H50  1  0.178600  0.663000  0.065300  1.0  0.1049
  H  H51  1  0.176700  0.547300  0.103400  1.0  0.1096
  H  H52  1  0.282800  0.576900  0.060600  1.0  0.0888
  H  H53  1  0.383400  0.364800  0.259200  1.0  0.0875
  H  H54  1  0.482000  0.358300  0.309400  1.0  0.0885
  H  H55  1  0.307700  0.497500  0.313000  1.0  0.0761
  H  H56  1  0.403800  0.484000  0.364200  1.0  0.108
  H  H57  1  0.224500  0.308000  0.333100  1.0  0.0875
  H  H58  1  0.330500  0.278300  0.375900  1.0  0.0818
  H  H59  1  0.178600  0.337000  0.434700  1.0  0.1058
  H  H60  1  0.176700  0.452700  0.396600  1.0  0.1095
  H  H61  1  0.282800  0.423100  0.439400  1.0  0.0901
  H  H62  1  0.616600  0.635200  0.259200  1.0  0.0879
  H  H63  1  0.518000  0.641700  0.309400  1.0  0.0873
  H  H64  1  0.692300  0.502500  0.313000  1.0  0.0767
  H  H65  1  0.596200  0.516000  0.364200  1.0  0.11
  H  H66  1  0.775500  0.692000  0.333100  1.0  0.0877
  H  H67  1  0.669500  0.721700  0.375900  1.0  0.0811
  H  H68  1  0.821400  0.663000  0.434700  1.0  0.104
  H  H69  1  0.823300  0.547300  0.396600  1.0  0.1092
  H  H70  1  0.717200  0.576900  0.439400  1.0  0.0901
  H  H71  1  0.383400  0.635200  0.759200  1.0  0.088
  H  H72  1  0.482000  0.641700  0.809400  1.0  0.0874
  H  H73  1  0.307700  0.502500  0.813000  1.0  0.0757
  H  H74  1  0.403800  0.516000  0.864200  1.0  0.1105
  H  H75  1  0.224500  0.692000  0.833100  1.0  0.088
  H  H76  1  0.330500  0.721700  0.875900  1.0  0.0804
  H  H77  1  0.178600  0.663000  0.934700  1.0  0.1054
  H  H78  1  0.176700  0.547300  0.896600  1.0  0.1102
  H  H79  1  0.282800  0.576900  0.939400  1.0  0.09
  H  H80  1  0.616600  0.364800  0.759200  1.0  0.0874
  H  H81  1  0.518000  0.358300  0.809400  1.0  0.0889
  H  H82  1  0.692300  0.497500  0.813000  1.0  0.0764
  H  H83  1  0.596200  0.484000  0.864200  1.0  0.1078
  H  H84  1  0.775500  0.308000  0.833100  1.0  0.0869
  H  H85  1  0.669500  0.278300  0.875900  1.0  0.082
  H  H86  1  0.821400  0.337000  0.934700  1.0  0.1041
  H  H87  1  0.823300  0.452700  0.896600  1.0  0.1079
  H  H88  1  0.717200  0.423100  0.939400  1.0  0.0902
  H  H89  1  0.616600  0.635200  0.740800  1.0  0.0862
  H  H90  1  0.518000  0.641700  0.690600  1.0  0.0885
  H  H91  1  0.692300  0.502500  0.687000  1.0  0.0754
  H  H92  1  0.596200  0.516000  0.635800  1.0  0.1086
  H  H93  1  0.775500  0.692000  0.666900  1.0  0.0889
  H  H94  1  0.669500  0.721700  0.624100  1.0  0.0807
  H  H95  1  0.821400  0.663000  0.565300  1.0  0.1037
  H  H96  1  0.823300  0.547300  0.603400  1.0  0.1108
  H  H97  1  0.717200  0.576900  0.560600  1.0  0.0891
  H  H98  1  0.383400  0.364800  0.740800  1.0  0.088
  H  H99  1  0.482000  0.358300  0.690600  1.0  0.0866
  H  H100  1  0.307700  0.497500  0.687000  1.0  0.0756
  H  H101  1  0.403800  0.484000  0.635800  1.0  0.109
  H  H102  1  0.224500  0.308000  0.666900  1.0  0.0881
  H  H103  1  0.330500  0.278300  0.624100  1.0  0.0793
  H  H104  1  0.178600  0.337000  0.565300  1.0  0.1048
  H  H105  1  0.176700  0.452700  0.603400  1.0  0.11
  H  H106  1  0.282800  0.423100  0.560600  1.0  0.09
  Au  Au107  1  0.000000  0.000000  0.500000  1.0  0.2608
  Au  Au108  1  0.000000  0.000000  0.000000  1.0  0.2608
  C  C109  1  0.046900  0.747500  0.703100  1.0  0.1721
  C  C110  1  0.045200  0.628400  0.700800  1.0  -0.2257
  C  C111  1  0.747000  0.962800  0.700200  1.0  0.1376
  C  C112  1  0.627500  0.961500  0.698400  1.0  -0.1807
  C  C113  1  0.953100  0.252500  0.703100  1.0  0.1727
  C  C114  1  0.954800  0.371600  0.700800  1.0  -0.2244
  C  C115  1  0.253000  0.037200  0.700200  1.0  0.1379
  C  C116  1  0.372500  0.038500  0.698400  1.0  -0.1808
  C  C117  1  0.953100  0.747500  0.796900  1.0  0.1732
  C  C118  1  0.954800  0.628400  0.799200  1.0  -0.2226
  C  C119  1  0.253000  0.962800  0.799800  1.0  0.1383
  C  C120  1  0.372500  0.961500  0.801600  1.0  -0.181
  C  C121  1  0.046900  0.252500  0.796900  1.0  0.1739
  C  C122  1  0.045200  0.371600  0.799200  1.0  -0.2224
  C  C123  1  0.747000  0.037200  0.799800  1.0  0.1374
  C  C124  1  0.627500  0.038500  0.801600  1.0  -0.1818
  C  C125  1  0.953100  0.252500  0.296900  1.0  0.1737
  C  C126  1  0.954800  0.371600  0.299200  1.0  -0.2228
  C  C127  1  0.253000  0.037200  0.299800  1.0  0.1381
  C  C128  1  0.372500  0.038500  0.301600  1.0  -0.1816
  C  C129  1  0.046900  0.747500  0.296900  1.0  0.1739
  C  C130  1  0.045200  0.628400  0.299200  1.0  -0.2252
  C  C131  1  0.747000  0.962800  0.299800  1.0  0.1374
  C  C132  1  0.627500  0.961500  0.301600  1.0  -0.1827
  C  C133  1  0.046900  0.252500  0.203100  1.0  0.1716
  C  C134  1  0.045200  0.371600  0.200800  1.0  -0.2239
  C  C135  1  0.747000  0.037200  0.200200  1.0  0.1373
  C  C136  1  0.627500  0.038500  0.198400  1.0  -0.18
  C  C137  1  0.953100  0.747500  0.203100  1.0  0.173
  C  C138  1  0.954800  0.628400  0.200800  1.0  -0.2231
  C  C139  1  0.253000  0.962800  0.200200  1.0  0.1383
  C  C140  1  0.372500  0.961500  0.198400  1.0  -0.1802
  C  C141  1  0.000000  0.000000  0.594300  1.0  0.0814
  C  C142  1  0.000000  0.000000  0.905700  1.0  0.0838
  C  C143  1  0.000000  0.000000  0.405700  1.0  0.0838
  C  C144  1  0.000000  0.000000  0.094300  1.0  0.0814
  C  C145  1  0.000000  0.564500  0.750000  1.0  0.1141
  C  C146  1  0.000000  0.435500  0.750000  1.0  0.1145
  C  C147  1  0.000000  0.435500  0.250000  1.0  0.1145
  C  C148  1  0.000000  0.564500  0.250000  1.0  0.1141
  C  C149  1  0.564300  0.000000  0.750000  1.0  0.1183
  C  C150  1  0.435700  0.000000  0.750000  1.0  0.1188
  C  C151  1  0.435700  0.000000  0.250000  1.0  0.1188
  C  C152  1  0.564300  0.000000  0.250000  1.0  0.1183
  C  C153  1  0.571000  0.409000  0.211500  1.0  -0.004
  C  C154  1  0.640000  0.444000  0.167200  1.0  -0.1548
  C  C155  1  0.719000  0.339100  0.138300  1.0  -0.1344
  C  C156  1  0.775000  0.392000  0.088000  1.0  -0.3879
  C  C157  1  0.429000  0.591000  0.211500  1.0  -0.0031
  C  C158  1  0.360000  0.556000  0.167200  1.0  -0.1552
  C  C159  1  0.281000  0.660900  0.138300  1.0  -0.1319
  C  C160  1  0.225000  0.608000  0.088000  1.0  -0.3878
  C  C161  1  0.429000  0.409000  0.288500  1.0  -0.0034
  C  C162  1  0.360000  0.444000  0.332800  1.0  -0.1571
  C  C163  1  0.281000  0.339100  0.361700  1.0  -0.1341
  C  C164  1  0.225000  0.392000  0.412000  1.0  -0.3879
  C  C165  1  0.571000  0.591000  0.288500  1.0  -0.0024
  C  C166  1  0.640000  0.556000  0.332800  1.0  -0.157
  C  C167  1  0.719000  0.660900  0.361700  1.0  -0.133
  C  C168  1  0.775000  0.608000  0.412000  1.0  -0.3875
  C  C169  1  0.429000  0.591000  0.788500  1.0  -0.0028
  C  C170  1  0.360000  0.556000  0.832800  1.0  -0.1571
  C  C171  1  0.281000  0.660900  0.861700  1.0  -0.1333
  C  C172  1  0.225000  0.608000  0.912000  1.0  -0.3875
  C  C173  1  0.571000  0.409000  0.788500  1.0  -0.0031
  C  C174  1  0.640000  0.444000  0.832800  1.0  -0.1565
  C  C175  1  0.719000  0.339100  0.861700  1.0  -0.1339
  C  C176  1  0.775000  0.392000  0.912000  1.0  -0.3879
  C  C177  1  0.571000  0.591000  0.711500  1.0  -0.0032
  C  C178  1  0.640000  0.556000  0.667200  1.0  -0.1557
  C  C179  1  0.719000  0.660900  0.638300  1.0  -0.1317
  C  C180  1  0.775000  0.608000  0.588000  1.0  -0.3873
  C  C181  1  0.429000  0.409000  0.711500  1.0  -0.0039
  C  C182  1  0.360000  0.444000  0.667200  1.0  -0.1548
  C  C183  1  0.281000  0.339100  0.638300  1.0  -0.1341
  C  C184  1  0.225000  0.392000  0.588000  1.0  -0.3885
  Br  Br185  1  0.796990  0.938910  0.500000  1.0  -0.4125
  Br  Br186  1  0.203010  0.061090  0.500000  1.0  -0.412
  Br  Br187  1  0.203010  0.938910  0.000000  1.0  -0.4125
  Br  Br188  1  0.796990  0.061090  0.000000  1.0  -0.4122
  N  N189  1  0.000000  0.000000  0.647900  1.0  -0.4388
  N  N190  1  0.000000  0.000000  0.852100  1.0  -0.4386
  N  N191  1  0.000000  0.000000  0.352100  1.0  -0.4386
  N  N192  1  0.000000  0.000000  0.147900  1.0  -0.4388
  N  N193  1  0.000000  0.810000  0.750000  1.0  -0.3232
  N  N194  1  0.000000  0.190000  0.750000  1.0  -0.3227
  N  N195  1  0.000000  0.190000  0.250000  1.0  -0.3227
  N  N196  1  0.000000  0.810000  0.250000  1.0  -0.3232
  N  N197  1  0.809100  0.000000  0.750000  1.0  -0.3147
  N  N198  1  0.190900  0.000000  0.750000  1.0  -0.3168
  N  N199  1  0.190900  0.000000  0.250000  1.0  -0.3168
  N  N200  1  0.809100  0.000000  0.250000  1.0  -0.3147
  N  N201  1  0.500000  0.500000  0.250000  1.0  -0.2047
  N  N202  1  0.500000  0.500000  0.750000  1.0  -0.2047
