# generated using pymatgen
data_AgH15C15N6O
_symmetry_space_group_name_H-M   'P 1'
_cell_length_a   29.90110000
_cell_length_b   29.90110000
_cell_length_c   11.74150000
_cell_angle_alpha   90.00000000
_cell_angle_beta   90.00000000
_cell_angle_gamma   120.00000000
_symmetry_Int_Tables_number   1
_chemical_formula_structural   AgH15C15N6O
_chemical_formula_sum   'Ag18 H270 C270 N108 O18'
_cell_volume   9091.35350349
_cell_formula_units_Z   18
loop_
 _symmetry_equiv_pos_site_id
 _symmetry_equiv_pos_as_xyz
  1  'x, y, z'
loop_
 _atom_site_type_symbol
 _atom_site_label
 _atom_site_symmetry_multiplicity
 _atom_site_fract_x
 _atom_site_fract_y
 _atom_site_fract_z
 _atom_site_occupancy
 _atom_site_charge
  Ag  Ag1  1  0.074850  0.722460  0.578350  1.0  0.3869
  Ag  Ag2  1  0.741520  0.055800  0.911680  1.0  0.3868
  Ag  Ag3  1  0.408190  0.389130  0.245020  1.0  0.3869
  Ag  Ag4  1  0.277540  0.352390  0.578350  1.0  0.3877
  Ag  Ag5  1  0.944200  0.685730  0.911680  1.0  0.3879
  Ag  Ag6  1  0.610870  0.019060  0.245020  1.0  0.3877
  Ag  Ag7  1  0.647610  0.925150  0.578350  1.0  0.3866
  Ag  Ag8  1  0.314270  0.258480  0.911680  1.0  0.3861
  Ag  Ag9  1  0.980940  0.591810  0.245020  1.0  0.3867
  Ag  Ag10  1  0.925150  0.277540  0.421650  1.0  0.3851
  Ag  Ag11  1  0.591810  0.610870  0.754980  1.0  0.3851
  Ag  Ag12  1  0.258480  0.944200  0.088320  1.0  0.385
  Ag  Ag13  1  0.722460  0.647610  0.421650  1.0  0.3852
  Ag  Ag14  1  0.389130  0.980940  0.754980  1.0  0.3852
  Ag  Ag15  1  0.055800  0.314270  0.088320  1.0  0.3854
  Ag  Ag16  1  0.352390  0.074850  0.421650  1.0  0.3851
  Ag  Ag17  1  0.019060  0.408190  0.754980  1.0  0.3854
  Ag  Ag18  1  0.685730  0.741520  0.088320  1.0  0.3847
  H  H19  1  0.144900  0.644900  0.253700  1.0  0.0559
  H  H20  1  0.126400  0.597400  0.340300  1.0  0.0504
  H  H21  1  0.088100  0.531500  0.208000  1.0  0.0861
  H  H22  1  0.116500  0.577500  0.117400  1.0  0.0685
  H  H23  1  0.085000  0.545300  0.934800  1.0  0.0969
  H  H24  1  0.982000  0.500900  0.192300  1.0  0.0874
  H  H25  1  0.201300  0.659800  0.413100  1.0  0.1009
  H  H26  1  0.250700  0.711800  0.581000  1.0  0.0998
  H  H27  1  0.194700  0.740300  0.676300  1.0  0.083
  H  H28  1  0.101800  0.682200  0.161500  1.0  0.1075
  H  H29  1  0.057900  0.733800  0.138300  1.0  0.1081
  H  H30  1  0.031500  0.745200  0.333000  1.0  0.0783
  H  H31  1  0.087400  0.599000  0.604300  1.0  0.1181
  H  H32  1  0.995800  0.535900  0.654400  1.0  0.1075
  H  H33  1  0.941900  0.538000  0.493900  1.0  0.091
  H  H34  1  0.811570  0.978230  0.587030  1.0  0.0559
  H  H35  1  0.793070  0.930730  0.673630  1.0  0.0504
  H  H36  1  0.754770  0.864830  0.541330  1.0  0.0859
  H  H37  1  0.783170  0.910830  0.450730  1.0  0.0685
  H  H38  1  0.751670  0.878630  0.268130  1.0  0.0969
  H  H39  1  0.648670  0.834230  0.525630  1.0  0.0874
  H  H40  1  0.867970  0.993130  0.746430  1.0  0.1023
  H  H41  1  0.917370  0.045130  0.914330  1.0  0.1017
  H  H42  1  0.861370  0.073630  0.009630  1.0  0.0831
  H  H43  1  0.768470  0.015530  0.494830  1.0  0.1075
  H  H44  1  0.724570  0.067130  0.471630  1.0  0.108
  H  H45  1  0.698170  0.078530  0.666330  1.0  0.0781
  H  H46  1  0.754070  0.932330  0.937630  1.0  0.1181
  H  H47  1  0.662470  0.869230  0.987730  1.0  0.1075
  H  H48  1  0.608570  0.871330  0.827230  1.0  0.091
  H  H49  1  0.478230  0.311570  0.920370  1.0  0.0559
  H  H50  1  0.459730  0.264070  0.006970  1.0  0.0504
  H  H51  1  0.421430  0.198170  0.874670  1.0  0.0861
  H  H52  1  0.449830  0.244170  0.784070  1.0  0.0686
  H  H53  1  0.418330  0.211970  0.601470  1.0  0.0969
  H  H54  1  0.315330  0.167570  0.858970  1.0  0.0873
  H  H55  1  0.534630  0.326470  0.079770  1.0  0.1009
  H  H56  1  0.584030  0.378470  0.247670  1.0  0.0998
  H  H57  1  0.528030  0.406970  0.342970  1.0  0.083
  H  H58  1  0.435130  0.348870  0.828170  1.0  0.1074
  H  H59  1  0.391230  0.400470  0.804970  1.0  0.1081
  H  H60  1  0.364830  0.411870  0.999670  1.0  0.0783
  H  H61  1  0.420730  0.265670  0.270970  1.0  0.1181
  H  H62  1  0.329130  0.202570  0.321070  1.0  0.1076
  H  H63  1  0.275230  0.204670  0.160570  1.0  0.0909
  H  H64  1  0.355100  0.500000  0.253700  1.0  0.0555
  H  H65  1  0.402600  0.529000  0.340300  1.0  0.0488
  H  H66  1  0.468500  0.556600  0.208000  1.0  0.0868
  H  H67  1  0.422500  0.539000  0.117400  1.0  0.0696
  H  H68  1  0.454700  0.539700  0.934800  1.0  0.0971
  H  H69  1  0.499100  0.481100  0.192300  1.0  0.088
  H  H70  1  0.340200  0.541500  0.413100  1.0  0.1022
  H  H71  1  0.288200  0.538900  0.581000  1.0  0.1035
  H  H72  1  0.259700  0.454400  0.676300  1.0  0.0826
  H  H73  1  0.317800  0.419600  0.161500  1.0  0.1085
  H  H74  1  0.266200  0.324100  0.138300  1.0  0.1085
  H  H75  1  0.254800  0.286300  0.333000  1.0  0.0816
  H  H76  1  0.401000  0.488400  0.604300  1.0  0.119
  H  H77  1  0.464100  0.459900  0.654400  1.0  0.1081
  H  H78  1  0.462000  0.403900  0.493900  1.0  0.0908
  H  H79  1  0.021770  0.833330  0.587030  1.0  0.0555
  H  H80  1  0.069270  0.862330  0.673630  1.0  0.0488
  H  H81  1  0.135170  0.889930  0.541330  1.0  0.0867
  H  H82  1  0.089170  0.872330  0.450730  1.0  0.0696
  H  H83  1  0.121370  0.873030  0.268130  1.0  0.0971
  H  H84  1  0.165770  0.814430  0.525630  1.0  0.088
  H  H85  1  0.006870  0.874830  0.746430  1.0  0.1005
  H  H86  1  0.954870  0.872230  0.914330  1.0  0.1016
  H  H87  1  0.926370  0.787730  0.009630  1.0  0.0826
  H  H88  1  0.984470  0.752930  0.494830  1.0  0.1086
  H  H89  1  0.932870  0.657430  0.471630  1.0  0.1085
  H  H90  1  0.921470  0.619630  0.666330  1.0  0.0814
  H  H91  1  0.067670  0.821730  0.937630  1.0  0.119
  H  H92  1  0.130770  0.793230  0.987730  1.0  0.1081
  H  H93  1  0.128670  0.737230  0.827230  1.0  0.0908
  H  H94  1  0.688430  0.166670  0.920370  1.0  0.0555
  H  H95  1  0.735930  0.195670  0.006970  1.0  0.0488
  H  H96  1  0.801830  0.223270  0.874670  1.0  0.0868
  H  H97  1  0.755830  0.205670  0.784070  1.0  0.0696
  H  H98  1  0.788030  0.206370  0.601470  1.0  0.0971
  H  H99  1  0.832430  0.147770  0.858970  1.0  0.088
  H  H100  1  0.673530  0.208170  0.079770  1.0  0.1022
  H  H101  1  0.621530  0.205570  0.247670  1.0  0.1035
  H  H102  1  0.593030  0.121070  0.342970  1.0  0.0826
  H  H103  1  0.651130  0.086270  0.828170  1.0  0.1085
  H  H104  1  0.599530  0.990770  0.804970  1.0  0.1084
  H  H105  1  0.588130  0.952970  0.999670  1.0  0.0816
  H  H106  1  0.734330  0.155070  0.270970  1.0  0.119
  H  H107  1  0.797430  0.126570  0.321070  1.0  0.1081
  H  H108  1  0.795330  0.070570  0.160570  1.0  0.0911
  H  H109  1  0.500000  0.855100  0.253700  1.0  0.0556
  H  H110  1  0.471000  0.873600  0.340300  1.0  0.0497
  H  H111  1  0.443400  0.911900  0.208000  1.0  0.0822
  H  H112  1  0.461000  0.883500  0.117400  1.0  0.0681
  H  H113  1  0.460300  0.915000  0.934800  1.0  0.0981
  H  H114  1  0.518900  0.018000  0.192300  1.0  0.0871
  H  H115  1  0.458500  0.798700  0.413100  1.0  0.1027
  H  H116  1  0.461100  0.749300  0.581000  1.0  0.1023
  H  H117  1  0.545600  0.805300  0.676300  1.0  0.0848
  H  H118  1  0.580400  0.898200  0.161500  1.0  0.1077
  H  H119  1  0.675900  0.942100  0.138300  1.0  0.1079
  H  H120  1  0.713700  0.968500  0.333000  1.0  0.076
  H  H121  1  0.511600  0.912600  0.604300  1.0  0.1187
  H  H122  1  0.540100  0.004200  0.654400  1.0  0.1079
  H  H123  1  0.596100  0.058100  0.493900  1.0  0.0902
  H  H124  1  0.166670  0.188430  0.587030  1.0  0.0556
  H  H125  1  0.137670  0.206930  0.673630  1.0  0.0496
  H  H126  1  0.110070  0.245230  0.541330  1.0  0.082
  H  H127  1  0.127670  0.216830  0.450730  1.0  0.068
  H  H128  1  0.126970  0.248330  0.268130  1.0  0.0981
  H  H129  1  0.185570  0.351330  0.525630  1.0  0.0871
  H  H130  1  0.125170  0.132030  0.746430  1.0  0.1027
  H  H131  1  0.127770  0.082630  0.914330  1.0  0.1023
  H  H132  1  0.212270  0.138630  0.009630  1.0  0.0847
  H  H133  1  0.247070  0.231530  0.494830  1.0  0.1077
  H  H134  1  0.342570  0.275430  0.471630  1.0  0.1081
  H  H135  1  0.380370  0.301830  0.666330  1.0  0.0761
  H  H136  1  0.178270  0.245930  0.937630  1.0  0.1187
  H  H137  1  0.206770  0.337530  0.987730  1.0  0.1079
  H  H138  1  0.262770  0.391430  0.827230  1.0  0.0902
  H  H139  1  0.833330  0.521770  0.920370  1.0  0.0556
  H  H140  1  0.804330  0.540270  0.006970  1.0  0.0497
  H  H141  1  0.776730  0.578570  0.874670  1.0  0.0822
  H  H142  1  0.794330  0.550170  0.784070  1.0  0.0681
  H  H143  1  0.793630  0.581670  0.601470  1.0  0.0981
  H  H144  1  0.852230  0.684670  0.858970  1.0  0.0871
  H  H145  1  0.791830  0.465370  0.079770  1.0  0.1027
  H  H146  1  0.794430  0.415970  0.247670  1.0  0.1023
  H  H147  1  0.878930  0.471970  0.342970  1.0  0.0847
  H  H148  1  0.913730  0.564870  0.828170  1.0  0.1077
  H  H149  1  0.009230  0.608770  0.804970  1.0  0.1081
  H  H150  1  0.047030  0.635170  0.999670  1.0  0.0761
  H  H151  1  0.844930  0.579270  0.270970  1.0  0.1187
  H  H152  1  0.873430  0.670870  0.321070  1.0  0.1079
  H  H153  1  0.929430  0.724770  0.160570  1.0  0.0902
  H  H154  1  0.855100  0.355100  0.746300  1.0  0.0568
  H  H155  1  0.873600  0.402600  0.659700  1.0  0.05
  H  H156  1  0.911900  0.468500  0.792000  1.0  0.0867
  H  H157  1  0.883500  0.422500  0.882600  1.0  0.069
  H  H158  1  0.915000  0.454700  0.065200  1.0  0.0977
  H  H159  1  0.018000  0.499100  0.807700  1.0  0.0882
  H  H160  1  0.798700  0.340200  0.586900  1.0  0.1011
  H  H161  1  0.749300  0.288200  0.419000  1.0  0.0995
  H  H162  1  0.805300  0.259700  0.323700  1.0  0.0843
  H  H163  1  0.898200  0.317800  0.838500  1.0  0.1074
  H  H164  1  0.942100  0.266200  0.861700  1.0  0.109
  H  H165  1  0.968500  0.254800  0.667000  1.0  0.0775
  H  H166  1  0.912600  0.401000  0.395700  1.0  0.1186
  H  H167  1  0.004200  0.464100  0.345600  1.0  0.1069
  H  H168  1  0.058100  0.462000  0.506100  1.0  0.0908
  H  H169  1  0.521770  0.688430  0.079630  1.0  0.0568
  H  H170  1  0.540270  0.735930  0.993030  1.0  0.05
  H  H171  1  0.578570  0.801830  0.125330  1.0  0.0867
  H  H172  1  0.550170  0.755830  0.215930  1.0  0.069
  H  H173  1  0.581670  0.788030  0.398530  1.0  0.0977
  H  H174  1  0.684670  0.832430  0.141030  1.0  0.0882
  H  H175  1  0.465370  0.673530  0.920230  1.0  0.1011
  H  H176  1  0.415970  0.621530  0.752330  1.0  0.0995
  H  H177  1  0.471970  0.593030  0.657030  1.0  0.0843
  H  H178  1  0.564870  0.651130  0.171830  1.0  0.1073
  H  H179  1  0.608770  0.599530  0.195030  1.0  0.109
  H  H180  1  0.635170  0.588130  0.000330  1.0  0.0775
  H  H181  1  0.579270  0.734330  0.729030  1.0  0.1186
  H  H182  1  0.670870  0.797430  0.678930  1.0  0.107
  H  H183  1  0.724770  0.795330  0.839430  1.0  0.0908
  H  H184  1  0.188430  0.021770  0.412970  1.0  0.0568
  H  H185  1  0.206930  0.069270  0.326370  1.0  0.05
  H  H186  1  0.245230  0.135170  0.458670  1.0  0.0866
  H  H187  1  0.216830  0.089170  0.549270  1.0  0.0689
  H  H188  1  0.248330  0.121370  0.731870  1.0  0.0977
  H  H189  1  0.351330  0.165770  0.474370  1.0  0.0882
  H  H190  1  0.132030  0.006870  0.253570  1.0  0.1023
  H  H191  1  0.082630  0.954870  0.085670  1.0  0.1009
  H  H192  1  0.138630  0.926370  0.990370  1.0  0.0844
  H  H193  1  0.231530  0.984470  0.505170  1.0  0.1073
  H  H194  1  0.275430  0.932870  0.528370  1.0  0.1088
  H  H195  1  0.301830  0.921470  0.333670  1.0  0.0774
  H  H196  1  0.245930  0.067670  0.062370  1.0  0.1186
  H  H197  1  0.337530  0.130770  0.012270  1.0  0.1069
  H  H198  1  0.391430  0.128670  0.172770  1.0  0.0909
  H  H199  1  0.644900  0.500000  0.746300  1.0  0.0549
  H  H200  1  0.597400  0.471000  0.659700  1.0  0.0497
  H  H201  1  0.531500  0.443400  0.792000  1.0  0.086
  H  H202  1  0.577500  0.461000  0.882600  1.0  0.0694
  H  H203  1  0.545300  0.460300  0.065200  1.0  0.0975
  H  H204  1  0.500900  0.518900  0.807700  1.0  0.0885
  H  H205  1  0.659800  0.458500  0.586900  1.0  0.1006
  H  H206  1  0.711800  0.461100  0.419000  1.0  0.1039
  H  H207  1  0.740300  0.545600  0.323700  1.0  0.0841
  H  H208  1  0.682200  0.580400  0.838500  1.0  0.1086
  H  H209  1  0.733800  0.675900  0.861700  1.0  0.1088
  H  H210  1  0.745200  0.713700  0.667000  1.0  0.0812
  H  H211  1  0.599000  0.511600  0.395700  1.0  0.1188
  H  H212  1  0.535900  0.540100  0.345600  1.0  0.1075
  H  H213  1  0.538000  0.596100  0.506100  1.0  0.0906
  H  H214  1  0.311570  0.833330  0.079630  1.0  0.0549
  H  H215  1  0.264070  0.804330  0.993030  1.0  0.0497
  H  H216  1  0.198170  0.776730  0.125330  1.0  0.086
  H  H217  1  0.244170  0.794330  0.215930  1.0  0.0694
  H  H218  1  0.211970  0.793630  0.398530  1.0  0.0975
  H  H219  1  0.167570  0.852230  0.141030  1.0  0.0885
  H  H220  1  0.326470  0.791830  0.920230  1.0  0.1006
  H  H221  1  0.378470  0.794430  0.752330  1.0  0.1039
  H  H222  1  0.406970  0.878930  0.657030  1.0  0.0841
  H  H223  1  0.348870  0.913730  0.171830  1.0  0.1086
  H  H224  1  0.400470  0.009230  0.195030  1.0  0.1086
  H  H225  1  0.411870  0.047030  0.000330  1.0  0.0812
  H  H226  1  0.265670  0.844930  0.729030  1.0  0.1188
  H  H227  1  0.202570  0.873430  0.678930  1.0  0.1075
  H  H228  1  0.204670  0.929430  0.839430  1.0  0.0908
  H  H229  1  0.978230  0.166670  0.412970  1.0  0.0549
  H  H230  1  0.930730  0.137670  0.326370  1.0  0.0497
  H  H231  1  0.864830  0.110070  0.458670  1.0  0.0859
  H  H232  1  0.910830  0.127670  0.549270  1.0  0.0694
  H  H233  1  0.878630  0.126970  0.731870  1.0  0.0975
  H  H234  1  0.834230  0.185570  0.474370  1.0  0.0885
  H  H235  1  0.993130  0.125170  0.253570  1.0  0.0997
  H  H236  1  0.045130  0.127770  0.085670  1.0  0.1019
  H  H237  1  0.073630  0.212270  0.990370  1.0  0.0841
  H  H238  1  0.015530  0.247070  0.505170  1.0  0.1087
  H  H239  1  0.067130  0.342570  0.528370  1.0  0.1088
  H  H240  1  0.078530  0.380370  0.333670  1.0  0.081
  H  H241  1  0.932330  0.178270  0.062370  1.0  0.1188
  H  H242  1  0.869230  0.206770  0.012270  1.0  0.1075
  H  H243  1  0.871330  0.262770  0.172770  1.0  0.0906
  H  H244  1  0.500000  0.144900  0.746300  1.0  0.0552
  H  H245  1  0.529000  0.126400  0.659700  1.0  0.0499
  H  H246  1  0.556600  0.088100  0.792000  1.0  0.0841
  H  H247  1  0.539000  0.116500  0.882600  1.0  0.0677
  H  H248  1  0.539700  0.085000  0.065200  1.0  0.0982
  H  H249  1  0.481100  0.982000  0.807700  1.0  0.088
  H  H250  1  0.541500  0.201300  0.586900  1.0  0.1011
  H  H251  1  0.538900  0.250700  0.419000  1.0  0.1016
  H  H252  1  0.454400  0.194700  0.323700  1.0  0.0851
  H  H253  1  0.419600  0.101800  0.838500  1.0  0.108
  H  H254  1  0.324100  0.057900  0.861700  1.0  0.1089
  H  H255  1  0.286300  0.031500  0.667000  1.0  0.0769
  H  H256  1  0.488400  0.087400  0.395700  1.0  0.1189
  H  H257  1  0.459900  0.995800  0.345600  1.0  0.1077
  H  H258  1  0.403900  0.941900  0.506100  1.0  0.0904
  H  H259  1  0.166670  0.478230  0.079630  1.0  0.0552
  H  H260  1  0.195670  0.459730  0.993030  1.0  0.0499
  H  H261  1  0.223270  0.421430  0.125330  1.0  0.0841
  H  H262  1  0.205670  0.449830  0.215930  1.0  0.0677
  H  H263  1  0.206370  0.418330  0.398530  1.0  0.0982
  H  H264  1  0.147770  0.315330  0.141030  1.0  0.088
  H  H265  1  0.208170  0.534630  0.920230  1.0  0.1011
  H  H266  1  0.205570  0.584030  0.752330  1.0  0.1016
  H  H267  1  0.121070  0.528030  0.657030  1.0  0.085
  H  H268  1  0.086270  0.435130  0.171830  1.0  0.1079
  H  H269  1  0.990770  0.391230  0.195030  1.0  0.1091
  H  H270  1  0.952970  0.364830  0.000330  1.0  0.077
  H  H271  1  0.155070  0.420730  0.729030  1.0  0.1189
  H  H272  1  0.126570  0.329130  0.678930  1.0  0.1077
  H  H273  1  0.070570  0.275230  0.839430  1.0  0.0904
  H  H274  1  0.833330  0.811570  0.412970  1.0  0.0552
  H  H275  1  0.862330  0.793070  0.326370  1.0  0.0499
  H  H276  1  0.889930  0.754770  0.458670  1.0  0.0839
  H  H277  1  0.872330  0.783170  0.549270  1.0  0.0677
  H  H278  1  0.873030  0.751670  0.731870  1.0  0.0982
  H  H279  1  0.814430  0.648670  0.474370  1.0  0.088
  H  H280  1  0.874830  0.867970  0.253570  1.0  0.1011
  H  H281  1  0.872230  0.917370  0.085670  1.0  0.1016
  H  H282  1  0.787730  0.861370  0.990370  1.0  0.085
  H  H283  1  0.752930  0.768470  0.505170  1.0  0.108
  H  H284  1  0.657430  0.724570  0.528370  1.0  0.1089
  H  H285  1  0.619630  0.698170  0.333670  1.0  0.077
  H  H286  1  0.821730  0.754070  0.062370  1.0  0.1189
  H  H287  1  0.793230  0.662470  0.012270  1.0  0.1077
  H  H288  1  0.737230  0.608570  0.172770  1.0  0.0904
  C  C289  1  0.100990  0.648350  0.388600  1.0  0.118
  C  C290  1  0.115540  0.619630  0.300500  1.0  0.0304
  C  C291  1  0.083920  0.556290  0.159600  1.0  -0.0073
  C  C292  1  0.040250  0.527460  0.077100  1.0  0.0441
  C  C293  1  0.050420  0.526850  0.961800  1.0  -0.1293
  C  C294  1  0.989500  0.500520  0.113800  1.0  -0.1257
  C  C295  1  0.190300  0.676190  0.466400  1.0  -0.1413
  C  C296  1  0.217260  0.704280  0.557500  1.0  -0.1179
  C  C297  1  0.185710  0.719780  0.609300  1.0  0.0595
  C  C298  1  0.087300  0.692780  0.220300  1.0  -0.1197
  C  C299  1  0.063490  0.720810  0.207400  1.0  -0.1118
  C  C300  1  0.048830  0.726710  0.316200  1.0  0.0406
  C  C301  1  0.057680  0.590870  0.560100  1.0  -0.0988
  C  C302  1  0.007930  0.556530  0.587700  1.0  -0.1316
  C  C303  1  0.978440  0.558000  0.497800  1.0  0.0521
  C  C304  1  0.767660  0.981680  0.721930  1.0  0.118
  C  C305  1  0.782210  0.952960  0.633830  1.0  0.0304
  C  C306  1  0.750590  0.889620  0.492930  1.0  -0.0073
  C  C307  1  0.706920  0.860790  0.410430  1.0  0.0441
  C  C308  1  0.717090  0.860180  0.295130  1.0  -0.1293
  C  C309  1  0.656170  0.833850  0.447130  1.0  -0.1257
  C  C310  1  0.856970  0.009520  0.799730  1.0  -0.1413
  C  C311  1  0.883930  0.037610  0.890830  1.0  -0.1179
  C  C312  1  0.852380  0.053110  0.942630  1.0  0.0591
  C  C313  1  0.753970  0.026110  0.553630  1.0  -0.1197
  C  C314  1  0.730160  0.054140  0.540730  1.0  -0.1118
  C  C315  1  0.715500  0.060040  0.649530  1.0  0.0406
  C  C316  1  0.724350  0.924200  0.893430  1.0  -0.0988
  C  C317  1  0.674600  0.889860  0.921030  1.0  -0.1316
  C  C318  1  0.645110  0.891330  0.831130  1.0  0.0523
  C  C319  1  0.434320  0.315020  0.055270  1.0  0.118
  C  C320  1  0.448870  0.286300  0.967170  1.0  0.0304
  C  C321  1  0.417250  0.222960  0.826270  1.0  -0.0076
  C  C322  1  0.373580  0.194130  0.743770  1.0  0.0441
  C  C323  1  0.383750  0.193520  0.628470  1.0  -0.1293
  C  C324  1  0.322830  0.167190  0.780470  1.0  -0.1257
  C  C325  1  0.523630  0.342860  0.133070  1.0  -0.1413
  C  C326  1  0.550590  0.370950  0.224170  1.0  -0.1179
  C  C327  1  0.519040  0.386450  0.275970  1.0  0.0595
  C  C328  1  0.420630  0.359450  0.886970  1.0  -0.1197
  C  C329  1  0.396820  0.387480  0.874070  1.0  -0.1118
  C  C330  1  0.382160  0.393380  0.982870  1.0  0.0406
  C  C331  1  0.391010  0.257540  0.226770  1.0  -0.0988
  C  C332  1  0.341260  0.223200  0.254370  1.0  -0.1316
  C  C333  1  0.311770  0.224670  0.164470  1.0  0.0521
  C  C334  1  0.351650  0.452640  0.388600  1.0  0.1189
  C  C335  1  0.380370  0.495910  0.300500  1.0  0.0333
  C  C336  1  0.443710  0.527630  0.159600  1.0  -0.0054
  C  C337  1  0.472540  0.512790  0.077100  1.0  0.044
  C  C338  1  0.473150  0.523570  0.961800  1.0  -0.1273
  C  C339  1  0.499480  0.488980  0.113800  1.0  -0.1262
  C  C340  1  0.323810  0.514110  0.466400  1.0  -0.1471
  C  C341  1  0.295720  0.512980  0.557500  1.0  -0.1189
  C  C342  1  0.280220  0.465930  0.609300  1.0  0.0588
  C  C343  1  0.307220  0.394520  0.220300  1.0  -0.12
  C  C344  1  0.279190  0.342680  0.207400  1.0  -0.1123
  C  C345  1  0.273290  0.322120  0.316200  1.0  0.0423
  C  C346  1  0.409130  0.466810  0.560100  1.0  -0.098
  C  C347  1  0.443470  0.451400  0.587700  1.0  -0.1321
  C  C348  1  0.442000  0.420440  0.497800  1.0  0.0514
  C  C349  1  0.018320  0.785970  0.721930  1.0  0.1189
  C  C350  1  0.047040  0.829240  0.633830  1.0  0.0333
  C  C351  1  0.110380  0.860960  0.492930  1.0  -0.0054
  C  C352  1  0.139210  0.846120  0.410430  1.0  0.044
  C  C353  1  0.139820  0.856900  0.295130  1.0  -0.1273
  C  C354  1  0.166150  0.822310  0.447130  1.0  -0.1262
  C  C355  1  0.990480  0.847440  0.799730  1.0  -0.1471
  C  C356  1  0.962390  0.846310  0.890830  1.0  -0.1189
  C  C357  1  0.946890  0.799260  0.942630  1.0  0.0589
  C  C358  1  0.973890  0.727850  0.553630  1.0  -0.12
  C  C359  1  0.945860  0.676010  0.540730  1.0  -0.1123
  C  C360  1  0.939960  0.655450  0.649530  1.0  0.0423
  C  C361  1  0.075800  0.800140  0.893430  1.0  -0.098
  C  C362  1  0.110140  0.784730  0.921030  1.0  -0.1321
  C  C363  1  0.108670  0.753770  0.831130  1.0  0.0515
  C  C364  1  0.684980  0.119310  0.055270  1.0  0.1189
  C  C365  1  0.713700  0.162580  0.967170  1.0  0.0333
  C  C366  1  0.777040  0.194300  0.826270  1.0  -0.0052
  C  C367  1  0.805870  0.179460  0.743770  1.0  0.044
  C  C368  1  0.806480  0.190240  0.628470  1.0  -0.1273
  C  C369  1  0.832810  0.155650  0.780470  1.0  -0.1262
  C  C370  1  0.657140  0.180780  0.133070  1.0  -0.1471
  C  C371  1  0.629050  0.179650  0.224170  1.0  -0.1189
  C  C372  1  0.613550  0.132600  0.275970  1.0  0.0588
  C  C373  1  0.640550  0.061190  0.886970  1.0  -0.12
  C  C374  1  0.612520  0.009350  0.874070  1.0  -0.1123
  C  C375  1  0.606620  0.988790  0.982870  1.0  0.0423
  C  C376  1  0.742460  0.133480  0.226770  1.0  -0.098
  C  C377  1  0.776800  0.118070  0.254370  1.0  -0.1321
  C  C378  1  0.775330  0.087110  0.164470  1.0  0.0514
  C  C379  1  0.547360  0.899010  0.388600  1.0  0.1194
  C  C380  1  0.504090  0.884460  0.300500  1.0  0.0336
  C  C381  1  0.472370  0.916080  0.159600  1.0  -0.0019
  C  C382  1  0.487210  0.959750  0.077100  1.0  0.0455
  C  C383  1  0.476430  0.949580  0.961800  1.0  -0.1293
  C  C384  1  0.511020  0.010500  0.113800  1.0  -0.1245
  C  C385  1  0.485890  0.809700  0.466400  1.0  -0.1484
  C  C386  1  0.487020  0.782740  0.557500  1.0  -0.1178
  C  C387  1  0.534070  0.814290  0.609300  1.0  0.0608
  C  C388  1  0.605480  0.912700  0.220300  1.0  -0.122
  C  C389  1  0.657320  0.936510  0.207400  1.0  -0.1122
  C  C390  1  0.677880  0.951170  0.316200  1.0  0.0414
  C  C391  1  0.533190  0.942320  0.560100  1.0  -0.0989
  C  C392  1  0.548600  0.992070  0.587700  1.0  -0.1315
  C  C393  1  0.579560  0.021560  0.497800  1.0  0.0546
  C  C394  1  0.214030  0.232340  0.721930  1.0  0.1194
  C  C395  1  0.170760  0.217790  0.633830  1.0  0.0336
  C  C396  1  0.139040  0.249410  0.492930  1.0  -0.002
  C  C397  1  0.153880  0.293080  0.410430  1.0  0.0455
  C  C398  1  0.143100  0.282910  0.295130  1.0  -0.1294
  C  C399  1  0.177690  0.343830  0.447130  1.0  -0.1245
  C  C400  1  0.152560  0.143030  0.799730  1.0  -0.1484
  C  C401  1  0.153690  0.116070  0.890830  1.0  -0.1178
  C  C402  1  0.200740  0.147620  0.942630  1.0  0.0607
  C  C403  1  0.272150  0.246030  0.553630  1.0  -0.1219
  C  C404  1  0.323990  0.269840  0.540730  1.0  -0.1122
  C  C405  1  0.344550  0.284500  0.649530  1.0  0.0415
  C  C406  1  0.199860  0.275650  0.893430  1.0  -0.0989
  C  C407  1  0.215270  0.325400  0.921030  1.0  -0.1315
  C  C408  1  0.246230  0.354890  0.831130  1.0  0.0547
  C  C409  1  0.880690  0.565680  0.055270  1.0  0.1194
  C  C410  1  0.837420  0.551130  0.967170  1.0  0.0336
  C  C411  1  0.805700  0.582750  0.826270  1.0  -0.0017
  C  C412  1  0.820540  0.626420  0.743770  1.0  0.0455
  C  C413  1  0.809760  0.616250  0.628470  1.0  -0.1293
  C  C414  1  0.844350  0.677170  0.780470  1.0  -0.1245
  C  C415  1  0.819220  0.476370  0.133070  1.0  -0.1484
  C  C416  1  0.820350  0.449410  0.224170  1.0  -0.1178
  C  C417  1  0.867400  0.480960  0.275970  1.0  0.0608
  C  C418  1  0.938810  0.579370  0.886970  1.0  -0.122
  C  C419  1  0.990650  0.603180  0.874070  1.0  -0.1122
  C  C420  1  0.011210  0.617840  0.982870  1.0  0.0414
  C  C421  1  0.866520  0.608990  0.226770  1.0  -0.0989
  C  C422  1  0.881930  0.658740  0.254370  1.0  -0.1315
  C  C423  1  0.912890  0.688230  0.164470  1.0  0.0547
  C  C424  1  0.899010  0.351650  0.611400  1.0  0.1188
  C  C425  1  0.884460  0.380370  0.699500  1.0  0.0287
  C  C426  1  0.916080  0.443710  0.840400  1.0  -0.0079
  C  C427  1  0.959750  0.472540  0.922900  1.0  0.0439
  C  C428  1  0.949580  0.473150  0.038200  1.0  -0.1297
  C  C429  1  0.010500  0.499480  0.886200  1.0  -0.124
  C  C430  1  0.809700  0.323810  0.533600  1.0  -0.1445
  C  C431  1  0.782740  0.295720  0.442500  1.0  -0.1168
  C  C432  1  0.814290  0.280220  0.390700  1.0  0.0617
  C  C433  1  0.912700  0.307220  0.779700  1.0  -0.1202
  C  C434  1  0.936510  0.279190  0.792600  1.0  -0.1115
  C  C435  1  0.951170  0.273290  0.683800  1.0  0.0402
  C  C436  1  0.942320  0.409130  0.439900  1.0  -0.0997
  C  C437  1  0.992070  0.443470  0.412300  1.0  -0.1311
  C  C438  1  0.021560  0.442000  0.502200  1.0  0.0519
  C  C439  1  0.565680  0.684980  0.944730  1.0  0.1188
  C  C440  1  0.551130  0.713700  0.032830  1.0  0.0287
  C  C441  1  0.582750  0.777040  0.173730  1.0  -0.0083
  C  C442  1  0.626420  0.805870  0.256230  1.0  0.044
  C  C443  1  0.616250  0.806480  0.371530  1.0  -0.1297
  C  C444  1  0.677170  0.832810  0.219530  1.0  -0.1241
  C  C445  1  0.476370  0.657140  0.866930  1.0  -0.1445
  C  C446  1  0.449410  0.629050  0.775830  1.0  -0.1168
  C  C447  1  0.480960  0.613550  0.724030  1.0  0.0617
  C  C448  1  0.579370  0.640550  0.113030  1.0  -0.1202
  C  C449  1  0.603180  0.612520  0.125930  1.0  -0.1115
  C  C450  1  0.617840  0.606620  0.017130  1.0  0.0401
  C  C451  1  0.608990  0.742460  0.773230  1.0  -0.0998
  C  C452  1  0.658740  0.776800  0.745630  1.0  -0.1311
  C  C453  1  0.688230  0.775330  0.835530  1.0  0.0519
  C  C454  1  0.232340  0.018320  0.278070  1.0  0.1188
  C  C455  1  0.217790  0.047040  0.366170  1.0  0.0287
  C  C456  1  0.249410  0.110380  0.507070  1.0  -0.0079
  C  C457  1  0.293080  0.139210  0.589570  1.0  0.044
  C  C458  1  0.282910  0.139820  0.704870  1.0  -0.1297
  C  C459  1  0.343830  0.166150  0.552870  1.0  -0.124
  C  C460  1  0.143030  0.990480  0.200270  1.0  -0.1445
  C  C461  1  0.116070  0.962390  0.109170  1.0  -0.1168
  C  C462  1  0.147620  0.946890  0.057370  1.0  0.0613
  C  C463  1  0.246030  0.973890  0.446370  1.0  -0.1202
  C  C464  1  0.269840  0.945860  0.459270  1.0  -0.1115
  C  C465  1  0.284500  0.939960  0.350470  1.0  0.0402
  C  C466  1  0.275650  0.075800  0.106570  1.0  -0.0997
  C  C467  1  0.325400  0.110140  0.078970  1.0  -0.1311
  C  C468  1  0.354890  0.108670  0.168870  1.0  0.052
  C  C469  1  0.648350  0.547360  0.611400  1.0  0.1193
  C  C470  1  0.619630  0.504090  0.699500  1.0  0.0349
  C  C471  1  0.556290  0.472370  0.840400  1.0  -0.0039
  C  C472  1  0.527460  0.487210  0.922900  1.0  0.0448
  C  C473  1  0.526850  0.476430  0.038200  1.0  -0.1297
  C  C474  1  0.500520  0.511020  0.886200  1.0  -0.124
  C  C475  1  0.676190  0.485890  0.533600  1.0  -0.1446
  C  C476  1  0.704280  0.487020  0.442500  1.0  -0.1174
  C  C477  1  0.719780  0.534070  0.390700  1.0  0.0569
  C  C478  1  0.692780  0.605480  0.779700  1.0  -0.1181
  C  C479  1  0.720810  0.657320  0.792600  1.0  -0.1132
  C  C480  1  0.726710  0.677880  0.683800  1.0  0.0428
  C  C481  1  0.590870  0.533190  0.439900  1.0  -0.0983
  C  C482  1  0.556530  0.548600  0.412300  1.0  -0.1333
  C  C483  1  0.558000  0.579560  0.502200  1.0  0.0536
  C  C484  1  0.315020  0.880690  0.944730  1.0  0.1193
  C  C485  1  0.286300  0.837420  0.032830  1.0  0.0348
  C  C486  1  0.222960  0.805700  0.173730  1.0  -0.0038
  C  C487  1  0.194130  0.820540  0.256230  1.0  0.0448
  C  C488  1  0.193520  0.809760  0.371530  1.0  -0.1297
  C  C489  1  0.167190  0.844350  0.219530  1.0  -0.124
  C  C490  1  0.342860  0.819220  0.866930  1.0  -0.1446
  C  C491  1  0.370950  0.820350  0.775830  1.0  -0.1174
  C  C492  1  0.386450  0.867400  0.724030  1.0  0.0569
  C  C493  1  0.359450  0.938810  0.113030  1.0  -0.1181
  C  C494  1  0.387480  0.990650  0.125930  1.0  -0.1132
  C  C495  1  0.393380  0.011210  0.017130  1.0  0.0427
  C  C496  1  0.257540  0.866520  0.773230  1.0  -0.0983
  C  C497  1  0.223200  0.881930  0.745630  1.0  -0.1333
  C  C498  1  0.224670  0.912890  0.835530  1.0  0.0536
  C  C499  1  0.981680  0.214030  0.278070  1.0  0.1193
  C  C500  1  0.952960  0.170760  0.366170  1.0  0.0349
  C  C501  1  0.889620  0.139040  0.507070  1.0  -0.0039
  C  C502  1  0.860790  0.153880  0.589570  1.0  0.0448
  C  C503  1  0.860180  0.143100  0.704870  1.0  -0.1297
  C  C504  1  0.833850  0.177690  0.552870  1.0  -0.124
  C  C505  1  0.009520  0.152560  0.200270  1.0  -0.1446
  C  C506  1  0.037610  0.153690  0.109170  1.0  -0.1173
  C  C507  1  0.053110  0.200740  0.057370  1.0  0.0569
  C  C508  1  0.026110  0.272150  0.446370  1.0  -0.1182
  C  C509  1  0.054140  0.323990  0.459270  1.0  -0.1132
  C  C510  1  0.060040  0.344550  0.350470  1.0  0.0427
  C  C511  1  0.924200  0.199860  0.106570  1.0  -0.0983
  C  C512  1  0.889860  0.215270  0.078970  1.0  -0.1333
  C  C513  1  0.891330  0.246230  0.168870  1.0  0.0537
  C  C514  1  0.452640  0.100990  0.611400  1.0  0.1189
  C  C515  1  0.495910  0.115540  0.699500  1.0  0.0308
  C  C516  1  0.527630  0.083920  0.840400  1.0  -0.0031
  C  C517  1  0.512790  0.040250  0.922900  1.0  0.045
  C  C518  1  0.523570  0.050420  0.038200  1.0  -0.131
  C  C519  1  0.488980  0.989500  0.886200  1.0  -0.1235
  C  C520  1  0.514110  0.190300  0.533600  1.0  -0.1481
  C  C521  1  0.512980  0.217260  0.442500  1.0  -0.1173
  C  C522  1  0.465930  0.185710  0.390700  1.0  0.06
  C  C523  1  0.394520  0.087300  0.779700  1.0  -0.1182
  C  C524  1  0.342680  0.063490  0.792600  1.0  -0.1121
  C  C525  1  0.322120  0.048830  0.683800  1.0  0.0414
  C  C526  1  0.466810  0.057680  0.439900  1.0  -0.1011
  C  C527  1  0.451400  0.007930  0.412300  1.0  -0.131
  C  C528  1  0.420440  0.978440  0.502200  1.0  0.053
  C  C529  1  0.119310  0.434320  0.944730  1.0  0.1189
  C  C530  1  0.162580  0.448870  0.032830  1.0  0.0308
  C  C531  1  0.194300  0.417250  0.173730  1.0  -0.0029
  C  C532  1  0.179460  0.373580  0.256230  1.0  0.045
  C  C533  1  0.190240  0.383750  0.371530  1.0  -0.131
  C  C534  1  0.155650  0.322830  0.219530  1.0  -0.1235
  C  C535  1  0.180780  0.523630  0.866930  1.0  -0.1481
  C  C536  1  0.179650  0.550590  0.775830  1.0  -0.1173
  C  C537  1  0.132600  0.519040  0.724030  1.0  0.06
  C  C538  1  0.061190  0.420630  0.113030  1.0  -0.1182
  C  C539  1  0.009350  0.396820  0.125930  1.0  -0.1121
  C  C540  1  0.988790  0.382160  0.017130  1.0  0.0415
  C  C541  1  0.133480  0.391010  0.773230  1.0  -0.1011
  C  C542  1  0.118070  0.341260  0.745630  1.0  -0.131
  C  C543  1  0.087110  0.311770  0.835530  1.0  0.0531
  C  C544  1  0.785970  0.767660  0.278070  1.0  0.1189
  C  C545  1  0.829240  0.782210  0.366170  1.0  0.0308
  C  C546  1  0.860960  0.750590  0.507070  1.0  -0.0032
  C  C547  1  0.846120  0.706920  0.589570  1.0  0.045
  C  C548  1  0.856900  0.717090  0.704870  1.0  -0.1311
  C  C549  1  0.822310  0.656170  0.552870  1.0  -0.1235
  C  C550  1  0.847440  0.856970  0.200270  1.0  -0.1481
  C  C551  1  0.846310  0.883930  0.109170  1.0  -0.1173
  C  C552  1  0.799260  0.852380  0.057370  1.0  0.0599
  C  C553  1  0.727850  0.753970  0.446370  1.0  -0.1181
  C  C554  1  0.676010  0.730160  0.459270  1.0  -0.1121
  C  C555  1  0.655450  0.715500  0.350470  1.0  0.0415
  C  C556  1  0.800140  0.724350  0.106570  1.0  -0.1011
  C  C557  1  0.784730  0.674600  0.078970  1.0  -0.131
  C  C558  1  0.753770  0.645110  0.168870  1.0  0.0531
  N  N559  1  0.141700  0.702660  0.554500  1.0  -0.33
  N  N560  1  0.144840  0.675550  0.464800  1.0  0.0833
  N  N561  1  0.062080  0.703310  0.393100  1.0  -0.3118
  N  N562  1  0.086600  0.682560  0.333800  1.0  0.0748
  N  N563  1  0.008030  0.590960  0.418500  1.0  -0.3011
  N  N564  1  0.056830  0.611280  0.457820  1.0  0.0999
  N  N565  1  0.808370  0.035990  0.887830  1.0  -0.33
  N  N566  1  0.811510  0.008880  0.798130  1.0  0.0835
  N  N567  1  0.728750  0.036640  0.726430  1.0  -0.3118
  N  N568  1  0.753270  0.015890  0.667130  1.0  0.0749
  N  N569  1  0.674700  0.924290  0.751830  1.0  -0.3011
  N  N570  1  0.723500  0.944610  0.791150  1.0  0.0999
  N  N571  1  0.475030  0.369330  0.221170  1.0  -0.33
  N  N572  1  0.478170  0.342220  0.131470  1.0  0.0833
  N  N573  1  0.395410  0.369980  0.059770  1.0  -0.3117
  N  N574  1  0.419930  0.349230  0.000470  1.0  0.0748
  N  N575  1  0.341360  0.257630  0.085170  1.0  -0.3011
  N  N576  1  0.390160  0.277950  0.124490  1.0  0.0999
  N  N577  1  0.297340  0.439040  0.554500  1.0  -0.3303
  N  N578  1  0.324450  0.469290  0.464800  1.0  0.0827
  N  N579  1  0.296690  0.358770  0.393100  1.0  -0.3117
  N  N580  1  0.317440  0.404040  0.333800  1.0  0.0745
  N  N581  1  0.409040  0.417070  0.418500  1.0  -0.3018
  N  N582  1  0.388720  0.445550  0.457820  1.0  0.0976
  N  N583  1  0.964010  0.772370  0.887830  1.0  -0.3304
  N  N584  1  0.991120  0.802620  0.798130  1.0  0.0827
  N  N585  1  0.963360  0.692100  0.726430  1.0  -0.3116
  N  N586  1  0.984110  0.737370  0.667130  1.0  0.0747
  N  N587  1  0.075710  0.750400  0.751830  1.0  -0.3019
  N  N588  1  0.055390  0.778880  0.791150  1.0  0.0976
  N  N589  1  0.630670  0.105710  0.221170  1.0  -0.3303
  N  N590  1  0.657780  0.135960  0.131470  1.0  0.0827
  N  N591  1  0.630020  0.025440  0.059770  1.0  -0.3117
  N  N592  1  0.650770  0.070710  0.000470  1.0  0.0745
  N  N593  1  0.742370  0.083740  0.085170  1.0  -0.3018
  N  N594  1  0.722050  0.112220  0.124490  1.0  0.0976
  N  N595  1  0.560960  0.858300  0.554500  1.0  -0.332
  N  N596  1  0.530710  0.855160  0.464800  1.0  0.0829
  N  N597  1  0.641230  0.937920  0.393100  1.0  -0.3127
  N  N598  1  0.595960  0.913400  0.333800  1.0  0.0748
  N  N599  1  0.582930  0.991970  0.418500  1.0  -0.303
  N  N600  1  0.554450  0.943170  0.457820  1.0  0.098
  N  N601  1  0.227630  0.191630  0.887830  1.0  -0.3321
  N  N602  1  0.197380  0.188490  0.798130  1.0  0.083
  N  N603  1  0.307900  0.271250  0.726430  1.0  -0.3126
  N  N604  1  0.262630  0.246730  0.667130  1.0  0.0748
  N  N605  1  0.249600  0.325300  0.751830  1.0  -0.3029
  N  N606  1  0.221120  0.276500  0.791150  1.0  0.098
  N  N607  1  0.894290  0.524970  0.221170  1.0  -0.332
  N  N608  1  0.864040  0.521830  0.131470  1.0  0.0829
  N  N609  1  0.974560  0.604590  0.059770  1.0  -0.3127
  N  N610  1  0.929290  0.580070  0.000470  1.0  0.0748
  N  N611  1  0.916260  0.658640  0.085170  1.0  -0.303
  N  N612  1  0.887780  0.609840  0.124490  1.0  0.098
  N  N613  1  0.858300  0.297340  0.445500  1.0  -0.3291
  N  N614  1  0.855160  0.324450  0.535200  1.0  0.0829
  N  N615  1  0.937920  0.296690  0.606900  1.0  -0.3097
  N  N616  1  0.913400  0.317440  0.666200  1.0  0.0744
  N  N617  1  0.991970  0.409040  0.581500  1.0  -0.2982
  N  N618  1  0.943170  0.388720  0.542180  1.0  0.0988
  N  N619  1  0.524970  0.630670  0.778830  1.0  -0.3291
  N  N620  1  0.521830  0.657780  0.868530  1.0  0.0829
  N  N621  1  0.604590  0.630020  0.940230  1.0  -0.3096
  N  N622  1  0.580070  0.650770  0.999530  1.0  0.0744
  N  N623  1  0.658640  0.742370  0.914830  1.0  -0.2982
  N  N624  1  0.609840  0.722050  0.875510  1.0  0.0988
  N  N625  1  0.191630  0.964010  0.112170  1.0  -0.3291
  N  N626  1  0.188490  0.991120  0.201870  1.0  0.083
  N  N627  1  0.271250  0.963360  0.273570  1.0  -0.3097
  N  N628  1  0.246730  0.984110  0.332870  1.0  0.0745
  N  N629  1  0.325300  0.075710  0.248170  1.0  -0.2982
  N  N630  1  0.276500  0.055390  0.208850  1.0  0.0988
  N  N631  1  0.702660  0.560960  0.445500  1.0  -0.3301
  N  N632  1  0.675550  0.530710  0.535200  1.0  0.0817
  N  N633  1  0.703310  0.641230  0.606900  1.0  -0.3095
  N  N634  1  0.682560  0.595960  0.666200  1.0  0.0749
  N  N635  1  0.590960  0.582930  0.581500  1.0  -0.3038
  N  N636  1  0.611280  0.554450  0.542180  1.0  0.0979
  N  N637  1  0.369330  0.894290  0.778830  1.0  -0.3301
  N  N638  1  0.342220  0.864040  0.868530  1.0  0.0817
  N  N639  1  0.369980  0.974560  0.940230  1.0  -0.3095
  N  N640  1  0.349230  0.929290  0.999530  1.0  0.0749
  N  N641  1  0.257630  0.916260  0.914830  1.0  -0.3038
  N  N642  1  0.277950  0.887780  0.875510  1.0  0.0979
  N  N643  1  0.035990  0.227630  0.112170  1.0  -0.3301
  N  N644  1  0.008880  0.197380  0.201870  1.0  0.0817
  N  N645  1  0.036640  0.307900  0.273570  1.0  -0.3095
  N  N646  1  0.015890  0.262630  0.332870  1.0  0.0751
  N  N647  1  0.924290  0.249600  0.248170  1.0  -0.3038
  N  N648  1  0.944610  0.221120  0.208850  1.0  0.0979
  N  N649  1  0.439040  0.141700  0.445500  1.0  -0.3277
  N  N650  1  0.469290  0.144840  0.535200  1.0  0.0837
  N  N651  1  0.358770  0.062080  0.606900  1.0  -0.3104
  N  N652  1  0.404040  0.086600  0.666200  1.0  0.075
  N  N653  1  0.417070  0.008030  0.581500  1.0  -0.3025
  N  N654  1  0.445550  0.056830  0.542180  1.0  0.099
  N  N655  1  0.105710  0.475030  0.778830  1.0  -0.3277
  N  N656  1  0.135960  0.478170  0.868530  1.0  0.0837
  N  N657  1  0.025440  0.395410  0.940230  1.0  -0.3104
  N  N658  1  0.070710  0.419930  0.999530  1.0  0.075
  N  N659  1  0.083740  0.341360  0.914830  1.0  -0.3025
  N  N660  1  0.112220  0.390160  0.875510  1.0  0.099
  N  N661  1  0.772370  0.808370  0.112170  1.0  -0.3277
  N  N662  1  0.802620  0.811510  0.201870  1.0  0.0838
  N  N663  1  0.692100  0.728750  0.273570  1.0  -0.3103
  N  N664  1  0.737370  0.753270  0.332870  1.0  0.075
  N  N665  1  0.750400  0.674700  0.248170  1.0  -0.3025
  N  N666  1  0.778880  0.723500  0.208850  1.0  0.099
  O  O667  1  0.072770  0.588980  0.229560  1.0  -0.4084
  O  O668  1  0.739440  0.922310  0.562890  1.0  -0.4084
  O  O669  1  0.406100  0.255650  0.896230  1.0  -0.4084
  O  O670  1  0.411020  0.483790  0.229560  1.0  -0.4094
  O  O671  1  0.077690  0.817120  0.562890  1.0  -0.4094
  O  O672  1  0.744350  0.150460  0.896230  1.0  -0.4096
  O  O673  1  0.516210  0.927230  0.229560  1.0  -0.4073
  O  O674  1  0.182880  0.260560  0.562890  1.0  -0.4073
  O  O675  1  0.849540  0.593900  0.896230  1.0  -0.4073
  O  O676  1  0.927230  0.411020  0.770440  1.0  -0.4061
  O  O677  1  0.593900  0.744350  0.103770  1.0  -0.4061
  O  O678  1  0.260560  0.077690  0.437110  1.0  -0.4061
  O  O679  1  0.588980  0.516210  0.770440  1.0  -0.4063
  O  O680  1  0.255650  0.849540  0.103770  1.0  -0.4065
  O  O681  1  0.922310  0.182880  0.437110  1.0  -0.4063
  O  O682  1  0.483790  0.072770  0.770440  1.0  -0.4086
  O  O683  1  0.150460  0.406100  0.103770  1.0  -0.4086
  O  O684  1  0.817120  0.739440  0.437110  1.0  -0.4086
