# generated using pymatgen
data_Ag5H28(C2N)14
_symmetry_space_group_name_H-M   'P 1'
_cell_length_a   23.34200000
_cell_length_b   20.68500000
_cell_length_c   12.54020000
_cell_angle_alpha   90.00000000
_cell_angle_beta   97.97000000
_cell_angle_gamma   90.00000000
_symmetry_Int_Tables_number   1
_chemical_formula_structural   Ag5H28(C2N)14
_chemical_formula_sum   'Ag20 H112 C112 N56'
_cell_volume   5996.29134644
_cell_formula_units_Z   4
loop_
 _symmetry_equiv_pos_site_id
 _symmetry_equiv_pos_as_xyz
  1  'x, y, z'
loop_
 _atom_site_type_symbol
 _atom_site_label
 _atom_site_symmetry_multiplicity
 _atom_site_fract_x
 _atom_site_fract_y
 _atom_site_fract_z
 _atom_site_occupancy
 _atom_site_charge
  Ag  Ag1  1  0.263200  0.923500  0.565000  1.0  0.1587
  Ag  Ag2  1  0.763200  0.423500  0.565000  1.0  0.1587
  Ag  Ag3  1  0.736800  0.923500  0.935000  1.0  0.1602
  Ag  Ag4  1  0.236800  0.423500  0.935000  1.0  0.1602
  Ag  Ag5  1  0.736800  0.076500  0.435000  1.0  0.1602
  Ag  Ag6  1  0.236800  0.576500  0.435000  1.0  0.1602
  Ag  Ag7  1  0.263200  0.076500  0.065000  1.0  0.1585
  Ag  Ag8  1  0.763200  0.576500  0.065000  1.0  0.1585
  Ag  Ag9  1  0.500000  0.590000  0.250000  1.0  0.2395
  Ag  Ag10  1  0.500000  0.945900  0.250000  1.0  0.3678
  Ag  Ag11  1  0.000000  0.090000  0.250000  1.0  0.2395
  Ag  Ag12  1  0.000000  0.445900  0.250000  1.0  0.3678
  Ag  Ag13  1  0.500000  0.410000  0.750000  1.0  0.239
  Ag  Ag14  1  0.500000  0.054100  0.750000  1.0  0.3674
  Ag  Ag15  1  0.000000  0.910000  0.750000  1.0  0.239
  Ag  Ag16  1  0.000000  0.554100  0.750000  1.0  0.3674
  Ag  Ag17  1  0.000000  0.807500  0.250000  1.0  0.2402
  Ag  Ag18  1  0.500000  0.307500  0.250000  1.0  0.2402
  Ag  Ag19  1  0.000000  0.192500  0.750000  1.0  0.2406
  Ag  Ag20  1  0.500000  0.692500  0.750000  1.0  0.2406
  H  H21  1  0.458500  0.708000  0.371500  1.0  0.0371
  H  H22  1  0.166000  0.962700  0.377500  1.0  -0.008
  H  H23  1  0.459000  0.820600  0.371900  1.0  0.0612
  H  H24  1  0.582800  0.515400  0.113100  1.0  0.0577
  H  H25  1  0.418900  0.544400  0.042700  1.0  0.0497
  H  H26  1  0.404100  0.925000  0.586400  1.0  0.0614
  H  H27  1  0.091600  0.928800  0.270000  1.0  0.0797
  H  H28  1  0.102700  0.765900  0.428100  1.0  0.0283
  H  H29  1  0.361300  0.994400  0.245000  1.0  0.0716
  H  H30  1  0.467400  0.929500  0.475600  1.0  0.0348
  H  H31  1  0.191900  0.795300  0.508100  1.0  0.0727
  H  H32  1  0.293800  0.993600  0.348300  1.0  0.0694
  H  H33  1  0.966100  0.681600  0.388200  1.0  0.0467
  H  H34  1  0.952900  0.577800  0.376900  1.0  0.0494
  H  H35  1  0.958500  0.208000  0.371500  1.0  0.0371
  H  H36  1  0.666000  0.462700  0.377500  1.0  -0.008
  H  H37  1  0.959000  0.320600  0.371900  1.0  0.0612
  H  H38  1  0.082800  0.015400  0.113100  1.0  0.0577
  H  H39  1  0.918900  0.044400  0.042700  1.0  0.0497
  H  H40  1  0.904100  0.425000  0.586400  1.0  0.0614
  H  H41  1  0.591600  0.428800  0.270000  1.0  0.0793
  H  H42  1  0.602700  0.265900  0.428100  1.0  0.0283
  H  H43  1  0.861300  0.494400  0.245000  1.0  0.0716
  H  H44  1  0.967400  0.429500  0.475600  1.0  0.0348
  H  H45  1  0.691900  0.295300  0.508100  1.0  0.0727
  H  H46  1  0.793800  0.493600  0.348300  1.0  0.0694
  H  H47  1  0.466100  0.181600  0.388200  1.0  0.0467
  H  H48  1  0.452900  0.077800  0.376900  1.0  0.0494
  H  H49  1  0.541500  0.708000  0.128500  1.0  0.0377
  H  H50  1  0.834000  0.962700  0.122500  1.0  -0.0086
  H  H51  1  0.541000  0.820600  0.128100  1.0  0.0624
  H  H52  1  0.417200  0.515400  0.386900  1.0  0.0579
  H  H53  1  0.581100  0.544400  0.457300  1.0  0.0496
  H  H54  1  0.595900  0.925000  0.913600  1.0  0.0619
  H  H55  1  0.908400  0.928800  0.230000  1.0  0.0803
  H  H56  1  0.897300  0.765900  0.071900  1.0  0.0278
  H  H57  1  0.638700  0.994400  0.255000  1.0  0.0712
  H  H58  1  0.532600  0.929500  0.024400  1.0  0.0338
  H  H59  1  0.808100  0.795300  0.991900  1.0  0.0715
  H  H60  1  0.706200  0.993600  0.151700  1.0  0.0687
  H  H61  1  0.033900  0.681600  0.111800  1.0  0.0458
  H  H62  1  0.047100  0.577800  0.123100  1.0  0.0496
  H  H63  1  0.041500  0.208000  0.128500  1.0  0.0377
  H  H64  1  0.334000  0.462700  0.122500  1.0  -0.0086
  H  H65  1  0.041000  0.320600  0.128100  1.0  0.0624
  H  H66  1  0.917200  0.015400  0.386900  1.0  0.0579
  H  H67  1  0.081100  0.044400  0.457300  1.0  0.0496
  H  H68  1  0.095900  0.425000  0.913600  1.0  0.0619
  H  H69  1  0.408400  0.428800  0.230000  1.0  0.0799
  H  H70  1  0.397300  0.265900  0.071900  1.0  0.0278
  H  H71  1  0.138700  0.494400  0.255000  1.0  0.0712
  H  H72  1  0.032600  0.429500  0.024400  1.0  0.0338
  H  H73  1  0.308100  0.295300  0.991900  1.0  0.0715
  H  H74  1  0.206200  0.493600  0.151700  1.0  0.0687
  H  H75  1  0.533900  0.181600  0.111800  1.0  0.0458
  H  H76  1  0.547100  0.077800  0.123100  1.0  0.0496
  H  H77  1  0.541500  0.292000  0.628500  1.0  0.0376
  H  H78  1  0.834000  0.037300  0.622500  1.0  -0.0083
  H  H79  1  0.541000  0.179400  0.628100  1.0  0.0616
  H  H80  1  0.417200  0.484600  0.886900  1.0  0.0576
  H  H81  1  0.581100  0.455600  0.957300  1.0  0.0494
  H  H82  1  0.595900  0.075000  0.413600  1.0  0.062
  H  H83  1  0.908400  0.071200  0.730000  1.0  0.0809
  H  H84  1  0.897300  0.234100  0.571900  1.0  0.0274
  H  H85  1  0.638700  0.005600  0.755000  1.0  0.0696
  H  H86  1  0.532600  0.070500  0.524400  1.0  0.0341
  H  H87  1  0.808100  0.204700  0.491900  1.0  0.0718
  H  H88  1  0.706200  0.006400  0.651700  1.0  0.0687
  H  H89  1  0.033900  0.318400  0.611800  1.0  0.0451
  H  H90  1  0.047100  0.422200  0.623100  1.0  0.0495
  H  H91  1  0.041500  0.792000  0.628500  1.0  0.0376
  H  H92  1  0.334000  0.537300  0.622500  1.0  -0.0083
  H  H93  1  0.041000  0.679400  0.628100  1.0  0.0616
  H  H94  1  0.917200  0.984600  0.886900  1.0  0.0576
  H  H95  1  0.081100  0.955600  0.957300  1.0  0.0494
  H  H96  1  0.095900  0.575000  0.413600  1.0  0.062
  H  H97  1  0.408400  0.571200  0.730000  1.0  0.0804
  H  H98  1  0.397300  0.734100  0.571900  1.0  0.0274
  H  H99  1  0.138700  0.505600  0.755000  1.0  0.0696
  H  H100  1  0.032600  0.570500  0.524400  1.0  0.0341
  H  H101  1  0.308100  0.704700  0.491900  1.0  0.0718
  H  H102  1  0.206200  0.506400  0.651700  1.0  0.0687
  H  H103  1  0.533900  0.818400  0.611800  1.0  0.0451
  H  H104  1  0.547100  0.922200  0.623100  1.0  0.0495
  H  H105  1  0.458500  0.292000  0.871500  1.0  0.0365
  H  H106  1  0.166000  0.037300  0.877500  1.0  -0.0081
  H  H107  1  0.459000  0.179400  0.871900  1.0  0.0615
  H  H108  1  0.582800  0.484600  0.613100  1.0  0.0578
  H  H109  1  0.418900  0.455600  0.542700  1.0  0.0504
  H  H110  1  0.404100  0.075000  0.086400  1.0  0.0612
  H  H111  1  0.091600  0.071200  0.770000  1.0  0.08
  H  H112  1  0.102700  0.234100  0.928100  1.0  0.0281
  H  H113  1  0.361300  0.005600  0.745000  1.0  0.07
  H  H114  1  0.467400  0.070500  0.975600  1.0  0.0347
  H  H115  1  0.191900  0.204700  0.008100  1.0  0.0727
  H  H116  1  0.293800  0.006400  0.848300  1.0  0.0694
  H  H117  1  0.966100  0.318400  0.888200  1.0  0.0462
  H  H118  1  0.952900  0.422200  0.876900  1.0  0.049
  H  H119  1  0.958500  0.792000  0.871500  1.0  0.0365
  H  H120  1  0.666000  0.537300  0.877500  1.0  -0.0081
  H  H121  1  0.959000  0.679400  0.871900  1.0  0.0615
  H  H122  1  0.082800  0.984600  0.613100  1.0  0.0578
  H  H123  1  0.918900  0.955600  0.542700  1.0  0.0504
  H  H124  1  0.904100  0.575000  0.086400  1.0  0.0612
  H  H125  1  0.591600  0.571200  0.770000  1.0  0.0796
  H  H126  1  0.602700  0.734100  0.928100  1.0  0.0281
  H  H127  1  0.861300  0.505600  0.745000  1.0  0.07
  H  H128  1  0.967400  0.570500  0.975600  1.0  0.0347
  H  H129  1  0.691900  0.704700  0.008100  1.0  0.0727
  H  H130  1  0.793800  0.506400  0.848300  1.0  0.0694
  H  H131  1  0.466100  0.818400  0.888200  1.0  0.0462
  H  H132  1  0.452900  0.922200  0.876900  1.0  0.049
  C  C133  1  0.476000  0.730000  0.320000  1.0  0.0865
  C  C134  1  0.153000  0.921000  0.387000  1.0  0.1465
  C  C135  1  0.476000  0.798000  0.321000  1.0  0.0838
  C  C136  1  0.548000  0.509000  0.068000  1.0  0.063
  C  C137  1  0.453000  0.526000  0.027000  1.0  0.0934
  C  C138  1  0.392000  0.937000  0.516000  1.0  0.0468
  C  C139  1  0.108000  0.903000  0.326000  1.0  0.0888
  C  C140  1  0.116000  0.807000  0.415000  1.0  0.1198
  C  C141  1  0.370000  0.979000  0.315000  1.0  0.0929
  C  C142  1  0.430000  0.942000  0.447000  1.0  0.1151
  C  C143  1  0.168000  0.825000  0.468000  1.0  0.0589
  C  C144  1  0.330000  0.976000  0.377000  1.0  0.1193
  C  C145  1  0.978000  0.660000  0.330000  1.0  0.138
  C  C146  1  0.973000  0.598000  0.328000  1.0  0.0912
  C  C147  1  0.976000  0.230000  0.320000  1.0  0.0865
  C  C148  1  0.653000  0.421000  0.387000  1.0  0.1465
  C  C149  1  0.976000  0.298000  0.321000  1.0  0.0838
  C  C150  1  0.048000  0.009000  0.068000  1.0  0.063
  C  C151  1  0.953000  0.026000  0.027000  1.0  0.0934
  C  C152  1  0.892000  0.437000  0.516000  1.0  0.0468
  C  C153  1  0.608000  0.403000  0.326000  1.0  0.0888
  C  C154  1  0.616000  0.307000  0.415000  1.0  0.1198
  C  C155  1  0.870000  0.479000  0.315000  1.0  0.0935
  C  C156  1  0.930000  0.442000  0.447000  1.0  0.1151
  C  C157  1  0.668000  0.325000  0.468000  1.0  0.0589
  C  C158  1  0.830000  0.476000  0.377000  1.0  0.1193
  C  C159  1  0.478000  0.160000  0.330000  1.0  0.138
  C  C160  1  0.473000  0.098000  0.328000  1.0  0.0912
  C  C161  1  0.524000  0.730000  0.180000  1.0  0.0848
  C  C162  1  0.847000  0.921000  0.113000  1.0  0.146
  C  C163  1  0.524000  0.798000  0.179000  1.0  0.0836
  C  C164  1  0.452000  0.509000  0.432000  1.0  0.0631
  C  C165  1  0.547000  0.526000  0.473000  1.0  0.0939
  C  C166  1  0.608000  0.937000  0.984000  1.0  0.0445
  C  C167  1  0.892000  0.903000  0.174000  1.0  0.0905
  C  C168  1  0.884000  0.807000  0.085000  1.0  0.1208
  C  C169  1  0.630000  0.979000  0.185000  1.0  0.0917
  C  C170  1  0.570000  0.942000  0.053000  1.0  0.1156
  C  C171  1  0.832000  0.825000  0.032000  1.0  0.0582
  C  C172  1  0.670000  0.976000  0.123000  1.0  0.1177
  C  C173  1  0.022000  0.660000  0.170000  1.0  0.1389
  C  C174  1  0.027000  0.598000  0.172000  1.0  0.0893
  C  C175  1  0.024000  0.230000  0.180000  1.0  0.0848
  C  C176  1  0.347000  0.421000  0.113000  1.0  0.146
  C  C177  1  0.024000  0.298000  0.179000  1.0  0.0836
  C  C178  1  0.952000  0.009000  0.432000  1.0  0.0631
  C  C179  1  0.047000  0.026000  0.473000  1.0  0.0939
  C  C180  1  0.108000  0.437000  0.984000  1.0  0.0445
  C  C181  1  0.392000  0.403000  0.174000  1.0  0.0905
  C  C182  1  0.384000  0.307000  0.085000  1.0  0.1208
  C  C183  1  0.130000  0.479000  0.185000  1.0  0.0926
  C  C184  1  0.070000  0.442000  0.053000  1.0  0.1156
  C  C185  1  0.332000  0.325000  0.032000  1.0  0.0582
  C  C186  1  0.170000  0.476000  0.123000  1.0  0.1177
  C  C187  1  0.522000  0.160000  0.170000  1.0  0.1389
  C  C188  1  0.527000  0.098000  0.172000  1.0  0.0893
  C  C189  1  0.524000  0.270000  0.680000  1.0  0.0839
  C  C190  1  0.847000  0.079000  0.613000  1.0  0.1468
  C  C191  1  0.524000  0.202000  0.679000  1.0  0.0829
  C  C192  1  0.452000  0.491000  0.932000  1.0  0.0631
  C  C193  1  0.547000  0.474000  0.973000  1.0  0.0929
  C  C194  1  0.608000  0.063000  0.484000  1.0  0.0442
  C  C195  1  0.892000  0.097000  0.674000  1.0  0.0904
  C  C196  1  0.884000  0.193000  0.585000  1.0  0.1216
  C  C197  1  0.630000  0.021000  0.685000  1.0  0.0919
  C  C198  1  0.570000  0.058000  0.553000  1.0  0.1151
  C  C199  1  0.832000  0.175000  0.532000  1.0  0.0584
  C  C200  1  0.670000  0.024000  0.623000  1.0  0.1184
  C  C201  1  0.022000  0.340000  0.670000  1.0  0.1378
  C  C202  1  0.027000  0.402000  0.672000  1.0  0.0892
  C  C203  1  0.024000  0.770000  0.680000  1.0  0.0839
  C  C204  1  0.347000  0.579000  0.613000  1.0  0.1468
  C  C205  1  0.024000  0.702000  0.679000  1.0  0.0829
  C  C206  1  0.952000  0.991000  0.932000  1.0  0.0631
  C  C207  1  0.047000  0.974000  0.973000  1.0  0.0929
  C  C208  1  0.108000  0.563000  0.484000  1.0  0.0442
  C  C209  1  0.392000  0.597000  0.674000  1.0  0.0904
  C  C210  1  0.384000  0.693000  0.585000  1.0  0.1216
  C  C211  1  0.130000  0.521000  0.685000  1.0  0.0929
  C  C212  1  0.070000  0.558000  0.553000  1.0  0.1151
  C  C213  1  0.332000  0.675000  0.532000  1.0  0.0584
  C  C214  1  0.170000  0.524000  0.623000  1.0  0.1184
  C  C215  1  0.522000  0.840000  0.670000  1.0  0.1378
  C  C216  1  0.527000  0.902000  0.672000  1.0  0.0892
  C  C217  1  0.476000  0.270000  0.820000  1.0  0.0854
  C  C218  1  0.153000  0.079000  0.887000  1.0  0.1477
  C  C219  1  0.476000  0.202000  0.821000  1.0  0.0833
  C  C220  1  0.548000  0.491000  0.568000  1.0  0.063
  C  C221  1  0.453000  0.474000  0.527000  1.0  0.0936
  C  C222  1  0.392000  0.063000  0.016000  1.0  0.0464
  C  C223  1  0.108000  0.097000  0.826000  1.0  0.0887
  C  C224  1  0.116000  0.193000  0.915000  1.0  0.1208
  C  C225  1  0.370000  0.021000  0.815000  1.0  0.0931
  C  C226  1  0.430000  0.058000  0.947000  1.0  0.1145
  C  C227  1  0.168000  0.175000  0.968000  1.0  0.0586
  C  C228  1  0.330000  0.024000  0.877000  1.0  0.1202
  C  C229  1  0.978000  0.340000  0.830000  1.0  0.1382
  C  C230  1  0.973000  0.402000  0.828000  1.0  0.0909
  C  C231  1  0.976000  0.770000  0.820000  1.0  0.0854
  C  C232  1  0.653000  0.579000  0.887000  1.0  0.1477
  C  C233  1  0.976000  0.702000  0.821000  1.0  0.0833
  C  C234  1  0.048000  0.991000  0.568000  1.0  0.063
  C  C235  1  0.953000  0.974000  0.527000  1.0  0.0936
  C  C236  1  0.892000  0.563000  0.016000  1.0  0.0464
  C  C237  1  0.608000  0.597000  0.826000  1.0  0.0887
  C  C238  1  0.616000  0.693000  0.915000  1.0  0.1208
  C  C239  1  0.870000  0.521000  0.815000  1.0  0.0937
  C  C240  1  0.930000  0.558000  0.947000  1.0  0.1145
  C  C241  1  0.668000  0.675000  0.968000  1.0  0.0586
  C  C242  1  0.830000  0.524000  0.877000  1.0  0.1202
  C  C243  1  0.478000  0.840000  0.830000  1.0  0.1382
  C  C244  1  0.473000  0.902000  0.828000  1.0  0.0909
  N  N245  1  0.333000  0.950000  0.483000  1.0  -0.4366
  N  N246  1  0.183800  0.887000  0.462000  1.0  -0.3436
  N  N247  1  0.500600  0.533800  0.095000  1.0  -0.3348
  N  N248  1  0.082000  0.844000  0.345000  1.0  -0.4283
  N  N249  1  0.425000  0.961000  0.353000  1.0  -0.2836
  N  N250  1  0.833000  0.450000  0.483000  1.0  -0.4366
  N  N251  1  0.683800  0.387000  0.462000  1.0  -0.3436
  N  N252  1  0.000600  0.033800  0.095000  1.0  -0.3348
  N  N253  1  0.582000  0.344000  0.345000  1.0  -0.4283
  N  N254  1  0.925000  0.461000  0.353000  1.0  -0.2836
  N  N255  1  0.667000  0.950000  0.017000  1.0  -0.4372
  N  N256  1  0.816200  0.887000  0.038000  1.0  -0.3438
  N  N257  1  0.499400  0.533800  0.405000  1.0  -0.3375
  N  N258  1  0.918000  0.844000  0.155000  1.0  -0.43
  N  N259  1  0.575000  0.961000  0.147000  1.0  -0.2814
  N  N260  1  0.167000  0.450000  0.017000  1.0  -0.4372
  N  N261  1  0.316200  0.387000  0.038000  1.0  -0.3438
  N  N262  1  0.999400  0.033800  0.405000  1.0  -0.3375
  N  N263  1  0.418000  0.344000  0.155000  1.0  -0.43
  N  N264  1  0.075000  0.461000  0.147000  1.0  -0.2814
  N  N265  1  0.667000  0.050000  0.517000  1.0  -0.4362
  N  N266  1  0.816200  0.113000  0.538000  1.0  -0.3458
  N  N267  1  0.499400  0.466200  0.905000  1.0  -0.3384
  N  N268  1  0.918000  0.156000  0.655000  1.0  -0.431
  N  N269  1  0.575000  0.039000  0.647000  1.0  -0.282
  N  N270  1  0.167000  0.550000  0.517000  1.0  -0.4362
  N  N271  1  0.316200  0.613000  0.538000  1.0  -0.3458
  N  N272  1  0.999400  0.966200  0.905000  1.0  -0.3384
  N  N273  1  0.418000  0.656000  0.655000  1.0  -0.431
  N  N274  1  0.075000  0.539000  0.647000  1.0  -0.282
  N  N275  1  0.333000  0.050000  0.983000  1.0  -0.4362
  N  N276  1  0.183800  0.113000  0.962000  1.0  -0.3436
  N  N277  1  0.500600  0.466200  0.595000  1.0  -0.3343
  N  N278  1  0.082000  0.156000  0.845000  1.0  -0.4278
  N  N279  1  0.425000  0.039000  0.853000  1.0  -0.284
  N  N280  1  0.833000  0.550000  0.983000  1.0  -0.4362
  N  N281  1  0.683800  0.613000  0.962000  1.0  -0.3436
  N  N282  1  0.000600  0.966200  0.595000  1.0  -0.3343
  N  N283  1  0.582000  0.656000  0.845000  1.0  -0.4278
  N  N284  1  0.925000  0.539000  0.853000  1.0  -0.284
  N  N285  1  0.500000  0.829000  0.250000  1.0  -0.3837
  N  N286  1  0.500000  0.697000  0.250000  1.0  -0.3418
  N  N287  1  0.000000  0.329000  0.250000  1.0  -0.3837
  N  N288  1  0.000000  0.197000  0.250000  1.0  -0.3418
  N  N289  1  0.500000  0.171000  0.750000  1.0  -0.3818
  N  N290  1  0.500000  0.303000  0.750000  1.0  -0.3436
  N  N291  1  0.000000  0.671000  0.750000  1.0  -0.3818
  N  N292  1  0.000000  0.803000  0.750000  1.0  -0.3436
  N  N293  1  0.000000  0.698000  0.250000  1.0  -0.4076
  N  N294  1  0.000000  0.557000  0.250000  1.0  -0.4762
  N  N295  1  0.500000  0.198000  0.250000  1.0  -0.4076
  N  N296  1  0.500000  0.057000  0.250000  1.0  -0.4762
  N  N297  1  0.000000  0.302000  0.750000  1.0  -0.4066
  N  N298  1  0.000000  0.443000  0.750000  1.0  -0.4764
  N  N299  1  0.500000  0.802000  0.750000  1.0  -0.4066
  N  N300  1  0.500000  0.943000  0.750000  1.0  -0.4764
