# generated using pymatgen
data_Cu2H12C21(N3O4)2
_symmetry_space_group_name_H-M   'P 1'
_cell_length_a   18.56530000
_cell_length_b   18.56530000
_cell_length_c   23.96360000
_cell_angle_alpha   90.00000000
_cell_angle_beta   90.00000000
_cell_angle_gamma   120.00000000
_symmetry_Int_Tables_number   1
_chemical_formula_structural   Cu2H12C21(N3O4)2
_chemical_formula_sum   'Cu12 H72 C126 N36 O48'
_cell_volume   7152.97383380
_cell_formula_units_Z   6
loop_
 _symmetry_equiv_pos_site_id
 _symmetry_equiv_pos_as_xyz
  1  'x, y, z'
loop_
 _atom_site_type_symbol
 _atom_site_label
 _atom_site_symmetry_multiplicity
 _atom_site_fract_x
 _atom_site_fract_y
 _atom_site_fract_z
 _atom_site_occupancy
 _atom_site_charge
  Cu  Cu1  1  0.523770  0.476230  0.954690  1.0  0.8963
  Cu  Cu2  1  0.523770  0.047540  0.954690  1.0  0.8986
  Cu  Cu3  1  0.952460  0.476230  0.954690  1.0  0.8978
  Cu  Cu4  1  0.476230  0.523770  0.454690  1.0  0.8983
  Cu  Cu5  1  0.476230  0.952460  0.454690  1.0  0.8991
  Cu  Cu6  1  0.047540  0.523770  0.454690  1.0  0.8969
  Cu  Cu7  1  0.476230  0.523770  0.045310  1.0  0.8974
  Cu  Cu8  1  0.047540  0.523770  0.045310  1.0  0.898
  Cu  Cu9  1  0.476230  0.952460  0.045310  1.0  0.8983
  Cu  Cu10  1  0.523770  0.476230  0.545310  1.0  0.8978
  Cu  Cu11  1  0.952460  0.476230  0.545310  1.0  0.8972
  Cu  Cu12  1  0.523770  0.047540  0.545310  1.0  0.8992
  H  H13  1  0.460300  0.281800  0.218100  1.0  0.222
  H  H14  1  0.367600  0.292100  0.136500  1.0  0.1047
  H  H15  1  0.718200  0.178500  0.218100  1.0  0.223
  H  H16  1  0.707900  0.075500  0.136500  1.0  0.1049
  H  H17  1  0.821500  0.539700  0.218100  1.0  0.2219
  H  H18  1  0.924500  0.632400  0.136500  1.0  0.1042
  H  H19  1  0.539700  0.718200  0.718100  1.0  0.2229
  H  H20  1  0.632400  0.707900  0.636500  1.0  0.1043
  H  H21  1  0.281800  0.821500  0.718100  1.0  0.2229
  H  H22  1  0.292100  0.924500  0.636500  1.0  0.1043
  H  H23  1  0.178500  0.460300  0.718100  1.0  0.2214
  H  H24  1  0.075500  0.367600  0.636500  1.0  0.1045
  H  H25  1  0.281800  0.460300  0.781900  1.0  0.2196
  H  H26  1  0.292100  0.367600  0.863500  1.0  0.1038
  H  H27  1  0.178500  0.718200  0.781900  1.0  0.2197
  H  H28  1  0.075500  0.707900  0.863500  1.0  0.1043
  H  H29  1  0.539700  0.821500  0.781900  1.0  0.2229
  H  H30  1  0.632400  0.924500  0.863500  1.0  0.1043
  H  H31  1  0.718200  0.539700  0.281900  1.0  0.2204
  H  H32  1  0.707900  0.632400  0.363500  1.0  0.1043
  H  H33  1  0.821500  0.281800  0.281900  1.0  0.2204
  H  H34  1  0.924500  0.292100  0.363500  1.0  0.104
  H  H35  1  0.460300  0.178500  0.281900  1.0  0.2209
  H  H36  1  0.367600  0.075500  0.363500  1.0  0.1049
  H  H37  1  0.539700  0.718200  0.781900  1.0  0.2206
  H  H38  1  0.632400  0.707900  0.863500  1.0  0.1039
  H  H39  1  0.281800  0.821500  0.781900  1.0  0.2211
  H  H40  1  0.292100  0.924500  0.863500  1.0  0.1042
  H  H41  1  0.178500  0.460300  0.781900  1.0  0.2207
  H  H42  1  0.075500  0.367600  0.863500  1.0  0.1043
  H  H43  1  0.460300  0.281800  0.281900  1.0  0.2193
  H  H44  1  0.367600  0.292100  0.363500  1.0  0.1046
  H  H45  1  0.718200  0.178500  0.281900  1.0  0.2222
  H  H46  1  0.707900  0.075500  0.363500  1.0  0.1049
  H  H47  1  0.821500  0.539700  0.281900  1.0  0.2191
  H  H48  1  0.924500  0.632400  0.363500  1.0  0.104
  H  H49  1  0.718200  0.539700  0.218100  1.0  0.2218
  H  H50  1  0.707900  0.632400  0.136500  1.0  0.1042
  H  H51  1  0.821500  0.281800  0.218100  1.0  0.223
  H  H52  1  0.924500  0.292100  0.136500  1.0  0.1043
  H  H53  1  0.460300  0.178500  0.218100  1.0  0.2231
  H  H54  1  0.367600  0.075500  0.136500  1.0  0.105
  H  H55  1  0.281800  0.460300  0.718100  1.0  0.2223
  H  H56  1  0.292100  0.367600  0.636500  1.0  0.1041
  H  H57  1  0.178500  0.718200  0.718100  1.0  0.2224
  H  H58  1  0.075500  0.707900  0.636500  1.0  0.1045
  H  H59  1  0.539700  0.821500  0.718100  1.0  0.2235
  H  H60  1  0.632400  0.924500  0.636500  1.0  0.1041
  H  H61  1  0.154000  0.011100  0.250000  1.0  0.0379
  H  H62  1  0.988900  0.142900  0.250000  1.0  0.0393
  H  H63  1  0.857100  0.846000  0.250000  1.0  0.0399
  H  H64  1  0.846000  0.988900  0.750000  1.0  0.0385
  H  H65  1  0.011100  0.857100  0.750000  1.0  0.0397
  H  H66  1  0.142900  0.154000  0.750000  1.0  0.0385
  H  H67  1  0.011100  0.154000  0.750000  1.0  0.0382
  H  H68  1  0.142900  0.988900  0.750000  1.0  0.0401
  H  H69  1  0.846000  0.857100  0.750000  1.0  0.0396
  H  H70  1  0.988900  0.846000  0.250000  1.0  0.0392
  H  H71  1  0.857100  0.011100  0.250000  1.0  0.037
  H  H72  1  0.154000  0.142900  0.250000  1.0  0.0402
  H  H73  1  0.470100  0.235050  0.009200  1.0  0.1031
  H  H74  1  0.764950  0.235050  0.009200  1.0  0.1031
  H  H75  1  0.764950  0.529900  0.009200  1.0  0.1029
  H  H76  1  0.529900  0.764950  0.509200  1.0  0.1017
  H  H77  1  0.235050  0.764950  0.509200  1.0  0.1018
  H  H78  1  0.235050  0.470100  0.509200  1.0  0.1016
  H  H79  1  0.235050  0.470100  0.990800  1.0  0.1033
  H  H80  1  0.235050  0.764950  0.990800  1.0  0.1033
  H  H81  1  0.529900  0.764950  0.990800  1.0  0.1034
  H  H82  1  0.764950  0.529900  0.490800  1.0  0.1018
  H  H83  1  0.764950  0.235050  0.490800  1.0  0.1017
  H  H84  1  0.470100  0.235050  0.490800  1.0  0.102
  C  C85  1  0.450000  0.359500  0.042870  1.0  0.6639
  C  C86  1  0.422500  0.276400  0.069230  1.0  -0.1465
  C  C87  1  0.381400  0.255600  0.119500  1.0  -0.067
  C  C88  1  0.640500  0.090500  0.042870  1.0  0.6643
  C  C89  1  0.723600  0.146100  0.069230  1.0  -0.1459
  C  C90  1  0.744400  0.125800  0.119500  1.0  -0.068
  C  C91  1  0.909500  0.550000  0.042870  1.0  0.6637
  C  C92  1  0.853900  0.577500  0.069230  1.0  -0.1467
  C  C93  1  0.874200  0.618600  0.119500  1.0  -0.0677
  C  C94  1  0.550000  0.640500  0.542870  1.0  0.6643
  C  C95  1  0.577500  0.723600  0.569230  1.0  -0.1474
  C  C96  1  0.618600  0.744400  0.619500  1.0  -0.0675
  C  C97  1  0.359500  0.909500  0.542870  1.0  0.6639
  C  C98  1  0.276400  0.853900  0.569230  1.0  -0.1452
  C  C99  1  0.255600  0.874200  0.619500  1.0  -0.068
  C  C100  1  0.090500  0.450000  0.542870  1.0  0.6644
  C  C101  1  0.146100  0.422500  0.569230  1.0  -0.1467
  C  C102  1  0.125800  0.381400  0.619500  1.0  -0.068
  C  C103  1  0.359500  0.450000  0.957130  1.0  0.6639
  C  C104  1  0.276400  0.422500  0.930770  1.0  -0.147
  C  C105  1  0.255600  0.381400  0.880500  1.0  -0.0681
  C  C106  1  0.090500  0.640500  0.957130  1.0  0.6643
  C  C107  1  0.146100  0.723600  0.930770  1.0  -0.1469
  C  C108  1  0.125800  0.744400  0.880500  1.0  -0.0668
  C  C109  1  0.550000  0.909500  0.957130  1.0  0.6645
  C  C110  1  0.577500  0.853900  0.930770  1.0  -0.1453
  C  C111  1  0.618600  0.874200  0.880500  1.0  -0.0679
  C  C112  1  0.640500  0.550000  0.457130  1.0  0.6643
  C  C113  1  0.723600  0.577500  0.430770  1.0  -0.1464
  C  C114  1  0.744400  0.618600  0.380500  1.0  -0.0666
  C  C115  1  0.909500  0.359500  0.457130  1.0  0.6642
  C  C116  1  0.853900  0.276400  0.430770  1.0  -0.1471
  C  C117  1  0.874200  0.255600  0.380500  1.0  -0.0673
  C  C118  1  0.450000  0.090500  0.457130  1.0  0.6641
  C  C119  1  0.422500  0.146100  0.430770  1.0  -0.1453
  C  C120  1  0.381400  0.125800  0.380500  1.0  -0.0674
  C  C121  1  0.550000  0.640500  0.957130  1.0  0.6644
  C  C122  1  0.577500  0.723600  0.930770  1.0  -0.1469
  C  C123  1  0.618600  0.744400  0.880500  1.0  -0.0673
  C  C124  1  0.359500  0.909500  0.957130  1.0  0.664
  C  C125  1  0.276400  0.853900  0.930770  1.0  -0.1457
  C  C126  1  0.255600  0.874200  0.880500  1.0  -0.0676
  C  C127  1  0.090500  0.450000  0.957130  1.0  0.6645
  C  C128  1  0.146100  0.422500  0.930770  1.0  -0.1464
  C  C129  1  0.125800  0.381400  0.880500  1.0  -0.0673
  C  C130  1  0.450000  0.359500  0.457130  1.0  0.664
  C  C131  1  0.422500  0.276400  0.430770  1.0  -0.147
  C  C132  1  0.381400  0.255600  0.380500  1.0  -0.0666
  C  C133  1  0.640500  0.090500  0.457130  1.0  0.6644
  C  C134  1  0.723600  0.146100  0.430770  1.0  -0.1451
  C  C135  1  0.744400  0.125800  0.380500  1.0  -0.0679
  C  C136  1  0.909500  0.550000  0.457130  1.0  0.6638
  C  C137  1  0.853900  0.577500  0.430770  1.0  -0.147
  C  C138  1  0.874200  0.618600  0.380500  1.0  -0.0677
  C  C139  1  0.640500  0.550000  0.042870  1.0  0.6643
  C  C140  1  0.723600  0.577500  0.069230  1.0  -0.1467
  C  C141  1  0.744400  0.618600  0.119500  1.0  -0.0672
  C  C142  1  0.909500  0.359500  0.042870  1.0  0.6641
  C  C143  1  0.853900  0.276400  0.069230  1.0  -0.1466
  C  C144  1  0.874200  0.255600  0.119500  1.0  -0.0679
  C  C145  1  0.450000  0.090500  0.042870  1.0  0.664
  C  C146  1  0.422500  0.146100  0.069230  1.0  -0.1458
  C  C147  1  0.381400  0.125800  0.119500  1.0  -0.0675
  C  C148  1  0.359500  0.450000  0.542870  1.0  0.6638
  C  C149  1  0.276400  0.422500  0.569230  1.0  -0.1468
  C  C150  1  0.255600  0.381400  0.619500  1.0  -0.068
  C  C151  1  0.090500  0.640500  0.542870  1.0  0.6641
  C  C152  1  0.146100  0.723600  0.569230  1.0  -0.1476
  C  C153  1  0.125800  0.744400  0.619500  1.0  -0.0671
  C  C154  1  0.550000  0.909500  0.542870  1.0  0.6644
  C  C155  1  0.577500  0.853900  0.569230  1.0  -0.1449
  C  C156  1  0.618600  0.874200  0.619500  1.0  -0.0684
  C  C157  1  0.207300  0.057400  0.250000  1.0  -0.0637
  C  C158  1  0.942600  0.149900  0.250000  1.0  -0.0627
  C  C159  1  0.850100  0.792700  0.250000  1.0  -0.0656
  C  C160  1  0.792700  0.942600  0.750000  1.0  -0.0587
  C  C161  1  0.057400  0.850100  0.750000  1.0  -0.0689
  C  C162  1  0.149900  0.207300  0.750000  1.0  -0.0601
  C  C163  1  0.057400  0.207300  0.750000  1.0  -0.0661
  C  C164  1  0.149900  0.942600  0.750000  1.0  -0.0598
  C  C165  1  0.792700  0.850100  0.750000  1.0  -0.0658
  C  C166  1  0.942600  0.792700  0.250000  1.0  -0.0594
  C  C167  1  0.850100  0.057400  0.250000  1.0  -0.0636
  C  C168  1  0.207300  0.149900  0.250000  1.0  -0.0661
  C  C169  1  0.442900  0.221450  0.043500  1.0  0.0207
  C  C170  1  0.360300  0.180150  0.145200  1.0  -0.0079
  C  C171  1  0.316700  0.158350  0.200500  1.0  0.1932
  C  C172  1  0.778550  0.221450  0.043500  1.0  0.0209
  C  C173  1  0.819850  0.180150  0.145200  1.0  -0.007
  C  C174  1  0.841650  0.158350  0.200500  1.0  0.194
  C  C175  1  0.778550  0.557100  0.043500  1.0  0.0213
  C  C176  1  0.819850  0.639700  0.145200  1.0  -0.0051
  C  C177  1  0.841650  0.683300  0.200500  1.0  0.192
  C  C178  1  0.557100  0.778550  0.543500  1.0  0.021
  C  C179  1  0.639700  0.819850  0.645200  1.0  -0.0071
  C  C180  1  0.683300  0.841650  0.700500  1.0  0.1936
  C  C181  1  0.221450  0.778550  0.543500  1.0  0.0208
  C  C182  1  0.180150  0.819850  0.645200  1.0  -0.0079
  C  C183  1  0.158350  0.841650  0.700500  1.0  0.1931
  C  C184  1  0.221450  0.442900  0.543500  1.0  0.0217
  C  C185  1  0.180150  0.360300  0.645200  1.0  -0.0054
  C  C186  1  0.158350  0.316700  0.700500  1.0  0.192
  C  C187  1  0.221450  0.442900  0.956500  1.0  0.0198
  C  C188  1  0.180150  0.360300  0.854800  1.0  -0.0051
  C  C189  1  0.158350  0.316700  0.799500  1.0  0.1926
  C  C190  1  0.221450  0.778550  0.956500  1.0  0.0208
  C  C191  1  0.180150  0.819850  0.854800  1.0  -0.0083
  C  C192  1  0.158350  0.841650  0.799500  1.0  0.1929
  C  C193  1  0.557100  0.778550  0.956500  1.0  0.0195
  C  C194  1  0.639700  0.819850  0.854800  1.0  -0.0063
  C  C195  1  0.683300  0.841650  0.799500  1.0  0.1943
  C  C196  1  0.778550  0.557100  0.456500  1.0  0.0206
  C  C197  1  0.819850  0.639700  0.354800  1.0  -0.0049
  C  C198  1  0.841650  0.683300  0.299500  1.0  0.1922
  C  C199  1  0.778550  0.221450  0.456500  1.0  0.0191
  C  C200  1  0.819850  0.180150  0.354800  1.0  -0.0061
  C  C201  1  0.841650  0.158350  0.299500  1.0  0.1948
  C  C202  1  0.442900  0.221450  0.456500  1.0  0.0204
  C  C203  1  0.360300  0.180150  0.354800  1.0  -0.0081
  C  C204  1  0.316700  0.158350  0.299500  1.0  0.1931
  C  C205  1  0.357600  0.178800  0.250000  1.0  0.2689
  C  C206  1  0.821200  0.178800  0.250000  1.0  0.2684
  C  C207  1  0.821200  0.642400  0.250000  1.0  0.2687
  C  C208  1  0.642400  0.821200  0.750000  1.0  0.2686
  C  C209  1  0.178800  0.821200  0.750000  1.0  0.2689
  C  C210  1  0.178800  0.357600  0.750000  1.0  0.2697
  N  N211  1  0.238900  0.084800  0.200700  1.0  -0.1866
  N  N212  1  0.915200  0.154100  0.200700  1.0  -0.1944
  N  N213  1  0.845900  0.761100  0.200700  1.0  -0.1891
  N  N214  1  0.761100  0.915200  0.700700  1.0  -0.1957
  N  N215  1  0.084800  0.845900  0.700700  1.0  -0.1934
  N  N216  1  0.154100  0.238900  0.700700  1.0  -0.1911
  N  N217  1  0.084800  0.238900  0.799300  1.0  -0.1874
  N  N218  1  0.154100  0.915200  0.799300  1.0  -0.1865
  N  N219  1  0.761100  0.845900  0.799300  1.0  -0.1872
  N  N220  1  0.915200  0.761100  0.299300  1.0  -0.1868
  N  N221  1  0.845900  0.084800  0.299300  1.0  -0.1838
  N  N222  1  0.238900  0.154100  0.299300  1.0  -0.1883
  N  N223  1  0.761100  0.915200  0.799300  1.0  -0.1888
  N  N224  1  0.084800  0.845900  0.799300  1.0  -0.1884
  N  N225  1  0.154100  0.238900  0.799300  1.0  -0.1861
  N  N226  1  0.238900  0.084800  0.299300  1.0  -0.1825
  N  N227  1  0.915200  0.154100  0.299300  1.0  -0.19
  N  N228  1  0.845900  0.761100  0.299300  1.0  -0.1833
  N  N229  1  0.915200  0.761100  0.200700  1.0  -0.1944
  N  N230  1  0.845900  0.084800  0.200700  1.0  -0.1892
  N  N231  1  0.238900  0.154100  0.200700  1.0  -0.1911
  N  N232  1  0.084800  0.238900  0.700700  1.0  -0.1909
  N  N233  1  0.154100  0.915200  0.700700  1.0  -0.1925
  N  N234  1  0.761100  0.845900  0.700700  1.0  -0.1931
  N  N235  1  0.435900  0.257700  0.250000  1.0  -0.1902
  N  N236  1  0.742300  0.178200  0.250000  1.0  -0.1941
  N  N237  1  0.821800  0.564100  0.250000  1.0  -0.1859
  N  N238  1  0.564100  0.742300  0.750000  1.0  -0.1908
  N  N239  1  0.257700  0.821800  0.750000  1.0  -0.191
  N  N240  1  0.178200  0.435900  0.750000  1.0  -0.1904
  N  N241  1  0.257700  0.435900  0.750000  1.0  -0.1874
  N  N242  1  0.178200  0.742300  0.750000  1.0  -0.1925
  N  N243  1  0.564100  0.821800  0.750000  1.0  -0.1907
  N  N244  1  0.742300  0.564100  0.250000  1.0  -0.1895
  N  N245  1  0.821800  0.257700  0.250000  1.0  -0.187
  N  N246  1  0.435900  0.178200  0.250000  1.0  -0.1948
  O  O247  1  0.481340  0.370990  0.994510  1.0  -0.5769
  O  O248  1  0.440180  0.410810  0.071200  1.0  -0.573
  O  O249  1  0.629010  0.110350  0.994510  1.0  -0.5778
  O  O250  1  0.589190  0.029370  0.071200  1.0  -0.5736
  O  O251  1  0.889650  0.518660  0.994510  1.0  -0.5775
  O  O252  1  0.970630  0.559820  0.071200  1.0  -0.5729
  O  O253  1  0.518660  0.629010  0.494510  1.0  -0.577
  O  O254  1  0.559820  0.589190  0.571200  1.0  -0.5727
  O  O255  1  0.370990  0.889650  0.494510  1.0  -0.5789
  O  O256  1  0.410810  0.970630  0.571200  1.0  -0.5735
  O  O257  1  0.110350  0.481340  0.494510  1.0  -0.5777
  O  O258  1  0.029370  0.440180  0.571200  1.0  -0.5728
  O  O259  1  0.370990  0.481340  0.005490  1.0  -0.5769
  O  O260  1  0.410810  0.440180  0.928800  1.0  -0.5735
  O  O261  1  0.110350  0.629010  0.005490  1.0  -0.5761
  O  O262  1  0.029370  0.589190  0.928800  1.0  -0.5738
  O  O263  1  0.518660  0.889650  0.005490  1.0  -0.5774
  O  O264  1  0.559820  0.970630  0.928800  1.0  -0.5736
  O  O265  1  0.629010  0.518660  0.505490  1.0  -0.5768
  O  O266  1  0.589190  0.559820  0.428800  1.0  -0.5729
  O  O267  1  0.889650  0.370990  0.505490  1.0  -0.5765
  O  O268  1  0.970630  0.410810  0.428800  1.0  -0.5731
  O  O269  1  0.481340  0.110350  0.505490  1.0  -0.5778
  O  O270  1  0.440180  0.029370  0.428800  1.0  -0.5738
  O  O271  1  0.518660  0.629010  0.005490  1.0  -0.5768
  O  O272  1  0.559820  0.589190  0.928800  1.0  -0.5731
  O  O273  1  0.370990  0.889650  0.005490  1.0  -0.578
  O  O274  1  0.410810  0.970630  0.928800  1.0  -0.5736
  O  O275  1  0.110350  0.481340  0.005490  1.0  -0.5767
  O  O276  1  0.029370  0.440180  0.928800  1.0  -0.5734
  O  O277  1  0.481340  0.370990  0.505490  1.0  -0.5759
  O  O278  1  0.440180  0.410810  0.428800  1.0  -0.5731
  O  O279  1  0.629010  0.110350  0.505490  1.0  -0.5773
  O  O280  1  0.589190  0.029370  0.428800  1.0  -0.5739
  O  O281  1  0.889650  0.518660  0.505490  1.0  -0.577
  O  O282  1  0.970630  0.559820  0.428800  1.0  -0.5731
  O  O283  1  0.629010  0.518660  0.994510  1.0  -0.5777
  O  O284  1  0.589190  0.559820  0.071200  1.0  -0.5729
  O  O285  1  0.889650  0.370990  0.994510  1.0  -0.5772
  O  O286  1  0.970630  0.410810  0.071200  1.0  -0.573
  O  O287  1  0.481340  0.110350  0.994510  1.0  -0.5785
  O  O288  1  0.440180  0.029370  0.071200  1.0  -0.5735
  O  O289  1  0.370990  0.481340  0.494510  1.0  -0.5773
  O  O290  1  0.410810  0.440180  0.571200  1.0  -0.573
  O  O291  1  0.110350  0.629010  0.494510  1.0  -0.5768
  O  O292  1  0.029370  0.589190  0.571200  1.0  -0.5728
  O  O293  1  0.518660  0.889650  0.494510  1.0  -0.5783
  O  O294  1  0.559820  0.970630  0.571200  1.0  -0.5737
