# generated using pymatgen
data_U2H107C102N51O31
_symmetry_space_group_name_H-M   'P 1'
_cell_length_a   17.52380000
_cell_length_b   21.48580000
_cell_length_c   22.25550000
_cell_angle_alpha   106.51000000
_cell_angle_beta   105.25700000
_cell_angle_gamma   105.87900000
_symmetry_Int_Tables_number   1
_chemical_formula_structural   U2H107C102N51O31
_chemical_formula_sum   'U4 H214 C204 N102 O62'
_cell_volume   7180.04849085
_cell_formula_units_Z   2
loop_
 _symmetry_equiv_pos_site_id
 _symmetry_equiv_pos_as_xyz
  1  'x, y, z'
loop_
 _atom_site_type_symbol
 _atom_site_label
 _atom_site_symmetry_multiplicity
 _atom_site_fract_x
 _atom_site_fract_y
 _atom_site_fract_z
 _atom_site_occupancy
 _atom_site_charge
  U  U1  1  0.970260  0.418880  0.015400  1.0  2.03
  U  U2  1  0.889310  0.398340  0.824400  1.0  1.5754
  U  U3  1  0.029740  0.581120  0.984600  1.0  2.0313
  U  U4  1  0.110690  0.601660  0.175600  1.0  1.5772
  H  H5  1  0.565400  0.057200  0.668400  1.0  0.1933
  H  H6  1  0.641500  0.090200  0.658000  1.0  0.1753
  H  H7  1  0.543100  0.162500  0.692400  1.0  0.0823
  H  H8  1  0.634100  0.196200  0.691500  1.0  0.0944
  H  H9  1  0.974000  0.704500  0.865300  1.0  0.1087
  H  H10  1  0.729200  0.211200  0.957400  1.0  0.1312
  H  H11  1  0.029400  0.375300  0.553800  1.0  0.2028
  H  H12  1  0.006800  0.413900  0.606300  1.0  0.2022
  H  H13  1  0.958300  0.829900  0.929500  1.0  0.1602
  H  H14  1  0.879600  0.835400  0.896400  1.0  0.1693
  H  H15  1  0.691300  0.606700  0.723800  1.0  0.1152
  H  H16  1  0.893000  0.312400  0.661300  1.0  0.1164
  H  H17  1  0.757000  0.234200  0.790400  1.0  0.1122
  H  H18  1  0.989400  0.809300  0.836100  1.0  0.0886
  H  H19  1  0.906500  0.819400  0.799700  1.0  0.0884
  H  H20  1  0.590500  0.135800  0.894100  1.0  0.1052
  H  H21  1  0.755900  0.537800  0.761000  1.0  0.1141
  H  H22  1  0.766500  0.724400  0.759100  1.0  0.1199
  H  H23  1  0.897200  0.288200  0.504900  1.0  0.0777
  H  H24  1  0.871100  0.330400  0.560700  1.0  0.0842
  H  H25  1  0.481400  0.073900  0.581900  1.0  0.0835
  H  H26  1  0.563700  0.111800  0.571100  1.0  0.0789
  H  H27  1  0.908900  0.433400  0.532300  1.0  0.0803
  H  H28  1  0.925500  0.386300  0.473000  1.0  0.0789
  H  H29  1  0.020200  0.246400  0.547400  1.0  0.119
  H  H30  1  0.502600  0.969300  0.548500  1.0  0.0739
  H  H31  1  0.583600  0.007600  0.536100  1.0  0.0642
  H  H32  1  0.950300  0.936800  0.888200  1.0  0.0802
  H  H33  1  0.036300  0.930700  0.924000  1.0  0.076
  H  H34  1  0.532400  0.112800  0.781000  1.0  0.1186
  H  H35  1  0.006800  0.945700  0.022400  1.0  0.0691
  H  H36  1  0.919600  0.950100  0.986600  1.0  0.0646
  H  H37  1  0.064000  0.189100  0.615900  1.0  0.1141
  H  H38  1  0.026000  0.196200  0.707800  1.0  0.1092
  H  H39  1  0.062600  0.470000  0.510200  1.0  0.0646
  H  H40  1  0.045500  0.517100  0.569200  1.0  0.0714
  H  H41  1  0.434600  0.942800  0.331600  1.0  0.1935
  H  H42  1  0.358500  0.909800  0.342000  1.0  0.1828
  H  H43  1  0.456900  0.837500  0.307600  1.0  0.0831
  H  H44  1  0.365900  0.803800  0.308500  1.0  0.0947
  H  H45  1  0.026000  0.295500  0.134700  1.0  0.109
  H  H46  1  0.270800  0.788800  0.042600  1.0  0.1316
  H  H47  1  0.970600  0.624700  0.446200  1.0  0.1993
  H  H48  1  0.993200  0.586100  0.393700  1.0  0.2014
  H  H49  1  0.041700  0.170100  0.070500  1.0  0.1619
  H  H50  1  0.120400  0.164600  0.103600  1.0  0.1703
  H  H51  1  0.308700  0.393300  0.276200  1.0  0.1152
  H  H52  1  0.107000  0.687600  0.338700  1.0  0.1162
  H  H53  1  0.243000  0.765800  0.209600  1.0  0.1118
  H  H54  1  0.010600  0.190700  0.163900  1.0  0.0853
  H  H55  1  0.093500  0.180600  0.200300  1.0  0.0881
  H  H56  1  0.409500  0.864200  0.105900  1.0  0.1051
  H  H57  1  0.244100  0.462200  0.239000  1.0  0.1131
  H  H58  1  0.233500  0.275600  0.240900  1.0  0.1202
  H  H59  1  0.102800  0.711800  0.495100  1.0  0.0777
  H  H60  1  0.128900  0.669600  0.439300  1.0  0.0848
  H  H61  1  0.518600  0.926100  0.418100  1.0  0.0829
  H  H62  1  0.436300  0.888200  0.428900  1.0  0.0784
  H  H63  1  0.091100  0.566600  0.467700  1.0  0.0807
  H  H64  1  0.074500  0.613700  0.527000  1.0  0.0782
  H  H65  1  0.979800  0.753600  0.452600  1.0  0.1181
  H  H66  1  0.497400  0.030700  0.451500  1.0  0.0721
  H  H67  1  0.416400  0.992400  0.463900  1.0  0.0649
  H  H68  1  0.049700  0.063200  0.111800  1.0  0.08
  H  H69  1  0.963700  0.069300  0.076000  1.0  0.0754
  H  H70  1  0.467600  0.887200  0.219000  1.0  0.1195
  H  H71  1  0.993200  0.054300  0.977600  1.0  0.0692
  H  H72  1  0.080400  0.049900  0.013400  1.0  0.0647
  H  H73  1  0.936000  0.810900  0.384100  1.0  0.114
  H  H74  1  0.974000  0.803800  0.292200  1.0  0.1091
  H  H75  1  0.937400  0.530000  0.489800  1.0  0.0612
  H  H76  1  0.954500  0.482900  0.430800  1.0  0.0732
  H  H77  1  0.193100  0.522400  0.044600  1.0  0.0895
  H  H78  1  0.863800  0.559800  0.062100  1.0  0.0824
  H  H79  1  0.853000  0.555500  0.170900  1.0  0.114
  H  H80  1  0.779200  0.490900  0.165300  1.0  0.1188
  H  H81  1  0.338900  0.675600  0.059700  1.0  0.1155
  H  H82  1  0.288000  0.645100  0.099700  1.0  0.1232
  H  H83  1  0.381500  0.649700  0.214100  1.0  0.0896
  H  H84  1  0.800700  0.700000  0.070900  1.0  0.0986
  H  H85  1  0.866600  0.678000  0.113900  1.0  0.1305
  H  H86  1  0.766800  0.712200  0.279400  1.0  0.0987
  H  H87  1  0.315200  0.465300  0.153500  1.0  0.1166
  H  H88  1  0.273100  0.521100  0.155600  1.0  0.1229
  H  H89  1  0.846100  0.673600  0.225600  1.0  0.0897
  H  H90  1  0.524100  0.697400  0.276700  1.0  0.0834
  H  H91  1  0.660200  0.769500  0.262300  1.0  0.1258
  H  H92  1  0.640500  0.781400  0.194600  1.0  0.1295
  H  H93  1  0.607100  0.569700  0.281300  1.0  0.1038
  H  H94  1  0.640800  0.651700  0.312000  1.0  0.1289
  H  H95  1  0.806900  0.477600  0.955400  1.0  0.0911
  H  H96  1  0.136200  0.440200  0.937900  1.0  0.0822
  H  H97  1  0.147000  0.444500  0.829100  1.0  0.1142
  H  H98  1  0.220800  0.509100  0.834700  1.0  0.1182
  H  H99  1  0.661100  0.324400  0.940300  1.0  0.1159
  H  H100  1  0.712000  0.354900  0.900300  1.0  0.1217
  H  H101  1  0.618500  0.350300  0.785900  1.0  0.0895
  H  H102  1  0.199300  0.300000  0.929100  1.0  0.099
  H  H103  1  0.133400  0.322000  0.886100  1.0  0.1307
  H  H104  1  0.233200  0.287800  0.720600  1.0  0.0976
  H  H105  1  0.684800  0.534700  0.846500  1.0  0.1169
  H  H106  1  0.726900  0.478900  0.844400  1.0  0.1241
  H  H107  1  0.153900  0.326400  0.774400  1.0  0.089
  H  H108  1  0.475900  0.302600  0.723300  1.0  0.0825
  H  H109  1  0.339800  0.230500  0.737700  1.0  0.1273
  H  H110  1  0.359500  0.218600  0.805400  1.0  0.1306
  H  H111  1  0.392900  0.430300  0.718700  1.0  0.1038
  H  H112  1  0.359200  0.348300  0.688000  1.0  0.1285
  H  H113  1  0.959200  0.210500  0.875600  1.0  0.1071
  H  H114  1  0.988800  0.233700  0.954000  1.0  0.1
  H  H115  1  0.626300  0.942800  0.936900  1.0  0.0787
  H  H116  1  0.679400  0.062700  0.941900  1.0  0.0955
  H  H117  1  0.756400  0.117000  0.007700  1.0  0.0963
  H  H118  1  0.810100  0.836800  0.133600  1.0  0.0875
  H  H119  1  0.818300  0.006200  0.164300  1.0  0.121
  H  H120  1  0.750100  0.929900  0.133900  1.0  0.1235
  H  H121  1  0.814200  0.110100  0.809200  1.0  0.0932
  H  H122  1  0.707800  0.050700  0.834000  1.0  0.0816
  H  H123  1  0.699200  0.790800  0.014400  1.0  0.0995
  H  H124  1  0.730400  0.761200  0.956500  1.0  0.1058
  H  H125  1  0.650500  0.889600  0.010800  1.0  0.0903
  H  H126  1  0.687300  0.876800  0.801700  1.0  0.1059
  H  H127  1  0.639700  0.925900  0.823400  1.0  0.0994
  H  H128  1  0.059600  0.165600  0.823900  1.0  0.0879
  H  H129  1  0.906400  0.997800  0.738100  1.0  0.1222
  H  H130  1  0.913100  0.075300  0.753400  1.0  0.1087
  H  H131  1  0.040800  0.789500  0.124400  1.0  0.1072
  H  H132  1  0.011200  0.766300  0.046000  1.0  0.1002
  H  H133  1  0.373700  0.057200  0.063100  1.0  0.0799
  H  H134  1  0.320600  0.937300  0.058100  1.0  0.0946
  H  H135  1  0.243600  0.883000  0.992300  1.0  0.0965
  H  H136  1  0.189900  0.163200  0.866400  1.0  0.087
  H  H137  1  0.181700  0.993800  0.835700  1.0  0.1209
  H  H138  1  0.249900  0.070100  0.866100  1.0  0.1219
  H  H139  1  0.185800  0.889900  0.190800  1.0  0.0921
  H  H140  1  0.292200  0.949300  0.166000  1.0  0.0824
  H  H141  1  0.300800  0.209200  0.985600  1.0  0.0997
  H  H142  1  0.269600  0.238800  0.043500  1.0  0.104
  H  H143  1  0.349500  0.110400  0.989200  1.0  0.0928
  H  H144  1  0.312700  0.123200  0.198300  1.0  0.1063
  H  H145  1  0.360300  0.074100  0.176600  1.0  0.0977
  H  H146  1  0.940400  0.834400  0.176100  1.0  0.0874
  H  H147  1  0.093600  0.002200  0.261900  1.0  0.1221
  H  H148  1  0.086900  0.924700  0.246600  1.0  0.1088
  H  H149  1  0.360400  0.495500  0.567900  1.0  0.081
  H  H150  1  0.133600  0.624700  0.808200  1.0  0.1117
  H  H151  1  0.088400  0.543100  0.771600  1.0  0.0972
  H  H152  1  0.332200  0.499400  0.676900  1.0  0.1085
  H  H153  1  0.244900  0.442800  0.664200  1.0  0.0953
  H  H154  1  0.362800  0.663500  0.601300  1.0  0.1103
  H  H155  1  0.397100  0.620600  0.640100  1.0  0.1347
  H  H156  1  0.046200  0.695000  0.766400  1.0  0.0991
  H  H157  1  0.270600  0.676700  0.786700  1.0  0.0909
  H  H158  1  0.906400  0.662300  0.706700  1.0  0.0809
  H  H159  1  0.182300  0.749600  0.757600  1.0  0.1176
  H  H160  1  0.177700  0.759900  0.690000  1.0  0.1107
  H  H161  1  0.891000  0.708900  0.565500  1.0  0.1153
  H  H162  1  0.835700  0.688000  0.606800  1.0  0.1233
  H  H163  1  0.709200  0.570100  0.543900  1.0  0.0909
  H  H164  1  0.348700  0.621800  0.741400  1.0  0.0887
  H  H165  1  0.779900  0.550300  0.646000  1.0  0.0952
  H  H166  1  0.797700  0.481000  0.632400  1.0  0.1157
  H  H167  1  0.639600  0.504500  0.432100  1.0  0.0807
  H  H168  1  0.866400  0.375300  0.191800  1.0  0.1126
  H  H169  1  0.911600  0.456900  0.228400  1.0  0.0982
  H  H170  1  0.667800  0.500600  0.323100  1.0  0.1074
  H  H171  1  0.755100  0.557200  0.335800  1.0  0.0935
  H  H172  1  0.637200  0.336500  0.398700  1.0  0.1099
  H  H173  1  0.602900  0.379400  0.359900  1.0  0.1333
  H  H174  1  0.953800  0.305000  0.233600  1.0  0.0994
  H  H175  1  0.729400  0.323300  0.213300  1.0  0.0905
  H  H176  1  0.093600  0.337700  0.293300  1.0  0.0794
  H  H177  1  0.817700  0.250400  0.242400  1.0  0.1184
  H  H178  1  0.822300  0.240100  0.310000  1.0  0.1112
  H  H179  1  0.109000  0.291100  0.434500  1.0  0.115
  H  H180  1  0.164300  0.312000  0.393200  1.0  0.1222
  H  H181  1  0.290800  0.429900  0.456100  1.0  0.0924
  H  H182  1  0.651300  0.378200  0.258600  1.0  0.0866
  H  H183  1  0.220100  0.449700  0.354000  1.0  0.0948
  H  H184  1  0.202300  0.519000  0.367600  1.0  0.1135
  H  H185  1  0.252700  0.146100  0.427600  1.0  0.0853
  H  H186  1  0.399200  0.248300  0.483600  1.0  0.1262
  H  H187  1  0.453300  0.257100  0.555900  1.0  0.1256
  H  H188  1  0.842800  0.092200  0.480300  1.0  0.0782
  H  H189  1  0.475600  0.234600  0.402000  1.0  0.0962
  H  H190  1  0.788000  0.164700  0.444700  1.0  0.0865
  H  H191  1  0.605400  0.233700  0.406400  1.0  0.0897
  H  H192  1  0.739900  0.259200  0.502300  1.0  0.0871
  H  H193  1  0.727500  0.256100  0.568700  1.0  0.1059
  H  H194  1  0.627000  0.112900  0.314000  1.0  0.13
  H  H195  1  0.797200  0.956800  0.433500  1.0  0.1298
  H  H196  1  0.705100  0.916800  0.378400  1.0  0.1139
  H  H197  1  0.177400  0.064100  0.459200  1.0  0.0856
  H  H198  1  0.316900  0.067800  0.299400  1.0  0.089
  H  H199  1  0.321900  0.142500  0.339600  1.0  0.1179
  H  H200  1  0.876100  0.066900  0.585100  1.0  0.1115
  H  H201  1  0.841300  0.102300  0.637900  1.0  0.1155
  H  H202  1  0.747300  0.853900  0.572400  1.0  0.0865
  H  H203  1  0.600800  0.751700  0.516400  1.0  0.1249
  H  H204  1  0.546700  0.742900  0.444100  1.0  0.1248
  H  H205  1  0.157200  0.907800  0.519700  1.0  0.0792
  H  H206  1  0.524400  0.765400  0.598000  1.0  0.0954
  H  H207  1  0.212000  0.835300  0.555300  1.0  0.0874
  H  H208  1  0.394600  0.766300  0.593600  1.0  0.0904
  H  H209  1  0.260100  0.740800  0.497700  1.0  0.0868
  H  H210  1  0.272500  0.743900  0.431300  1.0  0.1068
  H  H211  1  0.373000  0.887100  0.686000  1.0  0.1294
  H  H212  1  0.202800  0.043200  0.566500  1.0  0.1324
  H  H213  1  0.294900  0.083200  0.621600  1.0  0.1163
  H  H214  1  0.822600  0.935900  0.540800  1.0  0.0844
  H  H215  1  0.683100  0.932200  0.700600  1.0  0.088
  H  H216  1  0.678100  0.857500  0.660400  1.0  0.1195
  H  H217  1  0.123900  0.933100  0.414900  1.0  0.1108
  H  H218  1  0.158700  0.897700  0.362100  1.0  0.1143
  C  C219  1  0.913200  0.569400  0.843100  1.0  0.708
  C  C220  1  0.599100  0.159700  0.701200  1.0  -0.0141
  C  C221  1  0.917300  0.684700  0.836000  1.0  -0.095
  C  C222  1  0.706900  0.200900  0.911400  1.0  -0.1019
  C  C223  1  0.638200  0.172600  0.773900  1.0  0.0857
  C  C224  1  0.758100  0.230700  0.879800  1.0  -0.15
  C  C225  1  0.748400  0.626400  0.752500  1.0  -0.0953
  C  C226  1  0.845300  0.284900  0.922300  1.0  0.6529
  C  C227  1  0.926600  0.287100  0.651400  1.0  -0.1019
  C  C228  1  0.948800  0.283300  0.595800  1.0  0.0906
  C  C229  1  0.723000  0.215400  0.811600  1.0  -0.0781
  C  C230  1  0.931500  0.803000  0.833500  1.0  0.0146
  C  C231  1  0.871700  0.614100  0.816600  1.0  -0.1437
  C  C232  1  0.623900  0.156700  0.873600  1.0  -0.0813
  C  C233  1  0.787000  0.585300  0.774500  1.0  -0.0935
  C  C234  1  0.880200  0.726300  0.812700  1.0  0.0995
  C  C235  1  0.793800  0.696400  0.772500  1.0  -0.1226
  C  C236  1  0.918200  0.319500  0.551800  1.0  0.0012
  C  C237  1  0.953700  0.253600  0.692800  1.0  -0.1415
  C  C238  1  0.925600  0.254200  0.750400  1.0  0.7016
  C  C239  1  0.537600  0.074400  0.584200  1.0  -0.0027
  C  C240  1  0.952400  0.419800  0.519400  1.0  -0.0097
  C  C241  1  0.002600  0.247700  0.583500  1.0  -0.0932
  C  C242  1  0.527800  0.007000  0.535300  1.0  -0.1246
  C  C243  1  0.977800  0.920800  0.921400  1.0  -0.0138
  C  C244  1  0.589200  0.142600  0.805700  1.0  -0.1252
  C  C245  1  0.978000  0.960800  0.989000  1.0  -0.1396
  C  C246  1  0.029800  0.214000  0.625200  1.0  -0.1135
  C  C247  1  0.006600  0.217700  0.679500  1.0  -0.0574
  C  C248  1  0.018800  0.483200  0.523000  1.0  -0.1379
  C  C249  1  0.086800  0.430600  0.156900  1.0  0.7092
  C  C250  1  0.400900  0.840300  0.298800  1.0  -0.014
  C  C251  1  0.082700  0.315300  0.164000  1.0  -0.0948
  C  C252  1  0.293100  0.799100  0.088600  1.0  -0.1005
  C  C253  1  0.361800  0.827400  0.226100  1.0  0.0876
  C  C254  1  0.241900  0.769300  0.120200  1.0  -0.1496
  C  C255  1  0.251600  0.373600  0.247500  1.0  -0.0951
  C  C256  1  0.154700  0.715100  0.077700  1.0  0.6532
  C  C257  1  0.073400  0.712900  0.348600  1.0  -0.1017
  C  C258  1  0.051200  0.716700  0.404200  1.0  0.0905
  C  C259  1  0.277000  0.784600  0.188400  1.0  -0.0795
  C  C260  1  0.068500  0.197000  0.166500  1.0  0.0145
  C  C261  1  0.128300  0.385900  0.183400  1.0  -0.1424
  C  C262  1  0.376100  0.843300  0.126400  1.0  -0.0828
  C  C263  1  0.213000  0.414700  0.225500  1.0  -0.0937
  C  C264  1  0.119800  0.273700  0.187300  1.0  0.1001
  C  C265  1  0.206200  0.303600  0.227500  1.0  -0.1224
  C  C266  1  0.081800  0.680500  0.448200  1.0  0.0032
  C  C267  1  0.046300  0.746400  0.307200  1.0  -0.1427
  C  C268  1  0.074400  0.745800  0.249600  1.0  0.7025
  C  C269  1  0.462400  0.925600  0.415800  1.0  -0.0042
  C  C270  1  0.047600  0.580200  0.480600  1.0  -0.0074
  C  C271  1  0.997400  0.752300  0.416500  1.0  -0.0946
  C  C272  1  0.472200  0.993000  0.464700  1.0  -0.126
  C  C273  1  0.022200  0.079200  0.078600  1.0  -0.0141
  C  C274  1  0.410800  0.857400  0.194300  1.0  -0.1244
  C  C275  1  0.022000  0.039200  0.011000  1.0  -0.1394
  C  C276  1  0.970200  0.786000  0.374800  1.0  -0.1129
  C  C277  1  0.993400  0.782300  0.320500  1.0  -0.057
  C  C278  1  0.981200  0.516800  0.477000  1.0  -0.1431
  C  C279  1  0.236900  0.511400  0.028900  1.0  -0.0434
  C  C280  1  0.801300  0.542900  0.043800  1.0  -0.0508
  C  C281  1  0.791600  0.530300  0.151600  1.0  -0.0809
  C  C282  1  0.330100  0.640800  0.079600  1.0  -0.0571
  C  C283  1  0.414600  0.633500  0.188300  1.0  -0.0232
  C  C284  1  0.806100  0.666200  0.091200  1.0  -0.0457
  C  C285  1  0.273300  0.413500  0.027100  1.0  0.4049
  C  C286  1  0.731100  0.676300  0.234300  1.0  -0.0278
  C  C287  1  0.467200  0.546100  0.195300  1.0  0.4291
  C  C288  1  0.691000  0.556200  0.202800  1.0  0.4521
  C  C289  1  0.312500  0.503700  0.139500  1.0  -0.0126
  C  C290  1  0.785300  0.652100  0.197100  1.0  -0.0259
  C  C291  1  0.484700  0.697900  0.137100  1.0  0.4245
  C  C292  1  0.512300  0.667300  0.230300  1.0  -0.0489
  C  C293  1  0.634600  0.745700  0.213600  1.0  -0.1065
  C  C294  1  0.708700  0.705400  0.139300  1.0  0.4227
  C  C295  1  0.617200  0.610900  0.270100  1.0  -0.0711
  C  C296  1  0.711100  0.437100  0.038200  1.0  0.4434
  C  C297  1  0.763100  0.488600  0.971100  1.0  -0.0435
  C  C298  1  0.198700  0.457100  0.956200  1.0  -0.0522
  C  C299  1  0.208400  0.469700  0.848400  1.0  -0.0801
  C  C300  1  0.669900  0.359200  0.920400  1.0  -0.0557
  C  C301  1  0.585400  0.366500  0.811700  1.0  -0.023
  C  C302  1  0.193900  0.333800  0.908800  1.0  -0.0458
  C  C303  1  0.726700  0.586500  0.972900  1.0  0.4061
  C  C304  1  0.268900  0.323700  0.765700  1.0  -0.0286
  C  C305  1  0.532800  0.453900  0.804700  1.0  0.4292
  C  C306  1  0.309000  0.443800  0.797200  1.0  0.451
  C  C307  1  0.687500  0.496300  0.860500  1.0  -0.0119
  C  C308  1  0.214700  0.347900  0.802900  1.0  -0.0261
  C  C309  1  0.515300  0.302100  0.862900  1.0  0.4214
  C  C310  1  0.487700  0.332700  0.769700  1.0  -0.0497
  C  C311  1  0.365400  0.254300  0.786400  1.0  -0.1045
  C  C312  1  0.291300  0.294600  0.860700  1.0  0.4239
  C  C313  1  0.382800  0.389100  0.729900  1.0  -0.0696
  C  C314  1  0.288900  0.562900  0.961800  1.0  0.4445
  C  C315  1  0.972900  0.194500  0.912300  1.0  -0.073
  C  C316  1  0.815600  0.969100  0.806300  1.0  0.4124
  C  C317  1  0.686000  0.947500  0.953800  1.0  -0.036
  C  C318  1  0.871400  0.134900  0.956000  1.0  0.4685
  C  C319  1  0.738200  0.073700  0.969200  1.0  -0.0563
  C  C320  1  0.948300  0.975500  0.179300  1.0  0.4402
  C  C321  1  0.850000  0.860500  0.116200  1.0  -0.0299
  C  C322  1  0.797600  0.960500  0.128400  1.0  -0.0992
  C  C323  1  0.834000  0.087800  0.839600  1.0  -0.008
  C  C324  1  0.762200  0.048500  0.857500  1.0  -0.0377
  C  C325  1  0.741500  0.802800  0.994600  1.0  -0.0584
  C  C326  1  0.702500  0.911000  0.003500  1.0  -0.0301
  C  C327  1  0.112700  0.196900  0.971800  1.0  0.4435
  C  C328  1  0.693500  0.919500  0.835900  1.0  -0.0651
  C  C329  1  0.061000  0.140100  0.854000  1.0  -0.0107
  C  C330  1  0.786800  0.029800  0.056900  1.0  0.4095
  C  C331  1  0.735300  0.860300  0.911900  1.0  0.4791
  C  C332  1  0.919800  0.041900  0.773900  1.0  -0.0487
  C  C333  1  0.027100  0.805500  0.087700  1.0  -0.0705
  C  C334  1  0.184400  0.030900  0.193700  1.0  0.4114
  C  C335  1  0.314000  0.052500  0.046200  1.0  -0.0376
  C  C336  1  0.128600  0.865100  0.044000  1.0  0.4681
  C  C337  1  0.261800  0.926300  0.030800  1.0  -0.0562
  C  C338  1  0.051700  0.024500  0.820700  1.0  0.4382
  C  C339  1  0.150000  0.139500  0.883800  1.0  -0.0294
  C  C340  1  0.202400  0.039500  0.871600  1.0  -0.0983
  C  C341  1  0.166000  0.912200  0.160400  1.0  -0.009
  C  C342  1  0.237800  0.951500  0.142500  1.0  -0.0381
  C  C343  1  0.258500  0.197200  0.005400  1.0  -0.0602
  C  C344  1  0.297500  0.089000  0.996500  1.0  -0.0279
  C  C345  1  0.887300  0.803100  0.028200  1.0  0.4446
  C  C346  1  0.306500  0.080500  0.164100  1.0  -0.0665
  C  C347  1  0.939000  0.859900  0.146000  1.0  -0.0096
  C  C348  1  0.213200  0.970200  0.943100  1.0  0.4076
  C  C349  1  0.264700  0.139700  0.088100  1.0  0.4798
  C  C350  1  0.080200  0.958100  0.226100  1.0  -0.0508
  C  C351  1  0.302000  0.494000  0.551700  1.0  -0.0372
  C  C352  1  0.107700  0.586300  0.764400  1.0  -0.093
  C  C353  1  0.258300  0.561100  0.494100  1.0  0.4407
  C  C354  1  0.174200  0.523000  0.701300  1.0  0.4593
  C  C355  1  0.270800  0.482900  0.654400  1.0  -0.0006
  C  C356  1  0.345500  0.624200  0.614600  1.0  -0.056
  C  C357  1  0.028600  0.659800  0.721100  1.0  -0.031
  C  C358  1  0.237500  0.644100  0.739800  1.0  -0.0351
  C  C359  1  0.935000  0.640700  0.679600  1.0  -0.0377
  C  C360  1  0.164400  0.725000  0.709400  1.0  -0.0601
  C  C361  1  0.869700  0.673100  0.582000  1.0  -0.0719
  C  C362  1  0.746000  0.552300  0.523400  1.0  -0.0531
  C  C363  1  0.816000  0.600300  0.462300  1.0  0.4339
  C  C364  1  0.292700  0.610300  0.707700  1.0  -0.0364
  C  C365  1  0.021900  0.696100  0.631700  1.0  0.4414
  C  C366  1  0.252200  0.680300  0.652300  1.0  0.4665
  C  C367  1  0.957400  0.539600  0.683500  1.0  0.4928
  C  C368  1  0.809300  0.524200  0.624600  1.0  -0.0427
  C  C369  1  0.698000  0.506000  0.448300  1.0  -0.0374
  C  C370  1  0.892300  0.413700  0.235600  1.0  -0.0929
  C  C371  1  0.741700  0.438900  0.505900  1.0  0.4448
  C  C372  1  0.825800  0.477000  0.298700  1.0  0.4582
  C  C373  1  0.729200  0.517100  0.345600  1.0  0.0005
  C  C374  1  0.654500  0.375800  0.385400  1.0  -0.0567
  C  C375  1  0.971400  0.340200  0.278900  1.0  -0.0315
  C  C376  1  0.762500  0.355900  0.260200  1.0  -0.0367
  C  C377  1  0.065000  0.359300  0.320400  1.0  -0.0374
  C  C378  1  0.835600  0.275000  0.290600  1.0  -0.0592
  C  C379  1  0.130300  0.326900  0.418000  1.0  -0.0728
  C  C380  1  0.254000  0.447700  0.476600  1.0  -0.0527
  C  C381  1  0.184000  0.399700  0.537700  1.0  0.4317
  C  C382  1  0.707300  0.389700  0.292300  1.0  -0.0397
  C  C383  1  0.978100  0.303900  0.368300  1.0  0.4386
  C  C384  1  0.747800  0.319700  0.347700  1.0  0.4677
  C  C385  1  0.042600  0.460400  0.316500  1.0  0.4902
  C  C386  1  0.190700  0.475800  0.375400  1.0  -0.044
  C  C387  1  0.285400  0.118900  0.441700  1.0  -0.0449
  C  C388  1  0.426300  0.225100  0.509000  1.0  -0.0908
  C  C389  1  0.784500  0.082500  0.479500  1.0  -0.053
  C  C390  1  0.486800  0.198200  0.416900  1.0  -0.0359
  C  C391  1  0.747100  0.132800  0.455600  1.0  -0.0595
  C  C392  1  0.576300  0.198300  0.421100  1.0  -0.0225
  C  C393  1  0.359300  0.142800  0.556400  1.0  0.4506
  C  C394  1  0.569500  0.224700  0.527900  1.0  0.4417
  C  C395  1  0.709000  0.229600  0.520700  1.0  0.0084
  C  C396  1  0.267100  0.008000  0.371100  1.0  0.4797
  C  C397  1  0.472600  0.088500  0.344300  1.0  0.4609
  C  C398  1  0.620800  0.109900  0.353400  1.0  0.1556
  C  C399  1  0.737600  0.949600  0.424700  1.0  -0.0382
  C  C400  1  0.233700  0.062700  0.462400  1.0  -0.0316
  C  C401  1  0.660600  0.017000  0.382400  1.0  0.4369
  C  C402  1  0.339400  0.104400  0.344000  1.0  -0.0172
  C  C403  1  0.824600  0.069600  0.592100  1.0  -0.0258
  C  C404  1  0.749600  0.144700  0.564400  1.0  0.4594
  C  C405  1  0.714600  0.881100  0.558300  1.0  -0.0437
  C  C406  1  0.573700  0.774900  0.491000  1.0  -0.0874
  C  C407  1  0.215500  0.917500  0.520500  1.0  -0.0521
  C  C408  1  0.513200  0.801800  0.583100  1.0  -0.0335
  C  C409  1  0.252900  0.867200  0.544400  1.0  -0.0612
  C  C410  1  0.423700  0.801700  0.578900  1.0  -0.024
  C  C411  1  0.640700  0.857200  0.443600  1.0  0.4511
  C  C412  1  0.430500  0.775300  0.472100  1.0  0.4446
  C  C413  1  0.291000  0.770400  0.479300  1.0  0.0104
  C  C414  1  0.732900  0.992000  0.628900  1.0  0.4797
  C  C415  1  0.527400  0.911500  0.655700  1.0  0.4582
  C  C416  1  0.379200  0.890100  0.646600  1.0  0.1573
  C  C417  1  0.262400  0.050400  0.575300  1.0  -0.0416
  C  C418  1  0.766300  0.937300  0.537600  1.0  -0.0314
  C  C419  1  0.339400  0.983000  0.617600  1.0  0.4418
  C  C420  1  0.660600  0.895600  0.656000  1.0  -0.0153
  C  C421  1  0.175400  0.930400  0.407900  1.0  -0.0269
  C  C422  1  0.250400  0.855300  0.435600  1.0  0.4598
  N  N423  1  0.590000  0.090400  0.655400  1.0  -0.1355
  N  N424  1  0.986600  0.385100  0.563200  1.0  -0.1661
  N  N425  1  0.933100  0.844200  0.898600  1.0  -0.1499
  N  N426  1  0.410000  0.909600  0.344600  1.0  -0.1361
  N  N427  1  0.013400  0.614900  0.436800  1.0  -0.171
  N  N428  1  0.066900  0.155800  0.101400  1.0  -0.1516
  N  N429  1  0.396600  0.559300  0.170500  1.0  -0.1326
  N  N430  1  0.771500  0.598000  0.038300  1.0  -0.1543
  N  N431  1  0.764200  0.504200  0.079300  1.0  -0.0997
  N  N432  1  0.295800  0.571700  0.026300  1.0  -0.1162
  N  N433  1  0.679700  0.614100  0.238000  1.0  -0.1395
  N  N434  1  0.280000  0.477700  0.066900  1.0  -0.1536
  N  N435  1  0.409200  0.656100  0.132100  1.0  -0.0679
  N  N436  1  0.546000  0.707800  0.195400  1.0  -0.0946
  N  N437  1  0.751300  0.576400  0.178700  1.0  -0.1189
  N  N438  1  0.682900  0.704500  0.192400  1.0  -0.1729
  N  N439  1  0.767300  0.673800  0.141000  1.0  -0.1728
  N  N440  1  0.536000  0.608400  0.229000  1.0  -0.1491
  N  N441  1  0.603400  0.440700  0.829500  1.0  -0.1301
  N  N442  1  0.228500  0.402000  0.961700  1.0  -0.1547
  N  N443  1  0.235800  0.495800  0.920700  1.0  -0.0991
  N  N444  1  0.704200  0.428300  0.973700  1.0  -0.1156
  N  N445  1  0.320300  0.385900  0.762000  1.0  -0.1386
  N  N446  1  0.720000  0.522300  0.933100  1.0  -0.1543
  N  N447  1  0.590800  0.343900  0.867900  1.0  -0.0692
  N  N448  1  0.454000  0.292200  0.804600  1.0  -0.0938
  N  N449  1  0.248700  0.423600  0.821300  1.0  -0.1172
  N  N450  1  0.317100  0.295500  0.807600  1.0  -0.1744
  N  N451  1  0.232700  0.326200  0.859000  1.0  -0.172
  N  N452  1  0.464000  0.391600  0.771000  1.0  -0.1489
  N  N453  1  0.044300  0.174800  0.913400  1.0  -0.1919
  N  N454  1  0.790400  0.084500  0.930000  1.0  -0.1374
  N  N455  1  0.859700  0.032000  0.807100  1.0  -0.1002
  N  N456  1  0.766300  0.967400  0.064100  1.0  -0.1069
  N  N457  1  0.742000  0.017900  0.993000  1.0  -0.0303
  N  N458  1  0.759000  0.977700  0.836300  1.0  -0.0809
  N  N459  1  0.863900  0.933900  0.136200  1.0  -0.1668
  N  N460  1  0.896600  0.138600  0.904000  1.0  -0.1177
  N  N461  1  0.006400  0.066500  0.817800  1.0  -0.0999
  N  N462  1  0.732000  0.857900  0.970400  1.0  -0.1324
  N  N463  1  0.825900  0.823100  0.044200  1.0  -0.1105
  N  N464  1  0.710300  0.910800  0.901100  1.0  -0.1458
  N  N465  1  0.955700  0.825200  0.086600  1.0  -0.1901
  N  N466  1  0.209600  0.915500  0.070000  1.0  -0.1331
  N  N467  1  0.140300  0.968000  0.192900  1.0  -0.1004
  N  N468  1  0.233700  0.032600  0.935900  1.0  -0.1091
  N  N469  1  0.258000  0.982100  0.007000  1.0  -0.0293
  N  N470  1  0.241000  0.022300  0.163700  1.0  -0.0821
  N  N471  1  0.136100  0.066100  0.863800  1.0  -0.1668
  N  N472  1  0.103400  0.861400  0.096000  1.0  -0.1162
  N  N473  1  0.993600  0.933500  0.182200  1.0  -0.1013
  N  N474  1  0.268000  0.142100  0.029600  1.0  -0.1302
  N  N475  1  0.174100  0.176900  0.955800  1.0  -0.1102
  N  N476  1  0.289700  0.089200  0.098900  1.0  -0.1433
  N  N477  1  0.170900  0.584900  0.735300  1.0  -0.0417
  N  N478  1  0.212300  0.680500  0.696900  1.0  -0.1324
  N  N479  1  0.300300  0.562300  0.555300  1.0  -0.0927
  N  N480  1  0.300300  0.639800  0.658400  1.0  -0.1525
  N  N481  1  0.941000  0.667900  0.627200  1.0  -0.0975
  N  N482  1  0.074700  0.687200  0.681900  1.0  -0.1178
  N  N483  1  0.242300  0.537400  0.681200  1.0  -0.1299
  N  N484  1  0.033100  0.594400  0.723300  1.0  -0.1309
  N  N485  1  0.250400  0.461200  0.583200  1.0  -0.1706
  N  N486  1  0.815400  0.608100  0.524800  1.0  -0.124
  N  N487  1  0.899100  0.564300  0.655600  1.0  -0.1425
  N  N488  1  0.775500  0.507400  0.552700  1.0  -0.1887
  N  N489  1  0.829100  0.415100  0.264700  1.0  -0.0406
  N  N490  1  0.787700  0.319500  0.303100  1.0  -0.1336
  N  N491  1  0.699700  0.437700  0.444700  1.0  -0.0928
  N  N492  1  0.699700  0.360200  0.341600  1.0  -0.1519
  N  N493  1  0.059000  0.332100  0.372800  1.0  -0.0972
  N  N494  1  0.925300  0.312800  0.318100  1.0  -0.1178
  N  N495  1  0.757700  0.462600  0.318800  1.0  -0.1297
  N  N496  1  0.966900  0.405600  0.276700  1.0  -0.1324
  N  N497  1  0.749600  0.538800  0.416800  1.0  -0.1708
  N  N498  1  0.184600  0.391900  0.475200  1.0  -0.1231
  N  N499  1  0.100900  0.435700  0.344400  1.0  -0.143
  N  N500  1  0.224500  0.492600  0.447300  1.0  -0.1881
  N  N501  1  0.289200  0.081300  0.531600  1.0  -0.17
  N  N502  1  0.429900  0.129100  0.368300  1.0  -0.1528
  N  N503  1  0.360600  0.162700  0.503400  1.0  -0.0972
  N  N504  1  0.620000  0.213800  0.490000  1.0  -0.1372
  N  N505  1  0.728100  0.014200  0.430900  1.0  -0.166
  N  N506  1  0.560700  0.127800  0.376700  1.0  -0.2163
  N  N507  1  0.228200  0.998000  0.415200  1.0  -0.1221
  N  N508  1  0.490500  0.211500  0.485500  1.0  -0.0937
  N  N509  1  0.730800  0.169700  0.511300  1.0  -0.162
  N  N510  1  0.783300  0.096300  0.545800  1.0  -0.0823
  N  N511  1  0.302300  0.077300  0.385900  1.0  -0.1142
  N  N512  1  0.673300  0.085900  0.396700  1.0  -0.1536
  N  N513  1  0.710800  0.918700  0.468400  1.0  -0.1675
  N  N514  1  0.570100  0.870900  0.631700  1.0  -0.1513
  N  N515  1  0.639400  0.837300  0.496600  1.0  -0.0943
  N  N516  1  0.380000  0.786200  0.510000  1.0  -0.1339
  N  N517  1  0.271900  0.985800  0.569100  1.0  -0.1633
  N  N518  1  0.439300  0.872200  0.623300  1.0  -0.2131
  N  N519  1  0.771800  0.002000  0.584800  1.0  -0.1216
  N  N520  1  0.509500  0.788500  0.514500  1.0  -0.0915
  N  N521  1  0.269200  0.830300  0.488700  1.0  -0.1615
  N  N522  1  0.216700  0.903700  0.454200  1.0  -0.0841
  N  N523  1  0.697700  0.922700  0.614100  1.0  -0.1125
  N  N524  1  0.326700  0.914100  0.603300  1.0  -0.1514
  O  O525  1  0.878900  0.291790  0.982680  1.0  -0.6831
  O  O526  1  0.883400  0.326030  0.899880  1.0  -0.6985
  O  O527  1  0.869300  0.506300  0.825200  1.0  -0.698
  O  O528  1  0.990800  0.597700  0.881400  1.0  -0.631
  O  O529  1  0.943300  0.219100  0.781300  1.0  -0.5266
  O  O530  1  0.949700  0.464980  0.933980  1.0  -0.7268
  O  O531  1  0.879000  0.289300  0.762320  1.0  -0.6836
  O  O532  1  0.121100  0.708210  0.017320  1.0  -0.6834
  O  O533  1  0.116600  0.673970  0.100120  1.0  -0.7006
  O  O534  1  0.130700  0.493700  0.174800  1.0  -0.6964
  O  O535  1  0.009200  0.402300  0.118600  1.0  -0.631
  O  O536  1  0.056700  0.780900  0.218700  1.0  -0.5259
  O  O537  1  0.050300  0.535020  0.066020  1.0  -0.7276
  O  O538  1  0.121000  0.710700  0.237680  1.0  -0.6846
  O  O539  1  0.497000  0.723800  0.096400  1.0  -0.5245
  O  O540  1  0.469100  0.488000  0.189600  1.0  -0.5255
  O  O541  1  0.652600  0.495500  0.195400  1.0  -0.5325
  O  O542  1  0.302900  0.373900  0.045900  1.0  -0.5341
  O  O543  1  0.683900  0.730200  0.098800  1.0  -0.5355
  O  O544  1  0.677700  0.391900  0.057100  1.0  -0.5273
  O  O545  1  0.503000  0.276200  0.903600  1.0  -0.5247
  O  O546  1  0.530900  0.512000  0.810400  1.0  -0.5249
  O  O547  1  0.347400  0.504500  0.804600  1.0  -0.5336
  O  O548  1  0.697100  0.626100  0.954100  1.0  -0.533
  O  O549  1  0.316100  0.269800  0.901200  1.0  -0.5353
  O  O550  1  0.322300  0.608100  0.942900  1.0  -0.5276
  O  O551  1  0.975700  0.039100  0.208000  1.0  -0.5257
  O  O552  1  0.824000  0.914000  0.782600  1.0  -0.5112
  O  O553  1  0.118600  0.230100  0.028200  1.0  -0.5468
  O  O554  1  0.912900  0.169300  0.016000  1.0  -0.536
  O  O555  1  0.759900  0.821700  0.874300  1.0  -0.5711
  O  O556  1  0.835100  0.086300  0.101600  1.0  -0.5526
  O  O557  1  0.024300  0.960900  0.792000  1.0  -0.5257
  O  O558  1  0.176000  0.086000  0.217400  1.0  -0.5116
  O  O559  1  0.881400  0.769900  0.971800  1.0  -0.5466
  O  O560  1  0.087100  0.830700  0.984000  1.0  -0.536
  O  O561  1  0.240100  0.178300  0.125700  1.0  -0.5686
  O  O562  1  0.164900  0.913700  0.898400  1.0  -0.5517
  O  O563  1  0.253200  0.611800  0.480900  1.0  -0.5132
  O  O564  1  0.867400  0.638500  0.448100  1.0  -0.5305
  O  O565  1  0.124300  0.464700  0.690400  1.0  -0.5443
  O  O566  1  0.044000  0.721800  0.593700  1.0  -0.5239
  O  O567  1  0.248400  0.712100  0.614500  1.0  -0.4945
  O  O568  1  0.943400  0.478000  0.674800  1.0  -0.528
  O  O569  1  0.746800  0.388200  0.519100  1.0  -0.5119
  O  O570  1  0.132600  0.361500  0.551900  1.0  -0.5307
  O  O571  1  0.875700  0.535300  0.309600  1.0  -0.5441
  O  O572  1  0.956000  0.278200  0.406300  1.0  -0.5221
  O  O573  1  0.751600  0.287900  0.385500  1.0  -0.4945
  O  O574  1  0.056600  0.522000  0.325200  1.0  -0.5281
  O  O575  1  0.269800  0.960300  0.324700  1.0  -0.5693
  O  O576  1  0.601700  0.966300  0.335800  1.0  -0.5181
  O  O577  1  0.592400  0.243700  0.589300  1.0  -0.5314
  O  O578  1  0.738800  0.165400  0.616800  1.0  -0.5087
  O  O579  1  0.440300  0.029200  0.302000  1.0  -0.525
  O  O580  1  0.409400  0.173200  0.612900  1.0  -0.4791
  O  O581  1  0.730200  0.039700  0.675300  1.0  -0.5681
  O  O582  1  0.398300  0.033700  0.664200  1.0  -0.5187
  O  O583  1  0.407600  0.756300  0.410700  1.0  -0.5322
  O  O584  1  0.261200  0.834600  0.383200  1.0  -0.5091
  O  O585  1  0.559700  0.970800  0.698000  1.0  -0.5239
  O  O586  1  0.590600  0.826800  0.387100  1.0  -0.4787
