# generated using pymatgen
data_CdH8C14(SN2)3
_symmetry_space_group_name_H-M   'P 1'
_cell_length_a   7.35800000
_cell_length_b   9.99700000
_cell_length_c   15.05780000
_cell_angle_alpha   109.38700000
_cell_angle_beta   98.49800000
_cell_angle_gamma   90.00000000
_symmetry_Int_Tables_number   1
_chemical_formula_structural   CdH8C14(SN2)3
_chemical_formula_sum   'Cd2 H16 C28 S6 N12'
_cell_volume   1031.91584791
_cell_formula_units_Z   2
loop_
 _symmetry_equiv_pos_site_id
 _symmetry_equiv_pos_as_xyz
  1  'x, y, z'
loop_
 _atom_site_type_symbol
 _atom_site_label
 _atom_site_symmetry_multiplicity
 _atom_site_fract_x
 _atom_site_fract_y
 _atom_site_fract_z
 _atom_site_occupancy
 _atom_site_charge
  Cd  Cd1  1  0.000000  0.500000  0.500000  1.0  0.8078
  Cd  Cd2  1  0.500000  0.000000  0.500000  1.0  0.8078
  H  H3  1  0.823800  0.474400  0.676400  1.0  0.0794
  H  H4  1  0.759700  0.594900  0.825400  1.0  0.1275
  H  H5  1  0.876200  0.958200  0.784000  1.0  0.1274
  H  H6  1  0.943800  0.826900  0.637000  1.0  0.0732
  H  H7  1  0.676200  0.798000  0.323600  1.0  0.0784
  H  H8  1  0.740300  0.769500  0.174600  1.0  0.1272
  H  H9  1  0.623800  0.174200  0.216000  1.0  0.1268
  H  H10  1  0.556200  0.189900  0.363000  1.0  0.0716
  H  H11  1  0.176200  0.525600  0.323600  1.0  0.0787
  H  H12  1  0.240300  0.405100  0.174600  1.0  0.1274
  H  H13  1  0.123800  0.041800  0.216000  1.0  0.1274
  H  H14  1  0.056200  0.173100  0.363000  1.0  0.0728
  H  H15  1  0.323800  0.202000  0.676400  1.0  0.0781
  H  H16  1  0.259700  0.230500  0.825400  1.0  0.1264
  H  H17  1  0.376200  0.825800  0.784000  1.0  0.1269
  H  H18  1  0.443800  0.810100  0.637000  1.0  0.0723
  C  C19  1  0.839000  0.572990  0.699180  1.0  0.171
  C  C20  1  0.798600  0.644640  0.788680  1.0  -0.1821
  C  C21  1  0.816700  0.791810  0.823420  1.0  0.0682
  C  C22  1  0.868200  0.859580  0.764560  1.0  -0.1655
  C  C23  1  0.908400  0.779420  0.675840  1.0  0.1875
  C  C24  1  0.779900  0.870350  0.920500  1.0  0.1585
  C  C25  1  0.606500  0.650070  0.443140  1.0  0.3487
  C  C26  1  0.661000  0.873810  0.300820  1.0  0.1767
  C  C27  1  0.701400  0.855960  0.211320  1.0  -0.1803
  C  C28  1  0.683300  0.968390  0.176580  1.0  0.0663
  C  C29  1  0.631800  0.095020  0.235440  1.0  -0.1625
  C  C30  1  0.591600  0.103580  0.324160  1.0  0.1882
  C  C31  1  0.720100  0.949850  0.079500  1.0  0.1593
  C  C32  1  0.893500  0.206930  0.556860  1.0  0.3485
  C  C33  1  0.161000  0.427010  0.300820  1.0  0.1736
  C  C34  1  0.201400  0.355360  0.211320  1.0  -0.1824
  C  C35  1  0.183300  0.208190  0.176580  1.0  0.0643
  C  C36  1  0.131800  0.140420  0.235440  1.0  -0.1647
  C  C37  1  0.091600  0.220580  0.324160  1.0  0.1873
  C  C38  1  0.220100  0.129650  0.079500  1.0  0.1579
  C  C39  1  0.393500  0.349930  0.556860  1.0  0.3489
  C  C40  1  0.339000  0.126190  0.699180  1.0  0.1769
  C  C41  1  0.298600  0.144040  0.788680  1.0  -0.1805
  C  C42  1  0.316700  0.031610  0.823420  1.0  0.0683
  C  C43  1  0.368200  0.904980  0.764560  1.0  -0.162
  C  C44  1  0.408400  0.896420  0.675840  1.0  0.1879
  C  C45  1  0.279900  0.050150  0.920500  1.0  0.1577
  C  C46  1  0.106500  0.793070  0.443140  1.0  0.3483
  S  S47  1  0.659130  0.483790  0.396840  1.0  -0.3954
  S  S48  1  0.840870  0.086950  0.603160  1.0  -0.3965
  S  S49  1  0.340870  0.516210  0.603160  1.0  -0.3952
  S  S50  1  0.159130  0.913050  0.396840  1.0  -0.3952
  S  S51  1  0.750000  0.785870  0.000000  1.0  0.0673
  S  S52  1  0.250000  0.214130  0.000000  1.0  0.0668
  N  N53  1  0.898700  0.637450  0.643300  1.0  -0.3319
  N  N54  1  0.767100  0.006850  0.953700  1.0  -0.2155
  N  N55  1  0.570400  0.766490  0.475180  1.0  -0.4945
  N  N56  1  0.601300  0.994150  0.356700  1.0  -0.3251
  N  N57  1  0.732900  0.053150  0.046300  1.0  -0.2169
  N  N58  1  0.929600  0.291310  0.524820  1.0  -0.4948
  N  N59  1  0.101300  0.362550  0.356700  1.0  -0.3271
  N  N60  1  0.232900  0.993150  0.046300  1.0  -0.2144
  N  N61  1  0.429600  0.233510  0.524820  1.0  -0.4954
  N  N62  1  0.398700  0.005850  0.643300  1.0  -0.3262
  N  N63  1  0.267100  0.946850  0.953700  1.0  -0.2156
  N  N64  1  0.070400  0.708690  0.475180  1.0  -0.4952
