# generated using pymatgen
data_Co8H36C48N8O21
_symmetry_space_group_name_H-M   'P 1'
_cell_length_a   13.81470000
_cell_length_b   13.81470000
_cell_length_c   19.49110000
_cell_angle_alpha   90.00000000
_cell_angle_beta   90.00000000
_cell_angle_gamma   90.00000000
_symmetry_Int_Tables_number   1
_chemical_formula_structural   Co8H36C48N8O21
_chemical_formula_sum   'Co16 H72 C96 N16 O42'
_cell_volume   3719.79722492
_cell_formula_units_Z   2
loop_
 _symmetry_equiv_pos_site_id
 _symmetry_equiv_pos_as_xyz
  1  'x, y, z'
loop_
 _atom_site_type_symbol
 _atom_site_label
 _atom_site_symmetry_multiplicity
 _atom_site_fract_x
 _atom_site_fract_y
 _atom_site_fract_z
 _atom_site_occupancy
 _atom_site_charge
  Co  Co1  1  0.179660  0.784450  0.095700  1.0  0.8989
  Co  Co2  1  0.150170  0.956870  0.988360  1.0  1.0912
  Co  Co3  1  0.820340  0.215550  0.095700  1.0  0.8957
  Co  Co4  1  0.849830  0.043130  0.988360  1.0  1.0906
  Co  Co5  1  0.784450  0.820340  0.904300  1.0  0.9017
  Co  Co6  1  0.956870  0.849830  0.011640  1.0  1.0931
  Co  Co7  1  0.215550  0.179660  0.904300  1.0  0.9014
  Co  Co8  1  0.043130  0.150170  0.011640  1.0  1.0933
  Co  Co9  1  0.320340  0.284450  0.404300  1.0  0.8993
  Co  Co10  1  0.349830  0.456870  0.511640  1.0  1.0924
  Co  Co11  1  0.679660  0.715550  0.404300  1.0  0.8974
  Co  Co12  1  0.650170  0.543130  0.511640  1.0  1.0933
  Co  Co13  1  0.715550  0.320340  0.595700  1.0  0.9008
  Co  Co14  1  0.543130  0.349830  0.488360  1.0  1.0908
  Co  Co15  1  0.284450  0.679660  0.595700  1.0  0.9003
  Co  Co16  1  0.456870  0.650170  0.488360  1.0  1.0916
  H  H17  1  0.113500  0.781500  0.975200  1.0  0.4489
  H  H18  1  0.185000  0.693700  0.240500  1.0  0.0642
  H  H19  1  0.386700  0.838100  0.145500  1.0  0.0795
  H  H20  1  0.262200  0.640600  0.992200  1.0  0.0733
  H  H21  1  0.099800  0.587300  0.149800  1.0  0.0622
  H  H22  1  0.290300  0.651700  0.326800  1.0  0.1085
  H  H23  1  0.498500  0.802800  0.229800  1.0  0.1111
  H  H24  1  0.251000  0.483300  0.954700  1.0  0.1141
  H  H25  1  0.088100  0.427900  0.117800  1.0  0.0889
  H  H26  1  0.886500  0.218500  0.975200  1.0  0.4494
  H  H27  1  0.815000  0.306300  0.240500  1.0  0.0638
  H  H28  1  0.613300  0.161900  0.145500  1.0  0.0787
  H  H29  1  0.737800  0.359400  0.992200  1.0  0.0729
  H  H30  1  0.900200  0.412700  0.149800  1.0  0.0623
  H  H31  1  0.709700  0.348300  0.326800  1.0  0.108
  H  H32  1  0.501500  0.197200  0.229800  1.0  0.1112
  H  H33  1  0.749000  0.516700  0.954700  1.0  0.1138
  H  H34  1  0.911900  0.572100  0.117800  1.0  0.089
  H  H35  1  0.781500  0.886500  0.024800  1.0  0.4486
  H  H36  1  0.693700  0.815000  0.759500  1.0  0.0643
  H  H37  1  0.838100  0.613300  0.854500  1.0  0.079
  H  H38  1  0.640600  0.737800  0.007800  1.0  0.0744
  H  H39  1  0.587300  0.900200  0.850200  1.0  0.0623
  H  H40  1  0.651700  0.709700  0.673200  1.0  0.1081
  H  H41  1  0.802800  0.501500  0.770200  1.0  0.1116
  H  H42  1  0.483300  0.749000  0.045300  1.0  0.115
  H  H43  1  0.427900  0.911900  0.882200  1.0  0.0878
  H  H44  1  0.218500  0.113500  0.024800  1.0  0.4473
  H  H45  1  0.306300  0.185000  0.759500  1.0  0.0641
  H  H46  1  0.161900  0.386700  0.854500  1.0  0.0783
  H  H47  1  0.359400  0.262200  0.007800  1.0  0.0737
  H  H48  1  0.412700  0.099800  0.850200  1.0  0.0626
  H  H49  1  0.348300  0.290300  0.673200  1.0  0.1073
  H  H50  1  0.197200  0.498500  0.770200  1.0  0.1118
  H  H51  1  0.516700  0.251000  0.045300  1.0  0.1149
  H  H52  1  0.572100  0.088100  0.882200  1.0  0.0889
  H  H53  1  0.386500  0.281500  0.524800  1.0  0.4474
  H  H54  1  0.315000  0.193700  0.259500  1.0  0.0642
  H  H55  1  0.113300  0.338100  0.354500  1.0  0.0797
  H  H56  1  0.237800  0.140600  0.507800  1.0  0.0736
  H  H57  1  0.400200  0.087300  0.350200  1.0  0.0621
  H  H58  1  0.209700  0.151700  0.173200  1.0  0.108
  H  H59  1  0.001500  0.302800  0.270200  1.0  0.1108
  H  H60  1  0.249000  0.983300  0.545300  1.0  0.1144
  H  H61  1  0.411900  0.927900  0.382200  1.0  0.0891
  H  H62  1  0.613500  0.718500  0.524800  1.0  0.4472
  H  H63  1  0.685000  0.806300  0.259500  1.0  0.0644
  H  H64  1  0.886700  0.661900  0.354500  1.0  0.0793
  H  H65  1  0.762200  0.859400  0.507800  1.0  0.0734
  H  H66  1  0.599800  0.912700  0.350200  1.0  0.0621
  H  H67  1  0.790300  0.848300  0.173200  1.0  0.1086
  H  H68  1  0.998500  0.697200  0.270200  1.0  0.1112
  H  H69  1  0.751000  0.016700  0.545300  1.0  0.1144
  H  H70  1  0.588100  0.072100  0.382200  1.0  0.0891
  H  H71  1  0.718500  0.386500  0.475200  1.0  0.4488
  H  H72  1  0.806300  0.315000  0.740500  1.0  0.0637
  H  H73  1  0.661900  0.113300  0.645500  1.0  0.0782
  H  H74  1  0.859400  0.237800  0.492200  1.0  0.0736
  H  H75  1  0.912700  0.400200  0.649800  1.0  0.0624
  H  H76  1  0.848300  0.209700  0.826800  1.0  0.1074
  H  H77  1  0.697200  0.001500  0.729800  1.0  0.1117
  H  H78  1  0.016700  0.249000  0.454700  1.0  0.1146
  H  H79  1  0.072100  0.411900  0.617800  1.0  0.088
  H  H80  1  0.281500  0.613500  0.475200  1.0  0.4498
  H  H81  1  0.193700  0.685000  0.740500  1.0  0.0639
  H  H82  1  0.338100  0.886700  0.645500  1.0  0.0788
  H  H83  1  0.140600  0.762200  0.492200  1.0  0.0736
  H  H84  1  0.087300  0.599800  0.649800  1.0  0.0626
  H  H85  1  0.151700  0.790300  0.826800  1.0  0.108
  H  H86  1  0.302800  0.998500  0.729800  1.0  0.1123
  H  H87  1  0.983300  0.751000  0.454700  1.0  0.1148
  H  H88  1  0.927900  0.588100  0.617800  1.0  0.0889
  C  C89  1  0.250500  0.713800  0.236800  1.0  0.1742
  C  C90  1  0.367500  0.797500  0.182400  1.0  0.1393
  C  C91  1  0.336400  0.850700  0.992400  1.0  0.6766
  C  C92  1  0.223600  0.596900  0.018100  1.0  0.1652
  C  C93  1  0.131000  0.567100  0.108800  1.0  0.1534
  C  C94  1  0.313100  0.688400  0.288900  1.0  -0.1689
  C  C95  1  0.435100  0.776400  0.232300  1.0  -0.1601
  C  C96  1  0.439400  0.834800  0.967400  1.0  -0.1311
  C  C97  1  0.218400  0.503100  0.995200  1.0  -0.1896
  C  C98  1  0.123500  0.471500  0.089700  1.0  -0.1421
  C  C99  1  0.409400  0.716500  0.286000  1.0  -0.0811
  C  C100  1  0.481100  0.688100  0.340500  1.0  0.7155
  C  C101  1  0.749500  0.286200  0.236800  1.0  0.1746
  C  C102  1  0.632500  0.202500  0.182400  1.0  0.1388
  C  C103  1  0.663600  0.149300  0.992400  1.0  0.6765
  C  C104  1  0.776400  0.403100  0.018100  1.0  0.1655
  C  C105  1  0.869000  0.432900  0.108800  1.0  0.1529
  C  C106  1  0.686900  0.311600  0.288900  1.0  -0.1694
  C  C107  1  0.564900  0.223600  0.232300  1.0  -0.1597
  C  C108  1  0.560600  0.165200  0.967400  1.0  -0.1261
  C  C109  1  0.781600  0.496900  0.995200  1.0  -0.1875
  C  C110  1  0.876500  0.528500  0.089700  1.0  -0.1409
  C  C111  1  0.590600  0.283500  0.286000  1.0  -0.0809
  C  C112  1  0.518900  0.311900  0.340500  1.0  0.7157
  C  C113  1  0.713800  0.749500  0.763200  1.0  0.1711
  C  C114  1  0.797500  0.632500  0.817600  1.0  0.14
  C  C115  1  0.850700  0.663600  0.007600  1.0  0.6778
  C  C116  1  0.596900  0.776400  0.981900  1.0  0.164
  C  C117  1  0.567100  0.869000  0.891200  1.0  0.1525
  C  C118  1  0.688400  0.686900  0.711100  1.0  -0.1689
  C  C119  1  0.776400  0.564900  0.767700  1.0  -0.1581
  C  C120  1  0.834800  0.560600  0.032600  1.0  -0.1273
  C  C121  1  0.503100  0.781600  0.004800  1.0  -0.1895
  C  C122  1  0.471500  0.876500  0.910300  1.0  -0.1393
  C  C123  1  0.716500  0.590600  0.714000  1.0  -0.0825
  C  C124  1  0.688100  0.518900  0.659500  1.0  0.7131
  C  C125  1  0.286200  0.250500  0.763200  1.0  0.1713
  C  C126  1  0.202500  0.367500  0.817600  1.0  0.1396
  C  C127  1  0.149300  0.336400  0.007600  1.0  0.678
  C  C128  1  0.403100  0.223600  0.981900  1.0  0.1631
  C  C129  1  0.432900  0.131000  0.891200  1.0  0.1516
  C  C130  1  0.311600  0.313100  0.711100  1.0  -0.1684
  C  C131  1  0.223600  0.435100  0.767700  1.0  -0.1595
  C  C132  1  0.165200  0.439400  0.032600  1.0  -0.1276
  C  C133  1  0.496900  0.218400  0.004800  1.0  -0.1892
  C  C134  1  0.528500  0.123500  0.910300  1.0  -0.1369
  C  C135  1  0.283500  0.409400  0.714000  1.0  -0.0804
  C  C136  1  0.311900  0.481100  0.659500  1.0  0.7124
  C  C137  1  0.249500  0.213800  0.263200  1.0  0.1744
  C  C138  1  0.132500  0.297500  0.317600  1.0  0.1388
  C  C139  1  0.163600  0.350700  0.507600  1.0  0.6763
  C  C140  1  0.276400  0.096900  0.481900  1.0  0.1669
  C  C141  1  0.369000  0.067100  0.391200  1.0  0.1522
  C  C142  1  0.186900  0.188400  0.211100  1.0  -0.1682
  C  C143  1  0.064900  0.276400  0.267700  1.0  -0.1599
  C  C144  1  0.060600  0.334800  0.532600  1.0  -0.1264
  C  C145  1  0.281600  0.003100  0.504800  1.0  -0.1888
  C  C146  1  0.376500  0.971500  0.410300  1.0  -0.1405
  C  C147  1  0.090600  0.216500  0.214000  1.0  -0.0818
  C  C148  1  0.018900  0.188100  0.159500  1.0  0.7151
  C  C149  1  0.750500  0.786200  0.263200  1.0  0.1739
  C  C150  1  0.867500  0.702500  0.317600  1.0  0.1399
  C  C151  1  0.836400  0.649300  0.507600  1.0  0.676
  C  C152  1  0.723600  0.903100  0.481900  1.0  0.1652
  C  C153  1  0.631000  0.932900  0.391200  1.0  0.1531
  C  C154  1  0.813100  0.811600  0.211100  1.0  -0.169
  C  C155  1  0.935100  0.723600  0.267700  1.0  -0.16
  C  C156  1  0.939400  0.665200  0.532600  1.0  -0.1295
  C  C157  1  0.718400  0.996900  0.504800  1.0  -0.1884
  C  C158  1  0.623500  0.028500  0.410300  1.0  -0.141
  C  C159  1  0.909400  0.783500  0.214000  1.0  -0.0803
  C  C160  1  0.981100  0.811900  0.159500  1.0  0.7145
  C  C161  1  0.786200  0.249500  0.736800  1.0  0.1719
  C  C162  1  0.702500  0.132500  0.682400  1.0  0.1392
  C  C163  1  0.649300  0.163600  0.492400  1.0  0.6784
  C  C164  1  0.903100  0.276400  0.518100  1.0  0.1624
  C  C165  1  0.932900  0.369000  0.608800  1.0  0.152
  C  C166  1  0.811600  0.186900  0.788900  1.0  -0.1694
  C  C167  1  0.723600  0.064900  0.732300  1.0  -0.1582
  C  C168  1  0.665200  0.060600  0.467400  1.0  -0.1282
  C  C169  1  0.996900  0.281600  0.495200  1.0  -0.1894
  C  C170  1  0.028500  0.376500  0.589700  1.0  -0.1385
  C  C171  1  0.783500  0.090600  0.786000  1.0  -0.0796
  C  C172  1  0.811900  0.018900  0.840500  1.0  0.7134
  C  C173  1  0.213800  0.750500  0.736800  1.0  0.1712
  C  C174  1  0.297500  0.867500  0.682400  1.0  0.1393
  C  C175  1  0.350700  0.836400  0.492400  1.0  0.6781
  C  C176  1  0.096900  0.723600  0.518100  1.0  0.1636
  C  C177  1  0.067100  0.631000  0.608800  1.0  0.1529
  C  C178  1  0.188400  0.813100  0.788900  1.0  -0.1693
  C  C179  1  0.276400  0.935100  0.732300  1.0  -0.1595
  C  C180  1  0.334800  0.939400  0.467400  1.0  -0.1277
  C  C181  1  0.003100  0.718400  0.495200  1.0  -0.1901
  C  C182  1  0.971500  0.623500  0.589700  1.0  -0.1404
  C  C183  1  0.216500  0.909400  0.786000  1.0  -0.0821
  C  C184  1  0.188100  0.981100  0.840500  1.0  0.7143
  N  N185  1  0.275200  0.763500  0.182890  1.0  -0.3363
  N  N186  1  0.179100  0.632000  0.073130  1.0  -0.3195
  N  N187  1  0.724800  0.236500  0.182890  1.0  -0.3357
  N  N188  1  0.820900  0.368000  0.073130  1.0  -0.3205
  N  N189  1  0.763500  0.724800  0.817110  1.0  -0.3384
  N  N190  1  0.632000  0.820900  0.926870  1.0  -0.3186
  N  N191  1  0.236500  0.275200  0.817110  1.0  -0.3377
  N  N192  1  0.368000  0.179100  0.926870  1.0  -0.32
  N  N193  1  0.224800  0.263500  0.317110  1.0  -0.3366
  N  N194  1  0.320900  0.132000  0.426870  1.0  -0.3201
  N  N195  1  0.775200  0.736500  0.317110  1.0  -0.3375
  N  N196  1  0.679100  0.868000  0.426870  1.0  -0.3198
  N  N197  1  0.736500  0.224800  0.682890  1.0  -0.3368
  N  N198  1  0.868000  0.320900  0.573130  1.0  -0.3207
  N  N199  1  0.263500  0.775200  0.682890  1.0  -0.3376
  N  N200  1  0.132000  0.679100  0.573130  1.0  -0.3188
  O  O201  1  0.100490  0.819690  0.008130  1.0  -0.9843
  O  O202  1  0.307200  0.794300  0.039140  1.0  -0.6143
  O  O203  1  0.061100  0.770000  0.160380  1.0  -0.6131
  O  O204  1  0.289200  0.916600  0.964760  1.0  -0.6016
  O  O205  1  0.123500  0.954000  0.882100  1.0  -0.6197
  O  O206  1  0.899510  0.180310  0.008130  1.0  -0.9842
  O  O207  1  0.692800  0.205700  0.039140  1.0  -0.6145
  O  O208  1  0.938900  0.230000  0.160380  1.0  -0.612
  O  O209  1  0.710800  0.083400  0.964760  1.0  -0.6012
  O  O210  1  0.876500  0.046000  0.882100  1.0  -0.62
  O  O211  1  0.819690  0.899510  0.991870  1.0  -0.9856
  O  O212  1  0.794300  0.692800  0.960860  1.0  -0.6133
  O  O213  1  0.770000  0.938900  0.839620  1.0  -0.6144
  O  O214  1  0.916600  0.710800  0.035240  1.0  -0.6013
  O  O215  1  0.954000  0.876500  0.117900  1.0  -0.6141
  O  O216  1  0.180310  0.100490  0.991870  1.0  -0.9839
  O  O217  1  0.205700  0.307200  0.960860  1.0  -0.6134
  O  O218  1  0.230000  0.061100  0.839620  1.0  -0.6142
  O  O219  1  0.083400  0.289200  0.035240  1.0  -0.6012
  O  O220  1  0.046000  0.123500  0.117900  1.0  -0.6182
  O  O221  1  0.399510  0.319690  0.491870  1.0  -0.9856
  O  O222  1  0.192800  0.294300  0.460860  1.0  -0.6146
  O  O223  1  0.438900  0.270000  0.339620  1.0  -0.6118
  O  O224  1  0.210800  0.416600  0.535240  1.0  -0.6022
  O  O225  1  0.376500  0.454000  0.617900  1.0  -0.6199
  O  O226  1  0.600490  0.680310  0.491870  1.0  -0.984
  O  O227  1  0.807200  0.705700  0.460860  1.0  -0.6142
  O  O228  1  0.561100  0.730000  0.339620  1.0  -0.6127
  O  O229  1  0.789200  0.583400  0.535240  1.0  -0.6017
  O  O230  1  0.623500  0.546000  0.617900  1.0  -0.6203
  O  O231  1  0.680310  0.399510  0.508130  1.0  -0.984
  O  O232  1  0.705700  0.192800  0.539140  1.0  -0.6131
  O  O233  1  0.730000  0.438900  0.660380  1.0  -0.6146
  O  O234  1  0.583400  0.210800  0.464760  1.0  -0.6003
  O  O235  1  0.546000  0.376500  0.382100  1.0  -0.6142
  O  O236  1  0.319690  0.600490  0.508130  1.0  -0.9843
  O  O237  1  0.294300  0.807200  0.539140  1.0  -0.6134
  O  O238  1  0.270000  0.561100  0.660380  1.0  -0.6142
  O  O239  1  0.416600  0.789200  0.464760  1.0  -0.6008
  O  O240  1  0.454000  0.623500  0.382100  1.0  -0.6173
  O  O241  1  0.000000  0.000000  0.000000  1.0  -0.8319
  O  O242  1  0.500000  0.500000  0.500000  1.0  -0.8319
