# generated using pymatgen
data_CdH5C4N9
_symmetry_space_group_name_H-M   'P 1'
_cell_length_a   21.64920000
_cell_length_b   9.95280000
_cell_length_c   8.41460000
_cell_angle_alpha   90.00000000
_cell_angle_beta   105.59700000
_cell_angle_gamma   90.00000000
_symmetry_Int_Tables_number   1
_chemical_formula_structural   CdH5C4N9
_chemical_formula_sum   'Cd8 H40 C32 N72'
_cell_volume   1746.33094365
_cell_formula_units_Z   8
loop_
 _symmetry_equiv_pos_site_id
 _symmetry_equiv_pos_as_xyz
  1  'x, y, z'
loop_
 _atom_site_type_symbol
 _atom_site_label
 _atom_site_symmetry_multiplicity
 _atom_site_fract_x
 _atom_site_fract_y
 _atom_site_fract_z
 _atom_site_occupancy
 _atom_site_charge
  Cd  Cd1  1  0.750000  0.750000  0.000000  1.0  0.846
  Cd  Cd2  1  0.250000  0.750000  0.500000  1.0  0.846
  Cd  Cd3  1  0.250000  0.250000  0.000000  1.0  0.846
  Cd  Cd4  1  0.750000  0.250000  0.500000  1.0  0.846
  Cd  Cd5  1  0.500000  0.403250  0.750000  1.0  0.9396
  Cd  Cd6  1  0.000000  0.903250  0.750000  1.0  0.9396
  Cd  Cd7  1  0.500000  0.596750  0.250000  1.0  0.9415
  Cd  Cd8  1  0.000000  0.096750  0.250000  1.0  0.9415
  H  H9  1  0.570500  0.163000  0.831000  1.0  0.1178
  H  H10  1  0.670000  0.344600  0.865000  1.0  0.1137
  H  H11  1  0.668300  0.197000  0.797900  1.0  0.0958
  H  H12  1  0.574600  0.216400  0.092400  1.0  0.1418
  H  H13  1  0.628000  0.323000  0.093100  1.0  0.127
  H  H14  1  0.070500  0.663000  0.831000  1.0  0.1178
  H  H15  1  0.170000  0.844600  0.865000  1.0  0.1137
  H  H16  1  0.168300  0.697000  0.797900  1.0  0.0958
  H  H17  1  0.074600  0.716400  0.092400  1.0  0.1418
  H  H18  1  0.128000  0.823000  0.093100  1.0  0.127
  H  H19  1  0.429500  0.163000  0.669000  1.0  0.1169
  H  H20  1  0.330000  0.344600  0.635000  1.0  0.1143
  H  H21  1  0.331700  0.197000  0.702100  1.0  0.0956
  H  H22  1  0.425400  0.216400  0.407600  1.0  0.1426
  H  H23  1  0.372000  0.323000  0.406900  1.0  0.1275
  H  H24  1  0.929500  0.663000  0.669000  1.0  0.1169
  H  H25  1  0.830000  0.844600  0.635000  1.0  0.1143
  H  H26  1  0.831700  0.697000  0.702100  1.0  0.0956
  H  H27  1  0.925400  0.716400  0.407600  1.0  0.1426
  H  H28  1  0.872000  0.823000  0.406900  1.0  0.1275
  H  H29  1  0.429500  0.837000  0.169000  1.0  0.1167
  H  H30  1  0.330000  0.655400  0.135000  1.0  0.1139
  H  H31  1  0.331700  0.803000  0.202100  1.0  0.0957
  H  H32  1  0.425400  0.783600  0.907600  1.0  0.1424
  H  H33  1  0.372000  0.677000  0.906900  1.0  0.1274
  H  H34  1  0.929500  0.337000  0.169000  1.0  0.1167
  H  H35  1  0.830000  0.155400  0.135000  1.0  0.1139
  H  H36  1  0.831700  0.303000  0.202100  1.0  0.0957
  H  H37  1  0.925400  0.283600  0.907600  1.0  0.1424
  H  H38  1  0.872000  0.177000  0.906900  1.0  0.1274
  H  H39  1  0.570500  0.837000  0.331000  1.0  0.1171
  H  H40  1  0.670000  0.655400  0.365000  1.0  0.1141
  H  H41  1  0.668300  0.803000  0.297900  1.0  0.096
  H  H42  1  0.574600  0.783600  0.592400  1.0  0.1412
  H  H43  1  0.628000  0.677000  0.593100  1.0  0.1281
  H  H44  1  0.070500  0.337000  0.331000  1.0  0.1171
  H  H45  1  0.170000  0.155400  0.365000  1.0  0.1141
  H  H46  1  0.168300  0.303000  0.297900  1.0  0.096
  H  H47  1  0.074600  0.283600  0.592400  1.0  0.1412
  H  H48  1  0.128000  0.177000  0.593100  1.0  0.1281
  C  C49  1  0.618710  0.328200  0.625000  1.0  0.3923
  C  C50  1  0.642790  0.277300  0.797200  1.0  -0.1647
  C  C51  1  0.661680  0.130300  0.106500  1.0  0.4081
  C  C52  1  0.610810  0.236700  0.049000  1.0  -0.0573
  C  C53  1  0.118710  0.828200  0.625000  1.0  0.3923
  C  C54  1  0.142790  0.777300  0.797200  1.0  -0.1647
  C  C55  1  0.161680  0.630300  0.106500  1.0  0.4081
  C  C56  1  0.110810  0.736700  0.049000  1.0  -0.0573
  C  C57  1  0.381290  0.328200  0.875000  1.0  0.3929
  C  C58  1  0.357210  0.277300  0.702800  1.0  -0.1637
  C  C59  1  0.338320  0.130300  0.393500  1.0  0.4086
  C  C60  1  0.389190  0.236700  0.451000  1.0  -0.0575
  C  C61  1  0.881290  0.828200  0.875000  1.0  0.3929
  C  C62  1  0.857210  0.777300  0.702800  1.0  -0.1637
  C  C63  1  0.838320  0.630300  0.393500  1.0  0.4086
  C  C64  1  0.889190  0.736700  0.451000  1.0  -0.0575
  C  C65  1  0.381290  0.671800  0.375000  1.0  0.3923
  C  C66  1  0.357210  0.722700  0.202800  1.0  -0.1647
  C  C67  1  0.338320  0.869700  0.893500  1.0  0.4087
  C  C68  1  0.389190  0.763300  0.951000  1.0  -0.0571
  C  C69  1  0.881290  0.171800  0.375000  1.0  0.3923
  C  C70  1  0.857210  0.222700  0.202800  1.0  -0.1647
  C  C71  1  0.838320  0.369700  0.893500  1.0  0.4087
  C  C72  1  0.889190  0.263300  0.951000  1.0  -0.0571
  C  C73  1  0.618710  0.671800  0.125000  1.0  0.3927
  C  C74  1  0.642790  0.722700  0.297200  1.0  -0.165
  C  C75  1  0.661680  0.869700  0.606500  1.0  0.4073
  C  C76  1  0.610810  0.763300  0.549000  1.0  -0.0585
  C  C77  1  0.118710  0.171800  0.125000  1.0  0.3927
  C  C78  1  0.142790  0.222700  0.297200  1.0  -0.165
  C  C79  1  0.161680  0.369700  0.606500  1.0  0.4073
  C  C80  1  0.110810  0.263300  0.549000  1.0  -0.0585
  N  N81  1  0.563260  0.392100  0.570800  1.0  -0.2861
  N  N82  1  0.561480  0.432700  0.416800  1.0  -0.0116
  N  N83  1  0.613590  0.394000  0.380300  1.0  -0.1372
  N  N84  1  0.650410  0.326500  0.508900  1.0  -0.2677
  N  N85  1  0.662270  0.016500  0.023900  1.0  -0.347
  N  N86  1  0.715880  0.952500  0.109600  1.0  -0.1373
  N  N87  1  0.745450  0.022900  0.238200  1.0  -0.1962
  N  N88  1  0.711890  0.137800  0.238800  1.0  -0.2919
  N  N89  1  0.588150  0.245900  0.866800  1.0  -0.3977
  N  N90  1  0.063260  0.892100  0.570800  1.0  -0.2861
  N  N91  1  0.061480  0.932700  0.416800  1.0  -0.0116
  N  N92  1  0.113590  0.894000  0.380300  1.0  -0.1372
  N  N93  1  0.150410  0.826500  0.508900  1.0  -0.2677
  N  N94  1  0.162270  0.516500  0.023900  1.0  -0.347
  N  N95  1  0.215880  0.452500  0.109600  1.0  -0.1373
  N  N96  1  0.245450  0.522900  0.238200  1.0  -0.1962
  N  N97  1  0.211890  0.637800  0.238800  1.0  -0.2919
  N  N98  1  0.088150  0.745900  0.866800  1.0  -0.3977
  N  N99  1  0.436740  0.392100  0.929200  1.0  -0.2855
  N  N100  1  0.438520  0.432700  0.083200  1.0  -0.0113
  N  N101  1  0.386410  0.394000  0.119700  1.0  -0.1381
  N  N102  1  0.349590  0.326500  0.991100  1.0  -0.2673
  N  N103  1  0.337730  0.016500  0.476100  1.0  -0.3443
  N  N104  1  0.284120  0.952500  0.390400  1.0  -0.1368
  N  N105  1  0.254550  0.022900  0.261800  1.0  -0.1953
  N  N106  1  0.288110  0.137800  0.261200  1.0  -0.2894
  N  N107  1  0.411850  0.245900  0.633200  1.0  -0.3959
  N  N108  1  0.936740  0.892100  0.929200  1.0  -0.2855
  N  N109  1  0.938520  0.932700  0.083200  1.0  -0.0113
  N  N110  1  0.886410  0.894000  0.119700  1.0  -0.1381
  N  N111  1  0.849590  0.826500  0.991100  1.0  -0.2673
  N  N112  1  0.837730  0.516500  0.476100  1.0  -0.3443
  N  N113  1  0.784120  0.452500  0.390400  1.0  -0.1368
  N  N114  1  0.754550  0.522900  0.261800  1.0  -0.1953
  N  N115  1  0.788110  0.637800  0.261200  1.0  -0.2894
  N  N116  1  0.911850  0.745900  0.633200  1.0  -0.3959
  N  N117  1  0.436740  0.607900  0.429200  1.0  -0.2857
  N  N118  1  0.438520  0.567300  0.583200  1.0  -0.0113
  N  N119  1  0.386410  0.606000  0.619700  1.0  -0.138
  N  N120  1  0.349590  0.673500  0.491100  1.0  -0.2673
  N  N121  1  0.337730  0.983500  0.976100  1.0  -0.3453
  N  N122  1  0.284120  0.047500  0.890400  1.0  -0.1387
  N  N123  1  0.254550  0.977100  0.761800  1.0  -0.1943
  N  N124  1  0.288110  0.862200  0.761200  1.0  -0.29
  N  N125  1  0.411850  0.754100  0.133200  1.0  -0.3953
  N  N126  1  0.936740  0.107900  0.429200  1.0  -0.2857
  N  N127  1  0.938520  0.067300  0.583200  1.0  -0.0113
  N  N128  1  0.886410  0.106000  0.619700  1.0  -0.138
  N  N129  1  0.849590  0.173500  0.491100  1.0  -0.2673
  N  N130  1  0.837730  0.483500  0.976100  1.0  -0.3453
  N  N131  1  0.784120  0.547500  0.890400  1.0  -0.1387
  N  N132  1  0.754550  0.477100  0.761800  1.0  -0.1943
  N  N133  1  0.788110  0.362200  0.761200  1.0  -0.29
  N  N134  1  0.911850  0.254100  0.133200  1.0  -0.3953
  N  N135  1  0.563260  0.607900  0.070800  1.0  -0.2862
  N  N136  1  0.561480  0.567300  0.916800  1.0  -0.0115
  N  N137  1  0.613590  0.606000  0.880300  1.0  -0.1369
  N  N138  1  0.650410  0.673500  0.008900  1.0  -0.2669
  N  N139  1  0.662270  0.983500  0.523900  1.0  -0.3466
  N  N140  1  0.715880  0.047500  0.609600  1.0  -0.1384
  N  N141  1  0.745450  0.977100  0.738200  1.0  -0.196
  N  N142  1  0.711890  0.862200  0.738800  1.0  -0.2918
  N  N143  1  0.588150  0.754100  0.366800  1.0  -0.396
  N  N144  1  0.063260  0.107900  0.070800  1.0  -0.2862
  N  N145  1  0.061480  0.067300  0.916800  1.0  -0.0115
  N  N146  1  0.113590  0.106000  0.880300  1.0  -0.1369
  N  N147  1  0.150410  0.173500  0.008900  1.0  -0.2669
  N  N148  1  0.162270  0.483500  0.523900  1.0  -0.3466
  N  N149  1  0.215880  0.547500  0.609600  1.0  -0.1384
  N  N150  1  0.245450  0.477100  0.738200  1.0  -0.196
  N  N151  1  0.211890  0.362200  0.738800  1.0  -0.2918
  N  N152  1  0.088150  0.254100  0.366800  1.0  -0.396
