# generated using pymatgen
data_Cd3H10C8(N9Cl)2
_symmetry_space_group_name_H-M   'P 1'
_cell_length_a   27.14800000
_cell_length_b   27.14800000
_cell_length_c   9.95700000
_cell_angle_alpha   90.00000000
_cell_angle_beta   90.00000000
_cell_angle_gamma   120.00000000
_symmetry_Int_Tables_number   1
_chemical_formula_structural   Cd3H10C8(N9Cl)2
_chemical_formula_sum   'Cd27 H90 C72 N162 Cl18'
_cell_volume   6355.28190922
_cell_formula_units_Z   9
loop_
 _symmetry_equiv_pos_site_id
 _symmetry_equiv_pos_as_xyz
  1  'x, y, z'
loop_
 _atom_site_type_symbol
 _atom_site_label
 _atom_site_symmetry_multiplicity
 _atom_site_fract_x
 _atom_site_fract_y
 _atom_site_fract_z
 _atom_site_occupancy
 _atom_site_charge
  Cd  Cd1  1  0.929900  0.611880  0.992630  1.0  0.8784
  Cd  Cd2  1  0.596560  0.945210  0.325960  1.0  0.8784
  Cd  Cd3  1  0.263230  0.278550  0.659300  1.0  0.8784
  Cd  Cd4  1  0.388120  0.318020  0.992630  1.0  0.883
  Cd  Cd5  1  0.054790  0.651350  0.325960  1.0  0.883
  Cd  Cd6  1  0.721450  0.984680  0.659300  1.0  0.883
  Cd  Cd7  1  0.681990  0.070100  0.992630  1.0  0.8854
  Cd  Cd8  1  0.348650  0.403440  0.325960  1.0  0.8854
  Cd  Cd9  1  0.015320  0.736770  0.659300  1.0  0.8852
  Cd  Cd10  1  0.070100  0.388120  0.007370  1.0  0.8785
  Cd  Cd11  1  0.736770  0.721450  0.340700  1.0  0.8786
  Cd  Cd12  1  0.403440  0.054790  0.674040  1.0  0.8786
  Cd  Cd13  1  0.611880  0.681990  0.007370  1.0  0.8843
  Cd  Cd14  1  0.278550  0.015320  0.340700  1.0  0.8843
  Cd  Cd15  1  0.945210  0.348650  0.674040  1.0  0.8842
  Cd  Cd16  1  0.318020  0.929900  0.007370  1.0  0.8847
  Cd  Cd17  1  0.984680  0.263230  0.340700  1.0  0.8847
  Cd  Cd18  1  0.651350  0.596560  0.674040  1.0  0.8848
  Cd  Cd19  1  0.833330  0.666667  0.166670  1.0  0.7598
  Cd  Cd20  1  0.500000  0.000000  0.500000  1.0  0.7627
  Cd  Cd21  1  0.333333  0.166670  0.166670  1.0  0.7601
  Cd  Cd22  1  0.000000  0.500000  0.500000  1.0  0.7628
  Cd  Cd23  1  0.833330  0.166670  0.166670  1.0  0.762
  Cd  Cd24  1  0.500000  0.500000  0.500000  1.0  0.762
  Cd  Cd25  1  0.166670  0.333333  0.833330  1.0  0.7602
  Cd  Cd26  1  0.666667  0.833330  0.833330  1.0  0.7599
  Cd  Cd27  1  0.166670  0.833330  0.833330  1.0  0.7618
  H  H28  1  0.904500  0.471600  0.768200  1.0  0.0819
  H  H29  1  0.954500  0.505600  0.870100  1.0  0.0897
  H  H30  1  0.867200  0.437400  0.996900  1.0  0.0897
  H  H31  1  0.833600  0.464600  0.062400  1.0  0.0942
  H  H32  1  0.846100  0.499000  0.869000  1.0  0.0855
  H  H33  1  0.571170  0.804930  0.101530  1.0  0.0819
  H  H34  1  0.621170  0.838930  0.203430  1.0  0.0898
  H  H35  1  0.533870  0.770730  0.330230  1.0  0.0897
  H  H36  1  0.500270  0.797930  0.395730  1.0  0.0942
  H  H37  1  0.512770  0.832330  0.202330  1.0  0.0855
  H  H38  1  0.237830  0.138270  0.434870  1.0  0.0818
  H  H39  1  0.287830  0.172270  0.536770  1.0  0.0898
  H  H40  1  0.200530  0.104070  0.663570  1.0  0.0897
  H  H41  1  0.166930  0.131270  0.729070  1.0  0.0942
  H  H42  1  0.179430  0.165670  0.535670  1.0  0.0856
  H  H43  1  0.528400  0.432900  0.768200  1.0  0.0818
  H  H44  1  0.494400  0.448900  0.870100  1.0  0.0953
  H  H45  1  0.562600  0.429800  0.996900  1.0  0.0922
  H  H46  1  0.535400  0.369000  0.062400  1.0  0.1005
  H  H47  1  0.501000  0.347100  0.869000  1.0  0.0858
  H  H48  1  0.195070  0.766230  0.101530  1.0  0.0818
  H  H49  1  0.161070  0.782230  0.203430  1.0  0.0954
  H  H50  1  0.229270  0.763130  0.330230  1.0  0.0922
  H  H51  1  0.202070  0.702330  0.395730  1.0  0.1005
  H  H52  1  0.167670  0.680430  0.202330  1.0  0.0858
  H  H53  1  0.861730  0.099570  0.434870  1.0  0.0818
  H  H54  1  0.827730  0.115570  0.536770  1.0  0.0953
  H  H55  1  0.895930  0.096470  0.663570  1.0  0.0922
  H  H56  1  0.868730  0.035670  0.729070  1.0  0.0983
  H  H57  1  0.834330  0.013770  0.535670  1.0  0.0846
  H  H58  1  0.567100  0.095500  0.768200  1.0  0.0832
  H  H59  1  0.551100  0.045500  0.870100  1.0  0.0964
  H  H60  1  0.570200  0.132800  0.996900  1.0  0.0846
  H  H61  1  0.631000  0.166400  0.062400  1.0  0.0975
  H  H62  1  0.652900  0.153900  0.869000  1.0  0.0835
  H  H63  1  0.233770  0.428830  0.101530  1.0  0.0832
  H  H64  1  0.217770  0.378830  0.203430  1.0  0.0963
  H  H65  1  0.236870  0.466130  0.330230  1.0  0.0846
  H  H66  1  0.297670  0.499730  0.395730  1.0  0.0975
  H  H67  1  0.319570  0.487230  0.202330  1.0  0.0835
  H  H68  1  0.900430  0.762170  0.434870  1.0  0.0832
  H  H69  1  0.884430  0.712170  0.536770  1.0  0.0963
  H  H70  1  0.903530  0.799470  0.663570  1.0  0.0846
  H  H71  1  0.964330  0.833070  0.729070  1.0  0.1004
  H  H72  1  0.986230  0.820570  0.535670  1.0  0.0843
  H  H73  1  0.095500  0.528400  0.231800  1.0  0.0824
  H  H74  1  0.045500  0.494400  0.129900  1.0  0.0948
  H  H75  1  0.132800  0.562600  0.003100  1.0  0.0917
  H  H76  1  0.166400  0.535400  0.937600  1.0  0.0932
  H  H77  1  0.153900  0.501000  0.131000  1.0  0.0843
  H  H78  1  0.762170  0.861730  0.565130  1.0  0.0824
  H  H79  1  0.712170  0.827730  0.463230  1.0  0.0948
  H  H80  1  0.799470  0.895930  0.336430  1.0  0.0917
  H  H81  1  0.833070  0.868730  0.270930  1.0  0.0932
  H  H82  1  0.820570  0.834330  0.464330  1.0  0.0844
  H  H83  1  0.428830  0.195070  0.898470  1.0  0.0824
  H  H84  1  0.378830  0.161070  0.796570  1.0  0.0948
  H  H85  1  0.466130  0.229270  0.669770  1.0  0.0917
  H  H86  1  0.499730  0.202070  0.604270  1.0  0.0932
  H  H87  1  0.487230  0.167670  0.797670  1.0  0.0843
  H  H88  1  0.471600  0.567100  0.231800  1.0  0.0832
  H  H89  1  0.505600  0.551100  0.129900  1.0  0.0949
  H  H90  1  0.437400  0.570200  0.003100  1.0  0.0913
  H  H91  1  0.464600  0.631000  0.937600  1.0  0.1005
  H  H92  1  0.499000  0.652900  0.131000  1.0  0.0858
  H  H93  1  0.138270  0.900430  0.565130  1.0  0.0832
  H  H94  1  0.172270  0.884430  0.463230  1.0  0.0949
  H  H95  1  0.104070  0.903530  0.336430  1.0  0.0913
  H  H96  1  0.131270  0.964330  0.270930  1.0  0.0981
  H  H97  1  0.165670  0.986230  0.464330  1.0  0.0851
  H  H98  1  0.804930  0.233770  0.898470  1.0  0.0832
  H  H99  1  0.838930  0.217770  0.796570  1.0  0.095
  H  H100  1  0.770730  0.236870  0.669770  1.0  0.0913
  H  H101  1  0.797930  0.297670  0.604270  1.0  0.1005
  H  H102  1  0.832330  0.319570  0.797670  1.0  0.0859
  H  H103  1  0.432900  0.904500  0.231800  1.0  0.0832
  H  H104  1  0.448900  0.954500  0.129900  1.0  0.095
  H  H105  1  0.429800  0.867200  0.003100  1.0  0.0805
  H  H106  1  0.369000  0.833600  0.937600  1.0  0.0979
  H  H107  1  0.347100  0.846100  0.131000  1.0  0.0829
  H  H108  1  0.099570  0.237830  0.565130  1.0  0.0832
  H  H109  1  0.115570  0.287830  0.463230  1.0  0.0949
  H  H110  1  0.096470  0.200530  0.336430  1.0  0.0805
  H  H111  1  0.035670  0.166930  0.270930  1.0  0.0996
  H  H112  1  0.013770  0.179430  0.464330  1.0  0.0836
  H  H113  1  0.766230  0.571170  0.898470  1.0  0.0832
  H  H114  1  0.782230  0.621170  0.796570  1.0  0.0949
  H  H115  1  0.763130  0.533870  0.669770  1.0  0.0805
  H  H116  1  0.702330  0.500270  0.604270  1.0  0.0979
  H  H117  1  0.680430  0.512770  0.797670  1.0  0.0829
  C  C118  1  0.949280  0.555900  0.727300  1.0  0.3791
  C  C119  1  0.924540  0.506560  0.819300  1.0  -0.1167
  C  C120  1  0.870100  0.472920  0.025800  1.0  -0.1586
  C  C121  1  0.914830  0.500080  0.129700  1.0  0.3873
  C  C122  1  0.615950  0.889230  0.060630  1.0  0.3791
  C  C123  1  0.591210  0.839890  0.152630  1.0  -0.1167
  C  C124  1  0.536770  0.806250  0.359130  1.0  -0.1586
  C  C125  1  0.581500  0.833410  0.463030  1.0  0.3873
  C  C126  1  0.282610  0.222570  0.393970  1.0  0.3791
  C  C127  1  0.257870  0.173230  0.485970  1.0  -0.1167
  C  C128  1  0.203430  0.139590  0.692470  1.0  -0.1586
  C  C129  1  0.248160  0.166750  0.796370  1.0  0.3873
  C  C130  1  0.444100  0.393380  0.727300  1.0  0.3787
  C  C131  1  0.493440  0.417980  0.819300  1.0  -0.116
  C  C132  1  0.527080  0.397180  0.025800  1.0  -0.1616
  C  C133  1  0.499920  0.414750  0.129700  1.0  0.3892
  C  C134  1  0.110770  0.726710  0.060630  1.0  0.3787
  C  C135  1  0.160110  0.751310  0.152630  1.0  -0.116
  C  C136  1  0.193750  0.730510  0.359130  1.0  -0.1616
  C  C137  1  0.166590  0.748080  0.463030  1.0  0.3892
  C  C138  1  0.777430  0.060050  0.393970  1.0  0.3787
  C  C139  1  0.826770  0.084650  0.485970  1.0  -0.116
  C  C140  1  0.860410  0.063850  0.692470  1.0  -0.1616
  C  C141  1  0.833250  0.081420  0.796370  1.0  0.3892
  C  C142  1  0.606620  0.050720  0.727300  1.0  0.3787
  C  C143  1  0.582020  0.075460  0.819300  1.0  -0.1135
  C  C144  1  0.602820  0.129900  0.025800  1.0  -0.1602
  C  C145  1  0.585250  0.085170  0.129700  1.0  0.3873
  C  C146  1  0.273290  0.384050  0.060630  1.0  0.3787
  C  C147  1  0.248690  0.408790  0.152630  1.0  -0.1135
  C  C148  1  0.269490  0.463230  0.359130  1.0  -0.1602
  C  C149  1  0.251920  0.418500  0.463030  1.0  0.3873
  C  C150  1  0.939950  0.717390  0.393970  1.0  0.3787
  C  C151  1  0.915350  0.742130  0.485970  1.0  -0.1135
  C  C152  1  0.936150  0.796570  0.692470  1.0  -0.1602
  C  C153  1  0.918580  0.751840  0.796370  1.0  0.3873
  C  C154  1  0.050720  0.444100  0.272700  1.0  0.3795
  C  C155  1  0.075460  0.493440  0.180700  1.0  -0.1143
  C  C156  1  0.129900  0.527080  0.974200  1.0  -0.1597
  C  C157  1  0.085170  0.499920  0.870300  1.0  0.3856
  C  C158  1  0.717390  0.777430  0.606030  1.0  0.3795
  C  C159  1  0.742130  0.826770  0.514030  1.0  -0.1143
  C  C160  1  0.796570  0.860410  0.307530  1.0  -0.1597
  C  C161  1  0.751840  0.833250  0.203630  1.0  0.3856
  C  C162  1  0.384050  0.110770  0.939370  1.0  0.3795
  C  C163  1  0.408790  0.160110  0.847370  1.0  -0.1143
  C  C164  1  0.463230  0.193750  0.640870  1.0  -0.1597
  C  C165  1  0.418500  0.166590  0.536970  1.0  0.3856
  C  C166  1  0.555900  0.606620  0.272700  1.0  0.3768
  C  C167  1  0.506560  0.582020  0.180700  1.0  -0.1172
  C  C168  1  0.472920  0.602820  0.974200  1.0  -0.1642
  C  C169  1  0.500080  0.585250  0.870300  1.0  0.387
  C  C170  1  0.222570  0.939950  0.606030  1.0  0.3768
  C  C171  1  0.173230  0.915350  0.514030  1.0  -0.1172
  C  C172  1  0.139590  0.936150  0.307530  1.0  -0.1642
  C  C173  1  0.166750  0.918580  0.203630  1.0  0.387
  C  C174  1  0.889230  0.273290  0.939370  1.0  0.3768
  C  C175  1  0.839890  0.248690  0.847370  1.0  -0.1172
  C  C176  1  0.806250  0.269490  0.640870  1.0  -0.1642
  C  C177  1  0.833410  0.251920  0.536970  1.0  0.387
  C  C178  1  0.393380  0.949280  0.272700  1.0  0.3788
  C  C179  1  0.417980  0.924540  0.180700  1.0  -0.1164
  C  C180  1  0.397180  0.870100  0.974200  1.0  -0.1597
  C  C181  1  0.414750  0.914830  0.870300  1.0  0.3863
  C  C182  1  0.060050  0.282610  0.606030  1.0  0.3789
  C  C183  1  0.084650  0.257870  0.514030  1.0  -0.1164
  C  C184  1  0.063850  0.203430  0.307530  1.0  -0.1597
  C  C185  1  0.081420  0.248160  0.203630  1.0  0.3863
  C  C186  1  0.726710  0.615950  0.939370  1.0  0.3789
  C  C187  1  0.751310  0.591210  0.847370  1.0  -0.1164
  C  C188  1  0.730510  0.536770  0.640870  1.0  -0.1597
  C  C189  1  0.748080  0.581500  0.536970  1.0  0.3863
  N  N190  1  0.952160  0.604450  0.758000  1.0  -0.32
  N  N191  1  0.884910  0.511770  0.911300  1.0  -0.3659
  N  N192  1  0.949130  0.555820  0.139600  1.0  -0.2285
  N  N193  1  0.981020  0.563790  0.247100  1.0  -0.0689
  N  N194  1  0.980180  0.639070  0.654600  1.0  -0.0179
  N  N195  1  0.993490  0.612210  0.566800  1.0  -0.105
  N  N196  1  0.974370  0.559170  0.610300  1.0  -0.2818
  N  N197  1  0.966340  0.514110  0.299000  1.0  -0.0076
  N  N198  1  0.924900  0.473140  0.227500  1.0  -0.3231
  N  N199  1  0.618830  0.937780  0.091330  1.0  -0.32
  N  N200  1  0.551580  0.845100  0.244630  1.0  -0.3659
  N  N201  1  0.615800  0.889150  0.472930  1.0  -0.2287
  N  N202  1  0.647690  0.897120  0.580430  1.0  -0.0691
  N  N203  1  0.646850  0.972400  0.987930  1.0  -0.0179
  N  N204  1  0.660160  0.945540  0.900130  1.0  -0.105
  N  N205  1  0.641040  0.892500  0.943630  1.0  -0.2818
  N  N206  1  0.633010  0.847440  0.632330  1.0  -0.0076
  N  N207  1  0.591570  0.806470  0.560830  1.0  -0.3231
  N  N208  1  0.285490  0.271120  0.424670  1.0  -0.32
  N  N209  1  0.218240  0.178440  0.577970  1.0  -0.3659
  N  N210  1  0.282460  0.222490  0.806270  1.0  -0.2285
  N  N211  1  0.314350  0.230460  0.913770  1.0  -0.0689
  N  N212  1  0.313510  0.305740  0.321270  1.0  -0.0179
  N  N213  1  0.326820  0.278880  0.233470  1.0  -0.105
  N  N214  1  0.307700  0.225840  0.276970  1.0  -0.2818
  N  N215  1  0.299670  0.180780  0.965670  1.0  -0.0076
  N  N216  1  0.258230  0.139810  0.894170  1.0  -0.3232
  N  N217  1  0.395550  0.347710  0.758000  1.0  -0.3198
  N  N218  1  0.488230  0.373140  0.911300  1.0  -0.3613
  N  N219  1  0.444180  0.393310  0.139600  1.0  -0.2252
  N  N220  1  0.436210  0.417230  0.247100  1.0  -0.0665
  N  N221  1  0.360930  0.341110  0.654600  1.0  -0.0158
  N  N222  1  0.387790  0.381280  0.566800  1.0  -0.1053
  N  N223  1  0.440830  0.415200  0.610300  1.0  -0.2811
  N  N224  1  0.485890  0.452230  0.299000  1.0  -0.0094
  N  N225  1  0.526860  0.451760  0.227500  1.0  -0.3256
  N  N226  1  0.062220  0.681040  0.091330  1.0  -0.3198
  N  N227  1  0.154900  0.706470  0.244630  1.0  -0.3613
  N  N228  1  0.110850  0.726640  0.472930  1.0  -0.2252
  N  N229  1  0.102880  0.750560  0.580430  1.0  -0.0664
  N  N230  1  0.027600  0.674440  0.987930  1.0  -0.0158
  N  N231  1  0.054460  0.714610  0.900130  1.0  -0.1053
  N  N232  1  0.107500  0.748530  0.943630  1.0  -0.2811
  N  N233  1  0.152560  0.785560  0.632330  1.0  -0.0094
  N  N234  1  0.193530  0.785090  0.560830  1.0  -0.3256
  N  N235  1  0.728880  0.014380  0.424670  1.0  -0.3198
  N  N236  1  0.821560  0.039810  0.577970  1.0  -0.3613
  N  N237  1  0.777510  0.059980  0.806270  1.0  -0.2254
  N  N238  1  0.769540  0.083900  0.913770  1.0  -0.0667
  N  N239  1  0.694260  0.007780  0.321270  1.0  -0.0158
  N  N240  1  0.721120  0.047950  0.233470  1.0  -0.1051
  N  N241  1  0.774160  0.081870  0.276970  1.0  -0.2811
  N  N242  1  0.819220  0.118900  0.965670  1.0  -0.0094
  N  N243  1  0.860190  0.118430  0.894170  1.0  -0.3256
  N  N244  1  0.652290  0.047840  0.758000  1.0  -0.3202
  N  N245  1  0.626860  0.115090  0.911300  1.0  -0.3596
  N  N246  1  0.606690  0.050870  0.139600  1.0  -0.2264
  N  N247  1  0.582770  0.018980  0.247100  1.0  -0.0663
  N  N248  1  0.658890  0.019820  0.654600  1.0  -0.0179
  N  N249  1  0.618720  0.006510  0.566800  1.0  -0.1075
  N  N250  1  0.584800  0.025630  0.610300  1.0  -0.2823
  N  N251  1  0.547770  0.033660  0.299000  1.0  -0.0096
  N  N252  1  0.548240  0.075100  0.227500  1.0  -0.3258
  N  N253  1  0.318960  0.381170  0.091330  1.0  -0.3202
  N  N254  1  0.293530  0.448420  0.244630  1.0  -0.3596
  N  N255  1  0.273360  0.384200  0.472930  1.0  -0.2261
  N  N256  1  0.249440  0.352310  0.580430  1.0  -0.0663
  N  N257  1  0.325560  0.353150  0.987930  1.0  -0.0179
  N  N258  1  0.285390  0.339840  0.900130  1.0  -0.1076
  N  N259  1  0.251470  0.358960  0.943630  1.0  -0.2823
  N  N260  1  0.214440  0.366990  0.632330  1.0  -0.0096
  N  N261  1  0.214910  0.408430  0.560830  1.0  -0.3258
  N  N262  1  0.985620  0.714510  0.424670  1.0  -0.3202
  N  N263  1  0.960190  0.781760  0.577970  1.0  -0.3596
  N  N264  1  0.940020  0.717540  0.806270  1.0  -0.2264
  N  N265  1  0.916100  0.685650  0.913770  1.0  -0.0663
  N  N266  1  0.992220  0.686490  0.321270  1.0  -0.0179
  N  N267  1  0.952050  0.673180  0.233470  1.0  -0.1075
  N  N268  1  0.918130  0.692300  0.276970  1.0  -0.2823
  N  N269  1  0.881100  0.700330  0.965670  1.0  -0.0096
  N  N270  1  0.881570  0.741770  0.894170  1.0  -0.3258
  N  N271  1  0.047840  0.395550  0.242000  1.0  -0.3197
  N  N272  1  0.115090  0.488230  0.088700  1.0  -0.3655
  N  N273  1  0.050870  0.444180  0.860400  1.0  -0.2295
  N  N274  1  0.018980  0.436210  0.752900  1.0  -0.069
  N  N275  1  0.019820  0.360930  0.345400  1.0  -0.0172
  N  N276  1  0.006510  0.387790  0.433200  1.0  -0.1087
  N  N277  1  0.025630  0.440830  0.389700  1.0  -0.2809
  N  N278  1  0.033660  0.485890  0.701000  1.0  -0.0093
  N  N279  1  0.075100  0.526860  0.772500  1.0  -0.3256
  N  N280  1  0.714510  0.728880  0.575330  1.0  -0.3197
  N  N281  1  0.781760  0.821560  0.422030  1.0  -0.3653
  N  N282  1  0.717540  0.777510  0.193730  1.0  -0.2295
  N  N283  1  0.685650  0.769540  0.086230  1.0  -0.069
  N  N284  1  0.686490  0.694260  0.678730  1.0  -0.0172
  N  N285  1  0.673180  0.721120  0.766530  1.0  -0.1087
  N  N286  1  0.692300  0.774160  0.723030  1.0  -0.2809
  N  N287  1  0.700330  0.819220  0.034330  1.0  -0.0093
  N  N288  1  0.741770  0.860190  0.105830  1.0  -0.3257
  N  N289  1  0.381170  0.062220  0.908670  1.0  -0.3197
  N  N290  1  0.448420  0.154900  0.755370  1.0  -0.3655
  N  N291  1  0.384200  0.110850  0.527070  1.0  -0.2297
  N  N292  1  0.352310  0.102880  0.419570  1.0  -0.0691
  N  N293  1  0.353150  0.027600  0.012070  1.0  -0.0173
  N  N294  1  0.339840  0.054460  0.099870  1.0  -0.1087
  N  N295  1  0.358960  0.107500  0.056370  1.0  -0.2809
  N  N296  1  0.366990  0.152560  0.367670  1.0  -0.0093
  N  N297  1  0.408430  0.193530  0.439170  1.0  -0.3256
  N  N298  1  0.604450  0.652290  0.242000  1.0  -0.3195
  N  N299  1  0.511770  0.626860  0.088700  1.0  -0.364
  N  N300  1  0.555820  0.606690  0.860400  1.0  -0.2251
  N  N301  1  0.563790  0.582770  0.752900  1.0  -0.0691
  N  N302  1  0.639070  0.658890  0.345400  1.0  -0.0153
  N  N303  1  0.612210  0.618720  0.433200  1.0  -0.1075
  N  N304  1  0.559170  0.584800  0.389700  1.0  -0.2818
  N  N305  1  0.514110  0.547770  0.701000  1.0  -0.0098
  N  N306  1  0.473140  0.548240  0.772500  1.0  -0.3246
  N  N307  1  0.271120  0.985620  0.575330  1.0  -0.3195
  N  N308  1  0.178440  0.960190  0.422030  1.0  -0.364
  N  N309  1  0.222490  0.940020  0.193730  1.0  -0.2251
  N  N310  1  0.230460  0.916100  0.086230  1.0  -0.0692
  N  N311  1  0.305740  0.992220  0.678730  1.0  -0.0153
  N  N312  1  0.278880  0.952050  0.766530  1.0  -0.1075
  N  N313  1  0.225840  0.918130  0.723030  1.0  -0.2818
  N  N314  1  0.180780  0.881100  0.034330  1.0  -0.0098
  N  N315  1  0.139810  0.881570  0.105830  1.0  -0.3246
  N  N316  1  0.937780  0.318960  0.908670  1.0  -0.3195
  N  N317  1  0.845100  0.293530  0.755370  1.0  -0.364
  N  N318  1  0.889150  0.273360  0.527070  1.0  -0.2248
  N  N319  1  0.897120  0.249440  0.419570  1.0  -0.069
  N  N320  1  0.972400  0.325560  0.012070  1.0  -0.0152
  N  N321  1  0.945540  0.285390  0.099870  1.0  -0.1075
  N  N322  1  0.892500  0.251470  0.056370  1.0  -0.2818
  N  N323  1  0.847440  0.214440  0.367670  1.0  -0.0099
  N  N324  1  0.806470  0.214910  0.439170  1.0  -0.3246
  N  N325  1  0.347710  0.952160  0.242000  1.0  -0.32
  N  N326  1  0.373140  0.884910  0.088700  1.0  -0.3598
  N  N327  1  0.393310  0.949130  0.860400  1.0  -0.2277
  N  N328  1  0.417230  0.981020  0.752900  1.0  -0.0649
  N  N329  1  0.341110  0.980180  0.345400  1.0  -0.0167
  N  N330  1  0.381280  0.993490  0.433200  1.0  -0.1098
  N  N331  1  0.415200  0.974370  0.389700  1.0  -0.283
  N  N332  1  0.452230  0.966340  0.701000  1.0  -0.0095
  N  N333  1  0.451760  0.924900  0.772500  1.0  -0.3238
  N  N334  1  0.014380  0.285490  0.575330  1.0  -0.32
  N  N335  1  0.039810  0.218240  0.422030  1.0  -0.3598
  N  N336  1  0.059980  0.282460  0.193730  1.0  -0.2279
  N  N337  1  0.083900  0.314350  0.086230  1.0  -0.0649
  N  N338  1  0.007780  0.313510  0.678730  1.0  -0.0167
  N  N339  1  0.047950  0.326820  0.766530  1.0  -0.1099
  N  N340  1  0.081870  0.307700  0.723030  1.0  -0.283
  N  N341  1  0.118900  0.299670  0.034330  1.0  -0.0095
  N  N342  1  0.118430  0.258230  0.105830  1.0  -0.3238
  N  N343  1  0.681040  0.618830  0.908670  1.0  -0.32
  N  N344  1  0.706470  0.551580  0.755370  1.0  -0.3598
  N  N345  1  0.726640  0.615800  0.527070  1.0  -0.2277
  N  N346  1  0.750560  0.647690  0.419570  1.0  -0.0649
  N  N347  1  0.674440  0.646850  0.012070  1.0  -0.0167
  N  N348  1  0.714610  0.660160  0.099870  1.0  -0.1099
  N  N349  1  0.748530  0.641040  0.056370  1.0  -0.283
  N  N350  1  0.785560  0.633010  0.367670  1.0  -0.0095
  N  N351  1  0.785090  0.591570  0.439170  1.0  -0.3238
  Cl  Cl352  1  0.830160  0.571440  0.105750  1.0  -0.4827
  Cl  Cl353  1  0.496830  0.904770  0.439080  1.0  -0.4826
  Cl  Cl354  1  0.163490  0.238110  0.772420  1.0  -0.4823
  Cl  Cl355  1  0.428560  0.258720  0.105750  1.0  -0.4826
  Cl  Cl356  1  0.095230  0.592050  0.439080  1.0  -0.483
  Cl  Cl357  1  0.761890  0.925390  0.772420  1.0  -0.483
  Cl  Cl358  1  0.741280  0.169840  0.105750  1.0  -0.4827
  Cl  Cl359  1  0.407950  0.503170  0.439080  1.0  -0.4831
  Cl  Cl360  1  0.074610  0.836510  0.772420  1.0  -0.4831
  Cl  Cl361  1  0.169840  0.428560  0.894250  1.0  -0.4827
  Cl  Cl362  1  0.836510  0.761890  0.227580  1.0  -0.4823
  Cl  Cl363  1  0.503170  0.095230  0.560920  1.0  -0.4827
  Cl  Cl364  1  0.571440  0.741280  0.894250  1.0  -0.482
  Cl  Cl365  1  0.238110  0.074610  0.227580  1.0  -0.482
  Cl  Cl366  1  0.904770  0.407950  0.560920  1.0  -0.482
  Cl  Cl367  1  0.258720  0.830160  0.894250  1.0  -0.483
  Cl  Cl368  1  0.925390  0.163490  0.227580  1.0  -0.4835
  Cl  Cl369  1  0.592050  0.496830  0.560920  1.0  -0.4835
