# generated using pymatgen
data_Zn2H26C29(N3O5)2
_symmetry_space_group_name_H-M   'P 1'
_cell_length_a   28.94700000
_cell_length_b   8.33210000
_cell_length_c   18.32830000
_cell_angle_alpha   90.00000000
_cell_angle_beta   114.79200000
_cell_angle_gamma   90.00000000
_symmetry_Int_Tables_number   1
_chemical_formula_structural   Zn2H26C29(N3O5)2
_chemical_formula_sum   'Zn8 H104 C116 N24 O40'
_cell_volume   4013.17074310
_cell_formula_units_Z   4
loop_
 _symmetry_equiv_pos_site_id
 _symmetry_equiv_pos_as_xyz
  1  'x, y, z'
loop_
 _atom_site_type_symbol
 _atom_site_label
 _atom_site_symmetry_multiplicity
 _atom_site_fract_x
 _atom_site_fract_y
 _atom_site_fract_z
 _atom_site_occupancy
 _atom_site_charge
  Zn  Zn1  1  0.306390  0.222070  0.115870  1.0  0.9366
  Zn  Zn2  1  0.806390  0.722070  0.115870  1.0  0.9366
  Zn  Zn3  1  0.693610  0.222070  0.384130  1.0  0.9337
  Zn  Zn4  1  0.193610  0.722070  0.384130  1.0  0.9337
  Zn  Zn5  1  0.693610  0.777930  0.884130  1.0  0.9339
  Zn  Zn6  1  0.193610  0.277930  0.884130  1.0  0.9339
  Zn  Zn7  1  0.306390  0.777930  0.615870  1.0  0.9368
  Zn  Zn8  1  0.806390  0.277930  0.615870  1.0  0.9368
  H  H9  1  0.293300  0.510900  0.325000  1.0  0.1333
  H  H10  1  0.455300  0.769300  0.143800  1.0  0.0995
  H  H11  1  0.422300  0.614300  0.112600  1.0  0.1007
  H  H12  1  0.444400  0.077500  0.210800  1.0  0.1497
  H  H13  1  0.411900  0.172600  0.132000  1.0  0.145
  H  H14  1  0.446000  0.028600  0.129300  1.0  0.137
  H  H15  1  0.493300  0.464600  0.203900  1.0  0.1089
  H  H16  1  0.409600  0.624300  0.535000  1.0  0.1216
  H  H17  1  0.436400  0.404000  0.362000  1.0  0.1871
  H  H18  1  0.328100  0.626200  0.111800  1.0  0.1587
  H  H19  1  0.271300  0.855000  0.093700  1.0  0.1192
  H  H20  1  0.463300  0.717900  0.273700  1.0  0.0963
  H  H21  1  0.429100  0.564800  0.242900  1.0  0.0939
  H  H22  1  0.793300  0.010900  0.325000  1.0  0.1333
  H  H23  1  0.955300  0.269300  0.143800  1.0  0.0995
  H  H24  1  0.922300  0.114300  0.112600  1.0  0.1007
  H  H25  1  0.944400  0.577500  0.210800  1.0  0.1497
  H  H26  1  0.911900  0.672600  0.132000  1.0  0.145
  H  H27  1  0.946000  0.528600  0.129300  1.0  0.137
  H  H28  1  0.993300  0.964600  0.203900  1.0  0.1089
  H  H29  1  0.909600  0.124300  0.535000  1.0  0.1216
  H  H30  1  0.936400  0.904000  0.362000  1.0  0.1871
  H  H31  1  0.828100  0.126200  0.111800  1.0  0.1587
  H  H32  1  0.771300  0.355000  0.093700  1.0  0.1192
  H  H33  1  0.963300  0.217900  0.273700  1.0  0.0963
  H  H34  1  0.929100  0.064800  0.242900  1.0  0.0939
  H  H35  1  0.706700  0.510900  0.175000  1.0  0.1325
  H  H36  1  0.544700  0.769300  0.356200  1.0  0.0993
  H  H37  1  0.577700  0.614300  0.387400  1.0  0.1007
  H  H38  1  0.555600  0.077500  0.289200  1.0  0.149
  H  H39  1  0.588100  0.172600  0.368000  1.0  0.1449
  H  H40  1  0.554000  0.028600  0.370700  1.0  0.1382
  H  H41  1  0.506700  0.464600  0.296100  1.0  0.1076
  H  H42  1  0.590400  0.624300  0.965000  1.0  0.1216
  H  H43  1  0.563600  0.404000  0.138000  1.0  0.1873
  H  H44  1  0.671900  0.626200  0.388200  1.0  0.1582
  H  H45  1  0.728700  0.855000  0.406300  1.0  0.1187
  H  H46  1  0.536700  0.717900  0.226300  1.0  0.0994
  H  H47  1  0.570900  0.564800  0.257100  1.0  0.0949
  H  H48  1  0.206700  0.010900  0.175000  1.0  0.1325
  H  H49  1  0.044700  0.269300  0.356200  1.0  0.0993
  H  H50  1  0.077700  0.114300  0.387400  1.0  0.1007
  H  H51  1  0.055600  0.577500  0.289200  1.0  0.149
  H  H52  1  0.088100  0.672600  0.368000  1.0  0.1449
  H  H53  1  0.054000  0.528600  0.370700  1.0  0.1382
  H  H54  1  0.006700  0.964600  0.296100  1.0  0.1076
  H  H55  1  0.090400  0.124300  0.965000  1.0  0.1216
  H  H56  1  0.063600  0.904000  0.138000  1.0  0.1873
  H  H57  1  0.171900  0.126200  0.388200  1.0  0.1582
  H  H58  1  0.228700  0.355000  0.406300  1.0  0.1187
  H  H59  1  0.036700  0.217900  0.226300  1.0  0.0994
  H  H60  1  0.070900  0.064800  0.257100  1.0  0.0949
  H  H61  1  0.706700  0.489100  0.675000  1.0  0.1326
  H  H62  1  0.544700  0.230700  0.856200  1.0  0.1011
  H  H63  1  0.577700  0.385700  0.887400  1.0  0.1002
  H  H64  1  0.555600  0.922500  0.789200  1.0  0.1488
  H  H65  1  0.588100  0.827400  0.868000  1.0  0.1457
  H  H66  1  0.554000  0.971400  0.870700  1.0  0.1382
  H  H67  1  0.506700  0.535400  0.796100  1.0  0.1066
  H  H68  1  0.590400  0.375700  0.465000  1.0  0.1214
  H  H69  1  0.563600  0.596000  0.638000  1.0  0.1878
  H  H70  1  0.671900  0.373800  0.888200  1.0  0.1579
  H  H71  1  0.728700  0.145000  0.906300  1.0  0.1186
  H  H72  1  0.536700  0.282100  0.726300  1.0  0.0984
  H  H73  1  0.570900  0.435200  0.757100  1.0  0.0936
  H  H74  1  0.206700  0.989100  0.675000  1.0  0.1326
  H  H75  1  0.044700  0.730700  0.856200  1.0  0.1011
  H  H76  1  0.077700  0.885700  0.887400  1.0  0.1002
  H  H77  1  0.055600  0.422500  0.789200  1.0  0.1488
  H  H78  1  0.088100  0.327400  0.868000  1.0  0.1457
  H  H79  1  0.054000  0.471400  0.870700  1.0  0.1382
  H  H80  1  0.006700  0.035400  0.796100  1.0  0.1066
  H  H81  1  0.090400  0.875700  0.465000  1.0  0.1214
  H  H82  1  0.063600  0.096000  0.638000  1.0  0.1878
  H  H83  1  0.171900  0.873800  0.888200  1.0  0.1579
  H  H84  1  0.228700  0.645000  0.906300  1.0  0.1186
  H  H85  1  0.036700  0.782100  0.726300  1.0  0.0984
  H  H86  1  0.070900  0.935200  0.757100  1.0  0.0936
  H  H87  1  0.293300  0.489100  0.825000  1.0  0.1334
  H  H88  1  0.455300  0.230700  0.643800  1.0  0.0993
  H  H89  1  0.422300  0.385700  0.612600  1.0  0.1014
  H  H90  1  0.444400  0.922500  0.710800  1.0  0.1497
  H  H91  1  0.411900  0.827400  0.632000  1.0  0.1457
  H  H92  1  0.446000  0.971400  0.629300  1.0  0.1374
  H  H93  1  0.493300  0.535400  0.703900  1.0  0.1093
  H  H94  1  0.409600  0.375700  0.035000  1.0  0.1214
  H  H95  1  0.436400  0.596000  0.862000  1.0  0.1881
  H  H96  1  0.328100  0.373800  0.611800  1.0  0.1587
  H  H97  1  0.271300  0.145000  0.593700  1.0  0.1191
  H  H98  1  0.463300  0.282100  0.773700  1.0  0.0988
  H  H99  1  0.429100  0.435200  0.742900  1.0  0.0951
  H  H100  1  0.793300  0.989100  0.825000  1.0  0.1334
  H  H101  1  0.955300  0.730700  0.643800  1.0  0.0993
  H  H102  1  0.922300  0.885700  0.612600  1.0  0.1014
  H  H103  1  0.944400  0.422500  0.710800  1.0  0.1497
  H  H104  1  0.911900  0.327400  0.632000  1.0  0.1457
  H  H105  1  0.946000  0.471400  0.629300  1.0  0.1374
  H  H106  1  0.993300  0.035400  0.703900  1.0  0.1093
  H  H107  1  0.909600  0.875700  0.035000  1.0  0.1214
  H  H108  1  0.936400  0.096000  0.862000  1.0  0.1881
  H  H109  1  0.828100  0.873800  0.611800  1.0  0.1587
  H  H110  1  0.771300  0.645000  0.593700  1.0  0.1191
  H  H111  1  0.963300  0.782100  0.773700  1.0  0.0988
  H  H112  1  0.929100  0.935200  0.742900  1.0  0.0951
  C  C113  1  0.309800  0.638400  0.467600  1.0  0.7472
  C  C114  1  0.431400  0.515600  0.456200  1.0  0.1336
  C  C115  1  0.327900  0.510500  0.358600  1.0  0.0318
  C  C116  1  0.345300  0.574600  0.435200  1.0  -0.1652
  C  C117  1  0.430500  0.701000  0.151300  1.0  -0.0018
  C  C118  1  0.424800  0.068800  0.153800  1.0  -0.3849
  C  C119  1  0.362500  0.445400  0.332500  1.0  -0.1215
  C  C120  1  0.381500  0.956600  0.137200  1.0  0.2925
  C  C121  1  0.397600  0.579000  0.484000  1.0  -0.117
  C  C122  1  0.413600  0.447700  0.380300  1.0  -0.1394
  C  C123  1  0.337100  0.734100  0.116600  1.0  -0.1012
  C  C124  1  0.306000  0.860800  0.107000  1.0  0.0534
  C  C125  1  0.454100  0.631100  0.234900  1.0  -0.1315
  C  C126  1  0.346000  0.365900  0.251600  1.0  0.7238
  C  C127  1  0.809800  0.138400  0.467600  1.0  0.7472
  C  C128  1  0.931400  0.015600  0.456200  1.0  0.1336
  C  C129  1  0.827900  0.010500  0.358600  1.0  0.0318
  C  C130  1  0.845300  0.074600  0.435200  1.0  -0.1652
  C  C131  1  0.930500  0.201000  0.151300  1.0  -0.0018
  C  C132  1  0.924800  0.568800  0.153800  1.0  -0.3849
  C  C133  1  0.862500  0.945400  0.332500  1.0  -0.1215
  C  C134  1  0.881500  0.456600  0.137200  1.0  0.2925
  C  C135  1  0.897600  0.079000  0.484000  1.0  -0.117
  C  C136  1  0.913600  0.947700  0.380300  1.0  -0.1394
  C  C137  1  0.837100  0.234100  0.116600  1.0  -0.1012
  C  C138  1  0.806000  0.360800  0.107000  1.0  0.0534
  C  C139  1  0.954100  0.131100  0.234900  1.0  -0.1315
  C  C140  1  0.846000  0.865900  0.251600  1.0  0.7238
  C  C141  1  0.690200  0.638400  0.032400  1.0  0.7457
  C  C142  1  0.568600  0.515600  0.043800  1.0  0.1339
  C  C143  1  0.672100  0.510500  0.141400  1.0  0.0321
  C  C144  1  0.654700  0.574600  0.064800  1.0  -0.165
  C  C145  1  0.569500  0.701000  0.348700  1.0  -0.0022
  C  C146  1  0.575200  0.068800  0.346200  1.0  -0.3848
  C  C147  1  0.637500  0.445400  0.167500  1.0  -0.1212
  C  C148  1  0.618500  0.956600  0.362800  1.0  0.2938
  C  C149  1  0.602400  0.579000  0.016000  1.0  -0.1155
  C  C150  1  0.586400  0.447700  0.119700  1.0  -0.138
  C  C151  1  0.662900  0.734100  0.383400  1.0  -0.1007
  C  C152  1  0.694000  0.860800  0.393000  1.0  0.0534
  C  C153  1  0.545900  0.631100  0.265100  1.0  -0.1347
  C  C154  1  0.654000  0.365900  0.248400  1.0  0.7257
  C  C155  1  0.190200  0.138400  0.032400  1.0  0.7457
  C  C156  1  0.068600  0.015600  0.043800  1.0  0.1339
  C  C157  1  0.172100  0.010500  0.141400  1.0  0.0321
  C  C158  1  0.154700  0.074600  0.064800  1.0  -0.165
  C  C159  1  0.069500  0.201000  0.348700  1.0  -0.0022
  C  C160  1  0.075200  0.568800  0.346200  1.0  -0.3848
  C  C161  1  0.137500  0.945400  0.167500  1.0  -0.1212
  C  C162  1  0.118500  0.456600  0.362800  1.0  0.2938
  C  C163  1  0.102400  0.079000  0.016000  1.0  -0.1155
  C  C164  1  0.086400  0.947700  0.119700  1.0  -0.138
  C  C165  1  0.162900  0.234100  0.383400  1.0  -0.1007
  C  C166  1  0.194000  0.360800  0.393000  1.0  0.0534
  C  C167  1  0.045900  0.131100  0.265100  1.0  -0.1347
  C  C168  1  0.154000  0.865900  0.248400  1.0  0.7257
  C  C169  1  0.690200  0.361600  0.532400  1.0  0.7459
  C  C170  1  0.568600  0.484400  0.543800  1.0  0.1336
  C  C171  1  0.672100  0.489500  0.641400  1.0  0.0322
  C  C172  1  0.654700  0.425400  0.564800  1.0  -0.1656
  C  C173  1  0.569500  0.299000  0.848700  1.0  -0.0027
  C  C174  1  0.575200  0.931200  0.846200  1.0  -0.3849
  C  C175  1  0.637500  0.554600  0.667500  1.0  -0.1215
  C  C176  1  0.618500  0.043400  0.862800  1.0  0.294
  C  C177  1  0.602400  0.421000  0.516000  1.0  -0.1158
  C  C178  1  0.586400  0.552300  0.619700  1.0  -0.1384
  C  C179  1  0.662900  0.265900  0.883400  1.0  -0.1007
  C  C180  1  0.694000  0.139200  0.893000  1.0  0.0531
  C  C181  1  0.545900  0.368900  0.765100  1.0  -0.1346
  C  C182  1  0.654000  0.634100  0.748400  1.0  0.7245
  C  C183  1  0.190200  0.861600  0.532400  1.0  0.7459
  C  C184  1  0.068600  0.984400  0.543800  1.0  0.1336
  C  C185  1  0.172100  0.989500  0.641400  1.0  0.0322
  C  C186  1  0.154700  0.925400  0.564800  1.0  -0.1656
  C  C187  1  0.069500  0.799000  0.848700  1.0  -0.0027
  C  C188  1  0.075200  0.431200  0.846200  1.0  -0.3849
  C  C189  1  0.137500  0.054600  0.667500  1.0  -0.1215
  C  C190  1  0.118500  0.543400  0.862800  1.0  0.294
  C  C191  1  0.102400  0.921000  0.516000  1.0  -0.1158
  C  C192  1  0.086400  0.052300  0.619700  1.0  -0.1384
  C  C193  1  0.162900  0.765900  0.883400  1.0  -0.1007
  C  C194  1  0.194000  0.639200  0.893000  1.0  0.0531
  C  C195  1  0.045900  0.868900  0.765100  1.0  -0.1346
  C  C196  1  0.154000  0.134100  0.748400  1.0  0.7245
  C  C197  1  0.309800  0.361600  0.967600  1.0  0.7472
  C  C198  1  0.431400  0.484400  0.956200  1.0  0.1333
  C  C199  1  0.327900  0.489500  0.858600  1.0  0.0319
  C  C200  1  0.345300  0.425400  0.935200  1.0  -0.1661
  C  C201  1  0.430500  0.299000  0.651300  1.0  -0.0028
  C  C202  1  0.424800  0.931200  0.653800  1.0  -0.3856
  C  C203  1  0.362500  0.554600  0.832500  1.0  -0.1207
  C  C204  1  0.381500  0.043400  0.637200  1.0  0.2926
  C  C205  1  0.397600  0.421000  0.984000  1.0  -0.1173
  C  C206  1  0.413600  0.552300  0.880300  1.0  -0.1395
  C  C207  1  0.337100  0.265900  0.616600  1.0  -0.1012
  C  C208  1  0.306000  0.139200  0.607000  1.0  0.0538
  C  C209  1  0.454100  0.368900  0.734900  1.0  -0.1311
  C  C210  1  0.346000  0.634100  0.751600  1.0  0.7231
  C  C211  1  0.809800  0.861600  0.967600  1.0  0.7472
  C  C212  1  0.931400  0.984400  0.956200  1.0  0.1333
  C  C213  1  0.827900  0.989500  0.858600  1.0  0.0319
  C  C214  1  0.845300  0.925400  0.935200  1.0  -0.1661
  C  C215  1  0.930500  0.799000  0.651300  1.0  -0.0028
  C  C216  1  0.924800  0.431200  0.653800  1.0  -0.3856
  C  C217  1  0.862500  0.054600  0.832500  1.0  -0.1207
  C  C218  1  0.881500  0.543400  0.637200  1.0  0.2926
  C  C219  1  0.897600  0.921000  0.984000  1.0  -0.1173
  C  C220  1  0.913600  0.052300  0.880300  1.0  -0.1395
  C  C221  1  0.837100  0.765900  0.616600  1.0  -0.1012
  C  C222  1  0.806000  0.639200  0.607000  1.0  0.0538
  C  C223  1  0.954100  0.868900  0.734900  1.0  -0.1311
  C  C224  1  0.846000  0.134100  0.751600  1.0  0.7231
  C  C225  1  0.500000  0.533200  0.250000  1.0  -0.1232
  C  C226  1  0.000000  0.033200  0.250000  1.0  -0.1232
  C  C227  1  0.500000  0.466800  0.750000  1.0  -0.1238
  C  C228  1  0.000000  0.966800  0.750000  1.0  -0.1238
  N  N229  1  0.384100  0.795400  0.134700  1.0  0.0784
  N  N230  1  0.333800  0.999200  0.120000  1.0  -0.3819
  N  N231  1  0.484600  0.526000  0.511900  1.0  0.0043
  N  N232  1  0.884100  0.295400  0.134700  1.0  0.0784
  N  N233  1  0.833800  0.499200  0.120000  1.0  -0.3819
  N  N234  1  0.984600  0.026000  0.511900  1.0  0.0043
  N  N235  1  0.615900  0.795400  0.365300  1.0  0.0783
  N  N236  1  0.666200  0.999200  0.380000  1.0  -0.3828
  N  N237  1  0.515400  0.526000  0.988100  1.0  0.0065
  N  N238  1  0.115900  0.295400  0.365300  1.0  0.0783
  N  N239  1  0.166200  0.499200  0.380000  1.0  -0.3828
  N  N240  1  0.015400  0.026000  0.988100  1.0  0.0065
  N  N241  1  0.615900  0.204600  0.865300  1.0  0.0784
  N  N242  1  0.666200  0.000800  0.880000  1.0  -0.3821
  N  N243  1  0.515400  0.474000  0.488100  1.0  0.0065
  N  N244  1  0.115900  0.704600  0.865300  1.0  0.0784
  N  N245  1  0.166200  0.500800  0.880000  1.0  -0.3821
  N  N246  1  0.015400  0.974000  0.488100  1.0  0.0065
  N  N247  1  0.384100  0.204600  0.634700  1.0  0.0781
  N  N248  1  0.333800  0.000800  0.620000  1.0  -0.3815
  N  N249  1  0.484600  0.474000  0.011900  1.0  0.0045
  N  N250  1  0.884100  0.704600  0.634700  1.0  0.0781
  N  N251  1  0.833800  0.500800  0.620000  1.0  -0.3815
  N  N252  1  0.984600  0.974000  0.011900  1.0  0.0045
  O  O253  1  0.375600  0.303500  0.230800  1.0  -0.5383
  O  O254  1  0.301700  0.366100  0.206200  1.0  -0.5475
  O  O255  1  0.495200  0.619700  0.585800  1.0  -0.6823
  O  O256  1  0.326520  0.659500  0.542400  1.0  -0.6044
  O  O257  1  0.265800  0.663600  0.418900  1.0  -0.6781
  O  O258  1  0.875600  0.803500  0.230800  1.0  -0.5383
  O  O259  1  0.801700  0.866100  0.206200  1.0  -0.5475
  O  O260  1  0.995200  0.119700  0.585800  1.0  -0.6823
  O  O261  1  0.826520  0.159500  0.542400  1.0  -0.6044
  O  O262  1  0.765800  0.163600  0.418900  1.0  -0.6781
  O  O263  1  0.624400  0.303500  0.269200  1.0  -0.5388
  O  O264  1  0.698300  0.366100  0.293800  1.0  -0.5444
  O  O265  1  0.504800  0.619700  0.914200  1.0  -0.6817
  O  O266  1  0.673480  0.659500  0.957600  1.0  -0.6041
  O  O267  1  0.734200  0.663600  0.081100  1.0  -0.6799
  O  O268  1  0.124400  0.803500  0.269200  1.0  -0.5388
  O  O269  1  0.198300  0.866100  0.293800  1.0  -0.5444
  O  O270  1  0.004800  0.119700  0.914200  1.0  -0.6817
  O  O271  1  0.173480  0.159500  0.957600  1.0  -0.6041
  O  O272  1  0.234200  0.163600  0.081100  1.0  -0.6799
  O  O273  1  0.624400  0.696500  0.769200  1.0  -0.5375
  O  O274  1  0.698300  0.633900  0.793800  1.0  -0.5444
  O  O275  1  0.504800  0.380300  0.414200  1.0  -0.6833
  O  O276  1  0.673480  0.340500  0.457600  1.0  -0.6037
  O  O277  1  0.734200  0.336400  0.581100  1.0  -0.6769
  O  O278  1  0.124400  0.196500  0.769200  1.0  -0.5375
  O  O279  1  0.198300  0.133900  0.793800  1.0  -0.5444
  O  O280  1  0.004800  0.880300  0.414200  1.0  -0.6833
  O  O281  1  0.173480  0.840500  0.457600  1.0  -0.6037
  O  O282  1  0.234200  0.836400  0.581100  1.0  -0.6769
  O  O283  1  0.375600  0.696500  0.730800  1.0  -0.5373
  O  O284  1  0.301700  0.633900  0.706200  1.0  -0.5473
  O  O285  1  0.495200  0.380300  0.085800  1.0  -0.6829
  O  O286  1  0.326520  0.340500  0.042400  1.0  -0.6037
  O  O287  1  0.265800  0.336400  0.918900  1.0  -0.6751
  O  O288  1  0.875600  0.196500  0.730800  1.0  -0.5373
  O  O289  1  0.801700  0.133900  0.706200  1.0  -0.5473
  O  O290  1  0.995200  0.880300  0.085800  1.0  -0.6829
  O  O291  1  0.826520  0.840500  0.042400  1.0  -0.6037
  O  O292  1  0.765800  0.836400  0.918900  1.0  -0.6751
