# generated using pymatgen
data_Zn2H33C34(N4O5)2
_symmetry_space_group_name_H-M   'P 1'
_cell_length_a   10.48190000
_cell_length_b   12.42390000
_cell_length_c   19.80430000
_cell_angle_alpha   75.22850000
_cell_angle_beta   81.27670000
_cell_angle_gamma   82.93640000
_symmetry_Int_Tables_number   1
_chemical_formula_structural   Zn2H33C34(N4O5)2
_chemical_formula_sum   'Zn4 H66 C68 N16 O20'
_cell_volume   2455.34513087
_cell_formula_units_Z   2
loop_
 _symmetry_equiv_pos_site_id
 _symmetry_equiv_pos_as_xyz
  1  'x, y, z'
loop_
 _atom_site_type_symbol
 _atom_site_label
 _atom_site_symmetry_multiplicity
 _atom_site_fract_x
 _atom_site_fract_y
 _atom_site_fract_z
 _atom_site_occupancy
 _atom_site_charge
  Zn  Zn1  1  0.312170  0.869350  0.152840  1.0  0.904
  Zn  Zn2  1  0.359680  0.885800  0.669330  1.0  0.8755
  Zn  Zn3  1  0.687830  0.130650  0.847160  1.0  0.9047
  Zn  Zn4  1  0.640320  0.114200  0.330670  1.0  0.8721
  H  H5  1  0.584200  0.964200  0.098300  1.0  0.1174
  H  H6  1  0.134700  0.589500  0.385800  1.0  0.1265
  H  H7  1  0.408800  0.078500  0.032500  1.0  0.11
  H  H8  1  0.889800  0.881100  0.172400  1.0  0.1042
  H  H9  1  0.818900  0.001800  0.154000  1.0  0.1041
  H  H10  1  0.157900  0.630200  0.068300  1.0  0.1204
  H  H11  1  0.334700  0.826500  0.894400  1.0  0.1112
  H  H12  1  0.790900  0.973700  0.042900  1.0  0.0886
  H  H13  1  0.873400  0.858200  0.061300  1.0  0.0873
  H  H14  1  0.102700  0.602700  0.877000  1.0  0.1364
  H  H15  1  0.532100  0.433600  0.950500  1.0  0.0838
  H  H16  1  0.405700  0.515000  0.953600  1.0  0.08
  H  H17  1  0.975500  0.063400  0.051400  1.0  0.0718
  H  H18  1  0.056600  0.946800  0.061900  1.0  0.0781
  H  H19  1  0.264900  0.349100  0.973500  1.0  0.1082
  H  H20  1  0.397500  0.277800  0.962900  1.0  0.0976
  H  H21  1  0.457900  0.324100  0.063000  1.0  0.0817
  H  H22  1  0.330700  0.404800  0.064900  1.0  0.0838
  H  H23  1  0.779600  0.692700  0.469000  1.0  0.1222
  H  H24  1  0.115500  0.269100  0.102600  1.0  0.1276
  H  H25  1  0.468800  0.847000  0.519200  1.0  0.1119
  H  H26  1  0.494500  0.736200  0.269600  1.0  0.1104
  H  H27  1  0.720300  0.769800  0.266800  1.0  0.142
  H  H28  1  0.135400  0.766300  0.629900  1.0  0.1065
  H  H29  1  0.466300  0.778800  0.411500  1.0  0.0931
  H  H30  1  0.327500  0.775400  0.391900  1.0  0.1012
  H  H31  1  0.573000  0.592300  0.484300  1.0  0.0708
  H  H32  1  0.447700  0.578300  0.538800  1.0  0.0825
  H  H33  1  0.143300  0.717600  0.518400  1.0  0.1284
  H  H34  1  0.325400  0.588600  0.447800  1.0  0.0997
  H  H35  1  0.450900  0.604300  0.393600  1.0  0.0875
  H  H36  1  0.962700  0.889400  0.297700  1.0  0.114
  H  H37  1  0.101900  0.075800  0.173600  1.0  0.1201
  H  H38  1  0.415800  0.035800  0.901700  1.0  0.1184
  H  H39  1  0.865300  0.410500  0.614200  1.0  0.1258
  H  H40  1  0.591200  0.921500  0.967500  1.0  0.11
  H  H41  1  0.110200  0.118900  0.827600  1.0  0.1036
  H  H42  1  0.181100  0.998200  0.846000  1.0  0.1038
  H  H43  1  0.842100  0.369800  0.931700  1.0  0.1203
  H  H44  1  0.665300  0.173500  0.105600  1.0  0.1119
  H  H45  1  0.209100  0.026300  0.957100  1.0  0.0872
  H  H46  1  0.126600  0.141800  0.938700  1.0  0.0871
  H  H47  1  0.897300  0.397300  0.123000  1.0  0.1356
  H  H48  1  0.467900  0.566400  0.049500  1.0  0.0848
  H  H49  1  0.594300  0.485000  0.046400  1.0  0.0801
  H  H50  1  0.024500  0.936600  0.948600  1.0  0.0714
  H  H51  1  0.943400  0.053200  0.938100  1.0  0.0783
  H  H52  1  0.735100  0.650900  0.026500  1.0  0.1086
  H  H53  1  0.602500  0.722200  0.037100  1.0  0.0978
  H  H54  1  0.542100  0.675900  0.937000  1.0  0.0807
  H  H55  1  0.669300  0.595200  0.935100  1.0  0.0811
  H  H56  1  0.220400  0.307300  0.531000  1.0  0.1224
  H  H57  1  0.884500  0.730900  0.897400  1.0  0.1268
  H  H58  1  0.531200  0.153000  0.480800  1.0  0.1115
  H  H59  1  0.505500  0.263800  0.730400  1.0  0.1105
  H  H60  1  0.279700  0.230200  0.733200  1.0  0.142
  H  H61  1  0.864600  0.233700  0.370100  1.0  0.1063
  H  H62  1  0.533700  0.221200  0.588500  1.0  0.094
  H  H63  1  0.672500  0.224600  0.608100  1.0  0.1
  H  H64  1  0.427000  0.407700  0.515700  1.0  0.073
  H  H65  1  0.552300  0.421700  0.461200  1.0  0.0821
  H  H66  1  0.856700  0.282400  0.481600  1.0  0.1281
  H  H67  1  0.674600  0.411400  0.552200  1.0  0.1024
  H  H68  1  0.549100  0.395700  0.606400  1.0  0.087
  H  H69  1  0.037300  0.110600  0.702300  1.0  0.114
  H  H70  1  0.898100  0.924200  0.826400  1.0  0.1211
  C  C71  1  0.181400  0.760500  0.277530  1.0  0.6574
  C  C72  1  0.590300  0.909900  0.140100  1.0  0.1319
  C  C73  1  0.307400  0.799400  0.033110  1.0  0.6402
  C  C74  1  0.252600  0.739700  0.988150  1.0  -0.1296
  C  C75  1  0.064700  0.643500  0.385100  1.0  -0.2012
  C  C76  1  0.334100  0.101300  0.059000  1.0  0.1543
  C  C77  1  0.823600  0.927500  0.146100  1.0  -0.0156
  C  C78  1  0.173600  0.653400  0.019600  1.0  -0.0628
  C  C79  1  0.278800  0.771300  0.915310  1.0  -0.0214
  C  C80  1  0.860900  0.933300  0.068500  1.0  -0.1218
  C  C81  1  0.141100  0.636200  0.904900  1.0  -0.0966
  C  C82  1  0.245800  0.762100  0.793500  1.0  0.7077
  C  C83  1  0.957600  0.626000  0.435800  1.0  0.135
  C  C84  1  0.118400  0.602200  0.977700  1.0  0.1299
  C  C85  1  0.467300  0.465900  0.981900  1.0  -0.1262
  C  C86  1  0.984800  0.991400  0.039700  1.0  -0.1191
  C  C87  1  0.333800  0.303200  0.997700  1.0  0.0015
  C  C88  1  0.396700  0.372400  0.034100  1.0  -0.1252
  C  C89  1  0.065900  0.743000  0.333060  1.0  -0.1403
  C  C90  1  0.222700  0.721800  0.873600  1.0  -0.1248
  C  C91  1  0.853200  0.804800  0.383000  1.0  -0.1379
  C  C92  1  0.851300  0.705800  0.434900  1.0  -0.0568
  C  C93  1  0.172500  0.207400  0.097300  1.0  -0.1554
  C  C94  1  0.387600  0.820100  0.533200  1.0  0.1202
  C  C95  1  0.541300  0.785900  0.234100  1.0  0.0403
  C  C96  1  0.666300  0.803700  0.232700  1.0  -0.1424
  C  C97  1  0.203700  0.776100  0.593600  1.0  -0.0131
  C  C98  1  0.384900  0.745300  0.427600  1.0  0.0111
  C  C99  1  0.489400  0.561900  0.494900  1.0  -0.1273
  C  C100  1  0.208000  0.748600  0.532700  1.0  -0.137
  C  C101  1  0.408500  0.620000  0.437600  1.0  -0.1191
  C  C102  1  0.961000  0.822900  0.332400  1.0  -0.0009
  C  C103  1  0.165400  0.100200  0.136400  1.0  0.0517
  C  C104  1  0.739900  0.891600  0.381600  1.0  0.7039
  C  C105  1  0.818600  0.239500  0.722470  1.0  0.6559
  C  C106  1  0.409700  0.090100  0.859900  1.0  0.1329
  C  C107  1  0.692600  0.200600  0.966890  1.0  0.6417
  C  C108  1  0.747400  0.260300  0.011850  1.0  -0.1303
  C  C109  1  0.935300  0.356500  0.614900  1.0  -0.2012
  C  C110  1  0.665900  0.898700  0.941000  1.0  0.1541
  C  C111  1  0.176400  0.072500  0.853900  1.0  -0.0177
  C  C112  1  0.826400  0.346600  0.980400  1.0  -0.0639
  C  C113  1  0.721200  0.228700  0.084690  1.0  -0.0203
  C  C114  1  0.139100  0.066700  0.931500  1.0  -0.124
  C  C115  1  0.858900  0.363800  0.095100  1.0  -0.0992
  C  C116  1  0.754200  0.237900  0.206500  1.0  0.7064
  C  C117  1  0.042400  0.374000  0.564200  1.0  0.1357
  C  C118  1  0.881600  0.397800  0.022300  1.0  0.1304
  C  C119  1  0.532700  0.534100  0.018100  1.0  -0.1198
  C  C120  1  0.015200  0.008600  0.960300  1.0  -0.1204
  C  C121  1  0.666200  0.696800  0.002300  1.0  -1e-04
  C  C122  1  0.603300  0.627600  0.965900  1.0  -0.1268
  C  C123  1  0.934100  0.257000  0.666940  1.0  -0.1407
  C  C124  1  0.777300  0.278200  0.126400  1.0  -0.1225
  C  C125  1  0.146800  0.195200  0.617000  1.0  -0.1395
  C  C126  1  0.148700  0.294200  0.565100  1.0  -0.0564
  C  C127  1  0.827500  0.792600  0.902700  1.0  -0.1515
  C  C128  1  0.612400  0.179900  0.466800  1.0  0.119
  C  C129  1  0.458700  0.214100  0.765900  1.0  0.0418
  C  C130  1  0.333700  0.196300  0.767300  1.0  -0.1435
  C  C131  1  0.796300  0.223900  0.406400  1.0  -0.0125
  C  C132  1  0.615100  0.254700  0.572400  1.0  0.0106
  C  C133  1  0.510600  0.438100  0.505100  1.0  -0.1158
  C  C134  1  0.792000  0.251400  0.467300  1.0  -0.1373
  C  C135  1  0.591500  0.380000  0.562400  1.0  -0.1189
  C  C136  1  0.039000  0.177100  0.667600  1.0  -1e-04
  C  C137  1  0.834600  0.899800  0.863600  1.0  0.0512
  C  C138  1  0.260100  0.108400  0.618400  1.0  0.7061
  N  N139  1  0.268000  0.033600  0.111630  1.0  -0.3708
  N  N140  1  0.316800  0.821400  0.594390  1.0  -0.3509
  N  N141  1  0.494400  0.851900  0.175470  1.0  -0.3799
  N  N142  1  0.280300  0.205900  0.048700  1.0  0.05
  N  N143  1  0.697800  0.880900  0.171780  1.0  0.0592
  N  N144  1  0.947900  0.524100  0.489600  1.0  0.0693
  N  N145  1  0.043300  0.511100  0.015000  1.0  0.1327
  N  N146  1  0.325900  0.774500  0.494600  1.0  0.0426
  N  N147  1  0.732000  0.966400  0.888370  1.0  -0.3706
  N  N148  1  0.683200  0.178600  0.405610  1.0  -0.3522
  N  N149  1  0.505600  0.148100  0.824530  1.0  -0.3834
  N  N150  1  0.719700  0.794100  0.951300  1.0  0.0505
  N  N151  1  0.302200  0.119100  0.828220  1.0  0.0596
  N  N152  1  0.052100  0.475900  0.510400  1.0  0.0697
  N  N153  1  0.956700  0.488900  0.985000  1.0  0.1308
  N  N154  1  0.674100  0.225500  0.505400  1.0  0.042
  O  O155  1  0.269000  0.770500  0.099050  1.0  -0.6146
  O  O156  1  0.176500  0.856600  0.233290  1.0  -0.5982
  O  O157  1  0.382200  0.872400  0.005370  1.0  -0.5637
  O  O158  1  0.270700  0.687000  0.277040  1.0  -0.5316
  O  O159  1  0.348200  0.811200  0.769050  1.0  -0.6064
  O  O160  1  0.164900  0.747500  0.758700  1.0  -0.5196
  O  O161  1  0.074800  0.460900  0.079400  1.0  -0.5567
  O  O162  1  0.833300  0.494000  0.501900  1.0  -0.5958
  O  O163  1  0.647500  0.877200  0.427100  1.0  -0.5817
  O  O164  1  0.750400  0.977300  0.330010  1.0  -0.5838
  O  O165  1  0.731000  0.229500  0.900950  1.0  -0.6151
  O  O166  1  0.823500  0.143400  0.766710  1.0  -0.5975
  O  O167  1  0.617800  0.127600  0.994630  1.0  -0.563
  O  O168  1  0.729300  0.313000  0.722960  1.0  -0.5312
  O  O169  1  0.651800  0.188800  0.230950  1.0  -0.6064
  O  O170  1  0.835100  0.252500  0.241300  1.0  -0.5197
  O  O171  1  0.925200  0.539100  0.920600  1.0  -0.5573
  O  O172  1  0.166700  0.506000  0.498100  1.0  -0.596
  O  O173  1  0.352500  0.122800  0.572900  1.0  -0.5837
  O  O174  1  0.249600  0.022700  0.669990  1.0  -0.5837
