# generated using pymatgen
data_Zn2H30C31(N3O5)2
_symmetry_space_group_name_H-M   'P 1'
_cell_length_a   10.37300000
_cell_length_b   15.08800000
_cell_length_c   24.12600000
_cell_angle_alpha   90.00000000
_cell_angle_beta   90.00000000
_cell_angle_gamma   90.00000000
_symmetry_Int_Tables_number   1
_chemical_formula_structural   Zn2H30C31(N3O5)2
_chemical_formula_sum   'Zn8 H120 C124 N24 O40'
_cell_volume   3775.90776182
_cell_formula_units_Z   4
loop_
 _symmetry_equiv_pos_site_id
 _symmetry_equiv_pos_as_xyz
  1  'x, y, z'
loop_
 _atom_site_type_symbol
 _atom_site_label
 _atom_site_symmetry_multiplicity
 _atom_site_fract_x
 _atom_site_fract_y
 _atom_site_fract_z
 _atom_site_occupancy
 _atom_site_charge
  Zn  Zn1  1  0.592980  0.500240  0.959720  1.0  0.9999
  Zn  Zn2  1  0.815130  0.500090  0.045740  1.0  0.9731
  Zn  Zn3  1  0.907020  0.499760  0.459720  1.0  1.0
  Zn  Zn4  1  0.684870  0.499910  0.545740  1.0  0.974
  Zn  Zn5  1  0.407020  0.000240  0.540280  1.0  1.0012
  Zn  Zn6  1  0.184870  0.000090  0.454260  1.0  0.9704
  Zn  Zn7  1  0.092980  0.999760  0.040280  1.0  1.0017
  Zn  Zn8  1  0.315130  0.999910  0.954260  1.0  0.9704
  H  H9  1  0.604600  0.331300  0.171300  1.0  0.1467
  H  H10  1  0.459800  0.252400  0.024000  1.0  0.13
  H  H11  1  0.334500  0.138700  0.163900  1.0  0.1394
  H  H12  1  0.552200  0.251900  0.475700  1.0  0.1158
  H  H13  1  0.682200  0.348700  0.330300  1.0  0.1369
  H  H14  1  0.411500  0.154700  0.332400  1.0  0.1287
  H  H15  1  0.146600  0.651300  0.159600  1.0  0.1337
  H  H16  1  0.352500  0.563000  0.136400  1.0  0.1082
  H  H17  1  0.339000  0.470500  0.108000  1.0  0.0906
  H  H18  1  0.226700  0.522100  0.250400  1.0  0.0819
  H  H19  1  0.364100  0.564000  0.244100  1.0  0.0837
  H  H20  1  0.420400  0.444000  0.188100  1.0  0.0922
  H  H21  1  0.278200  0.411700  0.191200  1.0  0.1029
  H  H22  1  0.138600  0.430900  0.991100  1.0  0.1235
  H  H23  1  0.189000  0.334100  0.000300  1.0  0.1156
  H  H24  1  0.269000  0.414900  0.022300  1.0  0.1208
  H  H25  1  0.309300  0.401200  0.294100  1.0  0.1
  H  H26  1  0.449900  0.431600  0.281900  1.0  0.1005
  H  H27  1  0.029900  0.357200  0.065800  1.0  0.1178
  H  H28  1  0.161500  0.354000  0.097700  1.0  0.1069
  H  H29  1  0.931900  0.647200  0.122600  1.0  0.1093
  H  H30  1  0.409200  0.444800  0.373600  1.0  0.0921
  H  H31  1  0.435900  0.538800  0.348800  1.0  0.1141
  H  H32  1  0.251000  0.656700  0.355100  1.0  0.1335
  H  H33  1  0.226500  0.348200  0.387000  1.0  0.1074
  H  H34  1  0.099000  0.350600  0.421900  1.0  0.1084
  H  H35  1  0.045100  0.659600  0.402300  1.0  0.1155
  H  H36  1  0.335100  0.403500  0.469000  1.0  0.1221
  H  H37  1  0.287200  0.305200  0.473000  1.0  0.1107
  H  H38  1  0.208200  0.381200  0.501400  1.0  0.1191
  H  H39  1  0.895400  0.668700  0.671300  1.0  0.1477
  H  H40  1  0.040200  0.747600  0.524000  1.0  0.1299
  H  H41  1  0.165500  0.861300  0.663900  1.0  0.1393
  H  H42  1  0.947800  0.748100  0.975700  1.0  0.1157
  H  H43  1  0.817800  0.651300  0.830300  1.0  0.1363
  H  H44  1  0.088500  0.845300  0.832400  1.0  0.1292
  H  H45  1  0.353400  0.348700  0.659600  1.0  0.1333
  H  H46  1  0.147500  0.437000  0.636400  1.0  0.1092
  H  H47  1  0.161000  0.529500  0.608000  1.0  0.0912
  H  H48  1  0.273300  0.477900  0.750400  1.0  0.0802
  H  H49  1  0.135900  0.436000  0.744100  1.0  0.0843
  H  H50  1  0.079600  0.556000  0.688100  1.0  0.0858
  H  H51  1  0.221800  0.588300  0.691200  1.0  0.1053
  H  H52  1  0.361400  0.569100  0.491100  1.0  0.1239
  H  H53  1  0.311000  0.665900  0.500300  1.0  0.1167
  H  H54  1  0.231000  0.585100  0.522300  1.0  0.1202
  H  H55  1  0.190700  0.598800  0.794100  1.0  0.1021
  H  H56  1  0.050100  0.568400  0.781900  1.0  0.0974
  H  H57  1  0.470100  0.642800  0.565800  1.0  0.1155
  H  H58  1  0.338500  0.646000  0.597700  1.0  0.1059
  H  H59  1  0.568100  0.352800  0.622600  1.0  0.1094
  H  H60  1  0.090800  0.555200  0.873600  1.0  0.0913
  H  H61  1  0.064100  0.461200  0.848800  1.0  0.115
  H  H62  1  0.249000  0.343300  0.855100  1.0  0.1337
  H  H63  1  0.273500  0.651800  0.887000  1.0  0.1076
  H  H64  1  0.401000  0.649400  0.921900  1.0  0.1092
  H  H65  1  0.454900  0.340400  0.902300  1.0  0.1144
  H  H66  1  0.164900  0.596500  0.969000  1.0  0.1205
  H  H67  1  0.212800  0.694800  0.973000  1.0  0.1128
  H  H68  1  0.291800  0.618800  0.001400  1.0  0.1192
  H  H69  1  0.395400  0.831300  0.328700  1.0  0.1473
  H  H70  1  0.540200  0.752400  0.476000  1.0  0.1298
  H  H71  1  0.665500  0.638700  0.336100  1.0  0.1397
  H  H72  1  0.447800  0.751900  0.024300  1.0  0.1166
  H  H73  1  0.317800  0.848700  0.169700  1.0  0.1372
  H  H74  1  0.588500  0.654700  0.167600  1.0  0.1296
  H  H75  1  0.853400  0.151300  0.340400  1.0  0.134
  H  H76  1  0.647500  0.063000  0.363600  1.0  0.1081
  H  H77  1  0.661000  0.970500  0.392000  1.0  0.0904
  H  H78  1  0.773300  0.022100  0.249600  1.0  0.0794
  H  H79  1  0.635900  0.064000  0.255900  1.0  0.0836
  H  H80  1  0.579600  0.944000  0.311900  1.0  0.0857
  H  H81  1  0.721800  0.911700  0.308800  1.0  0.1036
  H  H82  1  0.861400  0.930900  0.508900  1.0  0.123
  H  H83  1  0.811000  0.834100  0.499700  1.0  0.1159
  H  H84  1  0.731000  0.914900  0.477700  1.0  0.1202
  H  H85  1  0.690700  0.901200  0.205900  1.0  0.1007
  H  H86  1  0.550100  0.931600  0.218100  1.0  0.0981
  H  H87  1  0.970100  0.857200  0.434200  1.0  0.1163
  H  H88  1  0.838500  0.854000  0.402300  1.0  0.1059
  H  H89  1  0.068100  0.147200  0.377400  1.0  0.1091
  H  H90  1  0.590800  0.944800  0.126400  1.0  0.0921
  H  H91  1  0.564100  0.038800  0.151200  1.0  0.1154
  H  H92  1  0.749000  0.156700  0.144900  1.0  0.1331
  H  H93  1  0.773500  0.848200  0.113000  1.0  0.1076
  H  H94  1  0.901000  0.850600  0.078100  1.0  0.1074
  H  H95  1  0.954900  0.159600  0.097700  1.0  0.1147
  H  H96  1  0.664900  0.903500  0.031000  1.0  0.12
  H  H97  1  0.712800  0.805200  0.027000  1.0  0.1111
  H  H98  1  0.791800  0.881200  0.998600  1.0  0.1186
  H  H99  1  0.104600  0.168700  0.828700  1.0  0.1474
  H  H100  1  0.959800  0.247600  0.976000  1.0  0.13
  H  H101  1  0.834500  0.361300  0.836100  1.0  0.1396
  H  H102  1  0.052200  0.248100  0.524300  1.0  0.1167
  H  H103  1  0.182200  0.151300  0.669700  1.0  0.1371
  H  H104  1  0.911500  0.345300  0.667600  1.0  0.1289
  H  H105  1  0.646600  0.848700  0.840400  1.0  0.1327
  H  H106  1  0.852500  0.937000  0.863600  1.0  0.1085
  H  H107  1  0.839000  0.029500  0.892000  1.0  0.091
  H  H108  1  0.726700  0.977900  0.749600  1.0  0.0815
  H  H109  1  0.864100  0.936000  0.755900  1.0  0.0834
  H  H110  1  0.920400  0.056000  0.811900  1.0  0.0926
  H  H111  1  0.778200  0.088300  0.808800  1.0  0.102
  H  H112  1  0.638600  0.069100  0.008900  1.0  0.1232
  H  H113  1  0.689000  0.165900  0.999700  1.0  0.1154
  H  H114  1  0.769000  0.085100  0.977700  1.0  0.1212
  H  H115  1  0.809300  0.098800  0.705900  1.0  0.101
  H  H116  1  0.949900  0.068400  0.718100  1.0  0.1005
  H  H117  1  0.529900  0.142800  0.934200  1.0  0.1162
  H  H118  1  0.661500  0.146000  0.902300  1.0  0.1059
  H  H119  1  0.431900  0.852800  0.877400  1.0  0.1087
  H  H120  1  0.909200  0.055200  0.626400  1.0  0.0922
  H  H121  1  0.935900  0.961200  0.651200  1.0  0.1151
  H  H122  1  0.751000  0.843300  0.644900  1.0  0.1337
  H  H123  1  0.726500  0.151800  0.613000  1.0  0.1067
  H  H124  1  0.599000  0.149400  0.578100  1.0  0.1101
  H  H125  1  0.545100  0.840400  0.597700  1.0  0.1145
  H  H126  1  0.835100  0.096500  0.531000  1.0  0.1223
  H  H127  1  0.787200  0.194800  0.527000  1.0  0.1133
  H  H128  1  0.708200  0.118800  0.498600  1.0  0.1188
  C  C129  1  0.547700  0.296600  0.150900  1.0  -0.108
  C  C130  1  0.536700  0.305100  0.093500  1.0  -0.1226
  C  C131  1  0.472800  0.190800  0.408800  1.0  -0.1353
  C  C132  1  0.389500  0.184900  0.089300  1.0  -0.0928
  C  C133  1  0.469300  0.233400  0.176100  1.0  -0.0112
  C  C134  1  0.627100  0.313400  0.407900  1.0  -0.1453
  C  C135  1  0.545900  0.252400  0.321900  1.0  0.193
  C  C136  1  0.461500  0.248100  0.062400  1.0  -0.0464
  C  C137  1  0.313900  0.118200  0.055800  1.0  0.7072
  C  C138  1  0.388500  0.178800  0.146100  1.0  -0.1238
  C  C139  1  0.550900  0.252000  0.437200  1.0  -0.0461
  C  C140  1  0.627800  0.311300  0.350100  1.0  -0.1211
  C  C141  1  0.610800  0.378400  0.065000  1.0  0.7129
  C  C142  1  0.466900  0.192600  0.351300  1.0  -0.1373
  C  C143  1  0.110800  0.605300  0.139000  1.0  -0.0946
  C  C144  1  0.304800  0.507700  0.137300  1.0  -0.0026
  C  C145  1  0.083900  0.478300  0.095500  1.0  0.3309
  C  C146  1  0.317000  0.508500  0.244500  1.0  -0.0994
  C  C147  1  0.331800  0.464400  0.190000  1.0  -0.1003
  C  C148  1  0.183700  0.392400  0.016100  1.0  -0.2784
  C  C149  1  0.703000  0.381000  0.439600  1.0  0.7215
  C  C150  1  0.364800  0.452800  0.292000  1.0  -0.1059
  C  C151  1  0.111000  0.388000  0.071400  1.0  -0.1945
  C  C152  1  0.993300  0.602700  0.118900  1.0  0.0224
  C  C153  1  0.374700  0.490200  0.349300  1.0  -0.0041
  C  C154  1  0.209600  0.608600  0.371400  1.0  -0.1301
  C  C155  1  0.164100  0.473800  0.402000  1.0  0.3054
  C  C156  1  0.182800  0.378200  0.417200  1.0  -0.1495
  C  C157  1  0.096900  0.609800  0.397600  1.0  0.0333
  C  C158  1  0.260500  0.365900  0.470000  1.0  -0.2855
  C  C159  1  0.402200  0.121100  0.440700  1.0  0.7054
  C  C160  1  0.952300  0.703400  0.650900  1.0  -0.1076
  C  C161  1  0.963300  0.694900  0.593500  1.0  -0.1229
  C  C162  1  0.027200  0.809200  0.908800  1.0  -0.1364
  C  C163  1  0.110500  0.815100  0.589300  1.0  -0.0919
  C  C164  1  0.030700  0.766600  0.676100  1.0  -0.0105
  C  C165  1  0.872900  0.686600  0.907900  1.0  -0.1461
  C  C166  1  0.954100  0.747600  0.821900  1.0  0.1929
  C  C167  1  0.038500  0.751900  0.562400  1.0  -0.0461
  C  C168  1  0.186100  0.881800  0.555800  1.0  0.7069
  C  C169  1  0.111500  0.821200  0.646100  1.0  -0.1255
  C  C170  1  0.949100  0.748000  0.937200  1.0  -0.0474
  C  C171  1  0.872200  0.688700  0.850100  1.0  -0.1189
  C  C172  1  0.889200  0.621600  0.565000  1.0  0.7133
  C  C173  1  0.033100  0.807400  0.851300  1.0  -0.1389
  C  C174  1  0.389200  0.394700  0.639000  1.0  -0.0942
  C  C175  1  0.195200  0.492300  0.637300  1.0  -0.0015
  C  C176  1  0.416100  0.521700  0.595500  1.0  0.3309
  C  C177  1  0.183000  0.491500  0.744500  1.0  -0.1011
  C  C178  1  0.168200  0.535600  0.690000  1.0  -0.0995
  C  C179  1  0.316300  0.607600  0.516100  1.0  -0.2771
  C  C180  1  0.797000  0.619000  0.939600  1.0  0.7216
  C  C181  1  0.135200  0.547200  0.792000  1.0  -0.105
  C  C182  1  0.389000  0.612000  0.571400  1.0  -0.1946
  C  C183  1  0.506700  0.397300  0.618900  1.0  0.0229
  C  C184  1  0.125300  0.509800  0.849300  1.0  -0.0044
  C  C185  1  0.290400  0.391400  0.871400  1.0  -0.1281
  C  C186  1  0.335900  0.526200  0.902000  1.0  0.306
  C  C187  1  0.317200  0.621800  0.917200  1.0  -0.1488
  C  C188  1  0.403100  0.390200  0.897600  1.0  0.0328
  C  C189  1  0.239500  0.634100  0.970000  1.0  -0.2851
  C  C190  1  0.097800  0.878900  0.940700  1.0  0.705
  C  C191  1  0.452300  0.796600  0.349100  1.0  -0.1083
  C  C192  1  0.463300  0.805100  0.406500  1.0  -0.1224
  C  C193  1  0.527200  0.690800  0.091200  1.0  -0.1358
  C  C194  1  0.610500  0.684900  0.410700  1.0  -0.0914
  C  C195  1  0.530700  0.733400  0.323900  1.0  -0.0107
  C  C196  1  0.372900  0.813400  0.092100  1.0  -0.1459
  C  C197  1  0.454100  0.752400  0.178100  1.0  0.193
  C  C198  1  0.538500  0.748100  0.437600  1.0  -0.0473
  C  C199  1  0.686100  0.618200  0.444200  1.0  0.7057
  C  C200  1  0.611500  0.678800  0.353900  1.0  -0.126
  C  C201  1  0.449100  0.752000  0.062800  1.0  -0.0471
  C  C202  1  0.372200  0.811300  0.149900  1.0  -0.1201
  C  C203  1  0.389200  0.878400  0.435000  1.0  0.7134
  C  C204  1  0.533100  0.692600  0.148700  1.0  -0.1384
  C  C205  1  0.889200  0.105300  0.361000  1.0  -0.0935
  C  C206  1  0.695200  0.007700  0.362700  1.0  -0.0039
  C  C207  1  0.916100  0.978300  0.404500  1.0  0.3307
  C  C208  1  0.683000  0.008500  0.255500  1.0  -0.1007
  C  C209  1  0.668200  0.964400  0.310000  1.0  -0.1009
  C  C210  1  0.816300  0.892400  0.483900  1.0  -0.2776
  C  C211  1  0.297000  0.881000  0.060400  1.0  0.7215
  C  C212  1  0.635200  0.952800  0.208000  1.0  -0.1047
  C  C213  1  0.889000  0.888000  0.428600  1.0  -0.194
  C  C214  1  0.006700  0.102700  0.381100  1.0  0.0228
  C  C215  1  0.625300  0.990200  0.150700  1.0  -0.0048
  C  C216  1  0.790400  0.108600  0.128600  1.0  -0.1262
  C  C217  1  0.835900  0.973800  0.098000  1.0  0.3059
  C  C218  1  0.817200  0.878200  0.082800  1.0  -0.1491
  C  C219  1  0.903100  0.109800  0.102400  1.0  0.0323
  C  C220  1  0.739500  0.865900  0.030000  1.0  -0.2849
  C  C221  1  0.597800  0.621100  0.059300  1.0  0.7046
  C  C222  1  0.047700  0.203400  0.849100  1.0  -0.1074
  C  C223  1  0.036700  0.194900  0.906500  1.0  -0.1232
  C  C224  1  0.972800  0.309200  0.591200  1.0  -0.1357
  C  C225  1  0.889500  0.315100  0.910700  1.0  -0.0929
  C  C226  1  0.969300  0.266600  0.823900  1.0  -0.0119
  C  C227  1  0.127100  0.186600  0.592100  1.0  -0.1458
  C  C228  1  0.045900  0.247600  0.678100  1.0  0.1937
  C  C229  1  0.961500  0.251900  0.937600  1.0  -0.0473
  C  C230  1  0.813900  0.381800  0.944200  1.0  0.7075
  C  C231  1  0.888500  0.321200  0.853900  1.0  -0.1247
  C  C232  1  0.050900  0.248000  0.562800  1.0  -0.0465
  C  C233  1  0.127800  0.188700  0.649900  1.0  -0.1187
  C  C234  1  0.110800  0.121600  0.935000  1.0  0.7133
  C  C235  1  0.966900  0.307400  0.648700  1.0  -0.1391
  C  C236  1  0.610800  0.894700  0.861000  1.0  -0.0954
  C  C237  1  0.804800  0.992300  0.862700  1.0  -0.0035
  C  C238  1  0.583900  0.021700  0.904500  1.0  0.3301
  C  C239  1  0.817000  0.991500  0.755500  1.0  -0.0999
  C  C240  1  0.831800  0.035600  0.810000  1.0  -0.1003
  C  C241  1  0.683700  0.107600  0.983900  1.0  -0.2795
  C  C242  1  0.203000  0.119000  0.560400  1.0  0.721
  C  C243  1  0.864800  0.047200  0.708000  1.0  -0.1052
  C  C244  1  0.611000  0.112000  0.928600  1.0  -0.1929
  C  C245  1  0.493300  0.897300  0.881100  1.0  0.0231
  C  C246  1  0.874700  0.009800  0.650700  1.0  -0.0044
  C  C247  1  0.709600  0.891400  0.628600  1.0  -0.1304
  C  C248  1  0.664100  0.026200  0.598000  1.0  0.3056
  C  C249  1  0.682800  0.121800  0.582800  1.0  -0.1497
  C  C250  1  0.596900  0.890200  0.602400  1.0  0.0318
  C  C251  1  0.760500  0.134100  0.530000  1.0  -0.285
  C  C252  1  0.902200  0.378900  0.559300  1.0  0.7058
  N  N253  1  0.171700  0.527200  0.124200  1.0  0.0319
  N  N254  1  0.462500  0.225200  0.238200  1.0  -0.0442
  N  N255  1  0.548900  0.258000  0.265100  1.0  0.0544
  N  N256  1  0.975100  0.522200  0.090900  1.0  -0.4167
  N  N257  1  0.253300  0.522500  0.372900  1.0  -0.0542
  N  N258  1  0.068400  0.525100  0.417200  1.0  -0.4175
  N  N259  1  0.328300  0.472800  0.624200  1.0  0.0304
  N  N260  1  0.037500  0.774800  0.738200  1.0  -0.0429
  N  N261  1  0.951100  0.742000  0.765100  1.0  0.0567
  N  N262  1  0.524900  0.477800  0.590900  1.0  -0.4164
  N  N263  1  0.246700  0.477500  0.872900  1.0  -0.054
  N  N264  1  0.431600  0.474900  0.917200  1.0  -0.4153
  N  N265  1  0.828300  0.027200  0.375800  1.0  0.0313
  N  N266  1  0.537500  0.725200  0.261800  1.0  -0.0422
  N  N267  1  0.451100  0.758000  0.234900  1.0  0.0562
  N  N268  1  0.024900  0.022200  0.409100  1.0  -0.4175
  N  N269  1  0.746700  0.022500  0.127100  1.0  -0.0548
  N  N270  1  0.931600  0.025100  0.082800  1.0  -0.4135
  N  N271  1  0.671700  0.972800  0.875800  1.0  0.0316
  N  N272  1  0.962500  0.274800  0.761800  1.0  -0.044
  N  N273  1  0.048900  0.242000  0.734900  1.0  0.0545
  N  N274  1  0.475100  0.977800  0.909100  1.0  -0.4179
  N  N275  1  0.753300  0.977500  0.627100  1.0  -0.0541
  N  N276  1  0.568400  0.974900  0.582800  1.0  -0.4157
  O  O277  1  0.359300  0.095400  0.011200  1.0  -0.5771
  O  O278  1  0.207700  0.092300  0.077300  1.0  -0.5633
  O  O279  1  0.713600  0.404200  0.086900  1.0  -0.5497
  O  O280  1  0.561500  0.406900  0.020600  1.0  -0.5953
  O  O281  1  0.679700  0.262500  0.244700  1.0  -0.5957
  O  O282  1  0.802700  0.409500  0.416900  1.0  -0.5767
  O  O283  1  0.654400  0.405900  0.485200  1.0  -0.5867
  O  O284  1  0.368100  0.167800  0.251300  1.0  -0.5352
  O  O285  1  0.449800  0.098300  0.485100  1.0  -0.5751
  O  O286  1  0.302800  0.090300  0.417300  1.0  -0.5726
  O  O287  1  0.140700  0.904600  0.511200  1.0  -0.5758
  O  O288  1  0.292300  0.907700  0.577300  1.0  -0.5624
  O  O289  1  0.786400  0.595800  0.586900  1.0  -0.5504
  O  O290  1  0.938500  0.593100  0.520600  1.0  -0.5948
  O  O291  1  0.820300  0.737500  0.744700  1.0  -0.6032
  O  O292  1  0.697300  0.590500  0.916900  1.0  -0.5771
  O  O293  1  0.845600  0.594100  0.985200  1.0  -0.5868
  O  O294  1  0.131900  0.832200  0.751300  1.0  -0.5377
  O  O295  1  0.050200  0.901700  0.985100  1.0  -0.5754
  O  O296  1  0.197200  0.909700  0.917300  1.0  -0.572
  O  O297  1  0.640700  0.595400  0.488800  1.0  -0.5749
  O  O298  1  0.792300  0.592300  0.422700  1.0  -0.5638
  O  O299  1  0.286400  0.904200  0.413100  1.0  -0.5487
  O  O300  1  0.438500  0.906900  0.479400  1.0  -0.5949
  O  O301  1  0.320300  0.762500  0.255300  1.0  -0.6034
  O  O302  1  0.197300  0.909500  0.083100  1.0  -0.5763
  O  O303  1  0.345600  0.905900  0.014800  1.0  -0.5865
  O  O304  1  0.631900  0.667800  0.248700  1.0  -0.5375
  O  O305  1  0.550200  0.598300  0.014900  1.0  -0.5758
  O  O306  1  0.697200  0.590300  0.082700  1.0  -0.5715
  O  O307  1  0.859300  0.404600  0.988800  1.0  -0.5767
  O  O308  1  0.707700  0.407700  0.922700  1.0  -0.5631
  O  O309  1  0.213600  0.095800  0.913100  1.0  -0.5493
  O  O310  1  0.061500  0.093100  0.979400  1.0  -0.5951
  O  O311  1  0.179700  0.237500  0.755300  1.0  -0.5956
  O  O312  1  0.302700  0.090500  0.583100  1.0  -0.5756
  O  O313  1  0.154400  0.094100  0.514800  1.0  -0.5866
  O  O314  1  0.868100  0.332200  0.748700  1.0  -0.5328
  O  O315  1  0.949800  0.401700  0.514900  1.0  -0.5756
  O  O316  1  0.802800  0.409700  0.582700  1.0  -0.5722
