# generated using pymatgen
data_ZnH16C16N3O5
_symmetry_space_group_name_H-M   'P 1'
_cell_length_a   27.62130000
_cell_length_b   10.51210000
_cell_length_c   14.76140000
_cell_angle_alpha   90.00000000
_cell_angle_beta   117.04800000
_cell_angle_gamma   90.00000000
_symmetry_Int_Tables_number   1
_chemical_formula_structural   ZnH16C16N3O5
_chemical_formula_sum   'Zn8 H128 C128 N24 O40'
_cell_volume   3817.30144543
_cell_formula_units_Z   8
loop_
 _symmetry_equiv_pos_site_id
 _symmetry_equiv_pos_as_xyz
  1  'x, y, z'
loop_
 _atom_site_type_symbol
 _atom_site_label
 _atom_site_symmetry_multiplicity
 _atom_site_fract_x
 _atom_site_fract_y
 _atom_site_fract_z
 _atom_site_occupancy
 _atom_site_charge
  Zn  Zn1  1  0.790920  0.640000  0.535480  1.0  0.9305
  Zn  Zn2  1  0.290920  0.140000  0.535480  1.0  0.9305
  Zn  Zn3  1  0.209080  0.640000  0.964520  1.0  0.93
  Zn  Zn4  1  0.709080  0.140000  0.964520  1.0  0.93
  Zn  Zn5  1  0.209080  0.360000  0.464520  1.0  0.9301
  Zn  Zn6  1  0.709080  0.860000  0.464520  1.0  0.9301
  Zn  Zn7  1  0.790920  0.360000  0.035480  1.0  0.9308
  Zn  Zn8  1  0.290920  0.860000  0.035480  1.0  0.9308
  H  H9  1  0.778500  0.003200  0.768800  1.0  0.1133
  H  H10  1  0.918700  0.120000  0.001000  1.0  0.1189
  H  H11  1  0.920100  0.848500  0.808300  1.0  0.1252
  H  H12  1  0.858900  0.085300  0.573900  1.0  0.0814
  H  H13  1  0.866300  0.143200  0.677500  1.0  0.0866
  H  H14  1  0.843400  0.491700  0.420500  1.0  0.1174
  H  H15  1  0.817100  0.447700  0.709300  1.0  0.1061
  H  H16  1  0.851600  0.322800  0.746600  1.0  0.0928
  H  H17  1  0.878000  0.272900  0.453800  1.0  0.1347
  H  H18  1  0.740100  0.325000  0.603000  1.0  0.1116
  H  H19  1  0.761600  0.283400  0.716700  1.0  0.1107
  H  H20  1  0.774800  0.200600  0.642400  1.0  0.1081
  H  H21  1  0.949300  0.060700  0.703300  1.0  0.0901
  H  H22  1  0.947100  0.136700  0.610200  1.0  0.092
  H  H23  1  0.965100  0.242100  0.798200  1.0  0.0955
  H  H24  1  0.952800  0.328300  0.703600  1.0  0.0918
  H  H25  1  0.278500  0.503200  0.768800  1.0  0.1133
  H  H26  1  0.418700  0.620000  0.001000  1.0  0.1189
  H  H27  1  0.420100  0.348500  0.808300  1.0  0.1252
  H  H28  1  0.358900  0.585300  0.573900  1.0  0.0814
  H  H29  1  0.366300  0.643200  0.677500  1.0  0.0866
  H  H30  1  0.343400  0.991700  0.420500  1.0  0.1174
  H  H31  1  0.317100  0.947700  0.709300  1.0  0.1061
  H  H32  1  0.351600  0.822800  0.746600  1.0  0.0928
  H  H33  1  0.378000  0.772900  0.453800  1.0  0.1347
  H  H34  1  0.240100  0.825000  0.603000  1.0  0.1116
  H  H35  1  0.261600  0.783400  0.716700  1.0  0.1107
  H  H36  1  0.274800  0.700600  0.642400  1.0  0.1081
  H  H37  1  0.449300  0.560700  0.703300  1.0  0.0901
  H  H38  1  0.447100  0.636700  0.610200  1.0  0.092
  H  H39  1  0.465100  0.742100  0.798200  1.0  0.0955
  H  H40  1  0.452800  0.828300  0.703600  1.0  0.0918
  H  H41  1  0.221500  0.003200  0.731200  1.0  0.1134
  H  H42  1  0.081300  0.120000  0.499000  1.0  0.1189
  H  H43  1  0.079900  0.848500  0.691700  1.0  0.1251
  H  H44  1  0.141100  0.085300  0.926100  1.0  0.0815
  H  H45  1  0.133700  0.143200  0.822500  1.0  0.087
  H  H46  1  0.156600  0.491700  0.079500  1.0  0.1177
  H  H47  1  0.182900  0.447700  0.790700  1.0  0.1087
  H  H48  1  0.148400  0.322800  0.753400  1.0  0.0933
  H  H49  1  0.122000  0.272900  0.046200  1.0  0.1353
  H  H50  1  0.259900  0.325000  0.897000  1.0  0.1118
  H  H51  1  0.238400  0.283400  0.783300  1.0  0.1111
  H  H52  1  0.225200  0.200600  0.857600  1.0  0.1075
  H  H53  1  0.050700  0.060700  0.796700  1.0  0.0901
  H  H54  1  0.052900  0.136700  0.889800  1.0  0.0918
  H  H55  1  0.034900  0.242100  0.701800  1.0  0.0945
  H  H56  1  0.047200  0.328300  0.796400  1.0  0.0922
  H  H57  1  0.721500  0.503200  0.731200  1.0  0.1134
  H  H58  1  0.581300  0.620000  0.499000  1.0  0.1189
  H  H59  1  0.579900  0.348500  0.691700  1.0  0.1251
  H  H60  1  0.641100  0.585300  0.926100  1.0  0.0815
  H  H61  1  0.633700  0.643200  0.822500  1.0  0.087
  H  H62  1  0.656600  0.991700  0.079500  1.0  0.1177
  H  H63  1  0.682900  0.947700  0.790700  1.0  0.1087
  H  H64  1  0.648400  0.822800  0.753400  1.0  0.0933
  H  H65  1  0.622000  0.772900  0.046200  1.0  0.1353
  H  H66  1  0.759900  0.825000  0.897000  1.0  0.1118
  H  H67  1  0.738400  0.783400  0.783300  1.0  0.1111
  H  H68  1  0.725200  0.700600  0.857600  1.0  0.1075
  H  H69  1  0.550700  0.560700  0.796700  1.0  0.0901
  H  H70  1  0.552900  0.636700  0.889800  1.0  0.0918
  H  H71  1  0.534900  0.742100  0.701800  1.0  0.0945
  H  H72  1  0.547200  0.828300  0.796400  1.0  0.0922
  H  H73  1  0.221500  0.996800  0.231200  1.0  0.1136
  H  H74  1  0.081300  0.880000  0.999000  1.0  0.1177
  H  H75  1  0.079900  0.151500  0.191700  1.0  0.125
  H  H76  1  0.141100  0.914700  0.426100  1.0  0.0809
  H  H77  1  0.133700  0.856800  0.322500  1.0  0.0865
  H  H78  1  0.156600  0.508300  0.579500  1.0  0.1181
  H  H79  1  0.182900  0.552300  0.290700  1.0  0.1079
  H  H80  1  0.148400  0.677200  0.253400  1.0  0.0929
  H  H81  1  0.122000  0.727100  0.546200  1.0  0.1344
  H  H82  1  0.259900  0.675000  0.397000  1.0  0.1124
  H  H83  1  0.238400  0.716600  0.283300  1.0  0.111
  H  H84  1  0.225200  0.799400  0.357600  1.0  0.1089
  H  H85  1  0.050700  0.939300  0.296700  1.0  0.0899
  H  H86  1  0.052900  0.863300  0.389800  1.0  0.0919
  H  H87  1  0.034900  0.757900  0.201800  1.0  0.095
  H  H88  1  0.047200  0.671700  0.296400  1.0  0.0917
  H  H89  1  0.721500  0.496800  0.231200  1.0  0.1136
  H  H90  1  0.581300  0.380000  0.999000  1.0  0.1177
  H  H91  1  0.579900  0.651500  0.191700  1.0  0.125
  H  H92  1  0.641100  0.414700  0.426100  1.0  0.0809
  H  H93  1  0.633700  0.356800  0.322500  1.0  0.0865
  H  H94  1  0.656600  0.008300  0.579500  1.0  0.1181
  H  H95  1  0.682900  0.052300  0.290700  1.0  0.1079
  H  H96  1  0.648400  0.177200  0.253400  1.0  0.0929
  H  H97  1  0.622000  0.227100  0.546200  1.0  0.1344
  H  H98  1  0.759900  0.175000  0.397000  1.0  0.1124
  H  H99  1  0.738400  0.216600  0.283300  1.0  0.111
  H  H100  1  0.725200  0.299400  0.357600  1.0  0.1089
  H  H101  1  0.550700  0.439300  0.296700  1.0  0.0899
  H  H102  1  0.552900  0.363300  0.389800  1.0  0.0919
  H  H103  1  0.534900  0.257900  0.201800  1.0  0.095
  H  H104  1  0.547200  0.171700  0.296400  1.0  0.0917
  H  H105  1  0.778500  0.996800  0.268800  1.0  0.1133
  H  H106  1  0.918700  0.880000  0.501000  1.0  0.1185
  H  H107  1  0.920100  0.151500  0.308300  1.0  0.1251
  H  H108  1  0.858900  0.914700  0.073900  1.0  0.0819
  H  H109  1  0.866300  0.856800  0.177500  1.0  0.0866
  H  H110  1  0.843400  0.508300  0.920500  1.0  0.1169
  H  H111  1  0.817100  0.552300  0.209300  1.0  0.11
  H  H112  1  0.851600  0.677200  0.246600  1.0  0.0927
  H  H113  1  0.878000  0.727100  0.953800  1.0  0.1339
  H  H114  1  0.740100  0.675000  0.103000  1.0  0.1111
  H  H115  1  0.761600  0.716600  0.216700  1.0  0.1108
  H  H116  1  0.774800  0.799400  0.142400  1.0  0.1093
  H  H117  1  0.949300  0.939300  0.203300  1.0  0.09
  H  H118  1  0.947100  0.863300  0.110200  1.0  0.092
  H  H119  1  0.965100  0.757900  0.298200  1.0  0.0963
  H  H120  1  0.952800  0.671700  0.203600  1.0  0.0916
  H  H121  1  0.278500  0.496800  0.268800  1.0  0.1133
  H  H122  1  0.418700  0.380000  0.501000  1.0  0.1185
  H  H123  1  0.420100  0.651500  0.308300  1.0  0.1251
  H  H124  1  0.358900  0.414700  0.073900  1.0  0.0819
  H  H125  1  0.366300  0.356800  0.177500  1.0  0.0866
  H  H126  1  0.343400  0.008300  0.920500  1.0  0.1169
  H  H127  1  0.317100  0.052300  0.209300  1.0  0.11
  H  H128  1  0.351600  0.177200  0.246600  1.0  0.0927
  H  H129  1  0.378000  0.227100  0.953800  1.0  0.1339
  H  H130  1  0.240100  0.175000  0.103000  1.0  0.1111
  H  H131  1  0.261600  0.216600  0.216700  1.0  0.1108
  H  H132  1  0.274800  0.299400  0.142400  1.0  0.1093
  H  H133  1  0.449300  0.439300  0.203300  1.0  0.09
  H  H134  1  0.447100  0.363300  0.110200  1.0  0.092
  H  H135  1  0.465100  0.257900  0.298200  1.0  0.0963
  H  H136  1  0.452800  0.171700  0.203600  1.0  0.0916
  C  C137  1  0.843850  0.070600  0.891600  1.0  -0.1235
  C  C138  1  0.816150  0.997900  0.804800  1.0  -0.0414
  C  C139  1  0.844710  0.916800  0.771500  1.0  -0.1381
  C  C140  1  0.811100  0.148800  0.930800  1.0  0.701
  C  C141  1  0.813680  0.840100  0.675300  1.0  0.6998
  C  C142  1  0.900300  0.067600  0.944900  1.0  -0.0663
  C  C143  1  0.901100  0.906600  0.827500  1.0  -0.0829
  C  C144  1  0.835900  0.371700  0.602600  1.0  0.3436
  C  C145  1  0.928900  0.984200  0.912600  1.0  0.0898
  C  C146  1  0.876500  0.152500  0.623100  1.0  -0.0136
  C  C147  1  0.844700  0.439300  0.472300  1.0  0.0511
  C  C148  1  0.821800  0.362700  0.689000  1.0  -0.1524
  C  C149  1  0.863900  0.318600  0.490300  1.0  -0.1417
  C  C150  1  0.769700  0.285700  0.660100  1.0  -0.3
  C  C151  1  0.937800  0.140200  0.666100  1.0  -0.1304
  C  C152  1  0.968800  0.248200  0.736100  1.0  -0.0897
  C  C153  1  0.343850  0.570600  0.891600  1.0  -0.1235
  C  C154  1  0.316150  0.497900  0.804800  1.0  -0.0414
  C  C155  1  0.344710  0.416800  0.771500  1.0  -0.1381
  C  C156  1  0.311100  0.648800  0.930800  1.0  0.701
  C  C157  1  0.313680  0.340100  0.675300  1.0  0.6998
  C  C158  1  0.400300  0.567600  0.944900  1.0  -0.0663
  C  C159  1  0.401100  0.406600  0.827500  1.0  -0.0829
  C  C160  1  0.335900  0.871700  0.602600  1.0  0.3436
  C  C161  1  0.428900  0.484200  0.912600  1.0  0.0898
  C  C162  1  0.376500  0.652500  0.623100  1.0  -0.0136
  C  C163  1  0.344700  0.939300  0.472300  1.0  0.0511
  C  C164  1  0.321800  0.862700  0.689000  1.0  -0.1524
  C  C165  1  0.363900  0.818600  0.490300  1.0  -0.1417
  C  C166  1  0.269700  0.785700  0.660100  1.0  -0.3
  C  C167  1  0.437800  0.640200  0.666100  1.0  -0.1304
  C  C168  1  0.468800  0.748200  0.736100  1.0  -0.0897
  C  C169  1  0.156150  0.070600  0.608400  1.0  -0.1242
  C  C170  1  0.183850  0.997900  0.695200  1.0  -0.0404
  C  C171  1  0.155290  0.916800  0.728500  1.0  -0.1359
  C  C172  1  0.188900  0.148800  0.569200  1.0  0.7005
  C  C173  1  0.186320  0.840100  0.824700  1.0  0.7001
  C  C174  1  0.099700  0.067600  0.555100  1.0  -0.0679
  C  C175  1  0.098900  0.906600  0.672500  1.0  -0.0794
  C  C176  1  0.164100  0.371700  0.897400  1.0  0.3437
  C  C177  1  0.071100  0.984200  0.587400  1.0  0.088
  C  C178  1  0.123500  0.152500  0.876900  1.0  -0.0162
  C  C179  1  0.155300  0.439300  0.027700  1.0  0.0525
  C  C180  1  0.178200  0.362700  0.811000  1.0  -0.1498
  C  C181  1  0.136100  0.318600  0.009700  1.0  -0.1427
  C  C182  1  0.230300  0.285700  0.839900  1.0  -0.3026
  C  C183  1  0.062200  0.140200  0.833900  1.0  -0.1302
  C  C184  1  0.031200  0.248200  0.763900  1.0  -0.0898
  C  C185  1  0.656150  0.570600  0.608400  1.0  -0.1242
  C  C186  1  0.683850  0.497900  0.695200  1.0  -0.0404
  C  C187  1  0.655290  0.416800  0.728500  1.0  -0.1359
  C  C188  1  0.688900  0.648800  0.569200  1.0  0.7005
  C  C189  1  0.686320  0.340100  0.824700  1.0  0.7001
  C  C190  1  0.599700  0.567600  0.555100  1.0  -0.0679
  C  C191  1  0.598900  0.406600  0.672500  1.0  -0.0794
  C  C192  1  0.664100  0.871700  0.897400  1.0  0.3437
  C  C193  1  0.571100  0.484200  0.587400  1.0  0.088
  C  C194  1  0.623500  0.652500  0.876900  1.0  -0.0162
  C  C195  1  0.655300  0.939300  0.027700  1.0  0.0525
  C  C196  1  0.678200  0.862700  0.811000  1.0  -0.1498
  C  C197  1  0.636100  0.818600  0.009700  1.0  -0.1427
  C  C198  1  0.730300  0.785700  0.839900  1.0  -0.3026
  C  C199  1  0.562200  0.640200  0.833900  1.0  -0.1302
  C  C200  1  0.531200  0.748200  0.763900  1.0  -0.0898
  C  C201  1  0.156150  0.929400  0.108400  1.0  -0.125
  C  C202  1  0.183850  0.002100  0.195200  1.0  -0.0402
  C  C203  1  0.155290  0.083200  0.228500  1.0  -0.1359
  C  C204  1  0.188900  0.851200  0.069200  1.0  0.7
  C  C205  1  0.186320  0.159900  0.324700  1.0  0.6993
  C  C206  1  0.099700  0.932400  0.055100  1.0  -0.0667
  C  C207  1  0.098900  0.093400  0.172500  1.0  -0.0823
  C  C208  1  0.164100  0.628300  0.397400  1.0  0.3443
  C  C209  1  0.071100  0.015800  0.087400  1.0  0.0881
  C  C210  1  0.123500  0.847500  0.376900  1.0  -0.0159
  C  C211  1  0.155300  0.560700  0.527700  1.0  0.0518
  C  C212  1  0.178200  0.637300  0.311000  1.0  -0.1507
  C  C213  1  0.136100  0.681400  0.509700  1.0  -0.1413
  C  C214  1  0.230300  0.714300  0.339900  1.0  -0.3021
  C  C215  1  0.062200  0.859800  0.333900  1.0  -0.1314
  C  C216  1  0.031200  0.751800  0.263900  1.0  -0.0894
  C  C217  1  0.656150  0.429400  0.108400  1.0  -0.125
  C  C218  1  0.683850  0.502100  0.195200  1.0  -0.0402
  C  C219  1  0.655290  0.583200  0.228500  1.0  -0.1359
  C  C220  1  0.688900  0.351200  0.069200  1.0  0.7
  C  C221  1  0.686320  0.659900  0.324700  1.0  0.6993
  C  C222  1  0.599700  0.432400  0.055100  1.0  -0.0667
  C  C223  1  0.598900  0.593400  0.172500  1.0  -0.0823
  C  C224  1  0.664100  0.128300  0.397400  1.0  0.3443
  C  C225  1  0.571100  0.515800  0.087400  1.0  0.0881
  C  C226  1  0.623500  0.347500  0.376900  1.0  -0.0159
  C  C227  1  0.655300  0.060700  0.527700  1.0  0.0518
  C  C228  1  0.678200  0.137300  0.311000  1.0  -0.1507
  C  C229  1  0.636100  0.181400  0.509700  1.0  -0.1413
  C  C230  1  0.730300  0.214300  0.339900  1.0  -0.3021
  C  C231  1  0.562200  0.359800  0.333900  1.0  -0.1314
  C  C232  1  0.531200  0.251800  0.263900  1.0  -0.0894
  C  C233  1  0.843850  0.929400  0.391600  1.0  -0.1228
  C  C234  1  0.816150  0.002100  0.304800  1.0  -0.0413
  C  C235  1  0.844710  0.083200  0.271500  1.0  -0.1368
  C  C236  1  0.811100  0.851200  0.430800  1.0  0.7016
  C  C237  1  0.813680  0.159900  0.175300  1.0  0.6995
  C  C238  1  0.900300  0.932400  0.444900  1.0  -0.0663
  C  C239  1  0.901100  0.093400  0.327500  1.0  -0.0845
  C  C240  1  0.835900  0.628300  0.102600  1.0  0.3438
  C  C241  1  0.928900  0.015800  0.412600  1.0  0.09
  C  C242  1  0.876500  0.847500  0.123100  1.0  -0.0149
  C  C243  1  0.844700  0.560700  0.972300  1.0  0.0501
  C  C244  1  0.821800  0.637300  0.189000  1.0  -0.1524
  C  C245  1  0.863900  0.681400  0.990300  1.0  -0.1416
  C  C246  1  0.769700  0.714300  0.160100  1.0  -0.2996
  C  C247  1  0.937800  0.859800  0.166100  1.0  -0.1311
  C  C248  1  0.968800  0.751800  0.236100  1.0  -0.0905
  C  C249  1  0.343850  0.429400  0.391600  1.0  -0.1228
  C  C250  1  0.316150  0.502100  0.304800  1.0  -0.0413
  C  C251  1  0.344710  0.583200  0.271500  1.0  -0.1368
  C  C252  1  0.311100  0.351200  0.430800  1.0  0.7016
  C  C253  1  0.313680  0.659900  0.175300  1.0  0.6995
  C  C254  1  0.400300  0.432400  0.444900  1.0  -0.0663
  C  C255  1  0.401100  0.593400  0.327500  1.0  -0.0845
  C  C256  1  0.335900  0.128300  0.102600  1.0  0.3438
  C  C257  1  0.428900  0.515800  0.412600  1.0  0.09
  C  C258  1  0.376500  0.347500  0.123100  1.0  -0.0149
  C  C259  1  0.344700  0.060700  0.972300  1.0  0.0501
  C  C260  1  0.321800  0.137300  0.189000  1.0  -0.1524
  C  C261  1  0.363900  0.181400  0.990300  1.0  -0.1416
  C  C262  1  0.269700  0.214300  0.160100  1.0  -0.2996
  C  C263  1  0.437800  0.359800  0.166100  1.0  -0.1311
  C  C264  1  0.468800  0.251800  0.236100  1.0  -0.0905
  N  N265  1  0.827250  0.472100  0.543200  1.0  -0.3887
  N  N266  1  0.858200  0.277100  0.573800  1.0  0.0537
  N  N267  1  0.986000  0.966800  0.963600  1.0  0.035
  N  N268  1  0.327250  0.972100  0.543200  1.0  -0.3887
  N  N269  1  0.358200  0.777100  0.573800  1.0  0.0537
  N  N270  1  0.486000  0.466800  0.963600  1.0  0.035
  N  N271  1  0.172750  0.472100  0.956800  1.0  -0.3894
  N  N272  1  0.141800  0.277100  0.926200  1.0  0.052
  N  N273  1  0.014000  0.966800  0.536400  1.0  0.0363
  N  N274  1  0.672750  0.972100  0.956800  1.0  -0.3894
  N  N275  1  0.641800  0.777100  0.926200  1.0  0.052
  N  N276  1  0.514000  0.466800  0.536400  1.0  0.0363
  N  N277  1  0.172750  0.527900  0.456800  1.0  -0.3901
  N  N278  1  0.141800  0.722900  0.426200  1.0  0.0517
  N  N279  1  0.014000  0.033200  0.036400  1.0  0.0371
  N  N280  1  0.672750  0.027900  0.456800  1.0  -0.3901
  N  N281  1  0.641800  0.222900  0.426200  1.0  0.0517
  N  N282  1  0.514000  0.533200  0.036400  1.0  0.0371
  N  N283  1  0.827250  0.527900  0.043200  1.0  -0.3905
  N  N284  1  0.858200  0.722900  0.073800  1.0  0.0534
  N  N285  1  0.986000  0.033200  0.463600  1.0  0.0361
  N  N286  1  0.327250  0.027900  0.043200  1.0  -0.3905
  N  N287  1  0.358200  0.222900  0.073800  1.0  0.0534
  N  N288  1  0.486000  0.533200  0.463600  1.0  0.0361
  O  O289  1  0.834090  0.736500  0.668000  1.0  -0.5661
  O  O290  1  0.830890  0.250500  0.975000  1.0  -0.5685
  O  O291  1  0.766390  0.101600  0.915300  1.0  -0.5918
  O  O292  1  0.769700  0.887400  0.611600  1.0  -0.5874
  O  O293  1  0.001900  0.876500  0.921300  1.0  -0.5983
  O  O294  1  0.334090  0.236500  0.668000  1.0  -0.5661
  O  O295  1  0.330890  0.750500  0.975000  1.0  -0.5685
  O  O296  1  0.266390  0.601600  0.915300  1.0  -0.5918
  O  O297  1  0.269700  0.387400  0.611600  1.0  -0.5874
  O  O298  1  0.501900  0.376500  0.921300  1.0  -0.5983
  O  O299  1  0.165910  0.736500  0.832000  1.0  -0.5665
  O  O300  1  0.169110  0.250500  0.525000  1.0  -0.5681
  O  O301  1  0.233610  0.101600  0.584700  1.0  -0.5916
  O  O302  1  0.230300  0.887400  0.888400  1.0  -0.5876
  O  O303  1  0.998100  0.876500  0.578700  1.0  -0.5983
  O  O304  1  0.665910  0.236500  0.832000  1.0  -0.5665
  O  O305  1  0.669110  0.750500  0.525000  1.0  -0.5681
  O  O306  1  0.733610  0.601600  0.584700  1.0  -0.5916
  O  O307  1  0.730300  0.387400  0.888400  1.0  -0.5876
  O  O308  1  0.498100  0.376500  0.578700  1.0  -0.5983
  O  O309  1  0.165910  0.263500  0.332000  1.0  -0.5668
  O  O310  1  0.169110  0.749500  0.025000  1.0  -0.5677
  O  O311  1  0.233610  0.898400  0.084700  1.0  -0.5921
  O  O312  1  0.230300  0.112600  0.388400  1.0  -0.5871
  O  O313  1  0.998100  0.123500  0.078700  1.0  -0.5973
  O  O314  1  0.665910  0.763500  0.332000  1.0  -0.5668
  O  O315  1  0.669110  0.249500  0.025000  1.0  -0.5677
  O  O316  1  0.733610  0.398400  0.084700  1.0  -0.5921
  O  O317  1  0.730300  0.612600  0.388400  1.0  -0.5871
  O  O318  1  0.498100  0.623500  0.078700  1.0  -0.5973
  O  O319  1  0.834090  0.263500  0.168000  1.0  -0.5668
  O  O320  1  0.830890  0.749500  0.475000  1.0  -0.5679
  O  O321  1  0.766390  0.898400  0.415300  1.0  -0.5924
  O  O322  1  0.769700  0.112600  0.111600  1.0  -0.5866
  O  O323  1  0.001900  0.123500  0.421300  1.0  -0.6001
  O  O324  1  0.334090  0.763500  0.168000  1.0  -0.5668
  O  O325  1  0.330890  0.249500  0.475000  1.0  -0.5679
  O  O326  1  0.266390  0.398400  0.415300  1.0  -0.5924
  O  O327  1  0.269700  0.612600  0.111600  1.0  -0.5866
  O  O328  1  0.501900  0.623500  0.421300  1.0  -0.6001
