# generated using pymatgen
data_ZnH14C15N3O4
_symmetry_space_group_name_H-M   'P 1'
_cell_length_a   27.51850000
_cell_length_b   10.42470000
_cell_length_c   14.86560000
_cell_angle_alpha   90.00000000
_cell_angle_beta   117.54100000
_cell_angle_gamma   90.00000000
_symmetry_Int_Tables_number   1
_chemical_formula_structural   ZnH14C15N3O4
_chemical_formula_sum   'Zn8 H112 C120 N24 O32'
_cell_volume   3781.27069957
_cell_formula_units_Z   8
loop_
 _symmetry_equiv_pos_site_id
 _symmetry_equiv_pos_as_xyz
  1  'x, y, z'
loop_
 _atom_site_type_symbol
 _atom_site_label
 _atom_site_symmetry_multiplicity
 _atom_site_fract_x
 _atom_site_fract_y
 _atom_site_fract_z
 _atom_site_occupancy
 _atom_site_charge
  Zn  Zn1  1  0.291300  0.360240  0.033770  1.0  0.9501
  Zn  Zn2  1  0.791300  0.860240  0.033770  1.0  0.9501
  Zn  Zn3  1  0.708700  0.360240  0.466230  1.0  0.9494
  Zn  Zn4  1  0.208700  0.860240  0.466230  1.0  0.9494
  Zn  Zn5  1  0.708700  0.639760  0.966230  1.0  0.9493
  Zn  Zn6  1  0.208700  0.139760  0.966230  1.0  0.9493
  Zn  Zn7  1  0.291300  0.639760  0.533770  1.0  0.95
  Zn  Zn8  1  0.791300  0.139760  0.533770  1.0  0.95
  H  H9  1  0.371800  0.843800  0.207800  1.0  0.0755
  H  H10  1  0.356300  0.922300  0.108600  1.0  0.0995
  H  H11  1  0.079800  0.382900  0.997700  1.0  0.1186
  H  H12  1  0.318600  0.553100  0.900600  1.0  0.1252
  H  H13  1  0.356200  0.770200  0.956400  1.0  0.0953
  H  H14  1  0.298100  0.585200  0.200000  1.0  0.1198
  H  H15  1  0.347300  0.680600  0.253800  1.0  0.1126
  H  H16  1  0.358500  0.533800  0.249800  1.0  0.1336
  H  H17  1  0.445700  0.953900  0.214700  1.0  0.0801
  H  H18  1  0.440900  0.878300  0.119900  1.0  0.0904
  H  H19  1  0.222200  0.503500  0.225900  1.0  0.1054
  H  H20  1  0.080300  0.654700  0.191200  1.0  0.1231
  H  H21  1  0.480600  0.781100  0.319800  1.0  0.0853
  H  H22  1  0.457300  0.682900  0.229600  1.0  0.0719
  H  H23  1  0.871800  0.343800  0.207800  1.0  0.0755
  H  H24  1  0.856300  0.422300  0.108600  1.0  0.0995
  H  H25  1  0.579800  0.882900  0.997700  1.0  0.1186
  H  H26  1  0.818600  0.053100  0.900600  1.0  0.1252
  H  H27  1  0.856200  0.270200  0.956400  1.0  0.0953
  H  H28  1  0.798100  0.085200  0.200000  1.0  0.1198
  H  H29  1  0.847300  0.180600  0.253800  1.0  0.1126
  H  H30  1  0.858500  0.033800  0.249800  1.0  0.1336
  H  H31  1  0.945700  0.453900  0.214700  1.0  0.0801
  H  H32  1  0.940900  0.378300  0.119900  1.0  0.0904
  H  H33  1  0.722200  0.003500  0.225900  1.0  0.1054
  H  H34  1  0.580300  0.154700  0.191200  1.0  0.1231
  H  H35  1  0.980600  0.281100  0.319800  1.0  0.0853
  H  H36  1  0.957300  0.182900  0.229600  1.0  0.0719
  H  H37  1  0.628200  0.843800  0.292200  1.0  0.0758
  H  H38  1  0.643700  0.922300  0.391400  1.0  0.0997
  H  H39  1  0.920200  0.382900  0.502300  1.0  0.1185
  H  H40  1  0.681400  0.553100  0.599400  1.0  0.1258
  H  H41  1  0.643800  0.770200  0.543600  1.0  0.0954
  H  H42  1  0.701900  0.585200  0.300000  1.0  0.1207
  H  H43  1  0.652700  0.680600  0.246200  1.0  0.1128
  H  H44  1  0.641500  0.533800  0.250200  1.0  0.1328
  H  H45  1  0.554300  0.953900  0.285300  1.0  0.0802
  H  H46  1  0.559100  0.878300  0.380100  1.0  0.0896
  H  H47  1  0.777800  0.503500  0.274100  1.0  0.1052
  H  H48  1  0.919700  0.654700  0.308800  1.0  0.123
  H  H49  1  0.519400  0.781100  0.180200  1.0  0.0857
  H  H50  1  0.542700  0.682900  0.270400  1.0  0.0717
  H  H51  1  0.128200  0.343800  0.292200  1.0  0.0758
  H  H52  1  0.143700  0.422300  0.391400  1.0  0.0997
  H  H53  1  0.420200  0.882900  0.502300  1.0  0.1185
  H  H54  1  0.181400  0.053100  0.599400  1.0  0.1258
  H  H55  1  0.143800  0.270200  0.543600  1.0  0.0954
  H  H56  1  0.201900  0.085200  0.300000  1.0  0.1207
  H  H57  1  0.152700  0.180600  0.246200  1.0  0.1128
  H  H58  1  0.141500  0.033800  0.250200  1.0  0.1328
  H  H59  1  0.054300  0.453900  0.285300  1.0  0.0802
  H  H60  1  0.059100  0.378300  0.380100  1.0  0.0896
  H  H61  1  0.277800  0.003500  0.274100  1.0  0.1052
  H  H62  1  0.419700  0.154700  0.308800  1.0  0.123
  H  H63  1  0.019400  0.281100  0.180200  1.0  0.0857
  H  H64  1  0.042700  0.182900  0.270400  1.0  0.0717
  H  H65  1  0.628200  0.156200  0.792200  1.0  0.0758
  H  H66  1  0.643700  0.077700  0.891400  1.0  0.1002
  H  H67  1  0.920200  0.617100  0.002300  1.0  0.1182
  H  H68  1  0.681400  0.446900  0.099400  1.0  0.1249
  H  H69  1  0.643800  0.229800  0.043600  1.0  0.0955
  H  H70  1  0.701900  0.414800  0.800000  1.0  0.1207
  H  H71  1  0.652700  0.319400  0.746200  1.0  0.1131
  H  H72  1  0.641500  0.466200  0.750200  1.0  0.1328
  H  H73  1  0.554300  0.046100  0.785300  1.0  0.0797
  H  H74  1  0.559100  0.121700  0.880100  1.0  0.0901
  H  H75  1  0.777800  0.496500  0.774100  1.0  0.1052
  H  H76  1  0.919700  0.345300  0.808800  1.0  0.1234
  H  H77  1  0.519400  0.218900  0.680200  1.0  0.0862
  H  H78  1  0.542700  0.317100  0.770400  1.0  0.0756
  H  H79  1  0.128200  0.656200  0.792200  1.0  0.0758
  H  H80  1  0.143700  0.577700  0.891400  1.0  0.1002
  H  H81  1  0.420200  0.117100  0.002300  1.0  0.1182
  H  H82  1  0.181400  0.946900  0.099400  1.0  0.1249
  H  H83  1  0.143800  0.729800  0.043600  1.0  0.0955
  H  H84  1  0.201900  0.914800  0.800000  1.0  0.1207
  H  H85  1  0.152700  0.819400  0.746200  1.0  0.1131
  H  H86  1  0.141500  0.966200  0.750200  1.0  0.1328
  H  H87  1  0.054300  0.546100  0.785300  1.0  0.0797
  H  H88  1  0.059100  0.621700  0.880100  1.0  0.0901
  H  H89  1  0.277800  0.996500  0.774100  1.0  0.1052
  H  H90  1  0.419700  0.845300  0.808800  1.0  0.1234
  H  H91  1  0.019400  0.718900  0.680200  1.0  0.0862
  H  H92  1  0.042700  0.817100  0.770400  1.0  0.0756
  H  H93  1  0.371800  0.156200  0.707800  1.0  0.0753
  H  H94  1  0.356300  0.077700  0.608600  1.0  0.0987
  H  H95  1  0.079800  0.617100  0.497700  1.0  0.1187
  H  H96  1  0.318600  0.446900  0.400600  1.0  0.1248
  H  H97  1  0.356200  0.229800  0.456400  1.0  0.0954
  H  H98  1  0.298100  0.414800  0.700000  1.0  0.1198
  H  H99  1  0.347300  0.319400  0.753800  1.0  0.1131
  H  H100  1  0.358500  0.466200  0.749800  1.0  0.1324
  H  H101  1  0.445700  0.046100  0.714700  1.0  0.08
  H  H102  1  0.440900  0.121700  0.619900  1.0  0.0907
  H  H103  1  0.222200  0.496500  0.725900  1.0  0.1053
  H  H104  1  0.080300  0.345300  0.691200  1.0  0.1238
  H  H105  1  0.480600  0.218900  0.819800  1.0  0.0846
  H  H106  1  0.457300  0.317100  0.729600  1.0  0.0745
  H  H107  1  0.871800  0.656200  0.707800  1.0  0.0753
  H  H108  1  0.856300  0.577700  0.608600  1.0  0.0987
  H  H109  1  0.579800  0.117100  0.497700  1.0  0.1187
  H  H110  1  0.818600  0.946900  0.400600  1.0  0.1248
  H  H111  1  0.856200  0.729800  0.456400  1.0  0.0954
  H  H112  1  0.798100  0.914800  0.700000  1.0  0.1198
  H  H113  1  0.847300  0.819400  0.753800  1.0  0.1131
  H  H114  1  0.858500  0.966200  0.749800  1.0  0.1324
  H  H115  1  0.945700  0.546100  0.714700  1.0  0.08
  H  H116  1  0.940900  0.621700  0.619900  1.0  0.0907
  H  H117  1  0.722200  0.996500  0.725900  1.0  0.1053
  H  H118  1  0.580300  0.845300  0.691200  1.0  0.1238
  H  H119  1  0.980600  0.718900  0.819800  1.0  0.0846
  H  H120  1  0.957300  0.817100  0.729600  1.0  0.0745
  C  C121  1  0.155850  0.434100  0.104800  1.0  -0.1409
  C  C122  1  0.376800  0.848600  0.147500  1.0  -0.0294
  C  C123  1  0.098730  0.436500  0.053100  1.0  -0.0086
  C  C124  1  0.070290  0.520300  0.085300  1.0  0.1647
  C  C125  1  0.188040  0.353000  0.065100  1.0  0.703
  C  C126  1  0.327200  0.591000  0.962800  1.0  -0.0631
  C  C127  1  0.347400  0.711700  0.993900  1.0  -0.0809
  C  C128  1  0.335000  0.604000  0.213500  1.0  -0.4318
  C  C129  1  0.337000  0.623800  0.113900  1.0  0.3847
  C  C130  1  0.435500  0.872000  0.179800  1.0  -0.1747
  C  C131  1  0.184160  0.508200  0.190600  1.0  -0.0475
  C  C132  1  0.155980  0.590100  0.224500  1.0  -0.175
  C  C133  1  0.099170  0.597800  0.170500  1.0  -0.1543
  C  C134  1  0.187180  0.664600  0.321500  1.0  0.7049
  C  C135  1  0.474500  0.766300  0.251000  1.0  -0.1284
  C  C136  1  0.655850  0.934100  0.104800  1.0  -0.1409
  C  C137  1  0.876800  0.348600  0.147500  1.0  -0.0294
  C  C138  1  0.598730  0.936500  0.053100  1.0  -0.0086
  C  C139  1  0.570290  0.020300  0.085300  1.0  0.1647
  C  C140  1  0.688040  0.853000  0.065100  1.0  0.703
  C  C141  1  0.827200  0.091000  0.962800  1.0  -0.0631
  C  C142  1  0.847400  0.211700  0.993900  1.0  -0.0809
  C  C143  1  0.835000  0.104000  0.213500  1.0  -0.4318
  C  C144  1  0.837000  0.123800  0.113900  1.0  0.3847
  C  C145  1  0.935500  0.372000  0.179800  1.0  -0.1747
  C  C146  1  0.684160  0.008200  0.190600  1.0  -0.0475
  C  C147  1  0.655980  0.090100  0.224500  1.0  -0.175
  C  C148  1  0.599170  0.097800  0.170500  1.0  -0.1543
  C  C149  1  0.687180  0.164600  0.321500  1.0  0.7049
  C  C150  1  0.974500  0.266300  0.251000  1.0  -0.1284
  C  C151  1  0.844150  0.434100  0.395200  1.0  -0.1399
  C  C152  1  0.623200  0.848600  0.352500  1.0  -0.0298
  C  C153  1  0.901270  0.436500  0.446900  1.0  -0.0083
  C  C154  1  0.929710  0.520300  0.414700  1.0  0.1617
  C  C155  1  0.811960  0.353000  0.434900  1.0  0.7028
  C  C156  1  0.672800  0.591000  0.537200  1.0  -0.0628
  C  C157  1  0.652600  0.711700  0.506100  1.0  -0.0812
  C  C158  1  0.665000  0.604000  0.286500  1.0  -0.4304
  C  C159  1  0.663000  0.623800  0.386100  1.0  0.385
  C  C160  1  0.564500  0.872000  0.320200  1.0  -0.1742
  C  C161  1  0.815840  0.508200  0.309400  1.0  -0.0454
  C  C162  1  0.844020  0.590100  0.275500  1.0  -0.1742
  C  C163  1  0.900830  0.597800  0.329500  1.0  -0.1555
  C  C164  1  0.812820  0.664600  0.178500  1.0  0.7051
  C  C165  1  0.525500  0.766300  0.249000  1.0  -0.129
  C  C166  1  0.344150  0.934100  0.395200  1.0  -0.1399
  C  C167  1  0.123200  0.348600  0.352500  1.0  -0.0298
  C  C168  1  0.401270  0.936500  0.446900  1.0  -0.0083
  C  C169  1  0.429710  0.020300  0.414700  1.0  0.1617
  C  C170  1  0.311960  0.853000  0.434900  1.0  0.7028
  C  C171  1  0.172800  0.091000  0.537200  1.0  -0.0628
  C  C172  1  0.152600  0.211700  0.506100  1.0  -0.0812
  C  C173  1  0.165000  0.104000  0.286500  1.0  -0.4304
  C  C174  1  0.163000  0.123800  0.386100  1.0  0.385
  C  C175  1  0.064500  0.372000  0.320200  1.0  -0.1742
  C  C176  1  0.315840  0.008200  0.309400  1.0  -0.0454
  C  C177  1  0.344020  0.090100  0.275500  1.0  -0.1742
  C  C178  1  0.400830  0.097800  0.329500  1.0  -0.1555
  C  C179  1  0.312820  0.164600  0.178500  1.0  0.7051
  C  C180  1  0.025500  0.266300  0.249000  1.0  -0.129
  C  C181  1  0.844150  0.565900  0.895200  1.0  -0.1396
  C  C182  1  0.623200  0.151400  0.852500  1.0  -0.0298
  C  C183  1  0.901270  0.563500  0.946900  1.0  -0.008
  C  C184  1  0.929710  0.479700  0.914700  1.0  0.1623
  C  C185  1  0.811960  0.647000  0.934900  1.0  0.7027
  C  C186  1  0.672800  0.409000  0.037200  1.0  -0.0633
  C  C187  1  0.652600  0.288300  0.006100  1.0  -0.0806
  C  C188  1  0.665000  0.396000  0.786500  1.0  -0.431
  C  C189  1  0.663000  0.376200  0.886100  1.0  0.3865
  C  C190  1  0.564500  0.128000  0.820200  1.0  -0.1759
  C  C191  1  0.815840  0.491800  0.809400  1.0  -0.0456
  C  C192  1  0.844020  0.409900  0.775500  1.0  -0.1739
  C  C193  1  0.900830  0.402200  0.829500  1.0  -0.1524
  C  C194  1  0.812820  0.335400  0.678500  1.0  0.7048
  C  C195  1  0.525500  0.233700  0.749000  1.0  -0.1305
  C  C196  1  0.344150  0.065900  0.895200  1.0  -0.1396
  C  C197  1  0.123200  0.651400  0.852500  1.0  -0.0298
  C  C198  1  0.401270  0.063500  0.946900  1.0  -0.008
  C  C199  1  0.429710  0.979700  0.914700  1.0  0.1623
  C  C200  1  0.311960  0.147000  0.934900  1.0  0.7027
  C  C201  1  0.172800  0.909000  0.037200  1.0  -0.0633
  C  C202  1  0.152600  0.788300  0.006100  1.0  -0.0806
  C  C203  1  0.165000  0.896000  0.786500  1.0  -0.431
  C  C204  1  0.163000  0.876200  0.886100  1.0  0.3865
  C  C205  1  0.064500  0.628000  0.820200  1.0  -0.1759
  C  C206  1  0.315840  0.991800  0.809400  1.0  -0.0456
  C  C207  1  0.344020  0.909900  0.775500  1.0  -0.1739
  C  C208  1  0.400830  0.902200  0.829500  1.0  -0.1524
  C  C209  1  0.312820  0.835400  0.678500  1.0  0.7048
  C  C210  1  0.025500  0.733700  0.749000  1.0  -0.1305
  C  C211  1  0.155850  0.565900  0.604800  1.0  -0.1405
  C  C212  1  0.376800  0.151400  0.647500  1.0  -0.0293
  C  C213  1  0.098730  0.563500  0.553100  1.0  -0.009
  C  C214  1  0.070290  0.479700  0.585300  1.0  0.1648
  C  C215  1  0.188040  0.647000  0.565100  1.0  0.7029
  C  C216  1  0.327200  0.409000  0.462800  1.0  -0.0625
  C  C217  1  0.347400  0.288300  0.493900  1.0  -0.0795
  C  C218  1  0.335000  0.396000  0.713500  1.0  -0.4313
  C  C219  1  0.337000  0.376200  0.613900  1.0  0.3861
  C  C220  1  0.435500  0.128000  0.679800  1.0  -0.1766
  C  C221  1  0.184160  0.491800  0.690600  1.0  -0.0475
  C  C222  1  0.155980  0.409900  0.724500  1.0  -0.1746
  C  C223  1  0.099170  0.402200  0.670500  1.0  -0.1508
  C  C224  1  0.187180  0.335400  0.821500  1.0  0.7052
  C  C225  1  0.474500  0.233700  0.751000  1.0  -0.1311
  C  C226  1  0.655850  0.065900  0.604800  1.0  -0.1405
  C  C227  1  0.876800  0.651400  0.647500  1.0  -0.0293
  C  C228  1  0.598730  0.063500  0.553100  1.0  -0.009
  C  C229  1  0.570290  0.979700  0.585300  1.0  0.1648
  C  C230  1  0.688040  0.147000  0.565100  1.0  0.7029
  C  C231  1  0.827200  0.909000  0.462800  1.0  -0.0625
  C  C232  1  0.847400  0.788300  0.493900  1.0  -0.0795
  C  C233  1  0.835000  0.896000  0.713500  1.0  -0.4313
  C  C234  1  0.837000  0.876200  0.613900  1.0  0.3861
  C  C235  1  0.935500  0.628000  0.679800  1.0  -0.1766
  C  C236  1  0.684160  0.991800  0.690600  1.0  -0.0475
  C  C237  1  0.655980  0.909900  0.724500  1.0  -0.1746
  C  C238  1  0.599170  0.902200  0.670500  1.0  -0.1508
  C  C239  1  0.687180  0.835400  0.821500  1.0  0.7052
  C  C240  1  0.974500  0.733700  0.751000  1.0  -0.1311
  N  N241  1  0.352600  0.732500  0.086400  1.0  0.0368
  N  N242  1  0.012580  0.535000  0.037500  1.0  -0.1708
  N  N243  1  0.322200  0.535900  0.044200  1.0  -0.3993
  N  N244  1  0.852600  0.232500  0.086400  1.0  0.0368
  N  N245  1  0.512580  0.035000  0.037500  1.0  -0.1708
  N  N246  1  0.822200  0.035900  0.044200  1.0  -0.3993
  N  N247  1  0.647400  0.732500  0.413600  1.0  0.0374
  N  N248  1  0.987420  0.535000  0.462500  1.0  -0.1697
  N  N249  1  0.677800  0.535900  0.455800  1.0  -0.3987
  N  N250  1  0.147400  0.232500  0.413600  1.0  0.0374
  N  N251  1  0.487420  0.035000  0.462500  1.0  -0.1697
  N  N252  1  0.177800  0.035900  0.455800  1.0  -0.3987
  N  N253  1  0.647400  0.267500  0.913600  1.0  0.0377
  N  N254  1  0.987420  0.465000  0.962500  1.0  -0.1697
  N  N255  1  0.677800  0.464100  0.955800  1.0  -0.3984
  N  N256  1  0.147400  0.767500  0.913600  1.0  0.0377
  N  N257  1  0.487420  0.965000  0.962500  1.0  -0.1697
  N  N258  1  0.177800  0.964100  0.955800  1.0  -0.3984
  N  N259  1  0.352600  0.267500  0.586400  1.0  0.0374
  N  N260  1  0.012580  0.465000  0.537500  1.0  -0.1699
  N  N261  1  0.322200  0.464100  0.544200  1.0  -0.3975
  N  N262  1  0.852600  0.767500  0.586400  1.0  0.0374
  N  N263  1  0.512580  0.965000  0.537500  1.0  -0.1699
  N  N264  1  0.822200  0.964100  0.544200  1.0  -0.3975
  O  O265  1  0.167370  0.250200  0.021300  1.0  -0.5908
  O  O266  1  0.232910  0.399900  0.079400  1.0  -0.6028
  O  O267  1  0.165890  0.765300  0.331900  1.0  -0.5813
  O  O268  1  0.231530  0.616100  0.384500  1.0  -0.6066
  O  O269  1  0.667370  0.750200  0.021300  1.0  -0.5908
  O  O270  1  0.732910  0.899900  0.079400  1.0  -0.6028
  O  O271  1  0.665890  0.265300  0.331900  1.0  -0.5813
  O  O272  1  0.731530  0.116100  0.384500  1.0  -0.6066
  O  O273  1  0.832630  0.250200  0.478700  1.0  -0.5904
  O  O274  1  0.767090  0.399900  0.420600  1.0  -0.6039
  O  O275  1  0.834110  0.765300  0.168100  1.0  -0.5806
  O  O276  1  0.768470  0.616100  0.115500  1.0  -0.6074
  O  O277  1  0.332630  0.750200  0.478700  1.0  -0.5904
  O  O278  1  0.267090  0.899900  0.420600  1.0  -0.6039
  O  O279  1  0.334110  0.265300  0.168100  1.0  -0.5806
  O  O280  1  0.268470  0.116100  0.115500  1.0  -0.6074
  O  O281  1  0.832630  0.749800  0.978700  1.0  -0.5898
  O  O282  1  0.767090  0.600100  0.920600  1.0  -0.6034
  O  O283  1  0.834110  0.234700  0.668100  1.0  -0.5798
  O  O284  1  0.768470  0.383900  0.615500  1.0  -0.6074
  O  O285  1  0.332630  0.249800  0.978700  1.0  -0.5898
  O  O286  1  0.267090  0.100100  0.920600  1.0  -0.6034
  O  O287  1  0.334110  0.734700  0.668100  1.0  -0.5798
  O  O288  1  0.268470  0.883900  0.615500  1.0  -0.6074
  O  O289  1  0.167370  0.749800  0.521300  1.0  -0.5905
  O  O290  1  0.232910  0.600100  0.579400  1.0  -0.6022
  O  O291  1  0.165890  0.234700  0.831900  1.0  -0.5808
  O  O292  1  0.231530  0.383900  0.884500  1.0  -0.6067
  O  O293  1  0.667370  0.249800  0.521300  1.0  -0.5905
  O  O294  1  0.732910  0.100100  0.579400  1.0  -0.6022
  O  O295  1  0.665890  0.734700  0.831900  1.0  -0.5808
  O  O296  1  0.731530  0.883900  0.884500  1.0  -0.6067
