# generated using pymatgen
data_ZnH12(C3O)8
_symmetry_space_group_name_H-M   'P 1'
_cell_length_a   10.19500000
_cell_length_b   21.34200000
_cell_length_c   18.53300000
_cell_angle_alpha   90.00000000
_cell_angle_beta   102.96000000
_cell_angle_gamma   90.00000000
_symmetry_Int_Tables_number   1
_chemical_formula_structural   ZnH12(C3O)8
_chemical_formula_sum   'Zn4 H48 C96 O32'
_cell_volume   3929.72256646
_cell_formula_units_Z   4
loop_
 _symmetry_equiv_pos_site_id
 _symmetry_equiv_pos_as_xyz
  1  'x, y, z'
loop_
 _atom_site_type_symbol
 _atom_site_label
 _atom_site_symmetry_multiplicity
 _atom_site_fract_x
 _atom_site_fract_y
 _atom_site_fract_z
 _atom_site_occupancy
 _atom_site_charge
  Zn  Zn1  1  0.348430  0.650820  0.786060  1.0  1.1321
  Zn  Zn2  1  0.651570  0.150820  0.713940  1.0  1.1322
  Zn  Zn3  1  0.651570  0.349180  0.213940  1.0  1.1322
  Zn  Zn4  1  0.348430  0.849180  0.286060  1.0  1.1321
  H  H5  1  0.122500  0.641300  0.955600  1.0  0.1194
  H  H6  1  0.180600  0.457400  0.929500  1.0  0.1097
  H  H7  1  0.963200  0.620000  0.021600  1.0  0.0904
  H  H8  1  0.276900  0.553100  0.522000  1.0  0.1226
  H  H9  1  0.592600  0.516200  0.689200  1.0  0.1183
  H  H10  1  0.708200  0.471400  0.608300  1.0  0.1357
  H  H11  1  0.628900  0.681600  0.985400  1.0  0.1149
  H  H12  1  0.727900  0.674000  0.121800  1.0  0.1213
  H  H13  1  0.898300  0.694300  0.222400  1.0  0.1141
  H  H14  1  0.107300  0.782300  0.093100  1.0  0.1127
  H  H15  1  0.011900  0.789000  0.955300  1.0  0.1306
  H  H16  1  0.840800  0.767100  0.855100  1.0  0.1128
  H  H17  1  0.877500  0.141300  0.544400  1.0  0.1196
  H  H18  1  0.819400  0.957400  0.570500  1.0  0.1097
  H  H19  1  0.036800  0.120000  0.478400  1.0  0.0906
  H  H20  1  0.723100  0.053100  0.978000  1.0  0.1223
  H  H21  1  0.407400  0.016200  0.810800  1.0  0.1185
  H  H22  1  0.291800  0.971400  0.891700  1.0  0.1368
  H  H23  1  0.371100  0.181600  0.514600  1.0  0.115
  H  H24  1  0.272100  0.174000  0.378200  1.0  0.1212
  H  H25  1  0.101700  0.194300  0.277600  1.0  0.1139
  H  H26  1  0.892700  0.282300  0.406900  1.0  0.112
  H  H27  1  0.988100  0.289000  0.544700  1.0  0.1305
  H  H28  1  0.159200  0.267100  0.644900  1.0  0.1129
  H  H29  1  0.877500  0.358700  0.044400  1.0  0.1194
  H  H30  1  0.819400  0.542600  0.070500  1.0  0.1097
  H  H31  1  0.036800  0.380000  0.978400  1.0  0.0912
  H  H32  1  0.723100  0.446900  0.478000  1.0  0.122
  H  H33  1  0.407400  0.483800  0.310800  1.0  0.1183
  H  H34  1  0.291800  0.528600  0.391700  1.0  0.1365
  H  H35  1  0.371100  0.318400  0.014600  1.0  0.1153
  H  H36  1  0.272100  0.326000  0.878200  1.0  0.1216
  H  H37  1  0.101700  0.305700  0.777600  1.0  0.1142
  H  H38  1  0.892700  0.217700  0.906900  1.0  0.1123
  H  H39  1  0.988100  0.211000  0.044700  1.0  0.1302
  H  H40  1  0.159200  0.232900  0.144900  1.0  0.1123
  H  H41  1  0.122500  0.858700  0.455600  1.0  0.1194
  H  H42  1  0.180600  0.042600  0.429500  1.0  0.1099
  H  H43  1  0.963200  0.880000  0.521600  1.0  0.0908
  H  H44  1  0.276900  0.946900  0.022000  1.0  0.1225
  H  H45  1  0.592600  0.983800  0.189200  1.0  0.118
  H  H46  1  0.708200  0.028600  0.108300  1.0  0.1361
  H  H47  1  0.628900  0.818400  0.485400  1.0  0.115
  H  H48  1  0.727900  0.826000  0.621800  1.0  0.1214
  H  H49  1  0.898300  0.805700  0.722400  1.0  0.1139
  H  H50  1  0.107300  0.717700  0.593100  1.0  0.1123
  H  H51  1  0.011900  0.711000  0.455300  1.0  0.1301
  H  H52  1  0.840800  0.732900  0.355100  1.0  0.1123
  C  C53  1  0.263500  0.565700  0.886800  1.0  0.6743
  C  C54  1  0.100600  0.600000  0.963500  1.0  -0.0817
  C  C55  1  0.166700  0.550200  0.935000  1.0  -0.1184
  C  C56  1  0.134800  0.489700  0.946800  1.0  -0.0311
  C  C57  1  0.032400  0.475200  0.985500  1.0  0.0537
  C  C58  1  0.004800  0.587100  0.002500  1.0  -0.0703
  C  C59  1  0.134200  0.754500  0.234100  1.0  0.6815
  C  C60  1  0.350500  0.568100  0.666667  1.0  0.6671
  C  C61  1  0.363700  0.537600  0.538600  1.0  -0.0255
  C  C62  1  0.422800  0.539000  0.612700  1.0  -0.0955
  C  C63  1  0.553200  0.514700  0.638800  1.0  -0.0562
  C  C64  1  0.623200  0.488500  0.590500  1.0  -0.0701
  C  C65  1  0.434900  0.512200  0.486000  1.0  0.0461
  C  C66  1  0.602400  0.709700  0.844200  1.0  0.68
  C  C67  1  0.716900  0.721900  0.910700  1.0  -0.1252
  C  C68  1  0.705800  0.702800  0.979900  1.0  -0.0593
  C  C69  1  0.811200  0.715000  0.043700  1.0  0.0192
  C  C70  1  0.803700  0.695600  0.115400  1.0  -0.0727
  C  C71  1  0.905200  0.707700  0.175600  1.0  -0.0598
  C  C72  1  0.021600  0.740900  0.166700  1.0  -0.1461
  C  C73  1  0.031200  0.760300  0.098300  1.0  -0.0378
  C  C74  1  0.927100  0.747800  0.033900  1.0  0.0425
  C  C75  1  0.936200  0.767400  0.961800  1.0  -0.0914
  C  C76  1  0.833700  0.754400  0.902100  1.0  -0.0475
  C  C77  1  0.736500  0.065700  0.613200  1.0  0.6754
  C  C78  1  0.899400  0.100000  0.536500  1.0  -0.081
  C  C79  1  0.833300  0.050200  0.565000  1.0  -0.1179
  C  C80  1  0.865200  0.989700  0.553200  1.0  -0.032
  C  C81  1  0.967600  0.975200  0.514500  1.0  0.0538
  C  C82  1  0.995200  0.087100  0.497500  1.0  -0.0693
  C  C83  1  0.865800  0.254500  0.265900  1.0  0.6811
  C  C84  1  0.649500  0.068100  0.833300  1.0  0.6658
  C  C85  1  0.636300  0.037600  0.961400  1.0  -0.024
  C  C86  1  0.577200  0.039000  0.887300  1.0  -0.0957
  C  C87  1  0.446800  0.014700  0.861200  1.0  -0.0573
  C  C88  1  0.376800  0.988500  0.909500  1.0  -0.0717
  C  C89  1  0.565100  0.012200  0.014000  1.0  0.0441
  C  C90  1  0.397600  0.209700  0.655800  1.0  0.6793
  C  C91  1  0.283100  0.221900  0.589300  1.0  -0.1244
  C  C92  1  0.294200  0.202800  0.520100  1.0  -0.06
  C  C93  1  0.188800  0.215000  0.456300  1.0  0.0197
  C  C94  1  0.196300  0.195600  0.384600  1.0  -0.0736
  C  C95  1  0.094800  0.207700  0.324400  1.0  -0.0598
  C  C96  1  0.978400  0.240900  0.333333  1.0  -0.1472
  C  C97  1  0.968800  0.260300  0.401700  1.0  -0.037
  C  C98  1  0.072900  0.247800  0.466100  1.0  0.0423
  C  C99  1  0.063800  0.267400  0.538200  1.0  -0.0918
  C  C100  1  0.166300  0.254400  0.597900  1.0  -0.0473
  C  C101  1  0.736500  0.434300  0.113200  1.0  0.675
  C  C102  1  0.899400  0.400000  0.036500  1.0  -0.0807
  C  C103  1  0.833300  0.449800  0.065000  1.0  -0.118
  C  C104  1  0.865200  0.510300  0.053200  1.0  -0.0322
  C  C105  1  0.967600  0.524800  0.014500  1.0  0.0538
  C  C106  1  0.995200  0.412900  0.997500  1.0  -0.0631
  C  C107  1  0.865800  0.245500  0.765900  1.0  0.681
  C  C108  1  0.649500  0.431900  0.333333  1.0  0.6657
  C  C109  1  0.636300  0.462400  0.461400  1.0  -0.0238
  C  C110  1  0.577200  0.461000  0.387300  1.0  -0.096
  C  C111  1  0.446800  0.485300  0.361200  1.0  -0.0574
  C  C112  1  0.376800  0.511500  0.409500  1.0  -0.0732
  C  C113  1  0.565100  0.487800  0.514000  1.0  0.0443
  C  C114  1  0.397600  0.290300  0.155800  1.0  0.6799
  C  C115  1  0.283100  0.278100  0.089300  1.0  -0.1246
  C  C116  1  0.294200  0.297200  0.020100  1.0  -0.0597
  C  C117  1  0.188800  0.285000  0.956300  1.0  0.0179
  C  C118  1  0.196300  0.304400  0.884600  1.0  -0.0718
  C  C119  1  0.094800  0.292300  0.824400  1.0  -0.0597
  C  C120  1  0.978400  0.259100  0.833300  1.0  -0.1466
  C  C121  1  0.968800  0.239700  0.901700  1.0  -0.0389
  C  C122  1  0.072900  0.252200  0.966100  1.0  0.0415
  C  C123  1  0.063800  0.232600  0.038200  1.0  -0.0914
  C  C124  1  0.166300  0.245600  0.097900  1.0  -0.0486
  C  C125  1  0.263500  0.934300  0.386800  1.0  0.6741
  C  C126  1  0.100600  0.900000  0.463500  1.0  -0.081
  C  C127  1  0.166700  0.949800  0.435000  1.0  -0.1186
  C  C128  1  0.134800  0.010300  0.446800  1.0  -0.0314
  C  C129  1  0.032400  0.024800  0.485500  1.0  0.0537
  C  C130  1  0.004800  0.912900  0.502500  1.0  -0.0645
  C  C131  1  0.134200  0.745500  0.734100  1.0  0.6812
  C  C132  1  0.350500  0.931900  0.166700  1.0  0.6667
  C  C133  1  0.363700  0.962400  0.038600  1.0  -0.0258
  C  C134  1  0.422800  0.961000  0.112700  1.0  -0.0966
  C  C135  1  0.553200  0.985300  0.138800  1.0  -0.0562
  C  C136  1  0.623200  0.011500  0.090500  1.0  -0.0714
  C  C137  1  0.434900  0.987800  0.986000  1.0  0.0458
  C  C138  1  0.602400  0.790300  0.344200  1.0  0.68
  C  C139  1  0.716900  0.778100  0.410700  1.0  -0.1254
  C  C140  1  0.705800  0.797200  0.479900  1.0  -0.0597
  C  C141  1  0.811200  0.785000  0.543700  1.0  0.0186
  C  C142  1  0.803700  0.804400  0.615400  1.0  -0.0746
  C  C143  1  0.905200  0.792300  0.675600  1.0  -0.0598
  C  C144  1  0.021600  0.759100  0.666667  1.0  -0.1465
  C  C145  1  0.031200  0.739700  0.598300  1.0  -0.0354
  C  C146  1  0.927100  0.752200  0.533900  1.0  0.0418
  C  C147  1  0.936200  0.732600  0.461800  1.0  -0.0938
  C  C148  1  0.833700  0.745600  0.402100  1.0  -0.0481
  O  O149  1  0.356800  0.529000  0.883700  1.0  -0.4574
  O  O150  1  0.238700  0.615770  0.849800  1.0  -0.5673
  O  O151  1  0.130600  0.730400  0.294800  1.0  -0.4856
  O  O152  1  0.230000  0.789110  0.222200  1.0  -0.6077
  O  O153  1  0.227500  0.559100  0.660100  1.0  -0.4534
  O  O154  1  0.424700  0.600800  0.717440  1.0  -0.5686
  O  O155  1  0.616200  0.724470  0.781500  1.0  -0.4905
  O  O156  1  0.498700  0.684660  0.859400  1.0  -0.5832
  O  O157  1  0.643200  0.029000  0.616300  1.0  -0.4574
  O  O158  1  0.761300  0.115770  0.650200  1.0  -0.5664
  O  O159  1  0.869400  0.230400  0.205200  1.0  -0.4828
  O  O160  1  0.770000  0.289110  0.277800  1.0  -0.6087
  O  O161  1  0.772500  0.059100  0.839900  1.0  -0.4499
  O  O162  1  0.575300  0.100800  0.782560  1.0  -0.5619
  O  O163  1  0.383800  0.224470  0.718500  1.0  -0.4918
  O  O164  1  0.501300  0.184660  0.640600  1.0  -0.5828
  O  O165  1  0.643200  0.471000  0.116300  1.0  -0.4577
  O  O166  1  0.761300  0.384230  0.150200  1.0  -0.5666
  O  O167  1  0.869400  0.269600  0.705200  1.0  -0.4852
  O  O168  1  0.770000  0.210890  0.777800  1.0  -0.6082
  O  O169  1  0.772500  0.440900  0.339900  1.0  -0.4507
  O  O170  1  0.575300  0.399200  0.282560  1.0  -0.5687
  O  O171  1  0.383800  0.275530  0.218500  1.0  -0.4913
  O  O172  1  0.501300  0.315340  0.140600  1.0  -0.5826
  O  O173  1  0.356800  0.971000  0.383700  1.0  -0.4565
  O  O174  1  0.238700  0.884230  0.349800  1.0  -0.5667
  O  O175  1  0.130600  0.769600  0.794800  1.0  -0.4847
  O  O176  1  0.230000  0.710890  0.722200  1.0  -0.607
  O  O177  1  0.227500  0.940900  0.160100  1.0  -0.4554
  O  O178  1  0.424700  0.899200  0.217440  1.0  -0.5627
  O  O179  1  0.616200  0.775530  0.281500  1.0  -0.4898
  O  O180  1  0.498700  0.815340  0.359400  1.0  -0.5833
