# generated using pymatgen
data_CuH10C16(NO)4
_symmetry_space_group_name_H-M   'P 1'
_cell_length_a   11.80740000
_cell_length_b   12.02870000
_cell_length_c   12.58150000
_cell_angle_alpha   77.50800000
_cell_angle_beta   88.50500000
_cell_angle_gamma   62.82300000
_symmetry_Int_Tables_number   1
_chemical_formula_structural   CuH10C16(NO)4
_chemical_formula_sum   'Cu3 H30 C48 N12 O12'
_cell_volume   1546.56456773
_cell_formula_units_Z   3
loop_
 _symmetry_equiv_pos_site_id
 _symmetry_equiv_pos_as_xyz
  1  'x, y, z'
loop_
 _atom_site_type_symbol
 _atom_site_label
 _atom_site_symmetry_multiplicity
 _atom_site_fract_x
 _atom_site_fract_y
 _atom_site_fract_z
 _atom_site_occupancy
 _atom_site_charge
  Cu  Cu1  1  0.962660  0.391110  0.258230  1.0  0.7744
  Cu  Cu2  1  0.928780  0.919650  0.795210  1.0  0.8856
  Cu  Cu3  1  0.412900  0.902960  0.273910  1.0  0.8223
  H  H4  1  0.909800  0.681500  0.522100  1.0  0.1194
  H  H5  1  0.138200  0.847200  0.498500  1.0  0.0997
  H  H6  1  0.143900  0.651900  0.273100  1.0  0.1146
  H  H7  1  0.605200  0.215300  0.280800  1.0  0.1097
  H  H8  1  0.864200  0.197200  0.064000  1.0  0.0969
  H  H9  1  0.665500  0.004000  0.058100  1.0  0.098
  H  H10  1  0.112300  0.122000  0.776600  1.0  0.1273
  H  H11  1  0.456100  0.074700  0.881700  1.0  0.1265
  H  H12  1  0.360600  0.150700  0.556300  1.0  0.1287
  H  H13  1  0.163800  0.307000  0.455100  1.0  0.0987
  H  H14  1  0.923300  0.167800  0.431800  1.0  0.1039
  H  H15  1  0.042700  0.067500  0.610400  1.0  0.0994
  H  H16  1  0.437000  0.952200  0.031400  1.0  0.1054
  H  H17  1  0.060300  0.150900  0.965900  1.0  0.1308
  H  H18  1  0.110200  0.059800  0.162200  1.0  0.1045
  H  H19  1  0.656300  0.974700  0.831400  1.0  0.11
  H  H20  1  0.761800  0.135100  0.568500  1.0  0.1149
  H  H21  1  0.535400  0.211100  0.544800  1.0  0.1123
  H  H22  1  0.525700  0.674800  0.002400  1.0  0.1143
  H  H23  1  0.742300  0.697800  0.750500  1.0  0.1123
  H  H24  1  0.362000  0.832000  0.695300  1.0  0.1108
  H  H25  1  0.205900  0.805100  0.747500  1.0  0.1101
  H  H26  1  0.085300  0.813400  0.039500  1.0  0.1105
  H  H27  1  0.315900  0.753700  0.057600  1.0  0.1387
  H  H28  1  0.728200  0.504400  0.088400  1.0  0.0858
  H  H29  1  0.871400  0.714200  0.902300  1.0  0.1263
  H  H30  1  0.008500  0.591600  0.072700  1.0  0.1028
  H  H31  1  0.413000  0.803800  0.521100  1.0  0.0865
  H  H32  1  0.722400  0.833400  0.580200  1.0  0.1181
  H  H33  1  0.670300  0.884500  0.379000  1.0  0.1158
  C  C34  1  0.016500  0.655900  0.389800  1.0  -0.1359
  C  C35  1  0.972100  0.698400  0.486200  1.0  -0.1029
  C  C36  1  0.022800  0.764600  0.525000  1.0  -0.1183
  C  C37  1  0.110800  0.796300  0.472300  1.0  -0.012
  C  C38  1  0.159300  0.751400  0.378500  1.0  -0.1553
  C  C39  1  0.112900  0.681400  0.335600  1.0  -0.0556
  C  C40  1  0.962900  0.581700  0.347400  1.0  0.6819
  C  C41  1  0.977100  0.805200  0.630700  1.0  0.6717
  C  C42  1  0.260700  0.776400  0.321400  1.0  0.7186
  C  C43  1  0.621100  0.100100  0.175900  1.0  -0.1186
  C  C44  1  0.650700  0.181800  0.224200  1.0  0.0177
  C  C45  1  0.746900  0.210800  0.186700  1.0  -0.1638
  C  C46  1  0.805900  0.169600  0.093700  1.0  -0.073
  C  C47  1  0.781100  0.091400  0.045800  1.0  -0.0923
  C  C48  1  0.684900  0.057100  0.089600  1.0  -0.0022
  C  C49  1  0.517300  0.064000  0.217400  1.0  0.6891
  C  C50  1  0.781400  0.290300  0.241400  1.0  0.6557
  C  C51  1  0.846800  0.051500  0.949500  1.0  0.6838
  C  C52  1  0.223200  0.143200  0.655000  1.0  0.1459
  C  C53  1  0.190900  0.119400  0.761800  1.0  -0.1971
  C  C54  1  0.279600  0.092200  0.844000  1.0  0.1386
  C  C55  1  0.399200  0.088700  0.824600  1.0  -0.1712
  C  C56  1  0.428600  0.107100  0.715800  1.0  0.151
  C  C57  1  0.341000  0.136400  0.628500  1.0  -0.2286
  C  C58  1  0.115500  0.263400  0.472200  1.0  0.1238
  C  C59  1  0.983500  0.186300  0.459300  1.0  -0.0263
  C  C60  1  0.050900  0.129900  0.557400  1.0  -0.0532
  C  C61  1  0.350200  0.991400  0.040800  1.0  0.1472
  C  C62  1  0.140900  0.101200  0.003000  1.0  -0.1468
  C  C63  1  0.169800  0.051300  0.110700  1.0  0.0374
  C  C64  1  0.654800  0.023200  0.762500  1.0  0.1246
  C  C65  1  0.712300  0.112000  0.618400  1.0  -0.0391
  C  C66  1  0.588400  0.152500  0.605700  1.0  -0.0122
  C  C67  1  0.427200  0.748000  0.853300  1.0  0.082
  C  C68  1  0.533400  0.696900  0.928100  1.0  -0.193
  C  C69  1  0.652600  0.679000  0.890300  1.0  0.1327
  C  C70  1  0.663200  0.713400  0.776500  1.0  -0.2158
  C  C71  1  0.554100  0.770700  0.704400  1.0  0.1453
  C  C72  1  0.435200  0.790400  0.743400  1.0  -0.204
  C  C73  1  0.203600  0.800000  0.822300  1.0  0.1443
  C  C74  1  0.138700  0.804600  0.983000  1.0  0.0286
  C  C75  1  0.266400  0.770600  0.994200  1.0  -0.1605
  C  C76  1  0.781600  0.540300  0.063000  1.0  0.1434
  C  C77  1  0.859100  0.657900  0.959100  1.0  -0.1247
  C  C78  1  0.934400  0.589400  0.052800  1.0  0.0186
  C  C79  1  0.483700  0.818600  0.510700  1.0  0.1972
  C  C80  1  0.653800  0.833600  0.545300  1.0  -0.1479
  C  C81  1  0.624300  0.862500  0.433300  1.0  -0.0426
  N  N82  1  0.020600  0.277100  0.406700  1.0  -0.3988
  N  N83  1  0.131400  0.177900  0.566500  1.0  0.0544
  N  N84  1  0.258400  0.062200  0.959600  1.0  0.0213
  N  N85  1  0.302400  0.984400  0.134400  1.0  -0.3595
  N  N86  1  0.549600  0.097700  0.692200  1.0  0.029
  N  N87  1  0.754500  0.029400  0.719100  1.0  -0.3336
  N  N88  1  0.304800  0.767200  0.889300  1.0  0.0483
  N  N89  1  0.101800  0.823900  0.873400  1.0  -0.3721
  N  N90  1  0.758600  0.625900  0.965900  1.0  0.0468
  N  N91  1  0.883800  0.515000  0.114900  1.0  -0.3241
  N  N92  1  0.562000  0.805400  0.594500  1.0  0.0539
  N  N93  1  0.514800  0.852700  0.417200  1.0  -0.3529
  O  O94  1  0.030600  0.500600  0.294900  1.0  -0.5846
  O  O95  1  0.849000  0.604900  0.362700  1.0  -0.5067
  O  O96  1  0.920400  0.755700  0.691600  1.0  -0.5954
  O  O97  1  0.003300  0.887700  0.657600  1.0  -0.5992
  O  O98  1  0.289600  0.853800  0.351600  1.0  -0.591
  O  O99  1  0.313500  0.719100  0.249400  1.0  -0.559
  O  O100  1  0.531400  0.961000  0.200500  1.0  -0.5901
  O  O101  1  0.429200  0.137800  0.262200  1.0  -0.5096
  O  O102  1  0.707200  0.359200  0.296000  1.0  -0.5174
  O  O103  1  0.890400  0.284500  0.219800  1.0  -0.6101
  O  O104  1  0.892800  0.109600  0.890300  1.0  -0.5508
  O  O105  1  0.850400  0.947800  0.933000  1.0  -0.6003
