# generated using pymatgen
data_Co3H20(C7O4)4
_symmetry_space_group_name_H-M   'P 1'
_cell_length_a   9.97800000
_cell_length_b   11.22300000
_cell_length_c   11.28300000
_cell_angle_alpha   102.26000000
_cell_angle_beta   113.52000000
_cell_angle_gamma   92.73000000
_symmetry_Int_Tables_number   1
_chemical_formula_structural   Co3H20(C7O4)4
_chemical_formula_sum   'Co3 H20 C28 O16'
_cell_volume   1119.69028904
_cell_formula_units_Z   1
loop_
 _symmetry_equiv_pos_site_id
 _symmetry_equiv_pos_as_xyz
  1  'x, y, z'
loop_
 _atom_site_type_symbol
 _atom_site_label
 _atom_site_symmetry_multiplicity
 _atom_site_fract_x
 _atom_site_fract_y
 _atom_site_fract_z
 _atom_site_occupancy
 _atom_site_charge
  Co  Co1  1  0.164490  0.316640  0.243620  1.0  1.1379
  Co  Co2  1  0.835510  0.683360  0.756380  1.0  1.1376
  Co  Co3  1  0.500000  0.500000  0.500000  1.0  1.096
  H  H4  1  0.326400  0.822300  0.391000  1.0  0.117
  H  H5  1  0.724300  0.995300  0.677000  1.0  0.1272
  H  H6  1  0.175900  0.597000  0.508700  1.0  0.1097
  H  H7  1  0.205700  0.616600  0.387100  1.0  0.1094
  H  H8  1  0.952800  0.574900  0.314900  1.0  0.1087
  H  H9  1  0.967500  0.455600  0.368300  1.0  0.1048
  H  H10  1  0.166500  0.164200  0.674000  1.0  0.1138
  H  H11  1  0.907300  0.013800  0.276100  1.0  0.1239
  H  H12  1  0.354800  0.416000  0.768700  1.0  0.1161
  H  H13  1  0.731200  0.621700  0.074100  1.0  0.1163
  H  H14  1  0.673600  0.177700  0.609000  1.0  0.1171
  H  H15  1  0.275700  0.004700  0.323000  1.0  0.1274
  H  H16  1  0.824100  0.403000  0.491300  1.0  0.1093
  H  H17  1  0.794300  0.383400  0.612900  1.0  0.1099
  H  H18  1  0.047200  0.425100  0.685100  1.0  0.1089
  H  H19  1  0.032500  0.544400  0.631700  1.0  0.1019
  H  H20  1  0.833500  0.835800  0.326000  1.0  0.1151
  H  H21  1  0.092700  0.986200  0.723900  1.0  0.1227
  H  H22  1  0.645200  0.584000  0.231300  1.0  0.1161
  H  H23  1  0.268800  0.378300  0.925900  1.0  0.1163
  C  C24  1  0.399800  0.896900  0.437300  1.0  -0.0665
  C  C25  1  0.630100  0.996400  0.602900  1.0  -0.0677
  C  C26  1  0.529500  0.892600  0.540400  1.0  -0.0939
  C  C27  1  0.563100  0.774800  0.580900  1.0  0.7081
  C  C28  1  0.168500  0.556300  0.420900  1.0  0.0946
  C  C29  1  0.009000  0.507000  0.328500  1.0  0.0902
  C  C30  1  0.093700  0.218800  0.438500  1.0  0.669
  C  C31  1  0.043000  0.105600  0.469900  1.0  -0.0978
  C  C32  1  0.097300  0.096100  0.601800  1.0  -0.0852
  C  C33  1  0.945800  0.008200  0.369100  1.0  -0.0661
  C  C34  1  0.603800  0.546200  0.806000  1.0  0.7199
  C  C35  1  0.552200  0.521200  0.907700  1.0  -0.1006
  C  C36  1  0.415300  0.450500  0.864400  1.0  -0.0696
  C  C37  1  0.635300  0.570800  0.043200  1.0  -0.0667
  C  C38  1  0.600200  0.103100  0.562700  1.0  -0.0644
  C  C39  1  0.369900  0.003600  0.397100  1.0  -0.0664
  C  C40  1  0.470500  0.107400  0.459600  1.0  -0.0946
  C  C41  1  0.436900  0.225200  0.419100  1.0  0.7092
  C  C42  1  0.831500  0.443700  0.579100  1.0  0.093
  C  C43  1  0.991000  0.493000  0.671500  1.0  0.0886
  C  C44  1  0.906300  0.781200  0.561500  1.0  0.6701
  C  C45  1  0.957000  0.894400  0.530100  1.0  -0.0974
  C  C46  1  0.902700  0.903900  0.398200  1.0  -0.0866
  C  C47  1  0.054200  0.991800  0.630900  1.0  -0.0679
  C  C48  1  0.396200  0.453800  0.194000  1.0  0.7223
  C  C49  1  0.447800  0.478800  0.092300  1.0  -0.1004
  C  C50  1  0.584700  0.549500  0.135600  1.0  -0.0673
  C  C51  1  0.364700  0.429200  0.956800  1.0  -0.0664
  O  O52  1  0.482200  0.677800  0.500800  1.0  -0.5587
  O  O53  1  0.508700  0.524700  0.688800  1.0  -0.556
  O  O54  1  0.256600  0.457500  0.431500  1.0  -0.5046
  O  O55  1  0.999000  0.436000  0.202600  1.0  -0.4746
  O  O56  1  0.179600  0.305200  0.534400  1.0  -0.4901
  O  O57  1  0.048300  0.219100  0.316700  1.0  -0.5809
  O  O58  1  0.739100  0.587800  0.847100  1.0  -0.6019
  O  O59  1  0.669200  0.783000  0.692300  1.0  -0.606
  O  O60  1  0.517800  0.322200  0.499200  1.0  -0.5592
  O  O61  1  0.491300  0.475300  0.311200  1.0  -0.5683
  O  O62  1  0.743400  0.542500  0.568500  1.0  -0.5053
  O  O63  1  0.001000  0.564000  0.797400  1.0  -0.5214
  O  O64  1  0.820400  0.694800  0.465600  1.0  -0.4845
  O  O65  1  0.951700  0.780900  0.683300  1.0  -0.5803
  O  O66  1  0.260900  0.412200  0.152900  1.0  -0.6026
  O  O67  1  0.330800  0.217000  0.307700  1.0  -0.6082
