# generated using pymatgen
data_Zn2H4C9O7
_symmetry_space_group_name_H-M   'P 1'
_cell_length_a   11.66950000
_cell_length_b   16.32350000
_cell_length_c   16.32350000
_cell_angle_alpha   90.00000000
_cell_angle_beta   90.00000000
_cell_angle_gamma   90.00000000
_symmetry_Int_Tables_number   1
_chemical_formula_structural   Zn2H4C9O7
_chemical_formula_sum   'Zn16 H32 C72 O56'
_cell_volume   3109.41590343
_cell_formula_units_Z   8
loop_
 _symmetry_equiv_pos_site_id
 _symmetry_equiv_pos_as_xyz
  1  'x, y, z'
loop_
 _atom_site_type_symbol
 _atom_site_label
 _atom_site_symmetry_multiplicity
 _atom_site_fract_x
 _atom_site_fract_y
 _atom_site_fract_z
 _atom_site_occupancy
 _atom_site_charge
  Zn  Zn1  1  0.135610  0.386100  0.347430  1.0  1.0507
  Zn  Zn2  1  0.135610  0.613900  0.652570  1.0  1.0497
  Zn  Zn3  1  0.135610  0.652570  0.386100  1.0  1.0502
  Zn  Zn4  1  0.135610  0.347430  0.613900  1.0  1.0492
  Zn  Zn5  1  0.364390  0.113900  0.847430  1.0  1.0505
  Zn  Zn6  1  0.364390  0.886100  0.152570  1.0  1.0514
  Zn  Zn7  1  0.364390  0.847430  0.886100  1.0  1.0508
  Zn  Zn8  1  0.364390  0.152570  0.113900  1.0  1.0493
  Zn  Zn9  1  0.864390  0.613900  0.652570  1.0  1.051
  Zn  Zn10  1  0.864390  0.386100  0.347430  1.0  1.0517
  Zn  Zn11  1  0.864390  0.347430  0.613900  1.0  1.0506
  Zn  Zn12  1  0.864390  0.652570  0.386100  1.0  1.0511
  Zn  Zn13  1  0.635610  0.886100  0.152570  1.0  1.0495
  Zn  Zn14  1  0.635610  0.113900  0.847430  1.0  1.0503
  Zn  Zn15  1  0.635610  0.152570  0.113900  1.0  1.0501
  Zn  Zn16  1  0.635610  0.847430  0.886100  1.0  1.049
  H  H17  1  0.172000  0.152000  0.240000  1.0  0.0987
  H  H18  1  0.172000  0.848000  0.760000  1.0  0.0986
  H  H19  1  0.172000  0.760000  0.152000  1.0  0.0981
  H  H20  1  0.172000  0.240000  0.848000  1.0  0.098
  H  H21  1  0.328000  0.348000  0.740000  1.0  0.0991
  H  H22  1  0.328000  0.652000  0.260000  1.0  0.0987
  H  H23  1  0.328000  0.740000  0.652000  1.0  0.0981
  H  H24  1  0.328000  0.260000  0.348000  1.0  0.098
  H  H25  1  0.828000  0.848000  0.760000  1.0  0.0988
  H  H26  1  0.828000  0.152000  0.240000  1.0  0.0989
  H  H27  1  0.828000  0.240000  0.848000  1.0  0.0983
  H  H28  1  0.828000  0.760000  0.152000  1.0  0.0982
  H  H29  1  0.672000  0.652000  0.260000  1.0  0.0986
  H  H30  1  0.672000  0.348000  0.740000  1.0  0.0989
  H  H31  1  0.672000  0.260000  0.348000  1.0  0.0978
  H  H32  1  0.672000  0.740000  0.652000  1.0  0.098
  H  H33  1  0.000000  0.483000  0.401000  1.0  0.4369
  H  H34  1  0.000000  0.950000  0.171000  1.0  0.1003
  H  H35  1  0.000000  0.517000  0.599000  1.0  0.4356
  H  H36  1  0.000000  0.050000  0.829000  1.0  0.1
  H  H37  1  0.000000  0.599000  0.483000  1.0  0.437
  H  H38  1  0.000000  0.829000  0.950000  1.0  0.0994
  H  H39  1  0.000000  0.401000  0.517000  1.0  0.4365
  H  H40  1  0.000000  0.171000  0.050000  1.0  0.0995
  H  H41  1  0.500000  0.017000  0.901000  1.0  0.4372
  H  H42  1  0.500000  0.550000  0.671000  1.0  0.1004
  H  H43  1  0.500000  0.983000  0.099000  1.0  0.4364
  H  H44  1  0.500000  0.450000  0.329000  1.0  0.0998
  H  H45  1  0.500000  0.901000  0.983000  1.0  0.4379
  H  H46  1  0.500000  0.671000  0.450000  1.0  0.0996
  H  H47  1  0.500000  0.099000  0.017000  1.0  0.4365
  H  H48  1  0.500000  0.329000  0.550000  1.0  0.0997
  C  C49  1  0.102800  0.125000  0.232800  1.0  0.0401
  C  C50  1  0.103500  0.045300  0.202800  1.0  -0.1731
  C  C51  1  0.214300  0.002600  0.184700  1.0  0.7044
  C  C52  1  0.102800  0.875000  0.767200  1.0  0.0405
  C  C53  1  0.103500  0.954700  0.797200  1.0  -0.1734
  C  C54  1  0.214300  0.997400  0.815300  1.0  0.7039
  C  C55  1  0.102800  0.767200  0.125000  1.0  0.0382
  C  C56  1  0.103500  0.797200  0.045300  1.0  -0.1746
  C  C57  1  0.214300  0.815300  0.002600  1.0  0.7044
  C  C58  1  0.102800  0.232800  0.875000  1.0  0.0377
  C  C59  1  0.103500  0.202800  0.954700  1.0  -0.176
  C  C60  1  0.214300  0.184700  0.997400  1.0  0.7034
  C  C61  1  0.397200  0.375000  0.732800  1.0  0.0394
  C  C62  1  0.396500  0.454700  0.702800  1.0  -0.1722
  C  C63  1  0.285700  0.497400  0.684700  1.0  0.703
  C  C64  1  0.397200  0.625000  0.267200  1.0  0.0402
  C  C65  1  0.396500  0.545300  0.297200  1.0  -0.1736
  C  C66  1  0.285700  0.502600  0.315300  1.0  0.7041
  C  C67  1  0.397200  0.732800  0.625000  1.0  0.0365
  C  C68  1  0.396500  0.702800  0.545300  1.0  -0.1738
  C  C69  1  0.285700  0.684700  0.502600  1.0  0.7033
  C  C70  1  0.397200  0.267200  0.375000  1.0  0.0376
  C  C71  1  0.396500  0.297200  0.454700  1.0  -0.1746
  C  C72  1  0.285700  0.315300  0.497400  1.0  0.7029
  C  C73  1  0.897200  0.875000  0.767200  1.0  0.0401
  C  C74  1  0.896500  0.954700  0.797200  1.0  -0.1725
  C  C75  1  0.785700  0.997400  0.815300  1.0  0.7035
  C  C76  1  0.897200  0.125000  0.232800  1.0  0.0396
  C  C77  1  0.896500  0.045300  0.202800  1.0  -0.1726
  C  C78  1  0.785700  0.002600  0.184700  1.0  0.7031
  C  C79  1  0.897200  0.232800  0.875000  1.0  0.0367
  C  C80  1  0.896500  0.202800  0.954700  1.0  -0.175
  C  C81  1  0.785700  0.184700  0.997400  1.0  0.7026
  C  C82  1  0.897200  0.767200  0.125000  1.0  0.0377
  C  C83  1  0.896500  0.797200  0.045300  1.0  -0.1738
  C  C84  1  0.785700  0.815300  0.002600  1.0  0.7039
  C  C85  1  0.602800  0.625000  0.267200  1.0  0.0405
  C  C86  1  0.603500  0.545300  0.297200  1.0  -0.1739
  C  C87  1  0.714300  0.502600  0.315300  1.0  0.7043
  C  C88  1  0.602800  0.375000  0.732800  1.0  0.0401
  C  C89  1  0.603500  0.454700  0.702800  1.0  -0.1731
  C  C90  1  0.714300  0.497400  0.684700  1.0  0.7047
  C  C91  1  0.602800  0.267200  0.375000  1.0  0.0379
  C  C92  1  0.603500  0.297200  0.454700  1.0  -0.1755
  C  C93  1  0.714300  0.315300  0.497400  1.0  0.7032
  C  C94  1  0.602800  0.732800  0.625000  1.0  0.0379
  C  C95  1  0.603500  0.702800  0.545300  1.0  -0.1747
  C  C96  1  0.714300  0.684700  0.502600  1.0  0.7036
  C  C97  1  0.000000  0.164200  0.249600  1.0  -0.168
  C  C98  1  0.000000  0.004800  0.189800  1.0  0.0202
  C  C99  1  0.000000  0.248400  0.285300  1.0  0.7171
  C  C100  1  0.000000  0.835800  0.750400  1.0  -0.168
  C  C101  1  0.000000  0.995200  0.810200  1.0  0.0196
  C  C102  1  0.000000  0.751600  0.714700  1.0  0.7165
  C  C103  1  0.000000  0.750400  0.164200  1.0  -0.1702
  C  C104  1  0.000000  0.810200  0.004800  1.0  0.019
  C  C105  1  0.000000  0.714700  0.248400  1.0  0.7173
  C  C106  1  0.000000  0.249600  0.835800  1.0  -0.1689
  C  C107  1  0.000000  0.189800  0.995200  1.0  0.0183
  C  C108  1  0.000000  0.285300  0.751600  1.0  0.7185
  C  C109  1  0.500000  0.335800  0.749600  1.0  -0.1671
  C  C110  1  0.500000  0.495200  0.689800  1.0  0.0202
  C  C111  1  0.500000  0.251600  0.785300  1.0  0.7167
  C  C112  1  0.500000  0.664200  0.250400  1.0  -0.1675
  C  C113  1  0.500000  0.504800  0.310200  1.0  0.0207
  C  C114  1  0.500000  0.748400  0.214700  1.0  0.7174
  C  C115  1  0.500000  0.749600  0.664200  1.0  -0.1698
  C  C116  1  0.500000  0.689800  0.504800  1.0  0.0189
  C  C117  1  0.500000  0.785300  0.748400  1.0  0.7176
  C  C118  1  0.500000  0.250400  0.335800  1.0  -0.1699
  C  C119  1  0.500000  0.310200  0.495200  1.0  0.0189
  C  C120  1  0.500000  0.214700  0.251600  1.0  0.7179
  O  O121  1  0.095700  0.279900  0.300100  1.0  -0.5954
  O  O122  1  0.301100  0.042200  0.165900  1.0  -0.6247
  O  O123  1  0.215400  0.925700  0.189900  1.0  -0.5823
  O  O124  1  0.095700  0.720100  0.699900  1.0  -0.596
  O  O125  1  0.301100  0.957800  0.834100  1.0  -0.6245
  O  O126  1  0.215400  0.074300  0.810100  1.0  -0.5827
  O  O127  1  0.095700  0.699900  0.279900  1.0  -0.5954
  O  O128  1  0.301100  0.834100  0.042200  1.0  -0.6256
  O  O129  1  0.215400  0.810100  0.925700  1.0  -0.5819
  O  O130  1  0.095700  0.300100  0.720100  1.0  -0.5952
  O  O131  1  0.301100  0.165900  0.957800  1.0  -0.6246
  O  O132  1  0.215400  0.189900  0.074300  1.0  -0.5818
  O  O133  1  0.404300  0.220100  0.800100  1.0  -0.5964
  O  O134  1  0.198900  0.457800  0.665900  1.0  -0.6249
  O  O135  1  0.284600  0.574300  0.689900  1.0  -0.5829
  O  O136  1  0.404300  0.779900  0.199900  1.0  -0.5957
  O  O137  1  0.198900  0.542200  0.334100  1.0  -0.625
  O  O138  1  0.284600  0.425700  0.310100  1.0  -0.5825
  O  O139  1  0.404300  0.800100  0.779900  1.0  -0.5949
  O  O140  1  0.198900  0.665900  0.542200  1.0  -0.6256
  O  O141  1  0.284600  0.689900  0.425700  1.0  -0.582
  O  O142  1  0.404300  0.199900  0.220100  1.0  -0.5962
  O  O143  1  0.198900  0.334100  0.457800  1.0  -0.6251
  O  O144  1  0.284600  0.310100  0.574300  1.0  -0.5821
  O  O145  1  0.904300  0.720100  0.699900  1.0  -0.5962
  O  O146  1  0.698900  0.957800  0.834100  1.0  -0.6251
  O  O147  1  0.784600  0.074300  0.810100  1.0  -0.5828
  O  O148  1  0.904300  0.279900  0.300100  1.0  -0.5958
  O  O149  1  0.698900  0.042200  0.165900  1.0  -0.6245
  O  O150  1  0.784600  0.925700  0.189900  1.0  -0.5829
  O  O151  1  0.904300  0.300100  0.720100  1.0  -0.5956
  O  O152  1  0.698900  0.165900  0.957800  1.0  -0.6249
  O  O153  1  0.784600  0.189900  0.074300  1.0  -0.5821
  O  O154  1  0.904300  0.699900  0.279900  1.0  -0.5952
  O  O155  1  0.698900  0.834100  0.042200  1.0  -0.6258
  O  O156  1  0.784600  0.810100  0.925700  1.0  -0.5823
  O  O157  1  0.595700  0.779900  0.199900  1.0  -0.5949
  O  O158  1  0.801100  0.542200  0.334100  1.0  -0.6236
  O  O159  1  0.715400  0.425700  0.310100  1.0  -0.5826
  O  O160  1  0.595700  0.220100  0.800100  1.0  -0.5961
  O  O161  1  0.801100  0.457800  0.665900  1.0  -0.6247
  O  O162  1  0.715400  0.574300  0.689900  1.0  -0.5821
  O  O163  1  0.595700  0.199900  0.220100  1.0  -0.5961
  O  O164  1  0.801100  0.334100  0.457800  1.0  -0.6246
  O  O165  1  0.715400  0.310100  0.574300  1.0  -0.5819
  O  O166  1  0.595700  0.800100  0.779900  1.0  -0.5944
  O  O167  1  0.801100  0.665900  0.542200  1.0  -0.6245
  O  O168  1  0.715400  0.689900  0.425700  1.0  -0.5814
  O  O169  1  0.000000  0.431000  0.395500  1.0  -0.934
  O  O170  1  0.000000  0.569000  0.604500  1.0  -0.9343
  O  O171  1  0.000000  0.604500  0.431000  1.0  -0.934
  O  O172  1  0.000000  0.395500  0.569000  1.0  -0.9329
  O  O173  1  0.500000  0.069000  0.895500  1.0  -0.9347
  O  O174  1  0.500000  0.931000  0.104500  1.0  -0.9333
  O  O175  1  0.500000  0.895500  0.931000  1.0  -0.9342
  O  O176  1  0.500000  0.104500  0.069000  1.0  -0.9333
