# generated using pymatgen
data_InH8C15NO10
_symmetry_space_group_name_H-M   'P 1'
_cell_length_a   7.27760000
_cell_length_b   22.06000000
_cell_length_c   15.02340000
_cell_angle_alpha   90.00000000
_cell_angle_beta   98.68700000
_cell_angle_gamma   90.00000000
_symmetry_Int_Tables_number   1
_chemical_formula_structural   InH8C15NO10
_chemical_formula_sum   'In4 H32 C60 N4 O40'
_cell_volume   2384.24551974
_cell_formula_units_Z   4
loop_
 _symmetry_equiv_pos_site_id
 _symmetry_equiv_pos_as_xyz
  1  'x, y, z'
loop_
 _atom_site_type_symbol
 _atom_site_label
 _atom_site_symmetry_multiplicity
 _atom_site_fract_x
 _atom_site_fract_y
 _atom_site_fract_z
 _atom_site_occupancy
 _atom_site_charge
  In  In1  1  0.000000  0.500000  0.000000  1.0  1.7187
  In  In2  1  0.500000  0.000000  0.500000  1.0  1.7187
  In  In3  1  0.500000  0.500000  0.000000  1.0  1.6333
  In  In4  1  0.000000  0.000000  0.500000  1.0  1.6378
  H  H5  1  0.602100  0.495900  0.281800  1.0  0.1118
  H  H6  1  0.107600  0.413100  0.280600  1.0  0.133
  H  H7  1  0.490700  0.409500  0.503300  1.0  0.1323
  H  H8  1  0.452100  0.300500  0.424200  1.0  0.0902
  H  H9  1  0.478100  0.198000  0.443200  1.0  0.108
  H  H10  1  0.949000  0.190500  0.487700  1.0  0.1294
  H  H11  1  0.170200  0.453600  0.891300  1.0  0.3421
  H  H12  1  0.914700  0.465900  0.544700  1.0  0.4087
  H  H13  1  0.897900  0.995900  0.218200  1.0  0.1117
  H  H14  1  0.392400  0.913100  0.219400  1.0  0.133
  H  H15  1  0.009300  0.909500  0.996700  1.0  0.132
  H  H16  1  0.047900  0.800500  0.075800  1.0  0.0908
  H  H17  1  0.021900  0.698000  0.056800  1.0  0.108
  H  H18  1  0.551000  0.690500  0.012300  1.0  0.1294
  H  H19  1  0.329800  0.953600  0.608700  1.0  0.3435
  H  H20  1  0.585300  0.965900  0.955300  1.0  0.4072
  H  H21  1  0.397900  0.504100  0.718200  1.0  0.1116
  H  H22  1  0.892400  0.586900  0.719400  1.0  0.133
  H  H23  1  0.509300  0.590500  0.496700  1.0  0.1318
  H  H24  1  0.547900  0.699500  0.575800  1.0  0.0906
  H  H25  1  0.521900  0.802000  0.556800  1.0  0.1076
  H  H26  1  0.051000  0.809500  0.512300  1.0  0.1297
  H  H27  1  0.829800  0.546400  0.108700  1.0  0.3437
  H  H28  1  0.085300  0.534100  0.455300  1.0  0.4066
  H  H29  1  0.102100  0.004100  0.781800  1.0  0.1117
  H  H30  1  0.607600  0.086900  0.780600  1.0  0.1329
  H  H31  1  0.990700  0.090500  0.003300  1.0  0.1321
  H  H32  1  0.952100  0.199500  0.924200  1.0  0.0901
  H  H33  1  0.978100  0.302000  0.943200  1.0  0.108
  H  H34  1  0.449000  0.309500  0.987700  1.0  0.1291
  H  H35  1  0.670200  0.046400  0.391300  1.0  0.3422
  H  H36  1  0.414700  0.034100  0.044700  1.0  0.4075
  C  C37  1  0.293200  0.475200  0.168700  1.0  0.7377
  C  C38  1  0.347300  0.457000  0.265200  1.0  -0.1684
  C  C39  1  0.521500  0.473100  0.310800  1.0  -0.0339
  C  C40  1  0.226200  0.422800  0.309300  1.0  -0.117
  C  C41  1  0.575200  0.455200  0.399700  1.0  -0.1318
  C  C42  1  0.456700  0.420900  0.443500  1.0  -0.1155
  C  C43  1  0.286400  0.403800  0.395900  1.0  0.2447
  C  C44  1  0.350900  0.278500  0.437800  1.0  -0.124
  C  C45  1  0.192100  0.307800  0.445300  1.0  0.2626
  C  C46  1  0.367100  0.217200  0.449700  1.0  -0.0458
  C  C47  1  0.043100  0.273400  0.464800  1.0  0.1238
  C  C48  1  0.762700  0.473700  0.444900  1.0  0.6799
  C  C49  1  0.219900  0.183500  0.471400  1.0  -0.1655
  C  C50  1  0.233400  0.116200  0.485100  1.0  0.7349
  C  C51  1  0.052300  0.212400  0.476500  1.0  -0.0842
  C  C52  1  0.206800  0.975200  0.331300  1.0  0.7367
  C  C53  1  0.152700  0.957000  0.234800  1.0  -0.1687
  C  C54  1  0.978500  0.973100  0.189200  1.0  -0.0347
  C  C55  1  0.273800  0.922800  0.190700  1.0  -0.1186
  C  C56  1  0.924800  0.955200  0.100300  1.0  -0.1319
  C  C57  1  0.043300  0.920900  0.056500  1.0  -0.1158
  C  C58  1  0.213600  0.903800  0.104100  1.0  0.2454
  C  C59  1  0.149100  0.778500  0.062200  1.0  -0.1238
  C  C60  1  0.307900  0.807800  0.054700  1.0  0.2618
  C  C61  1  0.132900  0.717200  0.050300  1.0  -0.043
  C  C62  1  0.456900  0.773400  0.035200  1.0  0.1251
  C  C63  1  0.737300  0.973700  0.055100  1.0  0.6801
  C  C64  1  0.280100  0.683500  0.028600  1.0  -0.1653
  C  C65  1  0.266600  0.616200  0.014900  1.0  0.7345
  C  C66  1  0.447700  0.712400  0.023500  1.0  -0.0862
  C  C67  1  0.706800  0.524800  0.831300  1.0  0.7366
  C  C68  1  0.652700  0.543000  0.734800  1.0  -0.1686
  C  C69  1  0.478500  0.526900  0.689200  1.0  -0.0343
  C  C70  1  0.773800  0.577200  0.690700  1.0  -0.119
  C  C71  1  0.424800  0.544800  0.600300  1.0  -0.1317
  C  C72  1  0.543300  0.579100  0.556500  1.0  -0.1166
  C  C73  1  0.713600  0.596200  0.604100  1.0  0.2451
  C  C74  1  0.649100  0.721500  0.562200  1.0  -0.1245
  C  C75  1  0.807900  0.692200  0.554700  1.0  0.2618
  C  C76  1  0.632900  0.782800  0.550300  1.0  -0.0439
  C  C77  1  0.956900  0.726600  0.535200  1.0  0.1251
  C  C78  1  0.237300  0.526300  0.555100  1.0  0.6803
  C  C79  1  0.780100  0.816500  0.528600  1.0  -0.164
  C  C80  1  0.766600  0.883800  0.514900  1.0  0.7357
  C  C81  1  0.947700  0.787600  0.523500  1.0  -0.086
  C  C82  1  0.793200  0.024800  0.668700  1.0  0.7375
  C  C83  1  0.847300  0.043000  0.765200  1.0  -0.1692
  C  C84  1  0.021500  0.026900  0.810800  1.0  -0.0337
  C  C85  1  0.726200  0.077200  0.809300  1.0  -0.1177
  C  C86  1  0.075200  0.044800  0.899700  1.0  -0.1318
  C  C87  1  0.956700  0.079100  0.943500  1.0  -0.1155
  C  C88  1  0.786400  0.096200  0.895900  1.0  0.245
  C  C89  1  0.850900  0.221500  0.937800  1.0  -0.125
  C  C90  1  0.692100  0.192200  0.945300  1.0  0.2629
  C  C91  1  0.867100  0.282800  0.949700  1.0  -0.0456
  C  C92  1  0.543100  0.226600  0.964800  1.0  0.1235
  C  C93  1  0.262700  0.026300  0.944900  1.0  0.6798
  C  C94  1  0.719900  0.316500  0.971400  1.0  -0.1647
  C  C95  1  0.733400  0.383800  0.985100  1.0  0.7361
  C  C96  1  0.552300  0.287600  0.976500  1.0  -0.0847
  N  N97  1  0.859700  0.302100  0.461000  1.0  0.6163
  N  N98  1  0.640300  0.802100  0.039000  1.0  0.6155
  N  N99  1  0.140300  0.697900  0.539000  1.0  0.6159
  N  N100  1  0.359700  0.197900  0.961000  1.0  0.6167
  O  O101  1  0.231400  0.471100  0.945900  1.0  -0.9688
  O  O102  1  0.130800  0.469200  0.134100  1.0  -0.5923
  O  O103  1  0.421000  0.496300  0.132000  1.0  -0.5993
  O  O104  1  0.162300  0.369500  0.439200  1.0  -0.2637
  O  O105  1  0.806600  0.456400  0.526400  1.0  -0.4891
  O  O106  1  0.864600  0.503800  0.403100  1.0  -0.5557
  O  O107  1  0.380400  0.090400  0.475000  1.0  -0.6089
  O  O108  1  0.092600  0.091800  0.510400  1.0  -0.6048
  O  O109  1  0.781000  0.292800  0.527200  1.0  -0.438
  O  O110  1  0.798000  0.334400  0.401200  1.0  -0.4235
  O  O111  1  0.268600  0.971100  0.554100  1.0  -0.9681
  O  O112  1  0.369200  0.969200  0.365900  1.0  -0.5937
  O  O113  1  0.079000  0.996300  0.368000  1.0  -0.6001
  O  O114  1  0.337700  0.869500  0.060800  1.0  -0.2638
  O  O115  1  0.693400  0.956400  0.973600  1.0  -0.4885
  O  O116  1  0.635400  0.003800  0.096900  1.0  -0.5556
  O  O117  1  0.119600  0.590400  0.025000  1.0  -0.6091
  O  O118  1  0.407400  0.591800  0.989600  1.0  -0.6056
  O  O119  1  0.719000  0.792800  0.972800  1.0  -0.4372
  O  O120  1  0.702000  0.834400  0.098800  1.0  -0.4232
  O  O121  1  0.768600  0.528900  0.054100  1.0  -0.9678
  O  O122  1  0.869200  0.530800  0.865900  1.0  -0.5935
  O  O123  1  0.579000  0.503700  0.868000  1.0  -0.5997
  O  O124  1  0.837700  0.630500  0.560800  1.0  -0.2638
  O  O125  1  0.193400  0.543600  0.473600  1.0  -0.4883
  O  O126  1  0.135400  0.496200  0.596900  1.0  -0.556
  O  O127  1  0.619600  0.909600  0.525000  1.0  -0.6091
  O  O128  1  0.907400  0.908200  0.489600  1.0  -0.6056
  O  O129  1  0.219000  0.707200  0.472800  1.0  -0.437
  O  O130  1  0.202000  0.665600  0.598800  1.0  -0.4238
  O  O131  1  0.731400  0.028900  0.445900  1.0  -0.9691
  O  O132  1  0.630800  0.030800  0.634100  1.0  -0.5921
  O  O133  1  0.921000  0.003700  0.632000  1.0  -0.599
  O  O134  1  0.662300  0.130500  0.939200  1.0  -0.2637
  O  O135  1  0.306600  0.043600  0.026400  1.0  -0.488
  O  O136  1  0.364600  0.996200  0.903100  1.0  -0.5566
  O  O137  1  0.880400  0.409600  0.975000  1.0  -0.6094
  O  O138  1  0.592600  0.408200  0.010400  1.0  -0.6044
  O  O139  1  0.281000  0.207200  0.027200  1.0  -0.4384
  O  O140  1  0.298000  0.165600  0.901200  1.0  -0.424
