# generated using pymatgen
data_CdH6C6(N2O)2
_symmetry_space_group_name_H-M   'P 1'
_cell_length_a   18.81750000
_cell_length_b   18.81750000
_cell_length_c   19.04830000
_cell_angle_alpha   90.00000000
_cell_angle_beta   90.00000000
_cell_angle_gamma   120.00000000
_symmetry_Int_Tables_number   1
_chemical_formula_structural   CdH6C6(N2O)2
_chemical_formula_sum   'Cd18 H108 C108 N72 O36'
_cell_volume   5841.31603196
_cell_formula_units_Z   18
loop_
 _symmetry_equiv_pos_site_id
 _symmetry_equiv_pos_as_xyz
  1  'x, y, z'
loop_
 _atom_site_type_symbol
 _atom_site_label
 _atom_site_symmetry_multiplicity
 _atom_site_fract_x
 _atom_site_fract_y
 _atom_site_fract_z
 _atom_site_occupancy
 _atom_site_charge
  Cd  Cd1  1  0.670810  0.054180  0.376940  1.0  0.9134
  Cd  Cd2  1  0.337480  0.387510  0.710270  1.0  0.9134
  Cd  Cd3  1  0.004140  0.720850  0.043610  1.0  0.913
  Cd  Cd4  1  0.945820  0.616630  0.376940  1.0  0.9144
  Cd  Cd5  1  0.612490  0.949960  0.710270  1.0  0.9144
  Cd  Cd6  1  0.279150  0.283300  0.043610  1.0  0.9141
  Cd  Cd7  1  0.383370  0.329190  0.376940  1.0  0.9155
  Cd  Cd8  1  0.050040  0.662520  0.710270  1.0  0.9157
  Cd  Cd9  1  0.716700  0.995860  0.043610  1.0  0.9156
  Cd  Cd10  1  0.329190  0.945820  0.623060  1.0  0.9146
  Cd  Cd11  1  0.995860  0.279150  0.956390  1.0  0.9142
  Cd  Cd12  1  0.662520  0.612490  0.289730  1.0  0.9146
  Cd  Cd13  1  0.054180  0.383370  0.623060  1.0  0.9138
  Cd  Cd14  1  0.720850  0.716700  0.956390  1.0  0.9135
  Cd  Cd15  1  0.387510  0.050040  0.289730  1.0  0.9138
  Cd  Cd16  1  0.616630  0.670810  0.623060  1.0  0.9143
  Cd  Cd17  1  0.283300  0.004140  0.956390  1.0  0.9144
  Cd  Cd18  1  0.949960  0.337480  0.289730  1.0  0.9144
  H  H19  1  0.529000  0.075000  0.360000  1.0  0.1328
  H  H20  1  0.827000  0.047000  0.187000  1.0  0.2822
  H  H21  1  0.819000  0.041000  0.261000  1.0  0.2515
  H  H22  1  0.878000  0.132000  0.225000  1.0  0.0768
  H  H23  1  0.475000  0.003000  0.140000  1.0  0.123
  H  H24  1  0.472000  0.007000  0.067000  1.0  0.2881
  H  H25  1  0.195670  0.408330  0.693330  1.0  0.1341
  H  H26  1  0.493670  0.380330  0.520330  1.0  0.2822
  H  H27  1  0.485670  0.374330  0.594330  1.0  0.2533
  H  H28  1  0.544670  0.465330  0.558330  1.0  0.0768
  H  H29  1  0.141670  0.336330  0.473330  1.0  0.1227
  H  H30  1  0.138670  0.340330  0.400330  1.0  0.2881
  H  H31  1  0.862330  0.741670  0.026670  1.0  0.1337
  H  H32  1  0.160330  0.713670  0.853670  1.0  0.2863
  H  H33  1  0.152330  0.707670  0.927670  1.0  0.2515
  H  H34  1  0.211330  0.798670  0.891670  1.0  0.0768
  H  H35  1  0.808330  0.669670  0.806670  1.0  0.1268
  H  H36  1  0.805330  0.673670  0.733670  1.0  0.2881
  H  H37  1  0.925000  0.454000  0.360000  1.0  0.1374
  H  H38  1  0.953000  0.780000  0.187000  1.0  0.2847
  H  H39  1  0.959000  0.778000  0.261000  1.0  0.2525
  H  H40  1  0.868000  0.746000  0.225000  1.0  0.0773
  H  H41  1  0.997000  0.472000  0.140000  1.0  0.1237
  H  H42  1  0.993000  0.465000  0.067000  1.0  0.2883
  H  H43  1  0.591670  0.787330  0.693330  1.0  0.135
  H  H44  1  0.619670  0.113330  0.520330  1.0  0.2844
  H  H45  1  0.625670  0.111330  0.594330  1.0  0.2559
  H  H46  1  0.534670  0.079330  0.558330  1.0  0.0773
  H  H47  1  0.663670  0.805330  0.473330  1.0  0.1263
  H  H48  1  0.659670  0.798330  0.400330  1.0  0.2869
  H  H49  1  0.258330  0.120670  0.026670  1.0  0.1407
  H  H50  1  0.286330  0.446670  0.853670  1.0  0.2829
  H  H51  1  0.292330  0.444670  0.927670  1.0  0.2546
  H  H52  1  0.201330  0.412670  0.891670  1.0  0.0773
  H  H53  1  0.330330  0.138670  0.806670  1.0  0.1231
  H  H54  1  0.326330  0.131670  0.733670  1.0  0.2883
  H  H55  1  0.546000  0.471000  0.360000  1.0  0.1378
  H  H56  1  0.220000  0.173000  0.187000  1.0  0.2873
  H  H57  1  0.222000  0.181000  0.261000  1.0  0.2568
  H  H58  1  0.254000  0.122000  0.225000  1.0  0.0794
  H  H59  1  0.528000  0.525000  0.140000  1.0  0.121
  H  H60  1  0.535000  0.528000  0.067000  1.0  0.2894
  H  H61  1  0.212670  0.804330  0.693330  1.0  0.1404
  H  H62  1  0.886670  0.506330  0.520330  1.0  0.2871
  H  H63  1  0.888670  0.514330  0.594330  1.0  0.2548
  H  H64  1  0.920670  0.455330  0.558330  1.0  0.0794
  H  H65  1  0.194670  0.858330  0.473330  1.0  0.1232
  H  H66  1  0.201670  0.861330  0.400330  1.0  0.2894
  H  H67  1  0.879330  0.137670  0.026670  1.0  0.1343
  H  H68  1  0.553330  0.839670  0.853670  1.0  0.2852
  H  H69  1  0.555330  0.847670  0.927670  1.0  0.2568
  H  H70  1  0.587330  0.788670  0.891670  1.0  0.0794
  H  H71  1  0.861330  0.191670  0.806670  1.0  0.1244
  H  H72  1  0.868330  0.194670  0.733670  1.0  0.2894
  H  H73  1  0.471000  0.925000  0.640000  1.0  0.1309
  H  H74  1  0.173000  0.953000  0.813000  1.0  0.2834
  H  H75  1  0.181000  0.959000  0.739000  1.0  0.2539
  H  H76  1  0.122000  0.868000  0.775000  1.0  0.0794
  H  H77  1  0.525000  0.997000  0.860000  1.0  0.1225
  H  H78  1  0.528000  0.993000  0.933000  1.0  0.2879
  H  H79  1  0.137670  0.258330  0.973330  1.0  0.1317
  H  H80  1  0.839670  0.286330  0.146330  1.0  0.2878
  H  H81  1  0.847670  0.292330  0.072330  1.0  0.2538
  H  H82  1  0.788670  0.201330  0.108330  1.0  0.0794
  H  H83  1  0.191670  0.330330  0.193330  1.0  0.1264
  H  H84  1  0.194670  0.326330  0.266330  1.0  0.2879
  H  H85  1  0.804330  0.591670  0.306670  1.0  0.1322
  H  H86  1  0.506330  0.619670  0.479670  1.0  0.2834
  H  H87  1  0.514330  0.625670  0.405670  1.0  0.2553
  H  H88  1  0.455330  0.534670  0.441670  1.0  0.0794
  H  H89  1  0.858330  0.663670  0.526670  1.0  0.1222
  H  H90  1  0.861330  0.659670  0.599670  1.0  0.2879
  H  H91  1  0.075000  0.546000  0.640000  1.0  0.1364
  H  H92  1  0.047000  0.220000  0.813000  1.0  0.2851
  H  H93  1  0.041000  0.222000  0.739000  1.0  0.2534
  H  H94  1  0.132000  0.254000  0.775000  1.0  0.0786
  H  H95  1  0.003000  0.528000  0.860000  1.0  0.123
  H  H96  1  0.007000  0.535000  0.933000  1.0  0.2875
  H  H97  1  0.741670  0.879330  0.973330  1.0  0.1398
  H  H98  1  0.713670  0.553330  0.146330  1.0  0.283
  H  H99  1  0.707670  0.555330  0.072330  1.0  0.2551
  H  H100  1  0.798670  0.587330  0.108330  1.0  0.0786
  H  H101  1  0.669670  0.861330  0.193330  1.0  0.1219
  H  H102  1  0.673670  0.868330  0.266330  1.0  0.2875
  H  H103  1  0.408330  0.212670  0.306670  1.0  0.1344
  H  H104  1  0.380330  0.886670  0.479670  1.0  0.2847
  H  H105  1  0.374330  0.888670  0.405670  1.0  0.2558
  H  H106  1  0.465330  0.920670  0.441670  1.0  0.0786
  H  H107  1  0.336330  0.194670  0.526670  1.0  0.1248
  H  H108  1  0.340330  0.201670  0.599670  1.0  0.2858
  H  H109  1  0.454000  0.529000  0.640000  1.0  0.1392
  H  H110  1  0.780000  0.827000  0.813000  1.0  0.285
  H  H111  1  0.778000  0.819000  0.739000  1.0  0.2549
  H  H112  1  0.746000  0.878000  0.775000  1.0  0.0771
  H  H113  1  0.472000  0.475000  0.860000  1.0  0.1212
  H  H114  1  0.465000  0.472000  0.933000  1.0  0.2884
  H  H115  1  0.120670  0.862330  0.973330  1.0  0.1358
  H  H116  1  0.446670  0.160330  0.146330  1.0  0.2829
  H  H117  1  0.444670  0.152330  0.072330  1.0  0.2548
  H  H118  1  0.412670  0.211330  0.108330  1.0  0.0771
  H  H119  1  0.138670  0.808330  0.193330  1.0  0.1243
  H  H120  1  0.131670  0.805330  0.266330  1.0  0.2884
  H  H121  1  0.787330  0.195670  0.306670  1.0  0.1415
  H  H122  1  0.113330  0.493670  0.479670  1.0  0.2848
  H  H123  1  0.111330  0.485670  0.405670  1.0  0.2528
  H  H124  1  0.079330  0.544670  0.441670  1.0  0.0771
  H  H125  1  0.805330  0.141670  0.526670  1.0  0.1235
  H  H126  1  0.798330  0.138670  0.599670  1.0  0.2884
  C  C127  1  0.619400  0.056800  0.225240  1.0  -0.0707
  C  C128  1  0.733300  0.054900  0.208890  1.0  0.362
  C  C129  1  0.557700  0.064000  0.268000  1.0  0.5802
  C  C130  1  0.625800  0.040900  0.154910  1.0  -0.07
  C  C131  1  0.815400  0.064500  0.221800  1.0  -0.2486
  C  C132  1  0.572400  0.023800  0.091510  1.0  0.5975
  C  C133  1  0.286070  0.390130  0.558570  1.0  -0.0645
  C  C134  1  0.399970  0.388230  0.542220  1.0  0.362
  C  C135  1  0.224370  0.397330  0.601330  1.0  0.5781
  C  C136  1  0.292470  0.374230  0.488240  1.0  -0.07
  C  C137  1  0.482070  0.397830  0.555130  1.0  -0.2486
  C  C138  1  0.239070  0.357130  0.424840  1.0  0.5975
  C  C139  1  0.952730  0.723470  0.891910  1.0  -0.0707
  C  C140  1  0.066630  0.721570  0.875560  1.0  0.3603
  C  C141  1  0.891030  0.730670  0.934670  1.0  0.58
  C  C142  1  0.959130  0.707570  0.821580  1.0  -0.0754
  C  C143  1  0.148730  0.731170  0.888470  1.0  -0.2486
  C  C144  1  0.905730  0.690470  0.758180  1.0  0.5975
  C  C145  1  0.943200  0.562600  0.225240  1.0  -0.0724
  C  C146  1  0.945100  0.678400  0.208890  1.0  0.3616
  C  C147  1  0.936000  0.493700  0.268000  1.0  0.5815
  C  C148  1  0.959100  0.584900  0.154910  1.0  -0.0699
  C  C149  1  0.935500  0.750900  0.221800  1.0  -0.244
  C  C150  1  0.976200  0.548600  0.091510  1.0  0.594
  C  C151  1  0.609870  0.895930  0.558570  1.0  -0.0727
  C  C152  1  0.611770  0.011730  0.542220  1.0  0.3616
  C  C153  1  0.602670  0.827030  0.601330  1.0  0.5813
  C  C154  1  0.625770  0.918230  0.488240  1.0  -0.0699
  C  C155  1  0.602170  0.084230  0.555130  1.0  -0.244
  C  C156  1  0.642870  0.881930  0.424840  1.0  0.594
  C  C157  1  0.276530  0.229270  0.891910  1.0  -0.0724
  C  C158  1  0.278430  0.345070  0.875560  1.0  0.3602
  C  C159  1  0.269330  0.160370  0.934670  1.0  0.5815
  C  C160  1  0.292430  0.251570  0.821580  1.0  -0.0699
  C  C161  1  0.268830  0.417570  0.888470  1.0  -0.244
  C  C162  1  0.309530  0.215270  0.758180  1.0  0.594
  C  C163  1  0.437400  0.380600  0.225240  1.0  -0.0717
  C  C164  1  0.321600  0.266700  0.208890  1.0  0.3623
  C  C165  1  0.506300  0.442300  0.268000  1.0  0.5803
  C  C166  1  0.415100  0.374200  0.154910  1.0  -0.0691
  C  C167  1  0.249100  0.184600  0.221800  1.0  -0.2458
  C  C168  1  0.451400  0.427600  0.091510  1.0  0.5945
  C  C169  1  0.104070  0.713930  0.558570  1.0  -0.0717
  C  C170  1  0.988270  0.600030  0.542220  1.0  0.3623
  C  C171  1  0.172970  0.775630  0.601330  1.0  0.5803
  C  C172  1  0.081770  0.707530  0.488240  1.0  -0.0691
  C  C173  1  0.915770  0.517930  0.555130  1.0  -0.2458
  C  C174  1  0.118070  0.760930  0.424840  1.0  0.5945
  C  C175  1  0.770730  0.047270  0.891910  1.0  -0.0719
  C  C176  1  0.654930  0.933370  0.875560  1.0  0.3654
  C  C177  1  0.839630  0.108970  0.934670  1.0  0.5801
  C  C178  1  0.748430  0.040870  0.821580  1.0  -0.0691
  C  C179  1  0.582430  0.851270  0.888470  1.0  -0.2458
  C  C180  1  0.784730  0.094270  0.758180  1.0  0.5945
  C  C181  1  0.380600  0.943200  0.774760  1.0  -0.0709
  C  C182  1  0.266700  0.945100  0.791110  1.0  0.3603
  C  C183  1  0.442300  0.936000  0.732000  1.0  0.5805
  C  C184  1  0.374200  0.959100  0.845090  1.0  -0.0694
  C  C185  1  0.184600  0.935500  0.778200  1.0  -0.2461
  C  C186  1  0.427600  0.976200  0.908490  1.0  0.5964
  C  C187  1  0.047270  0.276530  0.108090  1.0  -0.0713
  C  C188  1  0.933370  0.278430  0.124440  1.0  0.3623
  C  C189  1  0.108970  0.269330  0.065330  1.0  0.5803
  C  C190  1  0.040870  0.292430  0.178420  1.0  -0.0747
  C  C191  1  0.851270  0.268830  0.111530  1.0  -0.2461
  C  C192  1  0.094270  0.309530  0.241820  1.0  0.5962
  C  C193  1  0.713930  0.609870  0.441430  1.0  -0.0643
  C  C194  1  0.600030  0.611770  0.457780  1.0  0.3603
  C  C195  1  0.775630  0.602670  0.398670  1.0  0.5783
  C  C196  1  0.707530  0.625770  0.511760  1.0  -0.0694
  C  C197  1  0.517930  0.602170  0.444870  1.0  -0.2461
  C  C198  1  0.760930  0.642870  0.575160  1.0  0.5964
  C  C199  1  0.056800  0.437400  0.774760  1.0  -0.0718
  C  C200  1  0.054900  0.321600  0.791110  1.0  0.3623
  C  C201  1  0.064000  0.506300  0.732000  1.0  0.5815
  C  C202  1  0.040900  0.415100  0.845090  1.0  -0.0699
  C  C203  1  0.064500  0.249100  0.778200  1.0  -0.2454
  C  C204  1  0.023800  0.451400  0.908490  1.0  0.595
  C  C205  1  0.723470  0.770730  0.108090  1.0  -0.0718
  C  C206  1  0.721570  0.654930  0.124440  1.0  0.3605
  C  C207  1  0.730670  0.839630  0.065330  1.0  0.5815
  C  C208  1  0.707570  0.748430  0.178420  1.0  -0.0699
  C  C209  1  0.731170  0.582430  0.111530  1.0  -0.2454
  C  C210  1  0.690470  0.784730  0.241820  1.0  0.595
  C  C211  1  0.390130  0.104070  0.441430  1.0  -0.072
  C  C212  1  0.388230  0.988270  0.457780  1.0  0.3623
  C  C213  1  0.397330  0.172970  0.398670  1.0  0.5813
  C  C214  1  0.374230  0.081770  0.511760  1.0  -0.0699
  C  C215  1  0.397830  0.915770  0.444870  1.0  -0.2454
  C  C216  1  0.357130  0.118070  0.575160  1.0  0.595
  C  C217  1  0.562600  0.619400  0.774760  1.0  -0.0726
  C  C218  1  0.678400  0.733300  0.791110  1.0  0.3624
  C  C219  1  0.493700  0.557700  0.732000  1.0  0.5806
  C  C220  1  0.584900  0.625800  0.845090  1.0  -0.0703
  C  C221  1  0.750900  0.815400  0.778200  1.0  -0.2475
  C  C222  1  0.548600  0.572400  0.908490  1.0  0.594
  C  C223  1  0.229270  0.952730  0.108090  1.0  -0.0725
  C  C224  1  0.345070  0.066630  0.124440  1.0  0.3614
  C  C225  1  0.160370  0.891030  0.065330  1.0  0.5804
  C  C226  1  0.251570  0.959130  0.178420  1.0  -0.0703
  C  C227  1  0.417570  0.148730  0.111530  1.0  -0.2475
  C  C228  1  0.215270  0.905730  0.241820  1.0  0.594
  C  C229  1  0.895930  0.286070  0.441430  1.0  -0.0727
  C  C230  1  0.011730  0.399970  0.457780  1.0  0.3624
  C  C231  1  0.827030  0.224370  0.398670  1.0  0.5806
  C  C232  1  0.918230  0.292470  0.511760  1.0  -0.0703
  C  C233  1  0.084230  0.482070  0.444870  1.0  -0.2475
  C  C234  1  0.881930  0.239070  0.575160  1.0  0.594
  N  N235  1  0.688900  0.064900  0.258370  1.0  -0.4335
  N  N236  1  0.570200  0.071400  0.335040  1.0  -0.3966
  N  N237  1  0.698000  0.040600  0.145450  1.0  -0.4584
  N  N238  1  0.504100  0.025000  0.097200  1.0  -0.6698
  N  N239  1  0.355570  0.398230  0.591700  1.0  -0.4335
  N  N240  1  0.236870  0.404730  0.668370  1.0  -0.3966
  N  N241  1  0.364670  0.373930  0.478780  1.0  -0.4584
  N  N242  1  0.170770  0.358330  0.430530  1.0  -0.67
  N  N243  1  0.022230  0.731570  0.925040  1.0  -0.4335
  N  N244  1  0.903530  0.738070  0.001710  1.0  -0.3966
  N  N245  1  0.031330  0.707270  0.812120  1.0  -0.4584
  N  N246  1  0.837430  0.691670  0.763870  1.0  -0.6698
  N  N247  1  0.935100  0.624000  0.258370  1.0  -0.4295
  N  N248  1  0.928600  0.498800  0.335040  1.0  -0.392
  N  N249  1  0.959400  0.657400  0.145450  1.0  -0.4675
  N  N250  1  0.975000  0.479100  0.097200  1.0  -0.6707
  N  N251  1  0.601770  0.957330  0.591700  1.0  -0.4295
  N  N252  1  0.595270  0.832130  0.668370  1.0  -0.392
  N  N253  1  0.626070  0.990730  0.478780  1.0  -0.4675
  N  N254  1  0.641670  0.812430  0.430530  1.0  -0.6708
  N  N255  1  0.268430  0.290670  0.925040  1.0  -0.4296
  N  N256  1  0.261930  0.165470  0.001710  1.0  -0.392
  N  N257  1  0.292730  0.324070  0.812120  1.0  -0.4675
  N  N258  1  0.308330  0.145770  0.763870  1.0  -0.6707
  N  N259  1  0.376000  0.311100  0.258370  1.0  -0.4409
  N  N260  1  0.501200  0.429800  0.335040  1.0  -0.3949
  N  N261  1  0.342600  0.302000  0.145450  1.0  -0.4697
  N  N262  1  0.520900  0.495900  0.097200  1.0  -0.6682
  N  N263  1  0.042670  0.644430  0.591700  1.0  -0.4409
  N  N264  1  0.167870  0.763130  0.668370  1.0  -0.3949
  N  N265  1  0.009270  0.635330  0.478780  1.0  -0.4698
  N  N266  1  0.187570  0.829230  0.430530  1.0  -0.6683
  N  N267  1  0.709330  0.977770  0.925040  1.0  -0.4409
  N  N268  1  0.834530  0.096470  0.001710  1.0  -0.3948
  N  N269  1  0.675930  0.968670  0.812120  1.0  -0.4705
  N  N270  1  0.854230  0.162570  0.763870  1.0  -0.6682
  N  N271  1  0.311100  0.935100  0.741630  1.0  -0.4466
  N  N272  1  0.429800  0.928600  0.664960  1.0  -0.3904
  N  N273  1  0.302000  0.959400  0.854550  1.0  -0.4689
  N  N274  1  0.495900  0.975000  0.902800  1.0  -0.6695
  N  N275  1  0.977770  0.268430  0.074960  1.0  -0.4466
  N  N276  1  0.096470  0.261930  0.998290  1.0  -0.3901
  N  N277  1  0.968670  0.292730  0.187880  1.0  -0.4648
  N  N278  1  0.162570  0.308330  0.236130  1.0  -0.6695
  N  N279  1  0.644430  0.601770  0.408300  1.0  -0.4466
  N  N280  1  0.763130  0.595270  0.331630  1.0  -0.39
  N  N281  1  0.635330  0.626070  0.521220  1.0  -0.4689
  N  N282  1  0.829230  0.641670  0.569470  1.0  -0.6698
  N  N283  1  0.064900  0.376000  0.741630  1.0  -0.4306
  N  N284  1  0.071400  0.501200  0.664960  1.0  -0.3964
  N  N285  1  0.040600  0.342600  0.854550  1.0  -0.4659
  N  N286  1  0.025000  0.520900  0.902800  1.0  -0.6698
  N  N287  1  0.731570  0.709330  0.074960  1.0  -0.4306
  N  N288  1  0.738070  0.834530  0.998290  1.0  -0.3964
  N  N289  1  0.707270  0.675930  0.187880  1.0  -0.4659
  N  N290  1  0.691670  0.854230  0.236130  1.0  -0.6698
  N  N291  1  0.398230  0.042670  0.408300  1.0  -0.4306
  N  N292  1  0.404730  0.167870  0.331630  1.0  -0.3964
  N  N293  1  0.373930  0.009270  0.521220  1.0  -0.4659
  N  N294  1  0.358330  0.187570  0.569470  1.0  -0.67
  N  N295  1  0.624000  0.688900  0.741630  1.0  -0.4321
  N  N296  1  0.498800  0.570200  0.664960  1.0  -0.3946
  N  N297  1  0.657400  0.698000  0.854550  1.0  -0.4505
  N  N298  1  0.479100  0.504100  0.902800  1.0  -0.667
  N  N299  1  0.290670  0.022230  0.074960  1.0  -0.4321
  N  N300  1  0.165470  0.903530  0.998290  1.0  -0.3946
  N  N301  1  0.324070  0.031330  0.187880  1.0  -0.4505
  N  N302  1  0.145770  0.837430  0.236130  1.0  -0.667
  N  N303  1  0.957330  0.355570  0.408300  1.0  -0.4321
  N  N304  1  0.832130  0.236870  0.331630  1.0  -0.3946
  N  N305  1  0.990730  0.364670  0.521220  1.0  -0.4505
  N  N306  1  0.812430  0.170770  0.569470  1.0  -0.6671
  O  O307  1  0.496900  0.063000  0.235350  1.0  -0.6369
  O  O308  1  0.595900  0.008300  0.034600  1.0  -0.6289
  O  O309  1  0.163570  0.396330  0.568680  1.0  -0.637
  O  O310  1  0.262570  0.341630  0.367930  1.0  -0.6289
  O  O311  1  0.830230  0.729670  0.902020  1.0  -0.6372
  O  O312  1  0.929230  0.674970  0.701270  1.0  -0.629
  O  O313  1  0.937000  0.433900  0.235350  1.0  -0.6409
  O  O314  1  0.991700  0.587600  0.034600  1.0  -0.6277
  O  O315  1  0.603670  0.767230  0.568680  1.0  -0.6409
  O  O316  1  0.658370  0.920930  0.367930  1.0  -0.6277
  O  O317  1  0.270330  0.100570  0.902020  1.0  -0.6406
  O  O318  1  0.325030  0.254270  0.701270  1.0  -0.6276
  O  O319  1  0.566100  0.503100  0.235350  1.0  -0.639
  O  O320  1  0.412400  0.404100  0.034600  1.0  -0.6263
  O  O321  1  0.232770  0.836430  0.568680  1.0  -0.6391
  O  O322  1  0.079070  0.737430  0.367930  1.0  -0.6263
  O  O323  1  0.899430  0.169770  0.902020  1.0  -0.639
  O  O324  1  0.745730  0.070770  0.701270  1.0  -0.6262
  O  O325  1  0.503100  0.937000  0.764650  1.0  -0.6375
  O  O326  1  0.404100  0.991700  0.965400  1.0  -0.6282
  O  O327  1  0.169770  0.270330  0.097980  1.0  -0.6374
  O  O328  1  0.070770  0.325030  0.298730  1.0  -0.6283
  O  O329  1  0.836430  0.603670  0.431320  1.0  -0.6375
  O  O330  1  0.737430  0.658370  0.632070  1.0  -0.6282
  O  O331  1  0.063000  0.566100  0.764650  1.0  -0.6405
  O  O332  1  0.008300  0.412400  0.965400  1.0  -0.6292
  O  O333  1  0.729670  0.899430  0.097980  1.0  -0.6406
  O  O334  1  0.674970  0.745730  0.298730  1.0  -0.6291
  O  O335  1  0.396330  0.232770  0.431320  1.0  -0.6406
  O  O336  1  0.341630  0.079070  0.632070  1.0  -0.6292
  O  O337  1  0.433900  0.496900  0.764650  1.0  -0.6377
  O  O338  1  0.587600  0.595900  0.965400  1.0  -0.6268
  O  O339  1  0.100570  0.830230  0.097980  1.0  -0.6377
  O  O340  1  0.254270  0.929230  0.298730  1.0  -0.6266
  O  O341  1  0.767230  0.163570  0.431320  1.0  -0.6377
  O  O342  1  0.920930  0.262570  0.632070  1.0  -0.6268
