# generated using pymatgen
data_ZnPH3(C2O3)2
_symmetry_space_group_name_H-M   'P 1'
_cell_length_a   9.97400000
_cell_length_b   9.18040000
_cell_length_c   27.53850000
_cell_angle_alpha   90.00000000
_cell_angle_beta   90.00000000
_cell_angle_gamma   90.00000000
_symmetry_Int_Tables_number   1
_chemical_formula_structural   ZnPH3(C2O3)2
_chemical_formula_sum   'Zn8 P8 H24 C32 O48'
_cell_volume   2521.57127842
_cell_formula_units_Z   8
loop_
 _symmetry_equiv_pos_site_id
 _symmetry_equiv_pos_as_xyz
  1  'x, y, z'
loop_
 _atom_site_type_symbol
 _atom_site_label
 _atom_site_symmetry_multiplicity
 _atom_site_fract_x
 _atom_site_fract_y
 _atom_site_fract_z
 _atom_site_occupancy
 _atom_site_charge
  Zn  Zn1  1  0.621280  0.327500  0.057960  1.0  1.1495
  Zn  Zn2  1  0.434160  0.679790  0.960540  1.0  1.1398
  Zn  Zn3  1  0.378720  0.672500  0.557960  1.0  1.1497
  Zn  Zn4  1  0.565840  0.320210  0.460540  1.0  1.1444
  Zn  Zn5  1  0.121280  0.172500  0.057960  1.0  1.1497
  Zn  Zn6  1  0.934160  0.820210  0.960540  1.0  1.1414
  Zn  Zn7  1  0.878720  0.827500  0.557960  1.0  1.1496
  Zn  Zn8  1  0.065840  0.179790  0.460540  1.0  1.1401
  P  P9  1  0.722280  0.578820  0.984730  1.0  1.8623
  P  P10  1  0.326990  0.418450  0.034940  1.0  1.8322
  P  P11  1  0.277720  0.421180  0.484730  1.0  1.8611
  P  P12  1  0.673010  0.581550  0.534940  1.0  1.8303
  P  P13  1  0.222280  0.921180  0.984730  1.0  1.8617
  P  P14  1  0.826990  0.081550  0.034940  1.0  1.8539
  P  P15  1  0.777720  0.078820  0.484730  1.0  1.8614
  P  P16  1  0.173010  0.918450  0.534940  1.0  1.8274
  H  H17  1  0.664700  0.493300  0.921200  1.0  0.3746
  H  H18  1  0.312600  0.459500  0.106600  1.0  0.4405
  H  H19  1  0.800400  0.207600  0.243500  1.0  0.098
  H  H20  1  0.744500  0.255800  0.322600  1.0  0.1131
  H  H21  1  0.447000  0.513900  0.276500  1.0  0.1199
  H  H22  1  0.512600  0.474600  0.197500  1.0  0.11
  H  H23  1  0.335300  0.506700  0.421200  1.0  0.375
  H  H24  1  0.687400  0.540500  0.606600  1.0  0.4421
  H  H25  1  0.199600  0.792400  0.743500  1.0  0.0973
  H  H26  1  0.255500  0.744200  0.822600  1.0  0.1128
  H  H27  1  0.553000  0.486100  0.776500  1.0  0.1195
  H  H28  1  0.487400  0.525400  0.697500  1.0  0.1098
  H  H29  1  0.164700  0.006700  0.921200  1.0  0.3738
  H  H30  1  0.812600  0.040500  0.106600  1.0  0.4413
  H  H31  1  0.300400  0.292400  0.243500  1.0  0.0979
  H  H32  1  0.244500  0.244200  0.322600  1.0  0.1128
  H  H33  1  0.947000  0.986100  0.276500  1.0  0.1195
  H  H34  1  0.012600  0.025400  0.197500  1.0  0.1095
  H  H35  1  0.835300  0.993300  0.421200  1.0  0.3761
  H  H36  1  0.187400  0.959500  0.606600  1.0  0.4444
  H  H37  1  0.699600  0.707600  0.743500  1.0  0.0972
  H  H38  1  0.755500  0.755800  0.822600  1.0  0.1131
  H  H39  1  0.053000  0.013900  0.776500  1.0  0.1193
  H  H40  1  0.987400  0.974600  0.697500  1.0  0.11
  C  C41  1  0.695500  0.295300  0.160100  1.0  0.7346
  C  C42  1  0.663200  0.334900  0.212100  1.0  -0.1401
  C  C43  1  0.729700  0.270600  0.250100  1.0  -0.0274
  C  C44  1  0.694700  0.296600  0.297400  1.0  -0.0588
  C  C45  1  0.585900  0.383400  0.307700  1.0  -0.1165
  C  C46  1  0.518400  0.451900  0.269800  1.0  -0.0795
  C  C47  1  0.557600  0.427900  0.222700  1.0  -0.0145
  C  C48  1  0.533900  0.398900  0.358900  1.0  0.7431
  C  C49  1  0.304500  0.704700  0.660100  1.0  0.7355
  C  C50  1  0.336800  0.665100  0.712100  1.0  -0.141
  C  C51  1  0.270300  0.729400  0.750100  1.0  -0.0277
  C  C52  1  0.305300  0.703400  0.797400  1.0  -0.0583
  C  C53  1  0.414100  0.616600  0.807700  1.0  -0.1165
  C  C54  1  0.481600  0.548100  0.769800  1.0  -0.0789
  C  C55  1  0.442400  0.572100  0.722700  1.0  -0.0157
  C  C56  1  0.466100  0.601100  0.858900  1.0  0.7427
  C  C57  1  0.195500  0.204700  0.160100  1.0  0.7347
  C  C58  1  0.163200  0.165100  0.212100  1.0  -0.1403
  C  C59  1  0.229700  0.229400  0.250100  1.0  -0.0272
  C  C60  1  0.194700  0.203400  0.297400  1.0  -0.0588
  C  C61  1  0.085900  0.116600  0.307700  1.0  -0.1165
  C  C62  1  0.018400  0.048100  0.269800  1.0  -0.0789
  C  C63  1  0.057600  0.072100  0.222700  1.0  -0.016
  C  C64  1  0.033900  0.101100  0.358900  1.0  0.7431
  C  C65  1  0.804500  0.795300  0.660100  1.0  0.7354
  C  C66  1  0.836800  0.834900  0.712100  1.0  -0.141
  C  C67  1  0.770300  0.770600  0.750100  1.0  -0.0277
  C  C68  1  0.805300  0.796600  0.797400  1.0  -0.0585
  C  C69  1  0.914100  0.883400  0.807700  1.0  -0.1167
  C  C70  1  0.981600  0.951900  0.769800  1.0  -0.0786
  C  C71  1  0.942400  0.927900  0.722700  1.0  -0.0145
  C  C72  1  0.966100  0.898900  0.858900  1.0  0.7428
  O  O73  1  0.621600  0.699800  0.974810  1.0  -0.7629
  O  O74  1  0.699200  0.502500  0.032790  1.0  -0.7883
  O  O75  1  0.864800  0.633800  0.984060  1.0  -0.7346
  O  O76  1  0.706900  0.459400  0.944190  1.0  -0.6302
  O  O77  1  0.438300  0.305600  0.040140  1.0  -0.7692
  O  O78  1  0.191400  0.351300  0.028610  1.0  -0.736
  O  O79  1  0.349600  0.521300  0.993140  1.0  -0.8947
  O  O80  1  0.324700  0.513000  0.083140  1.0  -0.6375
  O  O81  1  0.632300  0.360500  0.127940  1.0  -0.5852
  O  O82  1  0.605900  0.345000  0.392130  1.0  -0.606
  O  O83  1  0.779800  0.196600  0.152600  1.0  -0.5551
  O  O84  1  0.423800  0.458500  0.365080  1.0  -0.5875
  O  O85  1  0.378400  0.300200  0.474810  1.0  -0.7618
  O  O86  1  0.300800  0.497500  0.532790  1.0  -0.788
  O  O87  1  0.135200  0.366200  0.484060  1.0  -0.7348
  O  O88  1  0.293100  0.540600  0.444190  1.0  -0.6293
  O  O89  1  0.561700  0.694400  0.540140  1.0  -0.7693
  O  O90  1  0.808600  0.648700  0.528610  1.0  -0.7377
  O  O91  1  0.650400  0.478700  0.493140  1.0  -0.8944
  O  O92  1  0.675300  0.487000  0.583140  1.0  -0.6386
  O  O93  1  0.367700  0.639500  0.627940  1.0  -0.5841
  O  O94  1  0.394100  0.655000  0.892130  1.0  -0.6061
  O  O95  1  0.220200  0.803400  0.652600  1.0  -0.556
  O  O96  1  0.576200  0.541500  0.865080  1.0  -0.5864
  O  O97  1  0.121600  0.800200  0.974810  1.0  -0.7621
  O  O98  1  0.199200  0.997500  0.032790  1.0  -0.7884
  O  O99  1  0.364800  0.866200  0.984060  1.0  -0.7355
  O  O100  1  0.206900  0.040600  0.944190  1.0  -0.6285
  O  O101  1  0.938300  0.194400  0.040140  1.0  -0.7687
  O  O102  1  0.691400  0.148700  0.028610  1.0  -0.7363
  O  O103  1  0.849600  0.978700  0.993140  1.0  -0.8949
  O  O104  1  0.824700  0.987000  0.083140  1.0  -0.6374
  O  O105  1  0.132300  0.139500  0.127940  1.0  -0.5845
  O  O106  1  0.105900  0.155000  0.392130  1.0  -0.6059
  O  O107  1  0.279800  0.303400  0.152600  1.0  -0.5552
  O  O108  1  0.923800  0.041500  0.365080  1.0  -0.587
  O  O109  1  0.878400  0.199800  0.474810  1.0  -0.7622
  O  O110  1  0.800800  0.002500  0.532790  1.0  -0.7879
  O  O111  1  0.635200  0.133800  0.484060  1.0  -0.7342
  O  O112  1  0.793100  0.959400  0.444190  1.0  -0.6297
  O  O113  1  0.061700  0.805600  0.540140  1.0  -0.7694
  O  O114  1  0.308600  0.851300  0.528610  1.0  -0.7374
  O  O115  1  0.150400  0.021300  0.493140  1.0  -0.8943
  O  O116  1  0.175300  0.013000  0.583140  1.0  -0.637
  O  O117  1  0.867700  0.860500  0.627940  1.0  -0.585
  O  O118  1  0.894100  0.845000  0.892130  1.0  -0.606
  O  O119  1  0.720200  0.696600  0.652600  1.0  -0.5554
  O  O120  1  0.076200  0.958500  0.865080  1.0  -0.5881
