# generated using pymatgen
data_ZnPH3(C2O3)2
_symmetry_space_group_name_H-M   'P 1'
_cell_length_a   27.58100000
_cell_length_b   9.11140000
_cell_length_c   9.97910000
_cell_angle_alpha   90.00000000
_cell_angle_beta   92.21300000
_cell_angle_gamma   90.00000000
_symmetry_Int_Tables_number   1
_chemical_formula_structural   ZnPH3(C2O3)2
_chemical_formula_sum   'Zn8 P8 H24 C32 O48'
_cell_volume   2505.89269427
_cell_formula_units_Z   8
loop_
 _symmetry_equiv_pos_site_id
 _symmetry_equiv_pos_as_xyz
  1  'x, y, z'
loop_
 _atom_site_type_symbol
 _atom_site_label
 _atom_site_symmetry_multiplicity
 _atom_site_fract_x
 _atom_site_fract_y
 _atom_site_fract_z
 _atom_site_occupancy
 _atom_site_charge
  Zn  Zn1  1  0.950520  0.177810  0.403780  1.0  1.1532
  Zn  Zn2  1  0.548400  0.178150  0.411930  1.0  1.1391
  Zn  Zn3  1  0.049480  0.677810  0.096220  1.0  1.1528
  Zn  Zn4  1  0.451600  0.678150  0.088070  1.0  1.1384
  Zn  Zn5  1  0.049480  0.822190  0.596220  1.0  1.1527
  Zn  Zn6  1  0.451600  0.821850  0.588070  1.0  1.1385
  Zn  Zn7  1  0.950520  0.322190  0.903780  1.0  1.1531
  Zn  Zn8  1  0.548400  0.321850  0.911930  1.0  1.1391
  P  P9  1  0.973440  0.080330  0.695380  1.0  1.7595
  P  P10  1  0.523390  0.077460  0.698920  1.0  1.8126
  P  P11  1  0.026560  0.580330  0.804620  1.0  1.7575
  P  P12  1  0.476610  0.577460  0.801080  1.0  1.8135
  P  P13  1  0.026560  0.919670  0.304620  1.0  1.7574
  P  P14  1  0.476610  0.922540  0.301080  1.0  1.8138
  P  P15  1  0.973440  0.419670  0.195380  1.0  1.7591
  P  P16  1  0.523390  0.422540  0.198920  1.0  1.8132
  H  H17  1  0.766200  0.310400  0.184600  1.0  0.0863
  H  H18  1  0.671100  0.257600  0.280000  1.0  0.0976
  H  H19  1  0.901300  0.034900  0.701200  1.0  0.3999
  H  H20  1  0.730300  0.983600  0.562400  1.0  0.1079
  H  H21  1  0.820600  0.024000  0.517400  1.0  0.0761
  H  H22  1  0.588700  0.997600  0.647200  1.0  0.3523
  H  H23  1  0.233800  0.810400  0.315400  1.0  0.0871
  H  H24  1  0.328900  0.757600  0.220000  1.0  0.0964
  H  H25  1  0.098700  0.534900  0.798800  1.0  0.3982
  H  H26  1  0.269700  0.483600  0.937600  1.0  0.1076
  H  H27  1  0.179400  0.524000  0.982600  1.0  0.0755
  H  H28  1  0.411300  0.497600  0.852800  1.0  0.3523
  H  H29  1  0.233800  0.689600  0.815400  1.0  0.0864
  H  H30  1  0.328900  0.742400  0.720000  1.0  0.0987
  H  H31  1  0.098700  0.965100  0.298800  1.0  0.3982
  H  H32  1  0.269700  0.016400  0.437600  1.0  0.1085
  H  H33  1  0.179400  0.976000  0.482600  1.0  0.0759
  H  H34  1  0.411300  0.002400  0.352800  1.0  0.3508
  H  H35  1  0.766200  0.189600  0.684600  1.0  0.0861
  H  H36  1  0.671100  0.242400  0.780000  1.0  0.0991
  H  H37  1  0.901300  0.465100  0.201200  1.0  0.3988
  H  H38  1  0.730300  0.516400  0.062400  1.0  0.1088
  H  H39  1  0.820600  0.476000  0.017400  1.0  0.076
  H  H40  1  0.588700  0.502400  0.147200  1.0  0.3509
  C  C41  1  0.849670  0.204400  0.315800  1.0  0.6531
  C  C42  1  0.798060  0.164500  0.346600  1.0  -0.1144
  C  C43  1  0.760020  0.232000  0.272100  1.0  0.0373
  C  C44  1  0.712430  0.208800  0.305300  1.0  0.1351
  C  C45  1  0.702020  0.119100  0.414100  1.0  -0.1607
  C  C46  1  0.739580  0.045600  0.482200  1.0  -0.115
  C  C47  1  0.787420  0.070000  0.449800  1.0  0.1069
  C  C48  1  0.650420  0.105600  0.459800  1.0  0.7043
  C  C49  1  0.150330  0.704400  0.184200  1.0  0.6516
  C  C50  1  0.201940  0.664500  0.153400  1.0  -0.1159
  C  C51  1  0.239980  0.732000  0.227900  1.0  0.0363
  C  C52  1  0.287570  0.708800  0.194700  1.0  0.1325
  C  C53  1  0.297980  0.619100  0.085900  1.0  -0.1601
  C  C54  1  0.260420  0.545600  0.017800  1.0  -0.1148
  C  C55  1  0.212580  0.570000  0.050200  1.0  0.1081
  C  C56  1  0.349580  0.605600  0.040200  1.0  0.7025
  C  C57  1  0.150330  0.795600  0.684200  1.0  0.6515
  C  C58  1  0.201940  0.835500  0.653400  1.0  -0.115
  C  C59  1  0.239980  0.768000  0.727900  1.0  0.0364
  C  C60  1  0.287570  0.791200  0.694700  1.0  0.1322
  C  C61  1  0.297980  0.880900  0.585900  1.0  -0.16
  C  C62  1  0.260420  0.954400  0.517800  1.0  -0.1149
  C  C63  1  0.212580  0.930000  0.550200  1.0  0.1065
  C  C64  1  0.349580  0.894400  0.540200  1.0  0.7026
  C  C65  1  0.849670  0.295600  0.815800  1.0  0.6526
  C  C66  1  0.798060  0.335500  0.846600  1.0  -0.1142
  C  C67  1  0.760020  0.268000  0.772100  1.0  0.0368
  C  C68  1  0.712430  0.291200  0.805300  1.0  0.1348
  C  C69  1  0.702020  0.380900  0.914100  1.0  -0.1597
  C  C70  1  0.739580  0.454400  0.982200  1.0  -0.1161
  C  C71  1  0.787420  0.430000  0.949800  1.0  0.1046
  C  C72  1  0.650420  0.394400  0.959800  1.0  0.7045
  O  O73  1  0.967430  0.203100  0.593800  1.0  -0.7603
  O  O74  1  0.978270  0.143100  0.838700  1.0  -0.7378
  O  O75  1  0.016290  0.984800  0.671500  1.0  -0.8724
  O  O76  1  0.926340  0.980900  0.687400  1.0  -0.6104
  O  O77  1  0.532790  0.197400  0.597600  1.0  -0.7811
  O  O78  1  0.475790  0.998100  0.673400  1.0  -0.7961
  O  O79  1  0.523220  0.137900  0.840900  1.0  -0.7473
  O  O80  1  0.564820  0.959600  0.688900  1.0  -0.5798
  O  O81  1  0.881700  0.132500  0.380400  1.0  -0.6177
  O  O82  1  0.618080  0.165700  0.384000  1.0  -0.6056
  O  O83  1  0.856890  0.305400  0.236100  1.0  -0.5528
  O  O84  1  0.643490  0.040800  0.565900  1.0  -0.5652
  O  O85  1  0.032570  0.703100  0.906200  1.0  -0.7597
  O  O86  1  0.021730  0.643100  0.661300  1.0  -0.7383
  O  O87  1  0.983710  0.484800  0.828500  1.0  -0.8718
  O  O88  1  0.073660  0.480900  0.812600  1.0  -0.6119
  O  O89  1  0.467210  0.697400  0.902400  1.0  -0.7802
  O  O90  1  0.524210  0.498100  0.826600  1.0  -0.7972
  O  O91  1  0.476780  0.637900  0.659100  1.0  -0.7478
  O  O92  1  0.435180  0.459600  0.811100  1.0  -0.5769
  O  O93  1  0.118300  0.632500  0.119600  1.0  -0.6171
  O  O94  1  0.381920  0.665700  0.116000  1.0  -0.6073
  O  O95  1  0.143110  0.805400  0.263900  1.0  -0.5529
  O  O96  1  0.356510  0.540800  0.934100  1.0  -0.5653
  O  O97  1  0.032570  0.796900  0.406200  1.0  -0.7597
  O  O98  1  0.021730  0.856900  0.161300  1.0  -0.7386
  O  O99  1  0.983710  0.015200  0.328500  1.0  -0.8727
  O  O100  1  0.073660  0.019100  0.312600  1.0  -0.6089
  O  O101  1  0.467210  0.802600  0.402400  1.0  -0.7793
  O  O102  1  0.524210  0.001900  0.326600  1.0  -0.7975
  O  O103  1  0.476780  0.862100  0.159100  1.0  -0.7471
  O  O104  1  0.435180  0.040400  0.311100  1.0  -0.5772
  O  O105  1  0.118300  0.867500  0.619600  1.0  -0.6164
  O  O106  1  0.381920  0.834300  0.616000  1.0  -0.6074
  O  O107  1  0.143110  0.694600  0.763900  1.0  -0.5522
  O  O108  1  0.356510  0.959200  0.434100  1.0  -0.5668
  O  O109  1  0.967430  0.296900  0.093800  1.0  -0.7606
  O  O110  1  0.978270  0.356900  0.338700  1.0  -0.7383
  O  O111  1  0.016290  0.515200  0.171500  1.0  -0.8725
  O  O112  1  0.926340  0.519100  0.187400  1.0  -0.6082
  O  O113  1  0.532790  0.302600  0.097600  1.0  -0.7791
  O  O114  1  0.475790  0.501900  0.173400  1.0  -0.7959
  O  O115  1  0.523220  0.362100  0.340900  1.0  -0.7467
  O  O116  1  0.564820  0.540400  0.188900  1.0  -0.5797
  O  O117  1  0.881700  0.367500  0.880400  1.0  -0.6171
  O  O118  1  0.618080  0.334300  0.884000  1.0  -0.6055
  O  O119  1  0.856890  0.194600  0.736100  1.0  -0.5525
  O  O120  1  0.643490  0.459200  0.065900  1.0  -0.5659
