# generated using pymatgen
data_ZnPH3(C2O3)2
_symmetry_space_group_name_H-M   'P 1'
_cell_length_a   27.62130000
_cell_length_b   9.11890000
_cell_length_c   9.99540000
_cell_angle_alpha   90.00000000
_cell_angle_beta   92.21100000
_cell_angle_gamma   90.00000000
_symmetry_Int_Tables_number   1
_chemical_formula_structural   ZnPH3(C2O3)2
_chemical_formula_sum   'Zn8 P8 H24 C32 O48'
_cell_volume   2515.72581407
_cell_formula_units_Z   8
loop_
 _symmetry_equiv_pos_site_id
 _symmetry_equiv_pos_as_xyz
  1  'x, y, z'
loop_
 _atom_site_type_symbol
 _atom_site_label
 _atom_site_symmetry_multiplicity
 _atom_site_fract_x
 _atom_site_fract_y
 _atom_site_fract_z
 _atom_site_occupancy
 _atom_site_charge
  Zn  Zn1  1  0.049540  0.322000  0.095950  1.0  1.1483
  Zn  Zn2  1  0.451650  0.321690  0.087880  1.0  1.1633
  Zn  Zn3  1  0.950460  0.822000  0.404050  1.0  1.1485
  Zn  Zn4  1  0.548350  0.821690  0.412120  1.0  1.163
  Zn  Zn5  1  0.950460  0.678000  0.904050  1.0  1.1485
  Zn  Zn6  1  0.548350  0.678310  0.912120  1.0  1.1629
  Zn  Zn7  1  0.049540  0.178000  0.595950  1.0  1.1484
  Zn  Zn8  1  0.451650  0.178310  0.587880  1.0  1.1629
  P  P9  1  0.026630  0.419460  0.804610  1.0  1.7647
  P  P10  1  0.476640  0.422960  0.801320  1.0  1.8095
  P  P11  1  0.973370  0.919460  0.695390  1.0  1.7667
  P  P12  1  0.523360  0.922960  0.698680  1.0  1.8098
  P  P13  1  0.973370  0.580540  0.195390  1.0  1.767
  P  P14  1  0.523360  0.577040  0.198680  1.0  1.8091
  P  P15  1  0.026630  0.080540  0.304610  1.0  1.7648
  P  P16  1  0.476640  0.077040  0.301320  1.0  1.8092
  H  H17  1  0.268800  0.521900  0.937400  1.0  0.1287
  H  H18  1  0.189500  0.489600  0.004200  1.0  0.1202
  H  H19  1  0.233600  0.211700  0.298900  1.0  0.1052
  H  H20  1  0.314800  0.233200  0.240500  1.0  0.1232
  H  H21  1  0.099000  0.450900  0.823900  1.0  0.3541
  H  H22  1  0.420300  0.531300  0.877400  1.0  0.3782
  H  H23  1  0.731200  0.021900  0.562600  1.0  0.1287
  H  H24  1  0.810500  0.989600  0.495800  1.0  0.1203
  H  H25  1  0.766400  0.711700  0.201100  1.0  0.1056
  H  H26  1  0.685200  0.733200  0.259500  1.0  0.1226
  H  H27  1  0.901000  0.950900  0.676100  1.0  0.3529
  H  H28  1  0.579700  0.031300  0.622600  1.0  0.3797
  H  H29  1  0.731200  0.478100  0.062600  1.0  0.1275
  H  H30  1  0.810500  0.510400  0.995800  1.0  0.1199
  H  H31  1  0.766400  0.788300  0.701100  1.0  0.106
  H  H32  1  0.685200  0.766800  0.759500  1.0  0.1225
  H  H33  1  0.901000  0.549100  0.176100  1.0  0.3536
  H  H34  1  0.579700  0.468700  0.122600  1.0  0.3802
  H  H35  1  0.268800  0.978100  0.437400  1.0  0.1277
  H  H36  1  0.189500  0.010400  0.504200  1.0  0.1196
  H  H37  1  0.233600  0.288300  0.798900  1.0  0.1056
  H  H38  1  0.314800  0.266800  0.740500  1.0  0.1226
  H  H39  1  0.099000  0.049100  0.323900  1.0  0.3531
  H  H40  1  0.420300  0.968700  0.377400  1.0  0.3785
  C  C41  1  0.202190  0.334800  0.154500  1.0  -0.1044
  C  C42  1  0.240070  0.266200  0.226800  1.0  -0.0452
  C  C43  1  0.212770  0.429400  0.051300  1.0  -0.0625
  C  C44  1  0.287890  0.290600  0.193200  1.0  -0.0682
  C  C45  1  0.260600  0.452700  0.018100  1.0  -0.1155
  C  C46  1  0.298270  0.380700  0.086900  1.0  -0.0857
  C  C47  1  0.349740  0.394400  0.039400  1.0  0.7013
  C  C48  1  0.150370  0.295300  0.184000  1.0  0.6702
  C  C49  1  0.797810  0.834800  0.345500  1.0  -0.1054
  C  C50  1  0.759930  0.766200  0.273200  1.0  -0.0438
  C  C51  1  0.787230  0.929400  0.448700  1.0  -0.0624
  C  C52  1  0.712110  0.790600  0.306800  1.0  -0.0691
  C  C53  1  0.739400  0.952700  0.481900  1.0  -0.1167
  C  C54  1  0.701730  0.880700  0.413100  1.0  -0.0853
  C  C55  1  0.650260  0.894400  0.460600  1.0  0.7019
  C  C56  1  0.849630  0.795300  0.316000  1.0  0.6706
  C  C57  1  0.797810  0.665200  0.845500  1.0  -0.1049
  C  C58  1  0.759930  0.733800  0.773200  1.0  -0.0438
  C  C59  1  0.787230  0.570600  0.948700  1.0  -0.0623
  C  C60  1  0.712110  0.709400  0.806800  1.0  -0.0699
  C  C61  1  0.739400  0.547300  0.981900  1.0  -0.1174
  C  C62  1  0.701730  0.619300  0.913100  1.0  -0.0865
  C  C63  1  0.650260  0.605600  0.960600  1.0  0.7025
  C  C64  1  0.849630  0.704700  0.816000  1.0  0.6707
  C  C65  1  0.202190  0.165200  0.654500  1.0  -0.105
  C  C66  1  0.240070  0.233800  0.726800  1.0  -0.0452
  C  C67  1  0.212770  0.070600  0.551300  1.0  -0.0615
  C  C68  1  0.287890  0.209400  0.693200  1.0  -0.0689
  C  C69  1  0.260600  0.047300  0.518100  1.0  -0.1169
  C  C70  1  0.298270  0.119300  0.586900  1.0  -0.0857
  C  C71  1  0.349740  0.105600  0.539400  1.0  0.7016
  C  C72  1  0.150370  0.204700  0.684000  1.0  0.6701
  O  O73  1  0.033380  0.297100  0.905100  1.0  -0.7534
  O  O74  1  0.021710  0.357200  0.662100  1.0  -0.7321
  O  O75  1  0.983620  0.514800  0.828200  1.0  -0.8305
  O  O76  1  0.073940  0.518900  0.813200  1.0  -0.514
  O  O77  1  0.467380  0.302900  0.901200  1.0  -0.7539
  O  O78  1  0.524750  0.501000  0.826300  1.0  -0.7751
  O  O79  1  0.435510  0.541400  0.811300  1.0  -0.5789
  O  O80  1  0.476570  0.362600  0.659300  1.0  -0.7409
  O  O81  1  0.118210  0.366800  0.119600  1.0  -0.5909
  O  O82  1  0.143550  0.194400  0.264300  1.0  -0.5812
  O  O83  1  0.356550  0.459900  0.934200  1.0  -0.5022
  O  O84  1  0.381970  0.334000  0.115500  1.0  -0.6277
  O  O85  1  0.966620  0.797100  0.594900  1.0  -0.7539
  O  O86  1  0.978290  0.857200  0.837900  1.0  -0.7324
  O  O87  1  0.016380  0.014800  0.671800  1.0  -0.8307
  O  O88  1  0.926060  0.018900  0.686800  1.0  -0.517
  O  O89  1  0.532620  0.802900  0.598800  1.0  -0.7542
  O  O90  1  0.475250  0.001000  0.673700  1.0  -0.7754
  O  O91  1  0.564490  0.041400  0.688700  1.0  -0.582
  O  O92  1  0.523430  0.862600  0.840700  1.0  -0.7412
  O  O93  1  0.881790  0.866800  0.380400  1.0  -0.5895
  O  O94  1  0.856450  0.694400  0.235700  1.0  -0.5808
  O  O95  1  0.643450  0.959900  0.565800  1.0  -0.5028
  O  O96  1  0.618030  0.834000  0.384500  1.0  -0.6278
  O  O97  1  0.966620  0.702900  0.094900  1.0  -0.7542
  O  O98  1  0.978290  0.642800  0.337900  1.0  -0.7318
  O  O99  1  0.016380  0.485200  0.171800  1.0  -0.8307
  O  O100  1  0.926060  0.481100  0.186800  1.0  -0.5179
  O  O101  1  0.532620  0.697100  0.098800  1.0  -0.7552
  O  O102  1  0.475250  0.499000  0.173700  1.0  -0.7753
  O  O103  1  0.564490  0.458600  0.188700  1.0  -0.5819
  O  O104  1  0.523430  0.637400  0.340700  1.0  -0.7407
  O  O105  1  0.881790  0.633200  0.880400  1.0  -0.5891
  O  O106  1  0.856450  0.805600  0.735700  1.0  -0.5817
  O  O107  1  0.643450  0.540100  0.065800  1.0  -0.5025
  O  O108  1  0.618030  0.666000  0.884500  1.0  -0.6275
  O  O109  1  0.033380  0.202900  0.405100  1.0  -0.754
  O  O110  1  0.021710  0.142800  0.162100  1.0  -0.7319
  O  O111  1  0.983620  0.985200  0.328200  1.0  -0.8301
  O  O112  1  0.073940  0.981100  0.313200  1.0  -0.5174
  O  O113  1  0.467380  0.197100  0.401200  1.0  -0.754
  O  O114  1  0.524750  0.999000  0.326300  1.0  -0.7743
  O  O115  1  0.435510  0.958600  0.311300  1.0  -0.5788
  O  O116  1  0.476570  0.137400  0.159300  1.0  -0.7409
  O  O117  1  0.118210  0.133200  0.619600  1.0  -0.5903
  O  O118  1  0.143550  0.305600  0.764300  1.0  -0.5823
  O  O119  1  0.356550  0.040100  0.434200  1.0  -0.5014
  O  O120  1  0.381970  0.166000  0.615500  1.0  -0.6276
