# generated using pymatgen
data_Al3P3O12F
_symmetry_space_group_name_H-M   'P 1'
_cell_length_a   9.15400000
_cell_length_b   9.23900000
_cell_length_c   9.34500000
_cell_angle_alpha   78.23100000
_cell_angle_beta   87.48500000
_cell_angle_gamma   87.17900000
_symmetry_Int_Tables_number   1
_chemical_formula_structural   Al3P3O12F
_chemical_formula_sum   'Al6 P6 O24 F2'
_cell_volume   772.32691008
_cell_formula_units_Z   2
loop_
 _symmetry_equiv_pos_site_id
 _symmetry_equiv_pos_as_xyz
  1  'x, y, z'
loop_
 _atom_site_type_symbol
 _atom_site_label
 _atom_site_symmetry_multiplicity
 _atom_site_fract_x
 _atom_site_fract_y
 _atom_site_fract_z
 _atom_site_occupancy
 _atom_site_charge
  Al  Al1  1  0.630700  0.896800  0.339700  1.0  2.0007
  Al  Al2  1  0.837100  0.867300  0.926800  1.0  1.9836
  Al  Al3  1  0.438500  0.631600  0.908000  1.0  1.8394
  Al  Al4  1  0.369300  0.103200  0.660300  1.0  2.0004
  Al  Al5  1  0.162900  0.132700  0.073200  1.0  1.9841
  Al  Al6  1  0.561500  0.368400  0.092000  1.0  1.8384
  P  P7  1  0.617000  0.860300  0.678600  1.0  1.9985
  P  P8  1  0.812600  0.111100  0.105400  1.0  2.0751
  P  P9  1  0.648700  0.669400  0.138100  1.0  1.849
  P  P10  1  0.383000  0.139700  0.321400  1.0  1.9933
  P  P11  1  0.187400  0.888900  0.894600  1.0  2.0753
  P  P12  1  0.351300  0.330600  0.861900  1.0  1.846
  O  O13  1  0.536000  0.734800  0.026100  1.0  -0.8298
  O  O14  1  0.787500  0.035100  0.977700  1.0  -0.9667
  O  O15  1  0.648400  0.502200  0.187000  1.0  -0.7535
  O  O16  1  0.731000  0.258000  0.087100  1.0  -0.9255
  O  O17  1  0.768000  0.009400  0.249700  1.0  -1.0107
  O  O18  1  0.514500  0.735600  0.733900  1.0  -0.9053
  O  O19  1  0.976800  0.135300  0.112000  1.0  -0.9784
  O  O20  1  0.801500  0.718600  0.070900  1.0  -0.8362
  O  O21  1  0.752600  0.850900  0.770800  1.0  -0.9879
  O  O22  1  0.674000  0.851000  0.523400  1.0  -1.0022
  O  O23  1  0.625000  0.735300  0.277000  1.0  -0.9508
  O  O24  1  0.539200  0.010400  0.675200  1.0  -1.0338
  O  O25  1  0.464000  0.265200  0.973900  1.0  -0.831
  O  O26  1  0.212500  0.964900  0.022300  1.0  -0.967
  O  O27  1  0.351600  0.497800  0.813000  1.0  -0.7548
  O  O28  1  0.269000  0.742000  0.912900  1.0  -0.9252
  O  O29  1  0.232000  0.990600  0.750300  1.0  -1.0099
  O  O30  1  0.485500  0.264400  0.266100  1.0  -0.904
  O  O31  1  0.023200  0.864700  0.888000  1.0  -0.9806
  O  O32  1  0.198500  0.281400  0.929100  1.0  -0.8327
  O  O33  1  0.247400  0.149100  0.229200  1.0  -0.9876
  O  O34  1  0.326000  0.149000  0.476600  1.0  -1.0035
  O  O35  1  0.375000  0.264700  0.723000  1.0  -0.9498
  O  O36  1  0.460800  0.989600  0.324800  1.0  -1.0334
  F  F37  1  0.605300  0.502300  0.919500  1.0  -0.5619
  F  F38  1  0.394700  0.497700  0.080500  1.0  -0.562
