# generated using pymatgen
data_MnH4C4O5
_symmetry_space_group_name_H-M   'P 1'
_cell_length_a   6.96430000
_cell_length_b   9.97240000
_cell_length_c   11.19510000
_cell_angle_alpha   90.00000000
_cell_angle_beta   90.00000000
_cell_angle_gamma   90.00000000
_symmetry_Int_Tables_number   1
_chemical_formula_structural   MnH4C4O5
_chemical_formula_sum   'Mn4 H16 C16 O20'
_cell_volume   777.50848674
_cell_formula_units_Z   4
loop_
 _symmetry_equiv_pos_site_id
 _symmetry_equiv_pos_as_xyz
  1  'x, y, z'
loop_
 _atom_site_type_symbol
 _atom_site_label
 _atom_site_symmetry_multiplicity
 _atom_site_fract_x
 _atom_site_fract_y
 _atom_site_fract_z
 _atom_site_occupancy
 _atom_site_charge
  Mn  Mn1  1  0.125700  0.202690  0.210810  1.0  1.0677
  Mn  Mn2  1  0.374300  0.797310  0.710810  1.0  1.068
  Mn  Mn3  1  0.874300  0.702690  0.289190  1.0  1.0686
  Mn  Mn4  1  0.625700  0.297310  0.789190  1.0  1.0685
  H  H5  1  0.459000  0.900000  0.199000  1.0  0.1114
  H  H6  1  0.348000  0.909000  0.074000  1.0  0.1083
  H  H7  1  0.619000  0.126000  0.077000  1.0  0.1291
  H  H8  1  0.472000  0.088000  0.989000  1.0  0.101
  H  H9  1  0.041000  0.100000  0.699000  1.0  0.1111
  H  H10  1  0.152000  0.091000  0.574000  1.0  0.1076
  H  H11  1  0.881000  0.874000  0.577000  1.0  0.1344
  H  H12  1  0.028000  0.912000  0.489000  1.0  0.1016
  H  H13  1  0.541000  0.400000  0.301000  1.0  0.1114
  H  H14  1  0.652000  0.409000  0.426000  1.0  0.108
  H  H15  1  0.381000  0.626000  0.423000  1.0  0.1344
  H  H16  1  0.528000  0.588000  0.511000  1.0  0.1008
  H  H17  1  0.959000  0.600000  0.801000  1.0  0.111
  H  H18  1  0.848000  0.591000  0.926000  1.0  0.1082
  H  H19  1  0.119000  0.374000  0.923000  1.0  0.1287
  H  H20  1  0.972000  0.412000  0.011000  1.0  0.1006
  C  C21  1  0.171100  0.903500  0.220800  1.0  0.677
  C  C22  1  0.355200  0.939300  0.155600  1.0  -0.0678
  C  C23  1  0.493700  0.134500  0.064700  1.0  -0.0853
  C  C24  1  0.448300  0.282000  0.053200  1.0  0.6886
  C  C25  1  0.328900  0.096500  0.720800  1.0  0.676
  C  C26  1  0.144800  0.060700  0.655600  1.0  -0.0685
  C  C27  1  0.006300  0.865500  0.564700  1.0  -0.0871
  C  C28  1  0.051700  0.718000  0.553200  1.0  0.6892
  C  C29  1  0.828900  0.403500  0.279200  1.0  0.6752
  C  C30  1  0.644800  0.439300  0.344400  1.0  -0.0682
  C  C31  1  0.506300  0.634500  0.435300  1.0  -0.0864
  C  C32  1  0.551700  0.782000  0.446800  1.0  0.6885
  C  C33  1  0.671100  0.596500  0.779200  1.0  0.6762
  C  C34  1  0.855200  0.560700  0.844400  1.0  -0.067
  C  C35  1  0.993700  0.365500  0.935300  1.0  -0.0856
  C  C36  1  0.948300  0.218000  0.946800  1.0  0.6891
  O  O37  1  0.063300  0.992300  0.258300  1.0  -0.5845
  O  O38  1  0.337100  0.335600  0.126600  1.0  -0.617
  O  O39  1  0.380900  0.080800  0.159020  1.0  -0.2932
  O  O40  1  0.142100  0.778800  0.231700  1.0  -0.6112
  O  O41  1  0.528100  0.345000  0.969500  1.0  -0.6238
  O  O42  1  0.436700  0.007700  0.758300  1.0  -0.5849
  O  O43  1  0.162900  0.664400  0.626600  1.0  -0.6165
  O  O44  1  0.119100  0.919200  0.659020  1.0  -0.2931
  O  O45  1  0.357900  0.221200  0.731700  1.0  -0.6121
  O  O46  1  0.971900  0.655000  0.469500  1.0  -0.6243
  O  O47  1  0.936700  0.492300  0.241700  1.0  -0.5843
  O  O48  1  0.662900  0.835600  0.373400  1.0  -0.6176
  O  O49  1  0.619100  0.580800  0.340980  1.0  -0.2935
  O  O50  1  0.857900  0.278800  0.268300  1.0  -0.6117
  O  O51  1  0.471900  0.845000  0.530500  1.0  -0.624
  O  O52  1  0.563300  0.507700  0.741700  1.0  -0.5849
  O  O53  1  0.837100  0.164400  0.873400  1.0  -0.6179
  O  O54  1  0.880900  0.419200  0.840980  1.0  -0.2956
  O  O55  1  0.642100  0.721200  0.768300  1.0  -0.6107
  O  O56  1  0.028100  0.155000  0.030500  1.0  -0.6238
