# generated using pymatgen
data_MnH4C4O5
_symmetry_space_group_name_H-M   'P 1'
_cell_length_a   6.87960000
_cell_length_b   9.85600000
_cell_length_c   11.06700000
_cell_angle_alpha   90.00000000
_cell_angle_beta   90.00000000
_cell_angle_gamma   90.00000000
_symmetry_Int_Tables_number   1
_chemical_formula_structural   MnH4C4O5
_chemical_formula_sum   'Mn4 H16 C16 O20'
_cell_volume   750.40167122
_cell_formula_units_Z   4
loop_
 _symmetry_equiv_pos_site_id
 _symmetry_equiv_pos_as_xyz
  1  'x, y, z'
loop_
 _atom_site_type_symbol
 _atom_site_label
 _atom_site_symmetry_multiplicity
 _atom_site_fract_x
 _atom_site_fract_y
 _atom_site_fract_z
 _atom_site_occupancy
 _atom_site_charge
  Mn  Mn1  1  0.125530  0.202590  0.710680  1.0  1.055
  Mn  Mn2  1  0.374470  0.797410  0.210680  1.0  1.0554
  Mn  Mn3  1  0.874470  0.702590  0.789320  1.0  1.0562
  Mn  Mn4  1  0.625530  0.297410  0.289320  1.0  1.0556
  H  H5  1  0.349200  0.908500  0.572500  1.0  0.101
  H  H6  1  0.465800  0.894700  0.694100  1.0  0.1017
  H  H7  1  0.630900  0.121900  0.582500  1.0  0.104
  H  H8  1  0.464600  0.087200  0.489900  1.0  0.0927
  H  H9  1  0.150800  0.091500  0.072500  1.0  0.1008
  H  H10  1  0.034200  0.105300  0.194100  1.0  0.1016
  H  H11  1  0.869100  0.878100  0.082500  1.0  0.1039
  H  H12  1  0.035400  0.912800  0.989900  1.0  0.0927
  H  H13  1  0.650800  0.408500  0.927500  1.0  0.1014
  H  H14  1  0.534200  0.394700  0.805900  1.0  0.1023
  H  H15  1  0.369100  0.621900  0.917500  1.0  0.1038
  H  H16  1  0.535400  0.587200  0.010100  1.0  0.0923
  H  H17  1  0.849200  0.591500  0.427500  1.0  0.1015
  H  H18  1  0.965800  0.605300  0.305900  1.0  0.1014
  H  H19  1  0.130900  0.378100  0.417500  1.0  0.1037
  H  H20  1  0.964600  0.412800  0.510100  1.0  0.0919
  C  C21  1  0.171600  0.903640  0.720870  1.0  0.6852
  C  C22  1  0.356200  0.939090  0.655650  1.0  -0.0707
  C  C23  1  0.493900  0.134080  0.564860  1.0  -0.1013
  C  C24  1  0.448100  0.282340  0.552560  1.0  0.7115
  C  C25  1  0.328400  0.096360  0.220870  1.0  0.6856
  C  C26  1  0.143800  0.060910  0.155650  1.0  -0.0711
  C  C27  1  0.006100  0.865920  0.064860  1.0  -0.1021
  C  C28  1  0.051900  0.717660  0.052560  1.0  0.7116
  C  C29  1  0.828400  0.403640  0.779130  1.0  0.6852
  C  C30  1  0.643800  0.439090  0.844350  1.0  -0.07
  C  C31  1  0.506100  0.634080  0.935140  1.0  -0.1016
  C  C32  1  0.551900  0.782340  0.947440  1.0  0.711
  C  C33  1  0.671600  0.596360  0.279130  1.0  0.685
  C  C34  1  0.856200  0.560910  0.344350  1.0  -0.0704
  C  C35  1  0.993900  0.365920  0.435140  1.0  -0.102
  C  C36  1  0.948100  0.217660  0.447440  1.0  0.7118
  O  O37  1  0.141700  0.778090  0.731600  1.0  -0.6094
  O  O38  1  0.063520  0.992700  0.758150  1.0  -0.5794
  O  O39  1  0.336120  0.335870  0.626430  1.0  -0.6058
  O  O40  1  0.527300  0.345200  0.469130  1.0  -0.609
  O  O41  1  0.380680  0.080630  0.659320  1.0  -0.2761
  O  O42  1  0.358300  0.221910  0.231600  1.0  -0.6094
  O  O43  1  0.436480  0.007300  0.258150  1.0  -0.5795
  O  O44  1  0.163880  0.664130  0.126430  1.0  -0.6043
  O  O45  1  0.972700  0.654800  0.969130  1.0  -0.6094
  O  O46  1  0.119320  0.919370  0.159320  1.0  -0.276
  O  O47  1  0.858300  0.278090  0.768400  1.0  -0.609
  O  O48  1  0.936480  0.492700  0.741850  1.0  -0.5785
  O  O49  1  0.663880  0.835870  0.873570  1.0  -0.6065
  O  O50  1  0.472700  0.845200  0.030870  1.0  -0.6078
  O  O51  1  0.619320  0.580630  0.840680  1.0  -0.2753
  O  O52  1  0.641700  0.721910  0.268400  1.0  -0.6087
  O  O53  1  0.563520  0.507300  0.241850  1.0  -0.5805
  O  O54  1  0.836120  0.164130  0.373570  1.0  -0.6057
  O  O55  1  0.027300  0.154800  0.530870  1.0  -0.6086
  O  O56  1  0.880680  0.419370  0.340680  1.0  -0.2774
