# generated using pymatgen
data_Co3H8C14(NO)6
_symmetry_space_group_name_H-M   'P 1'
_cell_length_a   17.51800000
_cell_length_b   13.30900000
_cell_length_c   11.18100000
_cell_angle_alpha   90.00000000
_cell_angle_beta   95.87300000
_cell_angle_gamma   90.00000000
_symmetry_Int_Tables_number   1
_chemical_formula_structural   Co3H8C14(NO)6
_chemical_formula_sum   'Co12 H32 C56 N24 O24'
_cell_volume   2593.13449814
_cell_formula_units_Z   4
loop_
 _symmetry_equiv_pos_site_id
 _symmetry_equiv_pos_as_xyz
  1  'x, y, z'
loop_
 _atom_site_type_symbol
 _atom_site_label
 _atom_site_symmetry_multiplicity
 _atom_site_fract_x
 _atom_site_fract_y
 _atom_site_fract_z
 _atom_site_occupancy
 _atom_site_charge
  Co  Co1  1  0.919290  0.941880  0.998510  1.0  0.948
  Co  Co2  1  0.419290  0.441880  0.998510  1.0  0.948
  Co  Co3  1  0.080710  0.941880  0.501490  1.0  0.9481
  Co  Co4  1  0.580710  0.441880  0.501490  1.0  0.9481
  Co  Co5  1  0.080710  0.058120  0.001490  1.0  0.9497
  Co  Co6  1  0.580710  0.558120  0.001490  1.0  0.9497
  Co  Co7  1  0.919290  0.058120  0.498510  1.0  0.9497
  Co  Co8  1  0.419290  0.558120  0.498510  1.0  0.9497
  Co  Co9  1  0.000000  0.091340  0.250000  1.0  0.9951
  Co  Co10  1  0.500000  0.591340  0.250000  1.0  0.9951
  Co  Co11  1  0.000000  0.908660  0.750000  1.0  0.9969
  Co  Co12  1  0.500000  0.408660  0.750000  1.0  0.9969
  H  H13  1  0.746500  0.812400  0.065900  1.0  0.1123
  H  H14  1  0.759600  0.893400  0.479600  1.0  0.1167
  H  H15  1  0.665400  0.788100  0.389100  1.0  0.0981
  H  H16  1  0.951000  0.130000  0.061000  1.0  0.4608
  H  H17  1  0.246500  0.312400  0.065900  1.0  0.1123
  H  H18  1  0.259600  0.393400  0.479600  1.0  0.1167
  H  H19  1  0.165400  0.288100  0.389100  1.0  0.0981
  H  H20  1  0.451000  0.630000  0.061000  1.0  0.4608
  H  H21  1  0.253500  0.812400  0.434100  1.0  0.1118
  H  H22  1  0.240400  0.893400  0.020400  1.0  0.1171
  H  H23  1  0.334600  0.788100  0.110900  1.0  0.098
  H  H24  1  0.049000  0.130000  0.439000  1.0  0.4604
  H  H25  1  0.753500  0.312400  0.434100  1.0  0.1118
  H  H26  1  0.740400  0.393400  0.020400  1.0  0.1171
  H  H27  1  0.834600  0.288100  0.110900  1.0  0.098
  H  H28  1  0.549000  0.630000  0.439000  1.0  0.4604
  H  H29  1  0.253500  0.187600  0.934100  1.0  0.112
  H  H30  1  0.240400  0.106600  0.520400  1.0  0.1173
  H  H31  1  0.334600  0.211900  0.610900  1.0  0.0983
  H  H32  1  0.049000  0.870000  0.939000  1.0  0.4597
  H  H33  1  0.753500  0.687600  0.934100  1.0  0.112
  H  H34  1  0.740400  0.606600  0.520400  1.0  0.1173
  H  H35  1  0.834600  0.711900  0.610900  1.0  0.0983
  H  H36  1  0.549000  0.370000  0.939000  1.0  0.4597
  H  H37  1  0.746500  0.187600  0.565900  1.0  0.1124
  H  H38  1  0.759600  0.106600  0.979600  1.0  0.1171
  H  H39  1  0.665400  0.211900  0.889100  1.0  0.0983
  H  H40  1  0.951000  0.870000  0.561000  1.0  0.4597
  H  H41  1  0.246500  0.687600  0.565900  1.0  0.1124
  H  H42  1  0.259600  0.606600  0.979600  1.0  0.1171
  H  H43  1  0.165400  0.711900  0.889100  1.0  0.0983
  H  H44  1  0.451000  0.370000  0.561000  1.0  0.4597
  C  C45  1  0.633900  0.718800  0.170200  1.0  0.7173
  C  C46  1  0.697200  0.790800  0.219300  1.0  -0.1519
  C  C47  1  0.749800  0.828300  0.147300  1.0  -0.0088
  C  C48  1  0.808400  0.891200  0.199600  1.0  0.0857
  C  C49  1  0.811000  0.913500  0.325200  1.0  0.1344
  C  C50  1  0.757600  0.877000  0.398500  1.0  -0.1386
  C  C51  1  0.701700  0.815100  0.343200  1.0  -0.0189
  C  C52  1  0.133900  0.218800  0.170200  1.0  0.7173
  C  C53  1  0.197200  0.290800  0.219300  1.0  -0.1519
  C  C54  1  0.249800  0.328300  0.147300  1.0  -0.0088
  C  C55  1  0.308400  0.391200  0.199600  1.0  0.0857
  C  C56  1  0.311000  0.413500  0.325200  1.0  0.1344
  C  C57  1  0.257600  0.377000  0.398500  1.0  -0.1386
  C  C58  1  0.201700  0.315100  0.343200  1.0  -0.0189
  C  C59  1  0.366100  0.718800  0.329800  1.0  0.7168
  C  C60  1  0.302800  0.790800  0.280700  1.0  -0.1527
  C  C61  1  0.250200  0.828300  0.352700  1.0  -0.0111
  C  C62  1  0.191600  0.891200  0.300400  1.0  0.0845
  C  C63  1  0.189000  0.913500  0.174800  1.0  0.1343
  C  C64  1  0.242400  0.877000  0.101500  1.0  -0.1384
  C  C65  1  0.298300  0.815100  0.156800  1.0  -0.0191
  C  C66  1  0.866100  0.218800  0.329800  1.0  0.7168
  C  C67  1  0.802800  0.290800  0.280700  1.0  -0.1527
  C  C68  1  0.750200  0.328300  0.352700  1.0  -0.0111
  C  C69  1  0.691600  0.391200  0.300400  1.0  0.0845
  C  C70  1  0.689000  0.413500  0.174800  1.0  0.1343
  C  C71  1  0.742400  0.377000  0.101500  1.0  -0.1384
  C  C72  1  0.798300  0.315100  0.156800  1.0  -0.0191
  C  C73  1  0.366100  0.281200  0.829800  1.0  0.716
  C  C74  1  0.302800  0.209200  0.780700  1.0  -0.1529
  C  C75  1  0.250200  0.171700  0.852700  1.0  -0.0111
  C  C76  1  0.191600  0.108800  0.800400  1.0  0.0843
  C  C77  1  0.189000  0.086500  0.674800  1.0  0.1345
  C  C78  1  0.242400  0.123000  0.601500  1.0  -0.1385
  C  C79  1  0.298300  0.184900  0.656800  1.0  -0.0196
  C  C80  1  0.866100  0.781200  0.829800  1.0  0.716
  C  C81  1  0.802800  0.709200  0.780700  1.0  -0.1529
  C  C82  1  0.750200  0.671700  0.852700  1.0  -0.0111
  C  C83  1  0.691600  0.608800  0.800400  1.0  0.0843
  C  C84  1  0.689000  0.586500  0.674800  1.0  0.1345
  C  C85  1  0.742400  0.623000  0.601500  1.0  -0.1385
  C  C86  1  0.798300  0.684900  0.656800  1.0  -0.0196
  C  C87  1  0.633900  0.281200  0.670200  1.0  0.7168
  C  C88  1  0.697200  0.209200  0.719300  1.0  -0.1519
  C  C89  1  0.749800  0.171700  0.647300  1.0  -0.0089
  C  C90  1  0.808400  0.108800  0.699600  1.0  0.0857
  C  C91  1  0.811000  0.086500  0.825200  1.0  0.1342
  C  C92  1  0.757600  0.123000  0.898500  1.0  -0.1388
  C  C93  1  0.701700  0.184900  0.843200  1.0  -0.0186
  C  C94  1  0.133900  0.781200  0.670200  1.0  0.7168
  C  C95  1  0.197200  0.709200  0.719300  1.0  -0.1519
  C  C96  1  0.249800  0.671700  0.647300  1.0  -0.0089
  C  C97  1  0.308400  0.608800  0.699600  1.0  0.0857
  C  C98  1  0.311000  0.586500  0.825200  1.0  0.1342
  C  C99  1  0.257600  0.623000  0.898500  1.0  -0.1388
  C  C100  1  0.201700  0.684900  0.843200  1.0  -0.0186
  N  N101  1  0.873000  0.974100  0.353100  1.0  -0.321
  N  N102  1  0.907300  0.986000  0.251000  1.0  -0.0823
  N  N103  1  0.870000  0.938800  0.160200  1.0  -0.234
  N  N104  1  0.373000  0.474100  0.353100  1.0  -0.321
  N  N105  1  0.407300  0.486000  0.251000  1.0  -0.0823
  N  N106  1  0.370000  0.438800  0.160200  1.0  -0.234
  N  N107  1  0.127000  0.974100  0.146900  1.0  -0.3222
  N  N108  1  0.092700  0.986000  0.249000  1.0  -0.0824
  N  N109  1  0.130000  0.938800  0.339800  1.0  -0.2369
  N  N110  1  0.627000  0.474100  0.146900  1.0  -0.3222
  N  N111  1  0.592700  0.486000  0.249000  1.0  -0.0824
  N  N112  1  0.630000  0.438800  0.339800  1.0  -0.2369
  N  N113  1  0.127000  0.025900  0.646900  1.0  -0.323
  N  N114  1  0.092700  0.014000  0.749000  1.0  -0.0827
  N  N115  1  0.130000  0.061200  0.839800  1.0  -0.2373
  N  N116  1  0.627000  0.525900  0.646900  1.0  -0.323
  N  N117  1  0.592700  0.514000  0.749000  1.0  -0.0827
  N  N118  1  0.630000  0.561200  0.839800  1.0  -0.2373
  N  N119  1  0.873000  0.025900  0.853100  1.0  -0.3219
  N  N120  1  0.907300  0.014000  0.751000  1.0  -0.0825
  N  N121  1  0.870000  0.061200  0.660200  1.0  -0.2343
  N  N122  1  0.373000  0.525900  0.853100  1.0  -0.3219
  N  N123  1  0.407300  0.514000  0.751000  1.0  -0.0825
  N  N124  1  0.370000  0.561200  0.660200  1.0  -0.2343
  O  O125  1  0.582300  0.701900  0.236100  1.0  -0.6174
  O  O126  1  0.636900  0.683000  0.063400  1.0  -0.6038
  O  O127  1  0.978100  0.076400  0.064500  1.0  -0.9898
  O  O128  1  0.082300  0.201900  0.236100  1.0  -0.6174
  O  O129  1  0.136900  0.183000  0.063400  1.0  -0.6038
  O  O130  1  0.478100  0.576400  0.064500  1.0  -0.9898
  O  O131  1  0.417700  0.701900  0.263900  1.0  -0.6175
  O  O132  1  0.363100  0.683000  0.436600  1.0  -0.6034
  O  O133  1  0.021900  0.076400  0.435500  1.0  -0.9898
  O  O134  1  0.917700  0.201900  0.263900  1.0  -0.6175
  O  O135  1  0.863100  0.183000  0.436600  1.0  -0.6034
  O  O136  1  0.521900  0.576400  0.435500  1.0  -0.9898
  O  O137  1  0.417700  0.298100  0.763900  1.0  -0.616
  O  O138  1  0.363100  0.317000  0.936600  1.0  -0.6041
  O  O139  1  0.021900  0.923600  0.935500  1.0  -0.9894
  O  O140  1  0.917700  0.798100  0.763900  1.0  -0.616
  O  O141  1  0.863100  0.817000  0.936600  1.0  -0.6041
  O  O142  1  0.521900  0.423600  0.935500  1.0  -0.9894
  O  O143  1  0.582300  0.298100  0.736100  1.0  -0.6169
  O  O144  1  0.636900  0.317000  0.563400  1.0  -0.6042
  O  O145  1  0.978100  0.923600  0.564500  1.0  -0.9897
  O  O146  1  0.082300  0.798100  0.736100  1.0  -0.6169
  O  O147  1  0.136900  0.817000  0.563400  1.0  -0.6042
  O  O148  1  0.478100  0.423600  0.564500  1.0  -0.9897
