# generated using pymatgen
data_Co3H8C14(NO)6
_symmetry_space_group_name_H-M   'P 1'
_cell_length_a   17.85240000
_cell_length_b   12.61770000
_cell_length_c   11.18810000
_cell_angle_alpha   90.00000000
_cell_angle_beta   94.81990000
_cell_angle_gamma   90.00000000
_symmetry_Int_Tables_number   1
_chemical_formula_structural   Co3H8C14(NO)6
_chemical_formula_sum   'Co12 H32 C56 N24 O24'
_cell_volume   2511.27714462
_cell_formula_units_Z   4
loop_
 _symmetry_equiv_pos_site_id
 _symmetry_equiv_pos_as_xyz
  1  'x, y, z'
loop_
 _atom_site_type_symbol
 _atom_site_label
 _atom_site_symmetry_multiplicity
 _atom_site_fract_x
 _atom_site_fract_y
 _atom_site_fract_z
 _atom_site_occupancy
 _atom_site_charge
  Co  Co1  1  0.421340  0.559270  0.500550  1.0  0.9481
  Co  Co2  1  0.921340  0.059270  0.500550  1.0  0.9481
  Co  Co3  1  0.578660  0.559270  0.999450  1.0  0.9485
  Co  Co4  1  0.078660  0.059270  0.999450  1.0  0.9485
  Co  Co5  1  0.578660  0.440730  0.499450  1.0  0.9475
  Co  Co6  1  0.078660  0.940730  0.499450  1.0  0.9475
  Co  Co7  1  0.421340  0.440730  0.000550  1.0  0.947
  Co  Co8  1  0.921340  0.940730  0.000550  1.0  0.947
  Co  Co9  1  0.500000  0.595770  0.250000  1.0  1.0251
  Co  Co10  1  0.000000  0.095770  0.250000  1.0  1.0251
  Co  Co11  1  0.500000  0.404230  0.750000  1.0  1.0269
  Co  Co12  1  0.000000  0.904230  0.750000  1.0  1.0269
  H  H13  1  0.762200  0.888300  0.483300  1.0  0.127
  H  H14  1  0.665100  0.788500  0.391100  1.0  0.1041
  H  H15  1  0.750800  0.811800  0.066700  1.0  0.124
  H  H16  1  0.545000  0.640000  0.467000  1.0  0.4106
  H  H17  1  0.262200  0.388300  0.483300  1.0  0.127
  H  H18  1  0.165100  0.288500  0.391100  1.0  0.1041
  H  H19  1  0.250800  0.311800  0.066700  1.0  0.124
  H  H20  1  0.045000  0.140000  0.467000  1.0  0.4106
  H  H21  1  0.237800  0.888300  0.016700  1.0  0.127
  H  H22  1  0.334900  0.788500  0.108900  1.0  0.1042
  H  H23  1  0.249200  0.811800  0.433300  1.0  0.1228
  H  H24  1  0.455000  0.640000  0.033000  1.0  0.4117
  H  H25  1  0.737800  0.388300  0.016700  1.0  0.127
  H  H26  1  0.834900  0.288500  0.108900  1.0  0.1042
  H  H27  1  0.749200  0.311800  0.433300  1.0  0.1228
  H  H28  1  0.955000  0.140000  0.033000  1.0  0.4117
  H  H29  1  0.237800  0.111700  0.516700  1.0  0.1268
  H  H30  1  0.334900  0.211500  0.608900  1.0  0.105
  H  H31  1  0.249200  0.188200  0.933300  1.0  0.1229
  H  H32  1  0.455000  0.360000  0.533000  1.0  0.4124
  H  H33  1  0.737800  0.611700  0.516700  1.0  0.1268
  H  H34  1  0.834900  0.711500  0.608900  1.0  0.105
  H  H35  1  0.749200  0.688200  0.933300  1.0  0.1229
  H  H36  1  0.955000  0.860000  0.533000  1.0  0.4124
  H  H37  1  0.762200  0.111700  0.983300  1.0  0.1271
  H  H38  1  0.665100  0.211500  0.891100  1.0  0.1047
  H  H39  1  0.750800  0.188200  0.566700  1.0  0.124
  H  H40  1  0.545000  0.360000  0.967000  1.0  0.4119
  H  H41  1  0.262200  0.611700  0.983300  1.0  0.1271
  H  H42  1  0.165100  0.711500  0.891100  1.0  0.1047
  H  H43  1  0.250800  0.688200  0.566700  1.0  0.124
  H  H44  1  0.045000  0.860000  0.967000  1.0  0.4119
  C  C45  1  0.811800  0.887600  0.205300  1.0  0.1005
  C  C46  1  0.814800  0.910900  0.328100  1.0  0.1257
  C  C47  1  0.759800  0.873500  0.400700  1.0  -0.1535
  C  C48  1  0.702700  0.814800  0.345200  1.0  -0.0397
  C  C49  1  0.698400  0.792000  0.220300  1.0  -0.1283
  C  C50  1  0.753000  0.827400  0.149100  1.0  -0.0467
  C  C51  1  0.633000  0.726600  0.168300  1.0  0.7051
  C  C52  1  0.311800  0.387600  0.205300  1.0  0.1005
  C  C53  1  0.314800  0.410900  0.328100  1.0  0.1257
  C  C54  1  0.259800  0.373500  0.400700  1.0  -0.1535
  C  C55  1  0.202700  0.314800  0.345200  1.0  -0.0397
  C  C56  1  0.198400  0.292000  0.220300  1.0  -0.1283
  C  C57  1  0.253000  0.327400  0.149100  1.0  -0.0467
  C  C58  1  0.133000  0.226600  0.168300  1.0  0.7051
  C  C59  1  0.188200  0.887600  0.294700  1.0  0.0996
  C  C60  1  0.185200  0.910900  0.171900  1.0  0.1278
  C  C61  1  0.240200  0.873500  0.099300  1.0  -0.1513
  C  C62  1  0.297300  0.814800  0.154800  1.0  -0.0394
  C  C63  1  0.301600  0.792000  0.279700  1.0  -0.1291
  C  C64  1  0.247000  0.827400  0.350900  1.0  -0.0483
  C  C65  1  0.367000  0.726600  0.331700  1.0  0.7044
  C  C66  1  0.688200  0.387600  0.294700  1.0  0.0996
  C  C67  1  0.685200  0.410900  0.171900  1.0  0.1278
  C  C68  1  0.740200  0.373500  0.099300  1.0  -0.1513
  C  C69  1  0.797300  0.314800  0.154800  1.0  -0.0394
  C  C70  1  0.801600  0.292000  0.279700  1.0  -0.1291
  C  C71  1  0.747000  0.327400  0.350900  1.0  -0.0483
  C  C72  1  0.867000  0.226600  0.331700  1.0  0.7044
  C  C73  1  0.188200  0.112400  0.794700  1.0  0.0997
  C  C74  1  0.185200  0.089100  0.671900  1.0  0.1279
  C  C75  1  0.240200  0.126500  0.599300  1.0  -0.1516
  C  C76  1  0.297300  0.185200  0.654800  1.0  -0.0395
  C  C77  1  0.301600  0.208000  0.779700  1.0  -0.1291
  C  C78  1  0.247000  0.172600  0.850900  1.0  -0.0481
  C  C79  1  0.367000  0.273400  0.831700  1.0  0.7043
  C  C80  1  0.688200  0.612400  0.794700  1.0  0.0997
  C  C81  1  0.685200  0.589100  0.671900  1.0  0.1279
  C  C82  1  0.740200  0.626500  0.599300  1.0  -0.1516
  C  C83  1  0.797300  0.685200  0.654800  1.0  -0.0395
  C  C84  1  0.801600  0.708000  0.779700  1.0  -0.1291
  C  C85  1  0.747000  0.672600  0.850900  1.0  -0.0481
  C  C86  1  0.867000  0.773400  0.831700  1.0  0.7043
  C  C87  1  0.811800  0.112400  0.705300  1.0  0.1009
  C  C88  1  0.814800  0.089100  0.828100  1.0  0.1257
  C  C89  1  0.759800  0.126500  0.900700  1.0  -0.153
  C  C90  1  0.702700  0.185200  0.845200  1.0  -0.0391
  C  C91  1  0.698400  0.208000  0.720300  1.0  -0.1283
  C  C92  1  0.753000  0.172600  0.649100  1.0  -0.0465
  C  C93  1  0.633000  0.273400  0.668300  1.0  0.7049
  C  C94  1  0.311800  0.612400  0.705300  1.0  0.1009
  C  C95  1  0.314800  0.589100  0.828100  1.0  0.1257
  C  C96  1  0.259800  0.626500  0.900700  1.0  -0.153
  C  C97  1  0.202700  0.685200  0.845200  1.0  -0.0391
  C  C98  1  0.198400  0.708000  0.720300  1.0  -0.1283
  C  C99  1  0.253000  0.672600  0.649100  1.0  -0.0465
  C  C100  1  0.133000  0.773400  0.668300  1.0  0.7049
  N  N101  1  0.873960  0.934700  0.162400  1.0  -0.3111
  N  N102  1  0.910920  0.983100  0.256000  1.0  -0.0734
  N  N103  1  0.877230  0.970300  0.356300  1.0  -0.2639
  N  N104  1  0.373960  0.434700  0.162400  1.0  -0.3111
  N  N105  1  0.410920  0.483100  0.256000  1.0  -0.0734
  N  N106  1  0.377230  0.470300  0.356300  1.0  -0.2639
  N  N107  1  0.126040  0.934700  0.337600  1.0  -0.3123
  N  N108  1  0.089080  0.983100  0.244000  1.0  -0.0742
  N  N109  1  0.122770  0.970300  0.143700  1.0  -0.2661
  N  N110  1  0.626040  0.434700  0.337600  1.0  -0.3123
  N  N111  1  0.589080  0.483100  0.244000  1.0  -0.0742
  N  N112  1  0.622770  0.470300  0.143700  1.0  -0.2661
  N  N113  1  0.126040  0.065300  0.837600  1.0  -0.3116
  N  N114  1  0.089080  0.016900  0.744000  1.0  -0.0745
  N  N115  1  0.122770  0.029700  0.643700  1.0  -0.2663
  N  N116  1  0.626040  0.565300  0.837600  1.0  -0.3116
  N  N117  1  0.589080  0.516900  0.744000  1.0  -0.0745
  N  N118  1  0.622770  0.529700  0.643700  1.0  -0.2663
  N  N119  1  0.873960  0.065300  0.662400  1.0  -0.3099
  N  N120  1  0.910920  0.016900  0.756000  1.0  -0.0737
  N  N121  1  0.877230  0.029700  0.856300  1.0  -0.2641
  N  N122  1  0.373960  0.565300  0.662400  1.0  -0.3099
  N  N123  1  0.410920  0.516900  0.756000  1.0  -0.0737
  N  N124  1  0.377230  0.529700  0.856300  1.0  -0.2641
  O  O125  1  0.520290  0.580600  0.431900  1.0  -0.9727
  O  O126  1  0.635840  0.690300  0.062900  1.0  -0.5876
  O  O127  1  0.580980  0.712400  0.235000  1.0  -0.5805
  O  O128  1  0.020290  0.080600  0.431900  1.0  -0.9727
  O  O129  1  0.135840  0.190300  0.062900  1.0  -0.5876
  O  O130  1  0.080980  0.212400  0.235000  1.0  -0.5805
  O  O131  1  0.479710  0.580600  0.068100  1.0  -0.9738
  O  O132  1  0.364160  0.690300  0.437100  1.0  -0.5862
  O  O133  1  0.419020  0.712400  0.265000  1.0  -0.5803
  O  O134  1  0.979710  0.080600  0.068100  1.0  -0.9738
  O  O135  1  0.864160  0.190300  0.437100  1.0  -0.5862
  O  O136  1  0.919020  0.212400  0.265000  1.0  -0.5803
  O  O137  1  0.479710  0.419400  0.568100  1.0  -0.9744
  O  O138  1  0.364160  0.309700  0.937100  1.0  -0.5865
  O  O139  1  0.419020  0.287600  0.765000  1.0  -0.5788
  O  O140  1  0.979710  0.919400  0.568100  1.0  -0.9744
  O  O141  1  0.864160  0.809700  0.937100  1.0  -0.5865
  O  O142  1  0.919020  0.787600  0.765000  1.0  -0.5788
  O  O143  1  0.520290  0.419400  0.931900  1.0  -0.9729
  O  O144  1  0.635840  0.309700  0.562900  1.0  -0.5881
  O  O145  1  0.580980  0.287600  0.735000  1.0  -0.5811
  O  O146  1  0.020290  0.919400  0.931900  1.0  -0.9729
  O  O147  1  0.135840  0.809700  0.562900  1.0  -0.5881
  O  O148  1  0.080980  0.787600  0.735000  1.0  -0.5811
