# generated using pymatgen
data_Co3H8C14(NO)6
_symmetry_space_group_name_H-M   'P 1'
_cell_length_a   17.78350000
_cell_length_b   12.78180000
_cell_length_c   11.22540000
_cell_angle_alpha   90.00000000
_cell_angle_beta   95.18000000
_cell_angle_gamma   90.00000000
_symmetry_Int_Tables_number   1
_chemical_formula_structural   Co3H8C14(NO)6
_chemical_formula_sum   'Co12 H32 C56 N24 O24'
_cell_volume   2541.17035918
_cell_formula_units_Z   4
loop_
 _symmetry_equiv_pos_site_id
 _symmetry_equiv_pos_as_xyz
  1  'x, y, z'
loop_
 _atom_site_type_symbol
 _atom_site_label
 _atom_site_symmetry_multiplicity
 _atom_site_fract_x
 _atom_site_fract_y
 _atom_site_fract_z
 _atom_site_occupancy
 _atom_site_charge
  Co  Co1  1  0.420860  0.558160  0.499860  1.0  0.9547
  Co  Co2  1  0.920860  0.058160  0.499860  1.0  0.9547
  Co  Co3  1  0.579140  0.558160  0.000140  1.0  0.9539
  Co  Co4  1  0.079140  0.058160  0.000140  1.0  0.9539
  Co  Co5  1  0.579140  0.441840  0.500140  1.0  0.9525
  Co  Co6  1  0.079140  0.941840  0.500140  1.0  0.9525
  Co  Co7  1  0.420860  0.441840  0.999860  1.0  0.9537
  Co  Co8  1  0.920860  0.941840  0.999860  1.0  0.9537
  Co  Co9  1  0.500000  0.594640  0.250000  1.0  1.0814
  Co  Co10  1  0.000000  0.094640  0.250000  1.0  1.0814
  Co  Co11  1  0.500000  0.405360  0.750000  1.0  1.0829
  Co  Co12  1  0.000000  0.905360  0.750000  1.0  1.0829
  H  H13  1  0.762800  0.887300  0.479800  1.0  0.1271
  H  H14  1  0.666300  0.788300  0.389300  1.0  0.1004
  H  H15  1  0.750400  0.812200  0.066900  1.0  0.1205
  H  H16  1  0.546000  0.639000  0.465000  1.0  0.3981
  H  H17  1  0.262800  0.387300  0.479800  1.0  0.1271
  H  H18  1  0.166300  0.288300  0.389300  1.0  0.1004
  H  H19  1  0.250400  0.312200  0.066900  1.0  0.1205
  H  H20  1  0.046000  0.139000  0.465000  1.0  0.3981
  H  H21  1  0.237200  0.887300  0.020200  1.0  0.1268
  H  H22  1  0.333700  0.788300  0.110700  1.0  0.1002
  H  H23  1  0.249600  0.812200  0.433100  1.0  0.1199
  H  H24  1  0.454000  0.639000  0.035000  1.0  0.3986
  H  H25  1  0.737200  0.387300  0.020200  1.0  0.1268
  H  H26  1  0.833700  0.288300  0.110700  1.0  0.1002
  H  H27  1  0.749600  0.312200  0.433100  1.0  0.1199
  H  H28  1  0.954000  0.139000  0.035000  1.0  0.3986
  H  H29  1  0.237200  0.112700  0.520200  1.0  0.1267
  H  H30  1  0.333700  0.211700  0.610700  1.0  0.1009
  H  H31  1  0.249600  0.187800  0.933100  1.0  0.1201
  H  H32  1  0.454000  0.361000  0.535000  1.0  0.3993
  H  H33  1  0.737200  0.612700  0.520200  1.0  0.1267
  H  H34  1  0.833700  0.711700  0.610700  1.0  0.1009
  H  H35  1  0.749600  0.687800  0.933100  1.0  0.1201
  H  H36  1  0.954000  0.861000  0.535000  1.0  0.3993
  H  H37  1  0.762800  0.112700  0.979800  1.0  0.1273
  H  H38  1  0.666300  0.211700  0.889300  1.0  0.1009
  H  H39  1  0.750400  0.187800  0.566900  1.0  0.1204
  H  H40  1  0.546000  0.361000  0.965000  1.0  0.3994
  H  H41  1  0.262800  0.612700  0.979800  1.0  0.1273
  H  H42  1  0.166300  0.711700  0.889300  1.0  0.1009
  H  H43  1  0.250400  0.687800  0.566900  1.0  0.1204
  H  H44  1  0.046000  0.861000  0.965000  1.0  0.3994
  C  C45  1  0.812000  0.887000  0.204600  1.0  0.0924
  C  C46  1  0.814700  0.909900  0.327400  1.0  0.1392
  C  C47  1  0.760300  0.872600  0.398400  1.0  -0.176
  C  C48  1  0.703500  0.813800  0.343900  1.0  -0.0257
  C  C49  1  0.699100  0.790200  0.219500  1.0  -0.1266
  C  C50  1  0.753100  0.826800  0.148300  1.0  -0.043
  C  C51  1  0.633900  0.723700  0.168700  1.0  0.7065
  C  C52  1  0.312000  0.387000  0.204600  1.0  0.0924
  C  C53  1  0.314700  0.409900  0.327400  1.0  0.1392
  C  C54  1  0.260300  0.372600  0.398400  1.0  -0.176
  C  C55  1  0.203500  0.313800  0.343900  1.0  -0.0257
  C  C56  1  0.199100  0.290200  0.219500  1.0  -0.1266
  C  C57  1  0.253100  0.326800  0.148300  1.0  -0.043
  C  C58  1  0.133900  0.223700  0.168700  1.0  0.7065
  C  C59  1  0.188000  0.887000  0.295400  1.0  0.0918
  C  C60  1  0.185300  0.909900  0.172600  1.0  0.1406
  C  C61  1  0.239700  0.872600  0.101600  1.0  -0.1745
  C  C62  1  0.296500  0.813800  0.156100  1.0  -0.0252
  C  C63  1  0.300900  0.790200  0.280500  1.0  -0.1278
  C  C64  1  0.246900  0.826800  0.351700  1.0  -0.0447
  C  C65  1  0.366100  0.723700  0.331300  1.0  0.7057
  C  C66  1  0.688000  0.387000  0.295400  1.0  0.0918
  C  C67  1  0.685300  0.409900  0.172600  1.0  0.1406
  C  C68  1  0.739700  0.372600  0.101600  1.0  -0.1745
  C  C69  1  0.796500  0.313800  0.156100  1.0  -0.0252
  C  C70  1  0.800900  0.290200  0.280500  1.0  -0.1278
  C  C71  1  0.746900  0.326800  0.351700  1.0  -0.0447
  C  C72  1  0.866100  0.223700  0.331300  1.0  0.7057
  C  C73  1  0.188000  0.113000  0.795400  1.0  0.0918
  C  C74  1  0.185300  0.090100  0.672600  1.0  0.1408
  C  C75  1  0.239700  0.127400  0.601600  1.0  -0.1751
  C  C76  1  0.296500  0.186200  0.656100  1.0  -0.0254
  C  C77  1  0.300900  0.209800  0.780500  1.0  -0.1276
  C  C78  1  0.246900  0.173200  0.851700  1.0  -0.0444
  C  C79  1  0.366100  0.276300  0.831300  1.0  0.7062
  C  C80  1  0.688000  0.613000  0.795400  1.0  0.0918
  C  C81  1  0.685300  0.590100  0.672600  1.0  0.1408
  C  C82  1  0.739700  0.627400  0.601600  1.0  -0.1751
  C  C83  1  0.796500  0.686200  0.656100  1.0  -0.0254
  C  C84  1  0.800900  0.709800  0.780500  1.0  -0.1276
  C  C85  1  0.746900  0.673200  0.851700  1.0  -0.0444
  C  C86  1  0.866100  0.776300  0.831300  1.0  0.7062
  C  C87  1  0.812000  0.113000  0.704600  1.0  0.0927
  C  C88  1  0.814700  0.090100  0.827400  1.0  0.1392
  C  C89  1  0.760300  0.127400  0.898400  1.0  -0.1755
  C  C90  1  0.703500  0.186200  0.843900  1.0  -0.0252
  C  C91  1  0.699100  0.209800  0.719500  1.0  -0.1267
  C  C92  1  0.753100  0.173200  0.648300  1.0  -0.0431
  C  C93  1  0.633900  0.276300  0.668700  1.0  0.7068
  C  C94  1  0.312000  0.613000  0.704600  1.0  0.0927
  C  C95  1  0.314700  0.590100  0.827400  1.0  0.1392
  C  C96  1  0.260300  0.627400  0.898400  1.0  -0.1755
  C  C97  1  0.203500  0.686200  0.843900  1.0  -0.0252
  C  C98  1  0.199100  0.709800  0.719500  1.0  -0.1267
  C  C99  1  0.253100  0.673200  0.648300  1.0  -0.0431
  C  C100  1  0.133900  0.776300  0.668700  1.0  0.7068
  N  N101  1  0.873200  0.935000  0.161700  1.0  -0.3066
  N  N102  1  0.910500  0.983100  0.255600  1.0  -0.091
  N  N103  1  0.876800  0.970100  0.354800  1.0  -0.2563
  N  N104  1  0.373200  0.435000  0.161700  1.0  -0.3066
  N  N105  1  0.410500  0.483100  0.255600  1.0  -0.091
  N  N106  1  0.376800  0.470100  0.354800  1.0  -0.2563
  N  N107  1  0.126800  0.935000  0.338300  1.0  -0.3073
  N  N108  1  0.089500  0.983100  0.244400  1.0  -0.0909
  N  N109  1  0.123200  0.970100  0.145200  1.0  -0.2577
  N  N110  1  0.626800  0.435000  0.338300  1.0  -0.3073
  N  N111  1  0.589500  0.483100  0.244400  1.0  -0.0909
  N  N112  1  0.623200  0.470100  0.145200  1.0  -0.2577
  N  N113  1  0.126800  0.065000  0.838300  1.0  -0.3075
  N  N114  1  0.089500  0.016900  0.744400  1.0  -0.0912
  N  N115  1  0.123200  0.029900  0.645200  1.0  -0.2588
  N  N116  1  0.626800  0.565000  0.838300  1.0  -0.3075
  N  N117  1  0.589500  0.516900  0.744400  1.0  -0.0912
  N  N118  1  0.623200  0.529900  0.645200  1.0  -0.2588
  N  N119  1  0.873200  0.065000  0.661700  1.0  -0.3063
  N  N120  1  0.910500  0.016900  0.755600  1.0  -0.0911
  N  N121  1  0.876800  0.029900  0.854800  1.0  -0.2574
  N  N122  1  0.373200  0.565000  0.661700  1.0  -0.3063
  N  N123  1  0.410500  0.516900  0.755600  1.0  -0.0911
  N  N124  1  0.376800  0.529900  0.854800  1.0  -0.2574
  O  O125  1  0.520110  0.579900  0.432200  1.0  -0.9657
  O  O126  1  0.636910  0.687600  0.063900  1.0  -0.5897
  O  O127  1  0.581580  0.709700  0.234600  1.0  -0.5969
  O  O128  1  0.020110  0.079900  0.432200  1.0  -0.9657
  O  O129  1  0.136910  0.187600  0.063900  1.0  -0.5897
  O  O130  1  0.081580  0.209700  0.234600  1.0  -0.5969
  O  O131  1  0.479890  0.579900  0.067800  1.0  -0.9669
  O  O132  1  0.363090  0.687600  0.436100  1.0  -0.5889
  O  O133  1  0.418420  0.709700  0.265400  1.0  -0.5953
  O  O134  1  0.979890  0.079900  0.067800  1.0  -0.9669
  O  O135  1  0.863090  0.187600  0.436100  1.0  -0.5889
  O  O136  1  0.918420  0.209700  0.265400  1.0  -0.5953
  O  O137  1  0.479890  0.420100  0.567800  1.0  -0.9677
  O  O138  1  0.363090  0.312400  0.936100  1.0  -0.5891
  O  O139  1  0.418420  0.290300  0.765400  1.0  -0.5954
  O  O140  1  0.979890  0.920100  0.567800  1.0  -0.9677
  O  O141  1  0.863090  0.812400  0.936100  1.0  -0.5891
  O  O142  1  0.918420  0.790300  0.765400  1.0  -0.5954
  O  O143  1  0.520110  0.420100  0.932200  1.0  -0.9664
  O  O144  1  0.636910  0.312400  0.563900  1.0  -0.5901
  O  O145  1  0.581580  0.290300  0.734600  1.0  -0.5986
  O  O146  1  0.020110  0.920100  0.932200  1.0  -0.9664
  O  O147  1  0.136910  0.812400  0.563900  1.0  -0.5901
  O  O148  1  0.081580  0.790300  0.734600  1.0  -0.5986
