# generated using pymatgen
data_Co3H8C14(NO)6
_symmetry_space_group_name_H-M   'P 1'
_cell_length_a   17.84910000
_cell_length_b   12.65340000
_cell_length_c   11.19840000
_cell_angle_alpha   90.00000000
_cell_angle_beta   94.86500000
_cell_angle_gamma   90.00000000
_symmetry_Int_Tables_number   1
_chemical_formula_structural   Co3H8C14(NO)6
_chemical_formula_sum   'Co12 H32 C56 N24 O24'
_cell_volume   2520.06691728
_cell_formula_units_Z   4
loop_
 _symmetry_equiv_pos_site_id
 _symmetry_equiv_pos_as_xyz
  1  'x, y, z'
loop_
 _atom_site_type_symbol
 _atom_site_label
 _atom_site_symmetry_multiplicity
 _atom_site_fract_x
 _atom_site_fract_y
 _atom_site_fract_z
 _atom_site_occupancy
 _atom_site_charge
  Co  Co1  1  0.421230  0.559020  0.500440  1.0  0.9492
  Co  Co2  1  0.921230  0.059020  0.500440  1.0  0.9492
  Co  Co3  1  0.578770  0.559020  0.999560  1.0  0.9492
  Co  Co4  1  0.078770  0.059020  0.999560  1.0  0.9492
  Co  Co5  1  0.578770  0.440980  0.499560  1.0  0.9479
  Co  Co6  1  0.078770  0.940980  0.499560  1.0  0.9479
  Co  Co7  1  0.421230  0.440980  0.000440  1.0  0.948
  Co  Co8  1  0.921230  0.940980  0.000440  1.0  0.948
  Co  Co9  1  0.500000  0.595530  0.250000  1.0  1.0154
  Co  Co10  1  0.000000  0.095530  0.250000  1.0  1.0154
  Co  Co11  1  0.500000  0.404470  0.750000  1.0  1.0177
  Co  Co12  1  0.000000  0.904470  0.750000  1.0  1.0177
  H  H13  1  0.762100  0.887900  0.482800  1.0  0.1339
  H  H14  1  0.665500  0.788000  0.391100  1.0  0.11
  H  H15  1  0.750500  0.811300  0.066900  1.0  0.1315
  H  H16  1  0.543000  0.641000  0.465000  1.0  0.3734
  H  H17  1  0.262100  0.387900  0.482800  1.0  0.1339
  H  H18  1  0.165500  0.288000  0.391100  1.0  0.11
  H  H19  1  0.250500  0.311300  0.066900  1.0  0.1315
  H  H20  1  0.043000  0.141000  0.465000  1.0  0.3734
  H  H21  1  0.237900  0.887900  0.017200  1.0  0.1339
  H  H22  1  0.334500  0.788000  0.108900  1.0  0.1102
  H  H23  1  0.249500  0.811300  0.433100  1.0  0.1302
  H  H24  1  0.457000  0.641000  0.035000  1.0  0.374
  H  H25  1  0.737900  0.387900  0.017200  1.0  0.1339
  H  H26  1  0.834500  0.288000  0.108900  1.0  0.1102
  H  H27  1  0.749500  0.311300  0.433100  1.0  0.1302
  H  H28  1  0.957000  0.141000  0.035000  1.0  0.374
  H  H29  1  0.237900  0.112100  0.517200  1.0  0.1337
  H  H30  1  0.334500  0.212000  0.608900  1.0  0.111
  H  H31  1  0.249500  0.188700  0.933100  1.0  0.1303
  H  H32  1  0.457000  0.359000  0.535000  1.0  0.3736
  H  H33  1  0.737900  0.612100  0.517200  1.0  0.1337
  H  H34  1  0.834500  0.712000  0.608900  1.0  0.111
  H  H35  1  0.749500  0.688700  0.933100  1.0  0.1303
  H  H36  1  0.957000  0.859000  0.535000  1.0  0.3736
  H  H37  1  0.762100  0.112100  0.982800  1.0  0.134
  H  H38  1  0.665500  0.212000  0.891100  1.0  0.1107
  H  H39  1  0.750500  0.188700  0.566900  1.0  0.1315
  H  H40  1  0.543000  0.359000  0.965000  1.0  0.374
  H  H41  1  0.262100  0.612100  0.982800  1.0  0.134
  H  H42  1  0.165500  0.712000  0.891100  1.0  0.1107
  H  H43  1  0.250500  0.688700  0.566900  1.0  0.1315
  H  H44  1  0.043000  0.859000  0.965000  1.0  0.374
  C  C45  1  0.811700  0.887500  0.205100  1.0  0.0906
  C  C46  1  0.814900  0.910400  0.327900  1.0  0.1354
  C  C47  1  0.759800  0.873100  0.400300  1.0  -0.146
  C  C48  1  0.703000  0.814400  0.345000  1.0  -0.0309
  C  C49  1  0.698300  0.791500  0.220200  1.0  -0.1277
  C  C50  1  0.752800  0.827000  0.149200  1.0  -0.0358
  C  C51  1  0.633100  0.726000  0.168600  1.0  0.7148
  C  C52  1  0.311700  0.387500  0.205100  1.0  0.0906
  C  C53  1  0.314900  0.410400  0.327900  1.0  0.1354
  C  C54  1  0.259800  0.373100  0.400300  1.0  -0.146
  C  C55  1  0.203000  0.314400  0.345000  1.0  -0.0309
  C  C56  1  0.198300  0.291500  0.220200  1.0  -0.1277
  C  C57  1  0.252800  0.327000  0.149200  1.0  -0.0358
  C  C58  1  0.133100  0.226000  0.168600  1.0  0.7148
  C  C59  1  0.188300  0.887500  0.294900  1.0  0.0899
  C  C60  1  0.185100  0.910400  0.172100  1.0  0.1366
  C  C61  1  0.240200  0.873100  0.099700  1.0  -0.1438
  C  C62  1  0.297000  0.814400  0.155000  1.0  -0.0308
  C  C63  1  0.301700  0.791500  0.279800  1.0  -0.1288
  C  C64  1  0.247200  0.827000  0.350800  1.0  -0.0378
  C  C65  1  0.366900  0.726000  0.331400  1.0  0.7141
  C  C66  1  0.688300  0.387500  0.294900  1.0  0.0899
  C  C67  1  0.685100  0.410400  0.172100  1.0  0.1366
  C  C68  1  0.740200  0.373100  0.099700  1.0  -0.1438
  C  C69  1  0.797000  0.314400  0.155000  1.0  -0.0308
  C  C70  1  0.801700  0.291500  0.279800  1.0  -0.1288
  C  C71  1  0.747200  0.327000  0.350800  1.0  -0.0378
  C  C72  1  0.866900  0.226000  0.331400  1.0  0.7141
  C  C73  1  0.188300  0.112500  0.794900  1.0  0.09
  C  C74  1  0.185100  0.089600  0.672100  1.0  0.1371
  C  C75  1  0.240200  0.126900  0.599700  1.0  -0.1441
  C  C76  1  0.297000  0.185600  0.655000  1.0  -0.0309
  C  C77  1  0.301700  0.208500  0.779800  1.0  -0.1285
  C  C78  1  0.247200  0.173000  0.850800  1.0  -0.0376
  C  C79  1  0.366900  0.274000  0.831400  1.0  0.7144
  C  C80  1  0.688300  0.612500  0.794900  1.0  0.09
  C  C81  1  0.685100  0.589600  0.672100  1.0  0.1371
  C  C82  1  0.740200  0.626900  0.599700  1.0  -0.1441
  C  C83  1  0.797000  0.685600  0.655000  1.0  -0.0309
  C  C84  1  0.801700  0.708500  0.779800  1.0  -0.1285
  C  C85  1  0.747200  0.673000  0.850800  1.0  -0.0376
  C  C86  1  0.866900  0.774000  0.831400  1.0  0.7144
  C  C87  1  0.811700  0.112500  0.705100  1.0  0.0911
  C  C88  1  0.814900  0.089600  0.827900  1.0  0.1356
  C  C89  1  0.759800  0.126900  0.900300  1.0  -0.1456
  C  C90  1  0.703000  0.185600  0.845000  1.0  -0.0304
  C  C91  1  0.698300  0.208500  0.720200  1.0  -0.1276
  C  C92  1  0.752800  0.173000  0.649200  1.0  -0.0357
  C  C93  1  0.633100  0.274000  0.668600  1.0  0.7151
  C  C94  1  0.311700  0.612500  0.705100  1.0  0.0911
  C  C95  1  0.314900  0.589600  0.827900  1.0  0.1356
  C  C96  1  0.259800  0.626900  0.900300  1.0  -0.1456
  C  C97  1  0.203000  0.685600  0.845000  1.0  -0.0304
  C  C98  1  0.198300  0.708500  0.720200  1.0  -0.1276
  C  C99  1  0.252800  0.673000  0.649200  1.0  -0.0357
  C  C100  1  0.133100  0.774000  0.668600  1.0  0.7151
  N  N101  1  0.873970  0.934800  0.162100  1.0  -0.3083
  N  N102  1  0.910730  0.983000  0.255800  1.0  -0.1033
  N  N103  1  0.877380  0.970500  0.355900  1.0  -0.2778
  N  N104  1  0.373970  0.434800  0.162100  1.0  -0.3083
  N  N105  1  0.410730  0.483000  0.255800  1.0  -0.1033
  N  N106  1  0.377380  0.470500  0.355900  1.0  -0.2778
  N  N107  1  0.126030  0.934800  0.337900  1.0  -0.309
  N  N108  1  0.089270  0.983000  0.244200  1.0  -0.1038
  N  N109  1  0.122620  0.970500  0.144100  1.0  -0.2803
  N  N110  1  0.626030  0.434800  0.337900  1.0  -0.309
  N  N111  1  0.589270  0.483000  0.244200  1.0  -0.1038
  N  N112  1  0.622620  0.470500  0.144100  1.0  -0.2803
  N  N113  1  0.126030  0.065200  0.837900  1.0  -0.3084
  N  N114  1  0.089270  0.017000  0.744200  1.0  -0.1041
  N  N115  1  0.122620  0.029500  0.644100  1.0  -0.2804
  N  N116  1  0.626030  0.565200  0.837900  1.0  -0.3084
  N  N117  1  0.589270  0.517000  0.744200  1.0  -0.1041
  N  N118  1  0.622620  0.529500  0.644100  1.0  -0.2804
  N  N119  1  0.873970  0.065200  0.662100  1.0  -0.3071
  N  N120  1  0.910730  0.017000  0.755800  1.0  -0.1036
  N  N121  1  0.877380  0.029500  0.855900  1.0  -0.2779
  N  N122  1  0.373970  0.565200  0.662100  1.0  -0.3071
  N  N123  1  0.410730  0.517000  0.755800  1.0  -0.1036
  N  N124  1  0.377380  0.529500  0.855900  1.0  -0.2779
  O  O125  1  0.520090  0.580100  0.432000  1.0  -0.9595
  O  O126  1  0.636170  0.689700  0.063300  1.0  -0.5823
  O  O127  1  0.581040  0.711700  0.234900  1.0  -0.5731
  O  O128  1  0.020090  0.080100  0.432000  1.0  -0.9595
  O  O129  1  0.136170  0.189700  0.063300  1.0  -0.5823
  O  O130  1  0.081040  0.211700  0.234900  1.0  -0.5731
  O  O131  1  0.479910  0.580100  0.068000  1.0  -0.961
  O  O132  1  0.363830  0.689700  0.436700  1.0  -0.5814
  O  O133  1  0.418960  0.711700  0.265100  1.0  -0.5729
  O  O134  1  0.979910  0.080100  0.068000  1.0  -0.961
  O  O135  1  0.863830  0.189700  0.436700  1.0  -0.5814
  O  O136  1  0.918960  0.211700  0.265100  1.0  -0.5729
  O  O137  1  0.479910  0.419900  0.568000  1.0  -0.9616
  O  O138  1  0.363830  0.310300  0.936700  1.0  -0.5818
  O  O139  1  0.418960  0.288300  0.765100  1.0  -0.5715
  O  O140  1  0.979910  0.919900  0.568000  1.0  -0.9616
  O  O141  1  0.863830  0.810300  0.936700  1.0  -0.5818
  O  O142  1  0.918960  0.788300  0.765100  1.0  -0.5715
  O  O143  1  0.520090  0.419900  0.932000  1.0  -0.9598
  O  O144  1  0.636170  0.310300  0.563300  1.0  -0.5828
  O  O145  1  0.581040  0.288300  0.734900  1.0  -0.574
  O  O146  1  0.020090  0.919900  0.932000  1.0  -0.9598
  O  O147  1  0.136170  0.810300  0.563300  1.0  -0.5828
  O  O148  1  0.081040  0.788300  0.734900  1.0  -0.574
