# generated using pymatgen
data_Co3H8C14(NO)6
_symmetry_space_group_name_H-M   'P 1'
_cell_length_a   17.85310000
_cell_length_b   12.62250000
_cell_length_c   11.19090000
_cell_angle_alpha   90.00000000
_cell_angle_beta   94.83940000
_cell_angle_gamma   90.00000000
_symmetry_Int_Tables_number   1
_chemical_formula_structural   Co3H8C14(NO)6
_chemical_formula_sum   'Co12 H32 C56 N24 O24'
_cell_volume   2512.88747331
_cell_formula_units_Z   4
loop_
 _symmetry_equiv_pos_site_id
 _symmetry_equiv_pos_as_xyz
  1  'x, y, z'
loop_
 _atom_site_type_symbol
 _atom_site_label
 _atom_site_symmetry_multiplicity
 _atom_site_fract_x
 _atom_site_fract_y
 _atom_site_fract_z
 _atom_site_occupancy
 _atom_site_charge
  Co  Co1  1  0.421330  0.559290  0.500510  1.0  0.9528
  Co  Co2  1  0.921330  0.059290  0.500510  1.0  0.9528
  Co  Co3  1  0.578670  0.559290  0.999490  1.0  0.9527
  Co  Co4  1  0.078670  0.059290  0.999490  1.0  0.9527
  Co  Co5  1  0.578670  0.440710  0.499490  1.0  0.9516
  Co  Co6  1  0.078670  0.940710  0.499490  1.0  0.9516
  Co  Co7  1  0.421330  0.440710  0.000510  1.0  0.9514
  Co  Co8  1  0.921330  0.940710  0.000510  1.0  0.9514
  Co  Co9  1  0.500000  0.595800  0.250000  1.0  1.026
  Co  Co10  1  0.000000  0.095800  0.250000  1.0  1.026
  Co  Co11  1  0.500000  0.404200  0.750000  1.0  1.0277
  Co  Co12  1  0.000000  0.904200  0.750000  1.0  1.0277
  H  H13  1  0.762200  0.888500  0.483100  1.0  0.13
  H  H14  1  0.665200  0.788400  0.391100  1.0  0.1076
  H  H15  1  0.750300  0.812100  0.066600  1.0  0.1264
  H  H16  1  0.543000  0.641000  0.467000  1.0  0.4084
  H  H17  1  0.262200  0.388500  0.483100  1.0  0.13
  H  H18  1  0.165200  0.288400  0.391100  1.0  0.1076
  H  H19  1  0.250300  0.312100  0.066600  1.0  0.1264
  H  H20  1  0.043000  0.141000  0.467000  1.0  0.4084
  H  H21  1  0.237800  0.888500  0.016900  1.0  0.13
  H  H22  1  0.334800  0.788400  0.108900  1.0  0.1077
  H  H23  1  0.249700  0.812100  0.433400  1.0  0.1254
  H  H24  1  0.457000  0.641000  0.033000  1.0  0.4093
  H  H25  1  0.737800  0.388500  0.016900  1.0  0.13
  H  H26  1  0.834800  0.288400  0.108900  1.0  0.1077
  H  H27  1  0.749700  0.312100  0.433400  1.0  0.1254
  H  H28  1  0.957000  0.141000  0.033000  1.0  0.4093
  H  H29  1  0.237800  0.111500  0.516900  1.0  0.1298
  H  H30  1  0.334800  0.211600  0.608900  1.0  0.1085
  H  H31  1  0.249700  0.187900  0.933400  1.0  0.1256
  H  H32  1  0.457000  0.359000  0.533000  1.0  0.4094
  H  H33  1  0.737800  0.611500  0.516900  1.0  0.1298
  H  H34  1  0.834800  0.711600  0.608900  1.0  0.1085
  H  H35  1  0.749700  0.687900  0.933400  1.0  0.1256
  H  H36  1  0.957000  0.859000  0.533000  1.0  0.4094
  H  H37  1  0.762200  0.111500  0.983100  1.0  0.1301
  H  H38  1  0.665200  0.211600  0.891100  1.0  0.1082
  H  H39  1  0.750300  0.187900  0.566600  1.0  0.1263
  H  H40  1  0.543000  0.359000  0.967000  1.0  0.4097
  H  H41  1  0.262200  0.611500  0.983100  1.0  0.1301
  H  H42  1  0.165200  0.711600  0.891100  1.0  0.1082
  H  H43  1  0.250300  0.687900  0.566600  1.0  0.1263
  H  H44  1  0.043000  0.859000  0.967000  1.0  0.4097
  C  C45  1  0.811890  0.887400  0.205400  1.0  0.087
  C  C46  1  0.814850  0.910900  0.328100  1.0  0.1289
  C  C47  1  0.759800  0.873600  0.400600  1.0  -0.1493
  C  C48  1  0.702800  0.814700  0.345200  1.0  -0.0364
  C  C49  1  0.698620  0.791900  0.220400  1.0  -0.1167
  C  C50  1  0.752800  0.827400  0.149100  1.0  -0.047
  C  C51  1  0.633200  0.726400  0.168500  1.0  0.7131
  C  C52  1  0.311890  0.387400  0.205400  1.0  0.087
  C  C53  1  0.314850  0.410900  0.328100  1.0  0.1289
  C  C54  1  0.259800  0.373600  0.400600  1.0  -0.1493
  C  C55  1  0.202800  0.314700  0.345200  1.0  -0.0364
  C  C56  1  0.198620  0.291900  0.220400  1.0  -0.1167
  C  C57  1  0.252800  0.327400  0.149100  1.0  -0.047
  C  C58  1  0.133200  0.226400  0.168500  1.0  0.7131
  C  C59  1  0.188110  0.887400  0.294600  1.0  0.0855
  C  C60  1  0.185150  0.910900  0.171900  1.0  0.1311
  C  C61  1  0.240200  0.873600  0.099400  1.0  -0.1472
  C  C62  1  0.297200  0.814700  0.154800  1.0  -0.0361
  C  C63  1  0.301380  0.791900  0.279600  1.0  -0.1179
  C  C64  1  0.247200  0.827400  0.350900  1.0  -0.0488
  C  C65  1  0.366800  0.726400  0.331500  1.0  0.7123
  C  C66  1  0.688110  0.387400  0.294600  1.0  0.0855
  C  C67  1  0.685150  0.410900  0.171900  1.0  0.1311
  C  C68  1  0.740200  0.373600  0.099400  1.0  -0.1472
  C  C69  1  0.797200  0.314700  0.154800  1.0  -0.0361
  C  C70  1  0.801380  0.291900  0.279600  1.0  -0.1179
  C  C71  1  0.747200  0.327400  0.350900  1.0  -0.0488
  C  C72  1  0.866800  0.226400  0.331500  1.0  0.7123
  C  C73  1  0.188110  0.112600  0.794600  1.0  0.0859
  C  C74  1  0.185150  0.089100  0.671900  1.0  0.1312
  C  C75  1  0.240200  0.126400  0.599400  1.0  -0.1474
  C  C76  1  0.297200  0.185300  0.654800  1.0  -0.0363
  C  C77  1  0.301380  0.208100  0.779600  1.0  -0.118
  C  C78  1  0.247200  0.172600  0.850900  1.0  -0.0486
  C  C79  1  0.366800  0.273600  0.831500  1.0  0.7126
  C  C80  1  0.688110  0.612600  0.794600  1.0  0.0859
  C  C81  1  0.685150  0.589100  0.671900  1.0  0.1312
  C  C82  1  0.740200  0.626400  0.599400  1.0  -0.1474
  C  C83  1  0.797200  0.685300  0.654800  1.0  -0.0363
  C  C84  1  0.801380  0.708100  0.779600  1.0  -0.118
  C  C85  1  0.747200  0.672600  0.850900  1.0  -0.0486
  C  C86  1  0.866800  0.773600  0.831500  1.0  0.7126
  C  C87  1  0.811890  0.112600  0.705400  1.0  0.0877
  C  C88  1  0.814850  0.089100  0.828100  1.0  0.1288
  C  C89  1  0.759800  0.126400  0.900600  1.0  -0.1488
  C  C90  1  0.702800  0.185300  0.845200  1.0  -0.0359
  C  C91  1  0.698620  0.208100  0.720400  1.0  -0.1168
  C  C92  1  0.752800  0.172600  0.649100  1.0  -0.047
  C  C93  1  0.633200  0.273600  0.668500  1.0  0.7132
  C  C94  1  0.311890  0.612600  0.705400  1.0  0.0877
  C  C95  1  0.314850  0.589100  0.828100  1.0  0.1288
  C  C96  1  0.259800  0.626400  0.900600  1.0  -0.1488
  C  C97  1  0.202800  0.685300  0.845200  1.0  -0.0359
  C  C98  1  0.198620  0.708100  0.720400  1.0  -0.1168
  C  C99  1  0.252800  0.672600  0.649100  1.0  -0.047
  C  C100  1  0.133200  0.773600  0.668500  1.0  0.7132
  N  N101  1  0.873970  0.934800  0.162300  1.0  -0.3125
  N  N102  1  0.910860  0.982900  0.256100  1.0  -0.1062
  N  N103  1  0.877310  0.970500  0.356200  1.0  -0.2643
  N  N104  1  0.373970  0.434800  0.162300  1.0  -0.3125
  N  N105  1  0.410860  0.482900  0.256100  1.0  -0.1062
  N  N106  1  0.377310  0.470500  0.356200  1.0  -0.2643
  N  N107  1  0.126030  0.934800  0.337700  1.0  -0.3136
  N  N108  1  0.089140  0.982900  0.243900  1.0  -0.1069
  N  N109  1  0.122690  0.970500  0.143800  1.0  -0.2672
  N  N110  1  0.626030  0.434800  0.337700  1.0  -0.3136
  N  N111  1  0.589140  0.482900  0.243900  1.0  -0.1069
  N  N112  1  0.622690  0.470500  0.143800  1.0  -0.2672
  N  N113  1  0.126030  0.065200  0.837700  1.0  -0.313
  N  N114  1  0.089140  0.017100  0.743900  1.0  -0.1072
  N  N115  1  0.122690  0.029500  0.643800  1.0  -0.2673
  N  N116  1  0.626030  0.565200  0.837700  1.0  -0.313
  N  N117  1  0.589140  0.517100  0.743900  1.0  -0.1072
  N  N118  1  0.622690  0.529500  0.643800  1.0  -0.2673
  N  N119  1  0.873970  0.065200  0.662300  1.0  -0.3114
  N  N120  1  0.910860  0.017100  0.756100  1.0  -0.1064
  N  N121  1  0.877310  0.029500  0.856200  1.0  -0.2645
  N  N122  1  0.373970  0.565200  0.662300  1.0  -0.3114
  N  N123  1  0.410860  0.517100  0.756100  1.0  -0.1064
  N  N124  1  0.377310  0.529500  0.856200  1.0  -0.2645
  O  O125  1  0.520180  0.580380  0.432100  1.0  -0.9691
  O  O126  1  0.635860  0.690200  0.063200  1.0  -0.5862
  O  O127  1  0.581020  0.712400  0.235000  1.0  -0.5786
  O  O128  1  0.020180  0.080380  0.432100  1.0  -0.9691
  O  O129  1  0.135860  0.190200  0.063200  1.0  -0.5862
  O  O130  1  0.081020  0.212400  0.235000  1.0  -0.5786
  O  O131  1  0.479820  0.580380  0.067900  1.0  -0.9702
  O  O132  1  0.364140  0.690200  0.436800  1.0  -0.5845
  O  O133  1  0.418980  0.712400  0.265000  1.0  -0.5783
  O  O134  1  0.979820  0.080380  0.067900  1.0  -0.9702
  O  O135  1  0.864140  0.190200  0.436800  1.0  -0.5845
  O  O136  1  0.918980  0.212400  0.265000  1.0  -0.5783
  O  O137  1  0.479820  0.419620  0.567900  1.0  -0.9704
  O  O138  1  0.364140  0.309800  0.936800  1.0  -0.5848
  O  O139  1  0.418980  0.287600  0.765000  1.0  -0.5768
  O  O140  1  0.979820  0.919620  0.567900  1.0  -0.9704
  O  O141  1  0.864140  0.809800  0.936800  1.0  -0.5848
  O  O142  1  0.918980  0.787600  0.765000  1.0  -0.5768
  O  O143  1  0.520180  0.419620  0.932100  1.0  -0.9688
  O  O144  1  0.635860  0.309800  0.563200  1.0  -0.5862
  O  O145  1  0.581020  0.287600  0.735000  1.0  -0.5792
  O  O146  1  0.020180  0.919620  0.932100  1.0  -0.9688
  O  O147  1  0.135860  0.809800  0.563200  1.0  -0.5862
  O  O148  1  0.081020  0.787600  0.735000  1.0  -0.5792
