# generated using pymatgen
data_Co3H8C14(NO)6
_symmetry_space_group_name_H-M   'P 1'
_cell_length_a   10.99190000
_cell_length_b   10.98430000
_cell_length_c   10.98930000
_cell_angle_alpha   83.02400000
_cell_angle_beta   85.22100000
_cell_angle_gamma   81.10400000
_symmetry_Int_Tables_number   1
_chemical_formula_structural   Co3H8C14(NO)6
_chemical_formula_sum   'Co6 H16 C28 N12 O12'
_cell_volume   1298.34444462
_cell_formula_units_Z   2
loop_
 _symmetry_equiv_pos_site_id
 _symmetry_equiv_pos_as_xyz
  1  'x, y, z'
loop_
 _atom_site_type_symbol
 _atom_site_label
 _atom_site_symmetry_multiplicity
 _atom_site_fract_x
 _atom_site_fract_y
 _atom_site_fract_z
 _atom_site_occupancy
 _atom_site_charge
  Co  Co1  1  0.083600  0.907020  0.251150  1.0  1.029
  Co  Co2  1  0.970400  0.857510  0.002860  1.0  0.9835
  Co  Co3  1  0.854800  0.996070  0.490960  1.0  0.9269
  Co  Co4  1  0.916400  0.092980  0.748850  1.0  1.029
  Co  Co5  1  0.029600  0.142490  0.997140  1.0  0.9872
  Co  Co6  1  0.145200  0.003930  0.509040  1.0  0.924
  H  H7  1  0.637300  0.876500  0.015300  1.0  0.1265
  H  H8  1  0.439100  0.881200  0.103400  1.0  0.1169
  H  H9  1  0.555100  0.941400  0.426900  1.0  0.1299
  H  H10  1  0.116700  0.334100  0.492900  1.0  0.1322
  H  H11  1  0.107500  0.537600  0.407300  1.0  0.1144
  H  H12  1  0.043200  0.444900  0.078700  1.0  0.1316
  H  H13  1  0.174000  0.939000  0.049000  1.0  0.3708
  H  H14  1  0.093000  0.826000  0.460000  1.0  0.3883
  H  H15  1  0.362700  0.123500  0.984700  1.0  0.1265
  H  H16  1  0.560900  0.118800  0.896600  1.0  0.1166
  H  H17  1  0.444900  0.058600  0.573100  1.0  0.1296
  H  H18  1  0.883300  0.665900  0.507100  1.0  0.1335
  H  H19  1  0.892500  0.462400  0.592700  1.0  0.1147
  H  H20  1  0.956800  0.555100  0.921300  1.0  0.1317
  H  H21  1  0.826000  0.061000  0.951000  1.0  0.3704
  H  H22  1  0.907000  0.174000  0.540000  1.0  0.3871
  C  C23  1  0.690900  0.917000  0.293400  1.0  0.1284
  C  C24  1  0.714600  0.898900  0.169000  1.0  0.1917
  C  C25  1  0.620900  0.887200  0.098000  1.0  -0.0705
  C  C26  1  0.503000  0.891300  0.150200  1.0  -0.108
  C  C27  1  0.478000  0.910700  0.274300  1.0  -0.0108
  C  C28  1  0.572100  0.925700  0.345500  1.0  -0.0734
  C  C29  1  0.360000  0.911800  0.324600  1.0  0.7104
  C  C30  1  0.079000  0.297200  0.211000  1.0  0.1173
  C  C31  1  0.109000  0.266600  0.330100  1.0  0.1909
  C  C32  1  0.110000  0.355600  0.409000  1.0  -0.1392
  C  C33  1  0.099000  0.476200  0.358400  1.0  -0.0164
  C  C34  1  0.076000  0.509100  0.236100  1.0  -0.1274
  C  C35  1  0.062000  0.422200  0.160000  1.0  -0.0474
  C  C36  1  0.059000  0.645100  0.184900  1.0  0.6867
  C  C37  1  0.309100  0.083000  0.706600  1.0  0.1305
  C  C38  1  0.285400  0.101100  0.831000  1.0  0.1916
  C  C39  1  0.379100  0.112800  0.902000  1.0  -0.0714
  C  C40  1  0.497000  0.108700  0.849800  1.0  -0.1074
  C  C41  1  0.522000  0.089300  0.725700  1.0  -0.0119
  C  C42  1  0.427900  0.074300  0.654500  1.0  -0.0721
  C  C43  1  0.640000  0.088200  0.675400  1.0  0.7111
  C  C44  1  0.921000  0.702800  0.789000  1.0  0.1146
  C  C45  1  0.891000  0.733400  0.669900  1.0  0.1922
  C  C46  1  0.890000  0.644400  0.591000  1.0  -0.1377
  C  C47  1  0.901000  0.523800  0.641600  1.0  -0.0178
  C  C48  1  0.924000  0.490900  0.763900  1.0  -0.1262
  C  C49  1  0.938000  0.577800  0.840000  1.0  -0.0477
  C  C50  1  0.941000  0.354900  0.815100  1.0  0.6861
  N  N51  1  0.837500  0.894200  0.141700  1.0  -0.3731
  N  N52  1  0.885000  0.912900  0.246700  1.0  -0.0977
  N  N53  1  0.799500  0.926500  0.337900  1.0  -0.2856
  N  N54  1  0.071800  0.189600  0.160400  1.0  -0.4048
  N  N55  1  0.093800  0.100300  0.251300  1.0  -0.1202
  N  N56  1  0.113400  0.140700  0.355900  1.0  -0.3314
  N  N57  1  0.162500  0.105800  0.858300  1.0  -0.3729
  N  N58  1  0.115000  0.087100  0.753300  1.0  -0.0977
  N  N59  1  0.200500  0.073500  0.662100  1.0  -0.2857
  N  N60  1  0.928200  0.810400  0.839600  1.0  -0.4041
  N  N61  1  0.906200  0.899700  0.748700  1.0  -0.1209
  N  N62  1  0.886600  0.859300  0.644100  1.0  -0.3317
  O  O63  1  0.085800  0.946800  0.065700  1.0  -0.9119
  O  O64  1  0.043900  0.904400  0.432100  1.0  -0.9633
  O  O65  1  0.324700  0.950000  0.434300  1.0  -0.6081
  O  O66  1  0.282000  0.873400  0.265500  1.0  -0.6142
  O  O67  1  0.024900  0.676100  0.080600  1.0  -0.5541
  O  O68  1  0.093700  0.715300  0.256000  1.0  -0.6183
  O  O69  1  0.914200  0.053200  0.934300  1.0  -0.9115
  O  O70  1  0.956100  0.095600  0.567900  1.0  -0.9638
  O  O71  1  0.675300  0.050000  0.565700  1.0  -0.6086
  O  O72  1  0.718000  0.126600  0.734500  1.0  -0.6146
  O  O73  1  0.975100  0.323900  0.919400  1.0  -0.5536
  O  O74  1  0.906300  0.284700  0.744000  1.0  -0.6187
