# generated using pymatgen
data_Co3H8C14(NO)6
_symmetry_space_group_name_H-M   'P 1'
_cell_length_a   10.96380000
_cell_length_b   10.97180000
_cell_length_c   10.98140000
_cell_angle_alpha   83.22700000
_cell_angle_beta   85.93700000
_cell_angle_gamma   81.09300000
_symmetry_Int_Tables_number   1
_chemical_formula_structural   Co3H8C14(NO)6
_chemical_formula_sum   'Co6 H16 C28 N12 O12'
_cell_volume   1294.08033431
_cell_formula_units_Z   2
loop_
 _symmetry_equiv_pos_site_id
 _symmetry_equiv_pos_as_xyz
  1  'x, y, z'
loop_
 _atom_site_type_symbol
 _atom_site_label
 _atom_site_symmetry_multiplicity
 _atom_site_fract_x
 _atom_site_fract_y
 _atom_site_fract_z
 _atom_site_occupancy
 _atom_site_charge
  Co  Co1  1  0.080700  0.906500  0.250700  1.0  1.0524
  Co  Co2  1  0.855500  0.995700  0.490000  1.0  0.998
  Co  Co3  1  0.964800  0.859200  0.004800  1.0  0.9375
  Co  Co4  1  0.919300  0.093500  0.749300  1.0  1.0538
  Co  Co5  1  0.144500  0.004300  0.510000  1.0  0.9966
  Co  Co6  1  0.035200  0.140800  0.995200  1.0  0.9379
  H  H7  1  0.632000  0.880600  0.013800  1.0  0.1269
  H  H8  1  0.432200  0.889600  0.102400  1.0  0.1059
  H  H9  1  0.551300  0.947800  0.425700  1.0  0.1274
  H  H10  1  0.124000  0.330600  0.493700  1.0  0.1209
  H  H11  1  0.086700  0.539300  0.415400  1.0  0.1067
  H  H12  1  0.017100  0.441500  0.088600  1.0  0.1136
  H  H13  1  0.169000  0.888000  0.035000  1.0  0.3638
  H  H14  1  0.102000  0.841000  0.476000  1.0  0.2486
  H  H15  1  0.368000  0.119400  0.986200  1.0  0.127
  H  H16  1  0.567800  0.110400  0.897600  1.0  0.1056
  H  H17  1  0.448700  0.052200  0.574300  1.0  0.127
  H  H18  1  0.876000  0.669400  0.506300  1.0  0.1212
  H  H19  1  0.913300  0.460700  0.584600  1.0  0.1068
  H  H20  1  0.982900  0.558500  0.911400  1.0  0.1142
  H  H21  1  0.831000  0.112000  0.965000  1.0  0.3645
  H  H22  1  0.898000  0.159000  0.524000  1.0  0.2513
  C  C23  1  0.688500  0.916000  0.294000  1.0  0.1267
  C  C24  1  0.709700  0.903000  0.170400  1.0  0.2091
  C  C25  1  0.615800  0.892000  0.096400  1.0  -0.1599
  C  C26  1  0.497300  0.897000  0.149600  1.0  -0.0191
  C  C27  1  0.474900  0.913000  0.273200  1.0  -0.1421
  C  C28  1  0.568400  0.929000  0.345300  1.0  -0.0022
  C  C29  1  0.343400  0.919000  0.332800  1.0  0.6978
  C  C30  1  0.064700  0.295000  0.213200  1.0  0.1003
  C  C31  1  0.093100  0.265000  0.335800  1.0  0.2202
  C  C32  1  0.103500  0.353000  0.412600  1.0  -0.1652
  C  C33  1  0.082600  0.477000  0.365300  1.0  -0.0618
  C  C34  1  0.055600  0.509000  0.242600  1.0  -0.1718
  C  C35  1  0.041800  0.419000  0.168400  1.0  -0.056
  C  C36  1  0.050400  0.642000  0.189100  1.0  0.7136
  C  C37  1  0.311500  0.084000  0.706000  1.0  0.1283
  C  C38  1  0.290300  0.097000  0.829600  1.0  0.2081
  C  C39  1  0.384200  0.108000  0.903600  1.0  -0.1603
  C  C40  1  0.502700  0.103000  0.850400  1.0  -0.0181
  C  C41  1  0.525100  0.087000  0.726800  1.0  -0.1411
  C  C42  1  0.431600  0.071000  0.654700  1.0  -0.0015
  C  C43  1  0.656600  0.081000  0.667200  1.0  0.6997
  C  C44  1  0.935300  0.705000  0.786800  1.0  0.0993
  C  C45  1  0.906900  0.735000  0.664200  1.0  0.2208
  C  C46  1  0.896500  0.647000  0.587400  1.0  -0.1643
  C  C47  1  0.917400  0.523000  0.634700  1.0  -0.0622
  C  C48  1  0.944400  0.491000  0.757400  1.0  -0.1712
  C  C49  1  0.958200  0.581000  0.831600  1.0  -0.0553
  C  C50  1  0.949600  0.358000  0.810900  1.0  0.7122
  N  N51  1  0.798500  0.927000  0.337500  1.0  -0.2809
  N  N52  1  0.881000  0.917000  0.244600  1.0  -0.0391
  N  N53  1  0.830600  0.902000  0.141900  1.0  -0.2629
  N  N54  1  0.061800  0.189000  0.166000  1.0  -0.286
  N  N55  1  0.089400  0.100000  0.255700  1.0  -0.1273
  N  N56  1  0.111200  0.141000  0.359100  1.0  -0.3399
  N  N57  1  0.201500  0.073000  0.662500  1.0  -0.2798
  N  N58  1  0.119000  0.083000  0.755400  1.0  -0.0391
  N  N59  1  0.169400  0.098000  0.858100  1.0  -0.2616
  N  N60  1  0.938200  0.811000  0.834000  1.0  -0.2861
  N  N61  1  0.910600  0.900000  0.744300  1.0  -0.1276
  N  N62  1  0.888800  0.859000  0.640900  1.0  -0.3397
  O  O63  1  0.094300  0.937000  0.064300  1.0  -0.9549
  O  O64  1  0.040000  0.899000  0.432000  1.0  -0.9629
  O  O65  1  0.317800  0.951000  0.434000  1.0  -0.5578
  O  O66  1  0.272400  0.869000  0.266700  1.0  -0.6071
  O  O67  1  0.011900  0.676000  0.082200  1.0  -0.5859
  O  O68  1  0.081900  0.711000  0.258100  1.0  -0.592
  O  O69  1  0.905700  0.063000  0.935700  1.0  -0.9553
  O  O70  1  0.960000  0.101000  0.568000  1.0  -0.9629
  O  O71  1  0.682200  0.049000  0.566000  1.0  -0.5587
  O  O72  1  0.727600  0.131000  0.733300  1.0  -0.6068
  O  O73  1  0.988100  0.324000  0.917800  1.0  -0.5868
  O  O74  1  0.918100  0.289000  0.741900  1.0  -0.5907
