# generated using pymatgen
data_Co3H8C14(NO)6
_symmetry_space_group_name_H-M   'P 1'
_cell_length_a   10.91880000
_cell_length_b   10.96340000
_cell_length_c   11.05640000
_cell_angle_alpha   83.33600000
_cell_angle_beta   87.08300000
_cell_angle_gamma   70.19100000
_symmetry_Int_Tables_number   1
_chemical_formula_structural   Co3H8C14(NO)6
_chemical_formula_sum   'Co6 H16 C28 N12 O12'
_cell_volume   1236.70619172
_cell_formula_units_Z   2
loop_
 _symmetry_equiv_pos_site_id
 _symmetry_equiv_pos_as_xyz
  1  'x, y, z'
loop_
 _atom_site_type_symbol
 _atom_site_label
 _atom_site_symmetry_multiplicity
 _atom_site_fract_x
 _atom_site_fract_y
 _atom_site_fract_z
 _atom_site_occupancy
 _atom_site_charge
  Co  Co1  1  0.093330  0.895250  0.250720  1.0  1.051
  Co  Co2  1  0.850680  0.016680  0.482260  1.0  0.9436
  Co  Co3  1  0.971070  0.863510  0.001710  1.0  0.9526
  Co  Co4  1  0.906670  0.104750  0.749280  1.0  1.0485
  Co  Co5  1  0.149320  0.983320  0.517740  1.0  0.9397
  Co  Co6  1  0.028930  0.136490  0.998290  1.0  0.9539
  H  H7  1  0.639600  0.849700  0.021800  1.0  0.1376
  H  H8  1  0.452100  0.835700  0.123600  1.0  0.1148
  H  H9  1  0.565500  0.919700  0.441500  1.0  0.1252
  H  H10  1  0.135800  0.316400  0.496800  1.0  0.1287
  H  H11  1  0.118100  0.525400  0.406000  1.0  0.1084
  H  H12  1  0.064400  0.434100  0.070400  1.0  0.1293
  H  H13  1  0.182000  0.879000  0.035000  1.0  0.363
  H  H14  1  0.064000  0.814000  0.470000  1.0  0.3671
  H  H15  1  0.360400  0.150300  0.978200  1.0  0.1365
  H  H16  1  0.547900  0.164300  0.876400  1.0  0.1154
  H  H17  1  0.434500  0.080300  0.558500  1.0  0.125
  H  H18  1  0.864200  0.683600  0.503200  1.0  0.1257
  H  H19  1  0.881900  0.474600  0.594000  1.0  0.1078
  H  H20  1  0.935600  0.565900  0.929600  1.0  0.1296
  H  H21  1  0.818000  0.121000  0.965000  1.0  0.371
  H  H22  1  0.936000  0.186000  0.530000  1.0  0.367
  C  C23  1  0.695800  0.910300  0.296600  1.0  0.1102
  C  C24  1  0.717700  0.889100  0.173600  1.0  0.114
  C  C25  1  0.625600  0.862400  0.105600  1.0  -0.0775
  C  C26  1  0.515300  0.855500  0.166100  1.0  -0.0247
  C  C27  1  0.492700  0.877200  0.290700  1.0  -0.0957
  C  C28  1  0.581100  0.905000  0.358300  1.0  -0.1093
  C  C29  1  0.364300  0.873900  0.347700  1.0  0.7674
  C  C30  1  0.086300  0.285800  0.210400  1.0  0.0961
  C  C31  1  0.108400  0.252000  0.335000  1.0  0.133
  C  C32  1  0.121100  0.339900  0.412000  1.0  -0.1072
  C  C33  1  0.110900  0.462300  0.357200  1.0  -0.0215
  C  C34  1  0.090000  0.497400  0.230700  1.0  -0.1078
  C  C35  1  0.077900  0.410800  0.155400  1.0  -0.0614
  C  C36  1  0.082300  0.634100  0.180000  1.0  0.7021
  C  C37  1  0.304200  0.089700  0.703400  1.0  0.1121
  C  C38  1  0.282300  0.110900  0.826400  1.0  0.1132
  C  C39  1  0.374400  0.137600  0.894400  1.0  -0.0808
  C  C40  1  0.484700  0.144500  0.833900  1.0  -0.0225
  C  C41  1  0.507300  0.122800  0.709300  1.0  -0.09
  C  C42  1  0.418900  0.095000  0.641700  1.0  -0.1039
  C  C43  1  0.635700  0.126100  0.652300  1.0  0.7405
  C  C44  1  0.913700  0.714200  0.789600  1.0  0.094
  C  C45  1  0.891600  0.748000  0.665000  1.0  0.1316
  C  C46  1  0.878900  0.660100  0.588000  1.0  -0.1112
  C  C47  1  0.889100  0.537700  0.642800  1.0  -0.0216
  C  C48  1  0.910000  0.502600  0.769300  1.0  -0.1107
  C  C49  1  0.922100  0.589200  0.844600  1.0  -0.0628
  C  C50  1  0.917700  0.365900  0.820000  1.0  0.7035
  N  N51  1  0.800300  0.937400  0.334900  1.0  -0.2545
  N  N52  1  0.881900  0.932000  0.239000  1.0  -0.1884
  N  N53  1  0.834500  0.902400  0.140900  1.0  -0.2944
  N  N54  1  0.076200  0.177600  0.163600  1.0  -0.3313
  N  N55  1  0.093600  0.086400  0.257100  1.0  -0.1138
  N  N56  1  0.113700  0.124600  0.361100  1.0  -0.275
  N  N57  1  0.199700  0.062600  0.665100  1.0  -0.2539
  N  N58  1  0.118100  0.068000  0.761000  1.0  -0.1874
  N  N59  1  0.165500  0.097600  0.859100  1.0  -0.2921
  N  N60  1  0.923800  0.822400  0.836400  1.0  -0.3355
  N  N61  1  0.906400  0.913600  0.742900  1.0  -0.1139
  N  N62  1  0.886300  0.875400  0.638900  1.0  -0.2756
  O  O63  1  0.101500  0.929900  0.066600  1.0  -0.9698
  O  O64  1  0.046000  0.900200  0.429600  1.0  -0.9577
  O  O65  1  0.337700  0.908800  0.454200  1.0  -0.5868
  O  O66  1  0.294700  0.835200  0.285000  1.0  -0.5869
  O  O67  1  0.048400  0.670600  0.070200  1.0  -0.5743
  O  O68  1  0.108100  0.701400  0.252500  1.0  -0.5903
  O  O69  1  0.898500  0.070100  0.933400  1.0  -0.97
  O  O70  1  0.954000  0.099800  0.570400  1.0  -0.9568
  O  O71  1  0.662300  0.091200  0.545800  1.0  -0.5892
  O  O72  1  0.705300  0.164800  0.715000  1.0  -0.5878
  O  O73  1  0.951600  0.329400  0.929800  1.0  -0.5749
  O  O74  1  0.891900  0.298600  0.747500  1.0  -0.5903
