# generated using pymatgen
data_Co3H8C14(NO)6
_symmetry_space_group_name_H-M   'P 1'
_cell_length_a   10.92040000
_cell_length_b   10.96030000
_cell_length_c   11.05870000
_cell_angle_alpha   83.32800000
_cell_angle_beta   87.02300000
_cell_angle_gamma   70.33000000
_symmetry_Int_Tables_number   1
_chemical_formula_structural   Co3H8C14(NO)6
_chemical_formula_sum   'Co6 H16 C28 N12 O12'
_cell_volume   1237.83016897
_cell_formula_units_Z   2
loop_
 _symmetry_equiv_pos_site_id
 _symmetry_equiv_pos_as_xyz
  1  'x, y, z'
loop_
 _atom_site_type_symbol
 _atom_site_label
 _atom_site_symmetry_multiplicity
 _atom_site_fract_x
 _atom_site_fract_y
 _atom_site_fract_z
 _atom_site_occupancy
 _atom_site_charge
  Co  Co1  1  0.093250  0.895200  0.250670  1.0  1.0018
  Co  Co2  1  0.850820  0.016470  0.482390  1.0  0.929
  Co  Co3  1  0.970850  0.863530  0.001760  1.0  0.9547
  Co  Co4  1  0.906750  0.104800  0.749330  1.0  1.0007
  Co  Co5  1  0.149180  0.983530  0.517610  1.0  0.9257
  Co  Co6  1  0.029150  0.136470  0.998240  1.0  0.955
  H  H7  1  0.639900  0.847200  0.023300  1.0  0.1352
  H  H8  1  0.452400  0.836000  0.124400  1.0  0.1086
  H  H9  1  0.565800  0.917800  0.441500  1.0  0.1253
  H  H10  1  0.136800  0.317100  0.496000  1.0  0.1274
  H  H11  1  0.116100  0.525900  0.407000  1.0  0.1005
  H  H12  1  0.064200  0.433300  0.071100  1.0  0.1273
  H  H13  1  0.187000  0.883000  0.047000  1.0  0.3676
  H  H14  1  0.046000  0.819000  0.467000  1.0  0.3991
  H  H15  1  0.360100  0.152800  0.976700  1.0  0.1345
  H  H16  1  0.547600  0.164000  0.875600  1.0  0.1091
  H  H17  1  0.434200  0.082200  0.558500  1.0  0.1253
  H  H18  1  0.863200  0.682900  0.504000  1.0  0.1277
  H  H19  1  0.883900  0.474100  0.593000  1.0  0.1006
  H  H20  1  0.935800  0.566700  0.928900  1.0  0.1278
  H  H21  1  0.813000  0.117000  0.953000  1.0  0.3693
  H  H22  1  0.954000  0.181000  0.533000  1.0  0.3987
  C  C23  1  0.696200  0.910600  0.296800  1.0  0.1115
  C  C24  1  0.718300  0.888700  0.173400  1.0  0.1101
  C  C25  1  0.625900  0.861200  0.106800  1.0  -0.0835
  C  C26  1  0.515700  0.855500  0.167000  1.0  -0.0233
  C  C27  1  0.492500  0.877700  0.291100  1.0  -0.0909
  C  C28  1  0.581000  0.904300  0.357900  1.0  -0.1028
  C  C29  1  0.364500  0.874600  0.347100  1.0  0.761
  C  C30  1  0.086300  0.285500  0.209900  1.0  0.0863
  C  C31  1  0.108100  0.251700  0.335400  1.0  0.1181
  C  C32  1  0.121100  0.340600  0.411400  1.0  -0.1634
  C  C33  1  0.110000  0.462800  0.357700  1.0  -0.0278
  C  C34  1  0.089600  0.498600  0.230500  1.0  -0.1191
  C  C35  1  0.077700  0.410200  0.156100  1.0  -0.0552
  C  C36  1  0.081900  0.634000  0.180000  1.0  0.7033
  C  C37  1  0.303800  0.089400  0.703200  1.0  0.1116
  C  C38  1  0.281700  0.111300  0.826600  1.0  0.1094
  C  C39  1  0.374100  0.138800  0.893200  1.0  -0.0869
  C  C40  1  0.484300  0.144500  0.833000  1.0  -0.022
  C  C41  1  0.507500  0.122300  0.708900  1.0  -0.0906
  C  C42  1  0.419000  0.095700  0.642100  1.0  -0.1015
  C  C43  1  0.635500  0.125400  0.652900  1.0  0.7606
  C  C44  1  0.913700  0.714500  0.790100  1.0  0.0845
  C  C45  1  0.891900  0.748300  0.664600  1.0  0.1198
  C  C46  1  0.878900  0.659400  0.588600  1.0  -0.1644
  C  C47  1  0.890000  0.537200  0.642300  1.0  -0.0268
  C  C48  1  0.910400  0.501400  0.769500  1.0  -0.1181
  C  C49  1  0.922300  0.589800  0.843900  1.0  -0.057
  C  C50  1  0.918100  0.366000  0.820000  1.0  0.7042
  N  N51  1  0.800300  0.937100  0.334800  1.0  -0.2642
  N  N52  1  0.881500  0.931300  0.239200  1.0  -0.1234
  N  N53  1  0.834700  0.903100  0.141200  1.0  -0.277
  N  N54  1  0.075700  0.178000  0.163200  1.0  -0.3404
  N  N55  1  0.094000  0.085200  0.257100  1.0  -0.0805
  N  N56  1  0.114200  0.125600  0.360900  1.0  -0.2436
  N  N57  1  0.199700  0.062900  0.665200  1.0  -0.263
  N  N58  1  0.118500  0.068700  0.760800  1.0  -0.1218
  N  N59  1  0.165300  0.096900  0.858800  1.0  -0.2759
  N  N60  1  0.924300  0.822000  0.836800  1.0  -0.341
  N  N61  1  0.906000  0.914800  0.742900  1.0  -0.081
  N  N62  1  0.885800  0.874400  0.639100  1.0  -0.2437
  O  O63  1  0.100900  0.929900  0.066000  1.0  -0.9717
  O  O64  1  0.045700  0.900100  0.429600  1.0  -0.9462
  O  O65  1  0.337600  0.909700  0.453800  1.0  -0.5981
  O  O66  1  0.294400  0.835700  0.285500  1.0  -0.5895
  O  O67  1  0.047100  0.671100  0.069800  1.0  -0.5704
  O  O68  1  0.107900  0.702000  0.252500  1.0  -0.5966
  O  O69  1  0.899100  0.070100  0.934000  1.0  -0.9719
  O  O70  1  0.954300  0.099900  0.570400  1.0  -0.9461
  O  O71  1  0.662400  0.090300  0.546200  1.0  -0.5975
  O  O72  1  0.705600  0.164300  0.714500  1.0  -0.5885
  O  O73  1  0.952900  0.328900  0.930200  1.0  -0.5698
  O  O74  1  0.892100  0.298000  0.747500  1.0  -0.5963
