# generated using pymatgen
data_Co3H8C14(NO)6
_symmetry_space_group_name_H-M   'P 1'
_cell_length_a   11.04370000
_cell_length_b   11.01070000
_cell_length_c   11.02220000
_cell_angle_alpha   83.36400000
_cell_angle_beta   85.87100000
_cell_angle_gamma   77.34600000
_symmetry_Int_Tables_number   1
_chemical_formula_structural   Co3H8C14(NO)6
_chemical_formula_sum   'Co6 H16 C28 N12 O12'
_cell_volume   1297.46306557
_cell_formula_units_Z   2
loop_
 _symmetry_equiv_pos_site_id
 _symmetry_equiv_pos_as_xyz
  1  'x, y, z'
loop_
 _atom_site_type_symbol
 _atom_site_label
 _atom_site_symmetry_multiplicity
 _atom_site_fract_x
 _atom_site_fract_y
 _atom_site_fract_z
 _atom_site_occupancy
 _atom_site_charge
  Co  Co1  1  0.086900  0.903660  0.251110  1.0  0.9325
  Co  Co2  1  0.971800  0.858560  0.002770  1.0  0.9781
  Co  Co3  1  0.853700  0.999960  0.489490  1.0  0.9177
  Co  Co4  1  0.913100  0.096340  0.748890  1.0  0.9306
  Co  Co5  1  0.028200  0.141440  0.997230  1.0  0.9799
  Co  Co6  1  0.146300  0.000040  0.510510  1.0  0.9185
  H  H7  1  0.437800  0.872100  0.109400  1.0  0.1205
  H  H8  1  0.634800  0.868100  0.017700  1.0  0.113
  H  H9  1  0.563100  0.924700  0.431600  1.0  0.1154
  H  H10  1  0.121200  0.333600  0.493800  1.0  0.1246
  H  H11  1  0.119500  0.534800  0.401300  1.0  0.1156
  H  H12  1  0.053800  0.443100  0.075500  1.0  0.1347
  H  H13  1  0.181000  0.919000  0.043000  1.0  0.4051
  H  H14  1  0.968000  0.883000  0.448000  1.0  0.2752
  H  H15  1  0.562200  0.127900  0.890600  1.0  0.1205
  H  H16  1  0.365200  0.131900  0.982300  1.0  0.1127
  H  H17  1  0.436900  0.075300  0.568400  1.0  0.1153
  H  H18  1  0.878800  0.666400  0.506200  1.0  0.1255
  H  H19  1  0.880500  0.465200  0.598700  1.0  0.1157
  H  H20  1  0.946200  0.556900  0.924500  1.0  0.1351
  H  H21  1  0.819000  0.081000  0.957000  1.0  0.4055
  H  H22  1  0.032000  0.117000  0.552000  1.0  0.2762
  C  C23  1  0.695700  0.910200  0.294200  1.0  0.0984
  C  C24  1  0.719300  0.892400  0.168400  1.0  0.0954
  C  C25  1  0.502000  0.880600  0.155400  1.0  -0.0836
  C  C26  1  0.620800  0.878600  0.100400  1.0  -0.0428
  C  C27  1  0.481000  0.895600  0.281600  1.0  -0.1778
  C  C28  1  0.577700  0.912200  0.349300  1.0  -0.008
  C  C29  1  0.357000  0.899000  0.332100  1.0  0.7412
  C  C30  1  0.079000  0.295700  0.209000  1.0  0.1017
  C  C31  1  0.103000  0.264300  0.331400  1.0  0.1439
  C  C32  1  0.113000  0.353900  0.410200  1.0  -0.1409
  C  C33  1  0.108000  0.473200  0.354900  1.0  -0.0069
  C  C34  1  0.086000  0.503500  0.234400  1.0  -0.13
  C  C35  1  0.070000  0.419200  0.157400  1.0  -0.049
  C  C36  1  0.074000  0.641600  0.183100  1.0  0.7357
  C  C37  1  0.304300  0.089800  0.705800  1.0  0.0988
  C  C38  1  0.280700  0.107600  0.831600  1.0  0.0952
  C  C39  1  0.498000  0.119400  0.844600  1.0  -0.0846
  C  C40  1  0.379200  0.121400  0.899600  1.0  -0.0413
  C  C41  1  0.519000  0.104400  0.718400  1.0  -0.1776
  C  C42  1  0.422300  0.087800  0.650700  1.0  -0.0091
  C  C43  1  0.643000  0.101000  0.667900  1.0  0.7425
  C  C44  1  0.921000  0.704300  0.791000  1.0  0.0996
  C  C45  1  0.897000  0.735700  0.668600  1.0  0.1439
  C  C46  1  0.887000  0.646100  0.589800  1.0  -0.1398
  C  C47  1  0.892000  0.526800  0.645100  1.0  -0.0069
  C  C48  1  0.914000  0.496500  0.765600  1.0  -0.1306
  C  C49  1  0.930000  0.580800  0.842600  1.0  -0.0501
  C  C50  1  0.926000  0.358400  0.816900  1.0  0.7349
  N  N51  1  0.842500  0.895100  0.142800  1.0  -0.3056
  N  N52  1  0.890000  0.915200  0.244400  1.0  -0.0623
  N  N53  1  0.804700  0.925200  0.335400  1.0  -0.2151
  N  N54  1  0.074300  0.186200  0.161500  1.0  -0.3339
  N  N55  1  0.095200  0.094800  0.254200  1.0  -0.092
  N  N56  1  0.115700  0.136300  0.356700  1.0  -0.2809
  N  N57  1  0.157500  0.104900  0.857200  1.0  -0.3039
  N  N58  1  0.110000  0.084800  0.755600  1.0  -0.0631
  N  N59  1  0.195300  0.074800  0.664600  1.0  -0.2145
  N  N60  1  0.925700  0.813800  0.838500  1.0  -0.3356
  N  N61  1  0.904800  0.905200  0.745800  1.0  -0.0914
  N  N62  1  0.884300  0.863700  0.643300  1.0  -0.2814
  O  O63  1  0.092500  0.941200  0.065900  1.0  -0.9677
  O  O64  1  0.048000  0.903500  0.431800  1.0  -0.8436
  O  O65  1  0.330000  0.936900  0.437800  1.0  -0.6024
  O  O66  1  0.279000  0.864100  0.269200  1.0  -0.6317
  O  O67  1  0.038600  0.674300  0.075600  1.0  -0.5941
  O  O68  1  0.103100  0.711100  0.251900  1.0  -0.5809
  O  O69  1  0.907500  0.058800  0.934100  1.0  -0.967
  O  O70  1  0.952000  0.096500  0.568200  1.0  -0.8453
  O  O71  1  0.670000  0.063100  0.562200  1.0  -0.6023
  O  O72  1  0.721000  0.135900  0.730800  1.0  -0.6285
  O  O73  1  0.961400  0.325700  0.924400  1.0  -0.5956
  O  O74  1  0.896900  0.288900  0.748100  1.0  -0.581
