# generated using pymatgen
data_Co3H8C14(NO)6
_symmetry_space_group_name_H-M   'P 1'
_cell_length_a   17.62860000
_cell_length_b   13.09290000
_cell_length_c   11.07270000
_cell_angle_alpha   90.00000000
_cell_angle_beta   95.59900000
_cell_angle_gamma   90.00000000
_symmetry_Int_Tables_number   1
_chemical_formula_structural   Co3H8C14(NO)6
_chemical_formula_sum   'Co12 H32 C56 N24 O24'
_cell_volume   2543.49141006
_cell_formula_units_Z   4
loop_
 _symmetry_equiv_pos_site_id
 _symmetry_equiv_pos_as_xyz
  1  'x, y, z'
loop_
 _atom_site_type_symbol
 _atom_site_label
 _atom_site_symmetry_multiplicity
 _atom_site_fract_x
 _atom_site_fract_y
 _atom_site_fract_z
 _atom_site_occupancy
 _atom_site_charge
  Co  Co1  1  0.578700  0.564240  0.997320  1.0  0.9768
  Co  Co2  1  0.078700  0.064240  0.997320  1.0  0.9768
  Co  Co3  1  0.421300  0.564240  0.502680  1.0  0.9758
  Co  Co4  1  0.921300  0.064240  0.502680  1.0  0.9758
  Co  Co5  1  0.421300  0.435760  0.002680  1.0  0.9752
  Co  Co6  1  0.921300  0.935760  0.002680  1.0  0.9752
  Co  Co7  1  0.578700  0.435760  0.497320  1.0  0.9762
  Co  Co8  1  0.078700  0.935760  0.497320  1.0  0.9762
  Co  Co9  1  0.500000  0.593530  0.250000  1.0  0.9466
  Co  Co10  1  0.000000  0.093530  0.250000  1.0  0.9466
  Co  Co11  1  0.500000  0.406470  0.750000  1.0  0.9487
  Co  Co12  1  0.000000  0.906470  0.750000  1.0  0.9487
  H  H13  1  0.761700  0.890700  0.485400  1.0  0.1365
  H  H14  1  0.661500  0.798900  0.392300  1.0  0.1159
  H  H15  1  0.746400  0.817900  0.067100  1.0  0.1331
  H  H16  1  0.465000  0.635000  0.016000  1.0  0.278
  H  H17  1  0.261700  0.390700  0.485400  1.0  0.1365
  H  H18  1  0.161500  0.298900  0.392300  1.0  0.1159
  H  H19  1  0.246400  0.317900  0.067100  1.0  0.1331
  H  H20  1  0.965000  0.135000  0.016000  1.0  0.278
  H  H21  1  0.238300  0.890700  0.014600  1.0  0.1363
  H  H22  1  0.338500  0.798900  0.107700  1.0  0.1156
  H  H23  1  0.253600  0.817900  0.432900  1.0  0.1325
  H  H24  1  0.535000  0.635000  0.484000  1.0  0.2778
  H  H25  1  0.738300  0.390700  0.014600  1.0  0.1363
  H  H26  1  0.838500  0.298900  0.107700  1.0  0.1156
  H  H27  1  0.753600  0.317900  0.432900  1.0  0.1325
  H  H28  1  0.035000  0.135000  0.484000  1.0  0.2778
  H  H29  1  0.238300  0.109300  0.514600  1.0  0.1363
  H  H30  1  0.338500  0.201100  0.607700  1.0  0.1161
  H  H31  1  0.253600  0.182100  0.932900  1.0  0.1328
  H  H32  1  0.535000  0.365000  0.984000  1.0  0.2797
  H  H33  1  0.738300  0.609300  0.514600  1.0  0.1363
  H  H34  1  0.838500  0.701100  0.607700  1.0  0.1161
  H  H35  1  0.753600  0.682100  0.932900  1.0  0.1328
  H  H36  1  0.035000  0.865000  0.984000  1.0  0.2797
  H  H37  1  0.761700  0.109300  0.985400  1.0  0.1367
  H  H38  1  0.661500  0.201100  0.892300  1.0  0.1162
  H  H39  1  0.746400  0.182100  0.567100  1.0  0.1331
  H  H40  1  0.465000  0.365000  0.516000  1.0  0.2795
  H  H41  1  0.261700  0.609300  0.985400  1.0  0.1367
  H  H42  1  0.161500  0.701100  0.892300  1.0  0.1162
  H  H43  1  0.246400  0.682100  0.567100  1.0  0.1331
  H  H44  1  0.965000  0.865000  0.516000  1.0  0.2795
  C  C45  1  0.808600  0.892300  0.208500  1.0  0.1014
  C  C46  1  0.811900  0.915900  0.330400  1.0  0.178
  C  C47  1  0.758100  0.878000  0.402400  1.0  -0.1337
  C  C48  1  0.699900  0.821700  0.346900  1.0  -0.0073
  C  C49  1  0.696100  0.796600  0.221400  1.0  -0.1158
  C  C50  1  0.749200  0.832200  0.149700  1.0  -0.0662
  C  C51  1  0.633100  0.726700  0.171100  1.0  0.7253
  C  C52  1  0.308600  0.392300  0.208500  1.0  0.1014
  C  C53  1  0.311900  0.415900  0.330400  1.0  0.178
  C  C54  1  0.258100  0.378000  0.402400  1.0  -0.1337
  C  C55  1  0.199900  0.321700  0.346900  1.0  -0.0073
  C  C56  1  0.196100  0.296600  0.221400  1.0  -0.1158
  C  C57  1  0.249200  0.332200  0.149700  1.0  -0.0662
  C  C58  1  0.133100  0.226700  0.171100  1.0  0.7253
  C  C59  1  0.191400  0.892300  0.291500  1.0  0.1014
  C  C60  1  0.188100  0.915900  0.169600  1.0  0.179
  C  C61  1  0.241900  0.878000  0.097600  1.0  -0.1337
  C  C62  1  0.300100  0.821700  0.153100  1.0  -0.0071
  C  C63  1  0.303900  0.796600  0.278600  1.0  -0.1163
  C  C64  1  0.250800  0.832200  0.350300  1.0  -0.0668
  C  C65  1  0.366900  0.726700  0.328900  1.0  0.7257
  C  C66  1  0.691400  0.392300  0.291500  1.0  0.1014
  C  C67  1  0.688100  0.415900  0.169600  1.0  0.179
  C  C68  1  0.741900  0.378000  0.097600  1.0  -0.1337
  C  C69  1  0.800100  0.321700  0.153100  1.0  -0.0071
  C  C70  1  0.803900  0.296600  0.278600  1.0  -0.1163
  C  C71  1  0.750800  0.332200  0.350300  1.0  -0.0668
  C  C72  1  0.866900  0.226700  0.328900  1.0  0.7257
  C  C73  1  0.191400  0.107700  0.791500  1.0  0.1012
  C  C74  1  0.188100  0.084100  0.669600  1.0  0.1787
  C  C75  1  0.241900  0.122000  0.597600  1.0  -0.1339
  C  C76  1  0.300100  0.178300  0.653100  1.0  -0.0072
  C  C77  1  0.303900  0.203400  0.778600  1.0  -0.1167
  C  C78  1  0.250800  0.167800  0.850300  1.0  -0.0667
  C  C79  1  0.366900  0.273300  0.828900  1.0  0.7256
  C  C80  1  0.691400  0.607700  0.791500  1.0  0.1012
  C  C81  1  0.688100  0.584100  0.669600  1.0  0.1787
  C  C82  1  0.741900  0.622000  0.597600  1.0  -0.1339
  C  C83  1  0.800100  0.678300  0.653100  1.0  -0.0072
  C  C84  1  0.803900  0.703400  0.778600  1.0  -0.1167
  C  C85  1  0.750800  0.667800  0.850300  1.0  -0.0667
  C  C86  1  0.866900  0.773300  0.828900  1.0  0.7256
  C  C87  1  0.808600  0.107700  0.708500  1.0  0.1024
  C  C88  1  0.811900  0.084100  0.830400  1.0  0.1775
  C  C89  1  0.758100  0.122000  0.902400  1.0  -0.1337
  C  C90  1  0.699900  0.178300  0.846900  1.0  -0.0066
  C  C91  1  0.696100  0.203400  0.721400  1.0  -0.1166
  C  C92  1  0.749200  0.167800  0.649700  1.0  -0.0662
  C  C93  1  0.633100  0.273300  0.671100  1.0  0.7252
  C  C94  1  0.308600  0.607700  0.708500  1.0  0.1024
  C  C95  1  0.311900  0.584100  0.830400  1.0  0.1775
  C  C96  1  0.258100  0.622000  0.902400  1.0  -0.1337
  C  C97  1  0.199900  0.678300  0.846900  1.0  -0.0066
  C  C98  1  0.196100  0.703400  0.721400  1.0  -0.1166
  C  C99  1  0.249200  0.667800  0.649700  1.0  -0.0662
  C  C100  1  0.133100  0.773300  0.671100  1.0  0.7252
  N  N101  1  0.869500  0.939800  0.163300  1.0  -0.2926
  N  N102  1  0.906800  0.986400  0.256000  1.0  -0.0812
  N  N103  1  0.873200  0.976800  0.357100  1.0  -0.2475
  N  N104  1  0.369500  0.439800  0.163300  1.0  -0.2926
  N  N105  1  0.406800  0.486400  0.256000  1.0  -0.0812
  N  N106  1  0.373200  0.476800  0.357100  1.0  -0.2475
  N  N107  1  0.130500  0.939800  0.336700  1.0  -0.2936
  N  N108  1  0.093200  0.986400  0.244000  1.0  -0.0815
  N  N109  1  0.126800  0.976800  0.142900  1.0  -0.2476
  N  N110  1  0.630500  0.439800  0.336700  1.0  -0.2936
  N  N111  1  0.593200  0.486400  0.244000  1.0  -0.0815
  N  N112  1  0.626800  0.476800  0.142900  1.0  -0.2476
  N  N113  1  0.130500  0.060200  0.836700  1.0  -0.294
  N  N114  1  0.093200  0.013600  0.744000  1.0  -0.0817
  N  N115  1  0.126800  0.023200  0.642900  1.0  -0.2477
  N  N116  1  0.630500  0.560200  0.836700  1.0  -0.294
  N  N117  1  0.593200  0.513600  0.744000  1.0  -0.0817
  N  N118  1  0.626800  0.523200  0.642900  1.0  -0.2477
  N  N119  1  0.869500  0.060200  0.663300  1.0  -0.2924
  N  N120  1  0.906800  0.013600  0.756000  1.0  -0.0811
  N  N121  1  0.873200  0.023200  0.857100  1.0  -0.2475
  N  N122  1  0.369500  0.560200  0.663300  1.0  -0.2924
  N  N123  1  0.406800  0.513600  0.756000  1.0  -0.0811
  N  N124  1  0.373200  0.523200  0.857100  1.0  -0.2475
  O  O125  1  0.479000  0.577200  0.067400  1.0  -1.0011
  O  O126  1  0.636300  0.692400  0.064700  1.0  -0.5772
  O  O127  1  0.581500  0.708500  0.238900  1.0  -0.5946
  O  O128  1  0.979000  0.077200  0.067400  1.0  -1.0011
  O  O129  1  0.136300  0.192400  0.064700  1.0  -0.5772
  O  O130  1  0.081500  0.208500  0.238900  1.0  -0.5946
  O  O131  1  0.521000  0.577200  0.432600  1.0  -1.0029
  O  O132  1  0.363700  0.692400  0.435300  1.0  -0.5773
  O  O133  1  0.418500  0.708500  0.261100  1.0  -0.5914
  O  O134  1  0.021000  0.077200  0.432600  1.0  -1.0029
  O  O135  1  0.863700  0.192400  0.435300  1.0  -0.5773
  O  O136  1  0.918500  0.208500  0.261100  1.0  -0.5914
  O  O137  1  0.521000  0.422800  0.932600  1.0  -1.0042
  O  O138  1  0.363700  0.307600  0.935300  1.0  -0.5777
  O  O139  1  0.418500  0.291500  0.761100  1.0  -0.5946
  O  O140  1  0.021000  0.922800  0.932600  1.0  -1.0042
  O  O141  1  0.863700  0.807600  0.935300  1.0  -0.5777
  O  O142  1  0.918500  0.791500  0.761100  1.0  -0.5946
  O  O143  1  0.479000  0.422800  0.567400  1.0  -1.0024
  O  O144  1  0.636300  0.307600  0.564700  1.0  -0.577
  O  O145  1  0.581500  0.291500  0.738900  1.0  -0.5936
  O  O146  1  0.979000  0.922800  0.567400  1.0  -1.0024
  O  O147  1  0.136300  0.807600  0.564700  1.0  -0.577
  O  O148  1  0.081500  0.791500  0.738900  1.0  -0.5936
