# generated using pymatgen
data_Co3H8C14(NO)6
_symmetry_space_group_name_H-M   'P 1'
_cell_length_a   16.89400000
_cell_length_b   14.01400000
_cell_length_c   11.00330000
_cell_angle_alpha   90.00000000
_cell_angle_beta   98.28700000
_cell_angle_gamma   90.00000000
_symmetry_Int_Tables_number   1
_chemical_formula_structural   Co3H8C14(NO)6
_chemical_formula_sum   'Co12 H32 C56 N24 O24'
_cell_volume   2577.85828042
_cell_formula_units_Z   4
loop_
 _symmetry_equiv_pos_site_id
 _symmetry_equiv_pos_as_xyz
  1  'x, y, z'
loop_
 _atom_site_type_symbol
 _atom_site_label
 _atom_site_symmetry_multiplicity
 _atom_site_fract_x
 _atom_site_fract_y
 _atom_site_fract_z
 _atom_site_occupancy
 _atom_site_charge
  Co  Co1  1  0.923390  0.932200  0.005900  1.0  0.9697
  Co  Co2  1  0.423390  0.432200  0.005900  1.0  0.9697
  Co  Co3  1  0.076610  0.932200  0.494100  1.0  0.9699
  Co  Co4  1  0.576610  0.432200  0.494100  1.0  0.9699
  Co  Co5  1  0.076610  0.067800  0.994100  1.0  0.9728
  Co  Co6  1  0.576610  0.567800  0.994100  1.0  0.9728
  Co  Co7  1  0.923390  0.067800  0.505900  1.0  0.9722
  Co  Co8  1  0.423390  0.567800  0.505900  1.0  0.9722
  Co  Co9  1  0.000000  0.091400  0.250000  1.0  0.9275
  Co  Co10  1  0.500000  0.591400  0.250000  1.0  0.9262
  Co  Co11  1  0.000000  0.908600  0.750000  1.0  0.9295
  Co  Co12  1  0.500000  0.408600  0.750000  1.0  0.9284
  H  H13  1  0.768500  0.890500  0.491400  1.0  0.1273
  H  H14  1  0.671400  0.785900  0.401000  1.0  0.1039
  H  H15  1  0.755000  0.800800  0.079500  1.0  0.1334
  H  H16  1  0.947000  0.129000  0.048000  1.0  0.3476
  H  H17  1  0.268500  0.390500  0.491400  1.0  0.1273
  H  H18  1  0.171400  0.285900  0.401000  1.0  0.1039
  H  H19  1  0.255000  0.300800  0.079500  1.0  0.1334
  H  H20  1  0.447000  0.629000  0.048000  1.0  0.3476
  H  H21  1  0.231500  0.890500  0.008600  1.0  0.1269
  H  H22  1  0.328600  0.785900  0.099000  1.0  0.1039
  H  H23  1  0.245000  0.800800  0.420500  1.0  0.1328
  H  H24  1  0.053000  0.129000  0.452000  1.0  0.3467
  H  H25  1  0.731500  0.390500  0.008600  1.0  0.1269
  H  H26  1  0.828600  0.285900  0.099000  1.0  0.1039
  H  H27  1  0.745000  0.300800  0.420500  1.0  0.1328
  H  H28  1  0.553000  0.629000  0.452000  1.0  0.3467
  H  H29  1  0.231500  0.109500  0.508600  1.0  0.1267
  H  H30  1  0.328600  0.214100  0.599000  1.0  0.1044
  H  H31  1  0.245000  0.199200  0.920500  1.0  0.1329
  H  H32  1  0.053000  0.871000  0.952000  1.0  0.35
  H  H33  1  0.731500  0.609500  0.508600  1.0  0.1267
  H  H34  1  0.828600  0.714100  0.599000  1.0  0.1044
  H  H35  1  0.745000  0.699200  0.920500  1.0  0.1329
  H  H36  1  0.553000  0.371000  0.952000  1.0  0.35
  H  H37  1  0.768500  0.109500  0.991400  1.0  0.1275
  H  H38  1  0.671400  0.214100  0.901000  1.0  0.1042
  H  H39  1  0.755000  0.199200  0.579500  1.0  0.1335
  H  H40  1  0.947000  0.871000  0.548000  1.0  0.3497
  H  H41  1  0.268500  0.609500  0.991400  1.0  0.1275
  H  H42  1  0.171400  0.714100  0.901000  1.0  0.1042
  H  H43  1  0.255000  0.699200  0.579500  1.0  0.1335
  H  H44  1  0.447000  0.371000  0.548000  1.0  0.3497
  C  C45  1  0.807900  0.890300  0.210600  1.0  0.1843
  C  C46  1  0.813900  0.915400  0.333000  1.0  0.2227
  C  C47  1  0.764200  0.875100  0.408500  1.0  -0.1532
  C  C48  1  0.708100  0.811400  0.354400  1.0  -0.0128
  C  C49  1  0.704400  0.783900  0.233000  1.0  -0.1256
  C  C50  1  0.755600  0.821300  0.160000  1.0  -0.0456
  C  C51  1  0.637900  0.713900  0.179900  1.0  0.7088
  C  C52  1  0.307900  0.390300  0.210600  1.0  0.1843
  C  C53  1  0.313900  0.415400  0.333000  1.0  0.2227
  C  C54  1  0.264200  0.375100  0.408500  1.0  -0.1532
  C  C55  1  0.208100  0.311400  0.354400  1.0  -0.0128
  C  C56  1  0.204400  0.283900  0.233000  1.0  -0.1256
  C  C57  1  0.255600  0.321300  0.160000  1.0  -0.0456
  C  C58  1  0.137900  0.213900  0.179900  1.0  0.7088
  C  C59  1  0.192100  0.890300  0.289400  1.0  0.1814
  C  C60  1  0.186100  0.915400  0.167000  1.0  0.2241
  C  C61  1  0.235800  0.875100  0.091500  1.0  -0.1512
  C  C62  1  0.291900  0.811400  0.145600  1.0  -0.013
  C  C63  1  0.295600  0.783900  0.267000  1.0  -0.1256
  C  C64  1  0.244400  0.821300  0.340000  1.0  -0.0458
  C  C65  1  0.362100  0.713900  0.320100  1.0  0.7083
  C  C66  1  0.692100  0.390300  0.289400  1.0  0.1814
  C  C67  1  0.686100  0.415400  0.167000  1.0  0.2241
  C  C68  1  0.735800  0.375100  0.091500  1.0  -0.1512
  C  C69  1  0.791900  0.311400  0.145600  1.0  -0.013
  C  C70  1  0.795600  0.283900  0.267000  1.0  -0.1256
  C  C71  1  0.744400  0.321300  0.340000  1.0  -0.0458
  C  C72  1  0.862100  0.213900  0.320100  1.0  0.7083
  C  C73  1  0.192100  0.109700  0.789400  1.0  0.1813
  C  C74  1  0.186100  0.084600  0.667000  1.0  0.2243
  C  C75  1  0.235800  0.124900  0.591500  1.0  -0.1518
  C  C76  1  0.291900  0.188600  0.645600  1.0  -0.0129
  C  C77  1  0.295600  0.216100  0.767000  1.0  -0.1253
  C  C78  1  0.244400  0.178700  0.840000  1.0  -0.0456
  C  C79  1  0.362100  0.286100  0.820100  1.0  0.7087
  C  C80  1  0.692100  0.609700  0.789400  1.0  0.1813
  C  C81  1  0.686100  0.584600  0.667000  1.0  0.2243
  C  C82  1  0.735800  0.624900  0.591500  1.0  -0.1518
  C  C83  1  0.791900  0.688600  0.645600  1.0  -0.0129
  C  C84  1  0.795600  0.716100  0.767000  1.0  -0.1253
  C  C85  1  0.744400  0.678700  0.840000  1.0  -0.0456
  C  C86  1  0.862100  0.786100  0.820100  1.0  0.7087
  C  C87  1  0.807900  0.109700  0.710600  1.0  0.1846
  C  C88  1  0.813900  0.084600  0.833000  1.0  0.2227
  C  C89  1  0.764200  0.124900  0.908500  1.0  -0.1527
  C  C90  1  0.708100  0.188600  0.854400  1.0  -0.012
  C  C91  1  0.704400  0.216100  0.733000  1.0  -0.125
  C  C92  1  0.755600  0.178700  0.660000  1.0  -0.0454
  C  C93  1  0.637900  0.286100  0.679900  1.0  0.709
  C  C94  1  0.307900  0.609700  0.710600  1.0  0.1846
  C  C95  1  0.313900  0.584600  0.833000  1.0  0.2227
  C  C96  1  0.264200  0.624900  0.908500  1.0  -0.1527
  C  C97  1  0.208100  0.688600  0.854400  1.0  -0.012
  C  C98  1  0.204400  0.716100  0.733000  1.0  -0.125
  C  C99  1  0.255600  0.678700  0.660000  1.0  -0.0454
  C  C100  1  0.137900  0.786100  0.679900  1.0  0.709
  N  N101  1  0.865800  0.941000  0.161800  1.0  -0.3339
  N  N102  1  0.905100  0.996200  0.252600  1.0  -0.1808
  N  N103  1  0.873400  0.980900  0.358000  1.0  -0.2549
  N  N104  1  0.365800  0.441000  0.161800  1.0  -0.3339
  N  N105  1  0.405100  0.496200  0.252600  1.0  -0.1814
  N  N106  1  0.373400  0.480900  0.358000  1.0  -0.2549
  N  N107  1  0.134200  0.941000  0.338200  1.0  -0.3333
  N  N108  1  0.094900  0.996200  0.247400  1.0  -0.1818
  N  N109  1  0.126600  0.980900  0.142000  1.0  -0.2559
  N  N110  1  0.634200  0.441000  0.338200  1.0  -0.3333
  N  N111  1  0.594900  0.496200  0.247400  1.0  -0.1807
  N  N112  1  0.626600  0.480900  0.142000  1.0  -0.2559
  N  N113  1  0.134200  0.059000  0.838200  1.0  -0.3333
  N  N114  1  0.094900  0.003800  0.747400  1.0  -0.1814
  N  N115  1  0.126600  0.019100  0.642000  1.0  -0.2562
  N  N116  1  0.634200  0.559000  0.838200  1.0  -0.3333
  N  N117  1  0.594900  0.503800  0.747400  1.0  -0.1819
  N  N118  1  0.626600  0.519100  0.642000  1.0  -0.2562
  N  N119  1  0.865800  0.059000  0.661800  1.0  -0.3337
  N  N120  1  0.905100  0.003800  0.752600  1.0  -0.1818
  N  N121  1  0.873400  0.019100  0.858000  1.0  -0.255
  N  N122  1  0.365800  0.559000  0.661800  1.0  -0.3337
  N  N123  1  0.405100  0.503800  0.752600  1.0  -0.1807
  N  N124  1  0.373400  0.519100  0.858000  1.0  -0.255
  O  O125  1  0.975600  0.070300  0.066300  1.0  -0.9572
  O  O126  1  0.641800  0.682600  0.074700  1.0  -0.5941
  O  O127  1  0.585700  0.696000  0.246500  1.0  -0.606
  O  O128  1  0.475600  0.570300  0.066300  1.0  -0.9572
  O  O129  1  0.141800  0.182600  0.074700  1.0  -0.5941
  O  O130  1  0.085700  0.196000  0.246500  1.0  -0.606
  O  O131  1  0.024400  0.070300  0.433700  1.0  -0.956
  O  O132  1  0.358200  0.682600  0.425300  1.0  -0.5937
  O  O133  1  0.414300  0.696000  0.253500  1.0  -0.6058
  O  O134  1  0.524400  0.570300  0.433700  1.0  -0.956
  O  O135  1  0.858200  0.182600  0.425300  1.0  -0.5937
  O  O136  1  0.914300  0.196000  0.253500  1.0  -0.6058
  O  O137  1  0.024400  0.929700  0.933700  1.0  -0.9563
  O  O138  1  0.358200  0.317400  0.925300  1.0  -0.5937
  O  O139  1  0.414300  0.304000  0.753500  1.0  -0.6053
  O  O140  1  0.524400  0.429700  0.933700  1.0  -0.9563
  O  O141  1  0.858200  0.817400  0.925300  1.0  -0.5937
  O  O142  1  0.914300  0.804000  0.753500  1.0  -0.6053
  O  O143  1  0.975600  0.929700  0.566300  1.0  -0.9575
  O  O144  1  0.641800  0.317400  0.574700  1.0  -0.5941
  O  O145  1  0.585700  0.304000  0.746500  1.0  -0.6074
  O  O146  1  0.475600  0.429700  0.566300  1.0  -0.9575
  O  O147  1  0.141800  0.817400  0.574700  1.0  -0.5941
  O  O148  1  0.085700  0.804000  0.746500  1.0  -0.6074
