# generated using pymatgen
data_Co3H8C14(NO)6
_symmetry_space_group_name_H-M   'P 1'
_cell_length_a   16.80140000
_cell_length_b   14.17300000
_cell_length_c   33.18130000
_cell_angle_alpha   90.00000000
_cell_angle_beta   96.64100000
_cell_angle_gamma   90.00000000
_symmetry_Int_Tables_number   1
_chemical_formula_structural   Co3H8C14(NO)6
_chemical_formula_sum   'Co36 H96 C168 N72 O72'
_cell_volume   7848.32238619
_cell_formula_units_Z   12
loop_
 _symmetry_equiv_pos_site_id
 _symmetry_equiv_pos_as_xyz
  1  'x, y, z'
loop_
 _atom_site_type_symbol
 _atom_site_label
 _atom_site_symmetry_multiplicity
 _atom_site_fract_x
 _atom_site_fract_y
 _atom_site_fract_z
 _atom_site_occupancy
 _atom_site_charge
  Co  Co1  1  0.006880  0.094790  0.417340  1.0  1.0451
  Co  Co2  1  0.925490  0.070490  0.502880  1.0  0.9467
  Co  Co3  1  0.918970  0.958500  0.333220  1.0  1.0301
  Co  Co4  1  0.090000  0.068170  0.335540  1.0  0.981
  Co  Co5  1  0.506880  0.594790  0.417340  1.0  1.0455
  Co  Co6  1  0.425490  0.570490  0.502880  1.0  0.9467
  Co  Co7  1  0.418970  0.458500  0.333220  1.0  1.0301
  Co  Co8  1  0.590000  0.568170  0.335540  1.0  0.981
  Co  Co9  1  0.993120  0.094790  0.082660  1.0  1.045
  Co  Co10  1  0.074510  0.070490  0.997120  1.0  0.9462
  Co  Co11  1  0.081030  0.958500  0.166780  1.0  1.0289
  Co  Co12  1  0.910000  0.068170  0.164460  1.0  0.9806
  Co  Co13  1  0.493120  0.594790  0.082660  1.0  1.0455
  Co  Co14  1  0.574510  0.570490  0.997120  1.0  0.9462
  Co  Co15  1  0.581030  0.458500  0.166780  1.0  1.0289
  Co  Co16  1  0.410000  0.568170  0.164460  1.0  0.9806
  Co  Co17  1  0.993120  0.905210  0.582660  1.0  1.0463
  Co  Co18  1  0.074510  0.929510  0.497120  1.0  0.9428
  Co  Co19  1  0.081030  0.041500  0.666780  1.0  1.0287
  Co  Co20  1  0.910000  0.931830  0.664460  1.0  0.9796
  Co  Co21  1  0.493120  0.405210  0.582660  1.0  1.0468
  Co  Co22  1  0.574510  0.429510  0.497120  1.0  0.9428
  Co  Co23  1  0.581030  0.541500  0.666780  1.0  1.0287
  Co  Co24  1  0.410000  0.431830  0.664460  1.0  0.9796
  Co  Co25  1  0.006880  0.905210  0.917340  1.0  1.0462
  Co  Co26  1  0.925490  0.929510  0.002880  1.0  0.9433
  Co  Co27  1  0.918970  0.041500  0.833220  1.0  1.0301
  Co  Co28  1  0.090000  0.931830  0.835540  1.0  0.9793
  Co  Co29  1  0.506880  0.405210  0.917340  1.0  1.0466
  Co  Co30  1  0.425490  0.429510  0.002880  1.0  0.9433
  Co  Co31  1  0.418970  0.541500  0.833220  1.0  1.0301
  Co  Co32  1  0.590000  0.431830  0.835540  1.0  0.9793
  Co  Co33  1  0.000000  0.929440  0.250000  1.0  0.9495
  Co  Co34  1  0.500000  0.429440  0.250000  1.0  0.9495
  Co  Co35  1  0.000000  0.070560  0.750000  1.0  0.9476
  Co  Co36  1  0.500000  0.570560  0.750000  1.0  0.9476
  H  H37  1  0.234800  0.133900  0.169200  1.0  0.1273
  H  H38  1  0.324600  0.250400  0.199000  1.0  0.1096
  H  H39  1  0.245000  0.216500  0.308900  1.0  0.1243
  H  H40  1  0.270500  0.396100  0.497200  1.0  0.1337
  H  H41  1  0.175700  0.287600  0.467800  1.0  0.1136
  H  H42  1  0.258500  0.310400  0.361000  1.0  0.1158
  H  H43  1  0.344100  0.788900  0.369000  1.0  0.116
  H  H44  1  0.250400  0.808900  0.475900  1.0  0.1123
  H  H45  1  0.245400  0.885600  0.338600  1.0  0.1271
  H  H46  1  0.069000  0.103000  0.495000  1.0  0.3085
  H  H47  1  0.027000  0.877000  0.322000  1.0  0.3037
  H  H48  1  0.956000  0.143000  0.347000  1.0  0.3601
  H  H49  1  0.734800  0.633900  0.169200  1.0  0.1276
  H  H50  1  0.824600  0.750400  0.199000  1.0  0.1096
  H  H51  1  0.745000  0.716500  0.308900  1.0  0.1243
  H  H52  1  0.770500  0.896100  0.497200  1.0  0.1337
  H  H53  1  0.675700  0.787600  0.467800  1.0  0.1136
  H  H54  1  0.758500  0.810400  0.361000  1.0  0.1158
  H  H55  1  0.844100  0.288900  0.369000  1.0  0.1149
  H  H56  1  0.750400  0.308900  0.475900  1.0  0.1123
  H  H57  1  0.745400  0.385600  0.338600  1.0  0.1271
  H  H58  1  0.569000  0.603000  0.495000  1.0  0.3085
  H  H59  1  0.527000  0.377000  0.322000  1.0  0.3028
  H  H60  1  0.456000  0.643000  0.347000  1.0  0.3601
  H  H61  1  0.765200  0.133900  0.330800  1.0  0.1281
  H  H62  1  0.675400  0.250400  0.301000  1.0  0.1094
  H  H63  1  0.755000  0.216500  0.191100  1.0  0.1255
  H  H64  1  0.729500  0.396100  0.002800  1.0  0.1339
  H  H65  1  0.824300  0.287600  0.032200  1.0  0.1133
  H  H66  1  0.741500  0.310400  0.139000  1.0  0.1157
  H  H67  1  0.655900  0.788900  0.131000  1.0  0.1165
  H  H68  1  0.749600  0.808900  0.024100  1.0  0.1122
  H  H69  1  0.754600  0.885600  0.161400  1.0  0.1267
  H  H70  1  0.931000  0.103000  0.005000  1.0  0.3085
  H  H71  1  0.973000  0.877000  0.178000  1.0  0.3031
  H  H72  1  0.044000  0.143000  0.153000  1.0  0.36
  H  H73  1  0.265200  0.633900  0.330800  1.0  0.1281
  H  H74  1  0.175400  0.750400  0.301000  1.0  0.1094
  H  H75  1  0.255000  0.716500  0.191100  1.0  0.1255
  H  H76  1  0.229500  0.896100  0.002800  1.0  0.1339
  H  H77  1  0.324300  0.787600  0.032200  1.0  0.1133
  H  H78  1  0.241500  0.810400  0.139000  1.0  0.1157
  H  H79  1  0.155900  0.288900  0.131000  1.0  0.1155
  H  H80  1  0.249600  0.308900  0.024100  1.0  0.1122
  H  H81  1  0.254600  0.385600  0.161400  1.0  0.1267
  H  H82  1  0.431000  0.603000  0.005000  1.0  0.3085
  H  H83  1  0.473000  0.377000  0.178000  1.0  0.3032
  H  H84  1  0.544000  0.643000  0.153000  1.0  0.36
  H  H85  1  0.765200  0.866100  0.830800  1.0  0.1276
  H  H86  1  0.675400  0.749600  0.801000  1.0  0.1097
  H  H87  1  0.755000  0.783500  0.691100  1.0  0.1255
  H  H88  1  0.729500  0.603900  0.502800  1.0  0.1338
  H  H89  1  0.824300  0.712400  0.532200  1.0  0.1138
  H  H90  1  0.741500  0.689600  0.639000  1.0  0.1155
  H  H91  1  0.655900  0.211100  0.631000  1.0  0.1164
  H  H92  1  0.749600  0.191100  0.524100  1.0  0.1125
  H  H93  1  0.754600  0.114400  0.661400  1.0  0.1271
  H  H94  1  0.931000  0.897000  0.505000  1.0  0.3088
  H  H95  1  0.973000  0.123000  0.678000  1.0  0.3029
  H  H96  1  0.044000  0.857000  0.653000  1.0  0.3603
  H  H97  1  0.265200  0.366100  0.830800  1.0  0.1278
  H  H98  1  0.175400  0.249600  0.801000  1.0  0.1097
  H  H99  1  0.255000  0.283500  0.691100  1.0  0.1255
  H  H100  1  0.229500  0.103900  0.502800  1.0  0.1338
  H  H101  1  0.324300  0.212400  0.532200  1.0  0.1138
  H  H102  1  0.241500  0.189600  0.639000  1.0  0.1155
  H  H103  1  0.155900  0.711100  0.631000  1.0  0.1154
  H  H104  1  0.249600  0.691100  0.524100  1.0  0.1125
  H  H105  1  0.254600  0.614400  0.661400  1.0  0.1271
  H  H106  1  0.431000  0.397000  0.505000  1.0  0.3088
  H  H107  1  0.473000  0.623000  0.678000  1.0  0.302
  H  H108  1  0.544000  0.357000  0.653000  1.0  0.3603
  H  H109  1  0.234800  0.866100  0.669200  1.0  0.1275
  H  H110  1  0.324600  0.749600  0.699000  1.0  0.11
  H  H111  1  0.245000  0.783500  0.808900  1.0  0.1245
  H  H112  1  0.270500  0.603900  0.997200  1.0  0.1336
  H  H113  1  0.175700  0.712400  0.967800  1.0  0.1139
  H  H114  1  0.258500  0.689600  0.861000  1.0  0.1157
  H  H115  1  0.344100  0.211100  0.869000  1.0  0.1163
  H  H116  1  0.250400  0.191100  0.975900  1.0  0.1123
  H  H117  1  0.245400  0.114400  0.838600  1.0  0.127
  H  H118  1  0.069000  0.897000  0.995000  1.0  0.3096
  H  H119  1  0.027000  0.123000  0.822000  1.0  0.303
  H  H120  1  0.956000  0.857000  0.847000  1.0  0.3597
  H  H121  1  0.734800  0.366100  0.669200  1.0  0.1275
  H  H122  1  0.824600  0.249600  0.699000  1.0  0.11
  H  H123  1  0.745000  0.283500  0.808900  1.0  0.1245
  H  H124  1  0.770500  0.103900  0.997200  1.0  0.1336
  H  H125  1  0.675700  0.212400  0.967800  1.0  0.1139
  H  H126  1  0.758500  0.189600  0.861000  1.0  0.1157
  H  H127  1  0.844100  0.711100  0.869000  1.0  0.1153
  H  H128  1  0.750400  0.691100  0.975900  1.0  0.1123
  H  H129  1  0.745400  0.614400  0.838600  1.0  0.127
  H  H130  1  0.569000  0.397000  0.995000  1.0  0.3096
  H  H131  1  0.527000  0.623000  0.822000  1.0  0.3031
  H  H132  1  0.456000  0.357000  0.847000  1.0  0.3597
  C  C133  1  0.188200  0.136800  0.263900  1.0  0.1232
  C  C134  1  0.186900  0.111800  0.223800  1.0  0.1611
  C  C135  1  0.237200  0.151200  0.196300  1.0  -0.1037
  C  C136  1  0.290700  0.218700  0.214700  1.0  -0.0108
  C  C137  1  0.294100  0.240000  0.257000  1.0  -0.1055
  C  C138  1  0.242800  0.200700  0.281600  1.0  -0.0015
  C  C139  1  0.359900  0.309000  0.273900  1.0  0.7363
  C  C140  1  0.315900  0.397700  0.404100  1.0  0.0883
  C  C141  1  0.316400  0.419500  0.444400  1.0  0.1746
  C  C142  1  0.267400  0.380100  0.469900  1.0  -0.1189
  C  C143  1  0.212400  0.314100  0.452200  1.0  -0.0267
  C  C144  1  0.210800  0.286900  0.412000  1.0  -0.1436
  C  C145  1  0.260500  0.328000  0.388100  1.0  -0.0316
  C  C146  1  0.148400  0.215300  0.394900  1.0  0.7135
  C  C147  1  0.196600  0.916800  0.391400  1.0  0.1696
  C  C148  1  0.198900  0.889800  0.431600  1.0  0.1399
  C  C149  1  0.306300  0.814800  0.384100  1.0  -0.0109
  C  C150  1  0.308100  0.792000  0.426800  1.0  -0.137
  C  C151  1  0.251900  0.827500  0.449200  1.0  0.0147
  C  C152  1  0.249700  0.873600  0.366400  1.0  -0.0847
  C  C153  1  0.371300  0.722000  0.444300  1.0  0.7203
  C  C154  1  0.688200  0.636800  0.263900  1.0  0.1232
  C  C155  1  0.686900  0.611800  0.223800  1.0  0.1611
  C  C156  1  0.737200  0.651200  0.196300  1.0  -0.1037
  C  C157  1  0.790700  0.718700  0.214700  1.0  -0.0108
  C  C158  1  0.794100  0.740000  0.257000  1.0  -0.1055
  C  C159  1  0.742800  0.700700  0.281600  1.0  -0.0015
  C  C160  1  0.859900  0.809000  0.273900  1.0  0.7363
  C  C161  1  0.815900  0.897700  0.404100  1.0  0.0883
  C  C162  1  0.816400  0.919500  0.444400  1.0  0.1746
  C  C163  1  0.767400  0.880100  0.469900  1.0  -0.1189
  C  C164  1  0.712400  0.814100  0.452200  1.0  -0.0267
  C  C165  1  0.710800  0.786900  0.412000  1.0  -0.1436
  C  C166  1  0.760500  0.828000  0.388100  1.0  -0.0316
  C  C167  1  0.648400  0.715300  0.394900  1.0  0.7135
  C  C168  1  0.696600  0.416800  0.391400  1.0  0.1696
  C  C169  1  0.698900  0.389800  0.431600  1.0  0.1399
  C  C170  1  0.806300  0.314800  0.384100  1.0  -0.0109
  C  C171  1  0.808100  0.292000  0.426800  1.0  -0.137
  C  C172  1  0.751900  0.327500  0.449200  1.0  0.0147
  C  C173  1  0.749700  0.373600  0.366400  1.0  -0.0847
  C  C174  1  0.871300  0.222000  0.444300  1.0  0.7203
  C  C175  1  0.811800  0.136800  0.236100  1.0  0.1261
  C  C176  1  0.813100  0.111800  0.276200  1.0  0.1613
  C  C177  1  0.762800  0.151200  0.303700  1.0  -0.1046
  C  C178  1  0.709300  0.218700  0.285300  1.0  -0.0098
  C  C179  1  0.705900  0.240000  0.243000  1.0  -0.1052
  C  C180  1  0.757200  0.200700  0.218400  1.0  -0.0014
  C  C181  1  0.640100  0.309000  0.226100  1.0  0.736
  C  C182  1  0.684100  0.397700  0.095900  1.0  0.0859
  C  C183  1  0.683600  0.419500  0.055600  1.0  0.1749
  C  C184  1  0.732600  0.380100  0.030100  1.0  -0.1183
  C  C185  1  0.787600  0.314100  0.047800  1.0  -0.0266
  C  C186  1  0.789200  0.286900  0.088000  1.0  -0.1438
  C  C187  1  0.739500  0.328000  0.111900  1.0  -0.032
  C  C188  1  0.851600  0.215300  0.105100  1.0  0.7133
  C  C189  1  0.803400  0.916800  0.108600  1.0  0.1692
  C  C190  1  0.801100  0.889800  0.068400  1.0  0.1414
  C  C191  1  0.693700  0.814800  0.115900  1.0  -0.013
  C  C192  1  0.691900  0.792000  0.073200  1.0  -0.1363
  C  C193  1  0.748100  0.827500  0.050800  1.0  0.0173
  C  C194  1  0.750300  0.873600  0.133600  1.0  -0.0859
  C  C195  1  0.628700  0.722000  0.055700  1.0  0.7214
  C  C196  1  0.311800  0.636800  0.236100  1.0  0.1261
  C  C197  1  0.313100  0.611800  0.276200  1.0  0.1613
  C  C198  1  0.262800  0.651200  0.303700  1.0  -0.1046
  C  C199  1  0.209300  0.718700  0.285300  1.0  -0.0098
  C  C200  1  0.205900  0.740000  0.243000  1.0  -0.1052
  C  C201  1  0.257200  0.700700  0.218400  1.0  -0.0014
  C  C202  1  0.140100  0.809000  0.226100  1.0  0.736
  C  C203  1  0.184100  0.897700  0.095900  1.0  0.0859
  C  C204  1  0.183600  0.919500  0.055600  1.0  0.1749
  C  C205  1  0.232600  0.880100  0.030100  1.0  -0.1183
  C  C206  1  0.287600  0.814100  0.047800  1.0  -0.0266
  C  C207  1  0.289200  0.786900  0.088000  1.0  -0.1438
  C  C208  1  0.239500  0.828000  0.111900  1.0  -0.032
  C  C209  1  0.351600  0.715300  0.105100  1.0  0.7133
  C  C210  1  0.303400  0.416800  0.108600  1.0  0.1692
  C  C211  1  0.301100  0.389800  0.068400  1.0  0.1414
  C  C212  1  0.193700  0.314800  0.115900  1.0  -0.013
  C  C213  1  0.191900  0.292000  0.073200  1.0  -0.1363
  C  C214  1  0.248100  0.327500  0.050800  1.0  0.0173
  C  C215  1  0.250300  0.373600  0.133600  1.0  -0.0859
  C  C216  1  0.128700  0.222000  0.055700  1.0  0.7214
  C  C217  1  0.811800  0.863200  0.736100  1.0  0.1258
  C  C218  1  0.813100  0.888200  0.776200  1.0  0.1614
  C  C219  1  0.762800  0.848800  0.803700  1.0  -0.1049
  C  C220  1  0.709300  0.781300  0.785300  1.0  -0.0099
  C  C221  1  0.705900  0.760000  0.743000  1.0  -0.1045
  C  C222  1  0.757200  0.799300  0.718400  1.0  -0.0012
  C  C223  1  0.640100  0.691000  0.726100  1.0  0.7362
  C  C224  1  0.684100  0.602300  0.595900  1.0  0.0857
  C  C225  1  0.683600  0.580500  0.555600  1.0  0.1747
  C  C226  1  0.732600  0.619900  0.530100  1.0  -0.1181
  C  C227  1  0.787600  0.685900  0.547800  1.0  -0.0272
  C  C228  1  0.789200  0.713100  0.588000  1.0  -0.1439
  C  C229  1  0.739500  0.672000  0.611900  1.0  -0.0321
  C  C230  1  0.851600  0.784700  0.605100  1.0  0.7135
  C  C231  1  0.803400  0.083200  0.608600  1.0  0.1694
  C  C232  1  0.801100  0.110200  0.568400  1.0  0.142
  C  C233  1  0.693700  0.185200  0.615900  1.0  -0.0129
  C  C234  1  0.691900  0.208000  0.573200  1.0  -0.137
  C  C235  1  0.748100  0.172500  0.550800  1.0  0.0171
  C  C236  1  0.750300  0.126400  0.633600  1.0  -0.0864
  C  C237  1  0.628700  0.278000  0.555700  1.0  0.7209
  C  C238  1  0.311800  0.363200  0.736100  1.0  0.1258
  C  C239  1  0.313100  0.388200  0.776200  1.0  0.1614
  C  C240  1  0.262800  0.348800  0.803700  1.0  -0.1049
  C  C241  1  0.209300  0.281300  0.785300  1.0  -0.0099
  C  C242  1  0.205900  0.260000  0.743000  1.0  -0.1045
  C  C243  1  0.257200  0.299300  0.718400  1.0  -0.0012
  C  C244  1  0.140100  0.191000  0.726100  1.0  0.7362
  C  C245  1  0.184100  0.102300  0.595900  1.0  0.0857
  C  C246  1  0.183600  0.080500  0.555600  1.0  0.1747
  C  C247  1  0.232600  0.119900  0.530100  1.0  -0.1181
  C  C248  1  0.287600  0.185900  0.547800  1.0  -0.0272
  C  C249  1  0.289200  0.213100  0.588000  1.0  -0.1439
  C  C250  1  0.239500  0.172000  0.611900  1.0  -0.0321
  C  C251  1  0.351600  0.284700  0.605100  1.0  0.7135
  C  C252  1  0.303400  0.583200  0.608600  1.0  0.1694
  C  C253  1  0.301100  0.610200  0.568400  1.0  0.142
  C  C254  1  0.193700  0.685200  0.615900  1.0  -0.0129
  C  C255  1  0.191900  0.708000  0.573200  1.0  -0.137
  C  C256  1  0.248100  0.672500  0.550800  1.0  0.0171
  C  C257  1  0.250300  0.626400  0.633600  1.0  -0.0864
  C  C258  1  0.128700  0.778000  0.555700  1.0  0.7209
  C  C259  1  0.188200  0.863200  0.763900  1.0  0.1234
  C  C260  1  0.186900  0.888200  0.723800  1.0  0.161
  C  C261  1  0.237200  0.848800  0.696300  1.0  -0.1044
  C  C262  1  0.290700  0.781300  0.714700  1.0  -0.0108
  C  C263  1  0.294100  0.760000  0.757000  1.0  -0.1049
  C  C264  1  0.242800  0.799300  0.781600  1.0  -0.0014
  C  C265  1  0.359900  0.691000  0.773900  1.0  0.7367
  C  C266  1  0.315900  0.602300  0.904100  1.0  0.0889
  C  C267  1  0.316400  0.580500  0.944400  1.0  0.1743
  C  C268  1  0.267400  0.619900  0.969900  1.0  -0.1188
  C  C269  1  0.212400  0.685900  0.952200  1.0  -0.0268
  C  C270  1  0.210800  0.713100  0.912000  1.0  -0.1435
  C  C271  1  0.260500  0.672000  0.888100  1.0  -0.0319
  C  C272  1  0.148400  0.784700  0.894900  1.0  0.7137
  C  C273  1  0.196600  0.083200  0.891400  1.0  0.1694
  C  C274  1  0.198900  0.110200  0.931600  1.0  0.1399
  C  C275  1  0.306300  0.185200  0.884100  1.0  -0.0114
  C  C276  1  0.308100  0.208000  0.926800  1.0  -0.1372
  C  C277  1  0.251900  0.172500  0.949200  1.0  0.0148
  C  C278  1  0.249700  0.126400  0.866400  1.0  -0.0861
  C  C279  1  0.371300  0.278000  0.944300  1.0  0.7204
  C  C280  1  0.688200  0.363200  0.763900  1.0  0.1234
  C  C281  1  0.686900  0.388200  0.723800  1.0  0.161
  C  C282  1  0.737200  0.348800  0.696300  1.0  -0.1044
  C  C283  1  0.790700  0.281300  0.714700  1.0  -0.0108
  C  C284  1  0.794100  0.260000  0.757000  1.0  -0.1049
  C  C285  1  0.742800  0.299300  0.781600  1.0  -0.0014
  C  C286  1  0.859900  0.191000  0.773900  1.0  0.7367
  C  C287  1  0.815900  0.102300  0.904100  1.0  0.0889
  C  C288  1  0.816400  0.080500  0.944400  1.0  0.1743
  C  C289  1  0.767400  0.119900  0.969900  1.0  -0.1188
  C  C290  1  0.712400  0.185900  0.952200  1.0  -0.0268
  C  C291  1  0.710800  0.213100  0.912000  1.0  -0.1435
  C  C292  1  0.760500  0.172000  0.888100  1.0  -0.0319
  C  C293  1  0.648400  0.284700  0.894900  1.0  0.7137
  C  C294  1  0.696600  0.583200  0.891400  1.0  0.1694
  C  C295  1  0.698900  0.610200  0.931600  1.0  0.1399
  C  C296  1  0.806300  0.685200  0.884100  1.0  -0.0114
  C  C297  1  0.808100  0.708000  0.926800  1.0  -0.1372
  C  C298  1  0.751900  0.672500  0.949200  1.0  0.0148
  C  C299  1  0.749700  0.626400  0.866400  1.0  -0.0861
  C  C300  1  0.871300  0.778000  0.944300  1.0  0.7204
  N  N301  1  0.129400  0.081500  0.280000  1.0  -0.3565
  N  N302  1  0.094400  0.030700  0.249500  1.0  -0.0187
  N  N303  1  0.125400  0.047800  0.215400  1.0  -0.2702
  N  N304  1  0.372300  0.451000  0.387500  1.0  -0.4142
  N  N305  1  0.405600  0.503600  0.418400  1.0  -0.1638
  N  N306  1  0.373800  0.491500  0.453400  1.0  -0.4351
  N  N307  1  0.137400  0.978500  0.381200  1.0  -0.3506
  N  N308  1  0.101700  0.989700  0.415000  1.0  -0.0952
  N  N309  1  0.136700  0.941100  0.446500  1.0  -0.3206
  N  N310  1  0.629400  0.581500  0.280000  1.0  -0.3565
  N  N311  1  0.594400  0.530700  0.249500  1.0  -0.0187
  N  N312  1  0.625400  0.547800  0.215400  1.0  -0.2702
  N  N313  1  0.872300  0.951000  0.387500  1.0  -0.4142
  N  N314  1  0.905600  0.003600  0.418400  1.0  -0.1638
  N  N315  1  0.873800  0.991500  0.453400  1.0  -0.4351
  N  N316  1  0.637400  0.478500  0.381200  1.0  -0.3506
  N  N317  1  0.601700  0.489700  0.415000  1.0  -0.0952
  N  N318  1  0.636700  0.441100  0.446500  1.0  -0.3206
  N  N319  1  0.870600  0.081500  0.220000  1.0  -0.3555
  N  N320  1  0.905600  0.030700  0.250500  1.0  -0.0191
  N  N321  1  0.874600  0.047800  0.284600  1.0  -0.2689
  N  N322  1  0.627700  0.451000  0.112500  1.0  -0.4146
  N  N323  1  0.594400  0.503600  0.081600  1.0  -0.1632
  N  N324  1  0.626200  0.491500  0.046600  1.0  -0.4366
  N  N325  1  0.862600  0.978500  0.118800  1.0  -0.3497
  N  N326  1  0.898300  0.989700  0.085000  1.0  -0.0963
  N  N327  1  0.863300  0.941100  0.053500  1.0  -0.3189
  N  N328  1  0.370600  0.581500  0.220000  1.0  -0.3555
  N  N329  1  0.405600  0.530700  0.250500  1.0  -0.0191
  N  N330  1  0.374600  0.547800  0.284600  1.0  -0.2689
  N  N331  1  0.127700  0.951000  0.112500  1.0  -0.4146
  N  N332  1  0.094400  0.003600  0.081600  1.0  -0.1632
  N  N333  1  0.126200  0.991500  0.046600  1.0  -0.4366
  N  N334  1  0.362600  0.478500  0.118800  1.0  -0.3497
  N  N335  1  0.398300  0.489700  0.085000  1.0  -0.0963
  N  N336  1  0.363300  0.441100  0.053500  1.0  -0.3189
  N  N337  1  0.870600  0.918500  0.720000  1.0  -0.3555
  N  N338  1  0.905600  0.969300  0.750500  1.0  -0.0192
  N  N339  1  0.874600  0.952200  0.784600  1.0  -0.269
  N  N340  1  0.627700  0.549000  0.612500  1.0  -0.4144
  N  N341  1  0.594400  0.496400  0.581600  1.0  -0.1632
  N  N342  1  0.626200  0.508500  0.546600  1.0  -0.4368
  N  N343  1  0.862600  0.021500  0.618800  1.0  -0.3494
  N  N344  1  0.898300  0.010300  0.585000  1.0  -0.0964
  N  N345  1  0.863300  0.058900  0.553500  1.0  -0.3185
  N  N346  1  0.370600  0.418500  0.720000  1.0  -0.3555
  N  N347  1  0.405600  0.469300  0.750500  1.0  -0.0192
  N  N348  1  0.374600  0.452200  0.784600  1.0  -0.269
  N  N349  1  0.127700  0.049000  0.612500  1.0  -0.4144
  N  N350  1  0.094400  0.996400  0.581600  1.0  -0.1632
  N  N351  1  0.126200  0.008500  0.546600  1.0  -0.4368
  N  N352  1  0.362600  0.521500  0.618800  1.0  -0.3494
  N  N353  1  0.398300  0.510300  0.585000  1.0  -0.0964
  N  N354  1  0.363300  0.558900  0.553500  1.0  -0.3185
  N  N355  1  0.129400  0.918500  0.780000  1.0  -0.3562
  N  N356  1  0.094400  0.969300  0.749500  1.0  -0.0184
  N  N357  1  0.125400  0.952200  0.715400  1.0  -0.2694
  N  N358  1  0.372300  0.549000  0.887500  1.0  -0.4139
  N  N359  1  0.405600  0.496400  0.918400  1.0  -0.1639
  N  N360  1  0.373800  0.508500  0.953400  1.0  -0.4353
  N  N361  1  0.137400  0.021500  0.881200  1.0  -0.3503
  N  N362  1  0.101700  0.010300  0.915000  1.0  -0.0951
  N  N363  1  0.136700  0.058900  0.946500  1.0  -0.3205
  N  N364  1  0.629400  0.418500  0.780000  1.0  -0.3562
  N  N365  1  0.594400  0.469300  0.749500  1.0  -0.0184
  N  N366  1  0.625400  0.452200  0.715400  1.0  -0.2694
  N  N367  1  0.872300  0.049000  0.887500  1.0  -0.4139
  N  N368  1  0.905600  0.996400  0.918400  1.0  -0.1639
  N  N369  1  0.873800  0.008500  0.953400  1.0  -0.4353
  N  N370  1  0.637400  0.521500  0.881200  1.0  -0.3503
  N  N371  1  0.601700  0.510300  0.915000  1.0  -0.0951
  N  N372  1  0.636700  0.558900  0.946500  1.0  -0.3205
  O  O373  1  0.023700  0.940600  0.311700  1.0  -0.9703
  O  O374  1  0.985400  0.086300  0.355600  1.0  -0.9368
  O  O375  1  0.029300  0.068800  0.477600  1.0  -0.9589
  O  O376  1  0.353700  0.346400  0.308000  1.0  -0.5725
  O  O377  1  0.414300  0.326200  0.252000  1.0  -0.6037
  O  O378  1  0.153200  0.183000  0.360300  1.0  -0.5694
  O  O379  1  0.098300  0.194000  0.418300  1.0  -0.5838
  O  O380  1  0.365500  0.687600  0.478500  1.0  -0.5798
  O  O381  1  0.427700  0.707200  0.422700  1.0  -0.593
  O  O382  1  0.523700  0.440600  0.311700  1.0  -0.9703
  O  O383  1  0.485400  0.586300  0.355600  1.0  -0.9368
  O  O384  1  0.529300  0.568800  0.477600  1.0  -0.9589
  O  O385  1  0.853700  0.846400  0.308000  1.0  -0.5725
  O  O386  1  0.914300  0.826200  0.252000  1.0  -0.6037
  O  O387  1  0.653200  0.683000  0.360300  1.0  -0.5694
  O  O388  1  0.598300  0.694000  0.418300  1.0  -0.5838
  O  O389  1  0.865500  0.187600  0.478500  1.0  -0.5798
  O  O390  1  0.927700  0.207200  0.422700  1.0  -0.593
  O  O391  1  0.976300  0.940600  0.188300  1.0  -0.9706
  O  O392  1  0.014600  0.086300  0.144400  1.0  -0.9357
  O  O393  1  0.970700  0.068800  0.022400  1.0  -0.9592
  O  O394  1  0.646300  0.346400  0.192000  1.0  -0.5733
  O  O395  1  0.585700  0.326200  0.248000  1.0  -0.6064
  O  O396  1  0.846800  0.183000  0.139700  1.0  -0.5678
  O  O397  1  0.901700  0.194000  0.081700  1.0  -0.5841
  O  O398  1  0.634500  0.687600  0.021500  1.0  -0.5804
  O  O399  1  0.572300  0.707200  0.077300  1.0  -0.5945
  O  O400  1  0.476300  0.440600  0.188300  1.0  -0.9706
  O  O401  1  0.514600  0.586300  0.144400  1.0  -0.9357
  O  O402  1  0.470700  0.568800  0.022400  1.0  -0.9592
  O  O403  1  0.146300  0.846400  0.192000  1.0  -0.5733
  O  O404  1  0.085700  0.826200  0.248000  1.0  -0.6064
  O  O405  1  0.346800  0.683000  0.139700  1.0  -0.5678
  O  O406  1  0.401700  0.694000  0.081700  1.0  -0.5841
  O  O407  1  0.134500  0.187600  0.021500  1.0  -0.5804
  O  O408  1  0.072300  0.207200  0.077300  1.0  -0.5945
  O  O409  1  0.976300  0.059400  0.688300  1.0  -0.9697
  O  O410  1  0.014600  0.913700  0.644400  1.0  -0.9356
  O  O411  1  0.970700  0.931200  0.522400  1.0  -0.9596
  O  O412  1  0.646300  0.653600  0.692000  1.0  -0.5732
  O  O413  1  0.585700  0.673800  0.748000  1.0  -0.6064
  O  O414  1  0.846800  0.817000  0.639700  1.0  -0.5679
  O  O415  1  0.901700  0.806000  0.581700  1.0  -0.5846
  O  O416  1  0.634500  0.312400  0.521500  1.0  -0.5812
  O  O417  1  0.572300  0.292800  0.577300  1.0  -0.5954
  O  O418  1  0.476300  0.559400  0.688300  1.0  -0.9697
  O  O419  1  0.514600  0.413700  0.644400  1.0  -0.9356
  O  O420  1  0.470700  0.431200  0.522400  1.0  -0.9596
  O  O421  1  0.146300  0.153600  0.692000  1.0  -0.5732
  O  O422  1  0.085700  0.173800  0.748000  1.0  -0.6064
  O  O423  1  0.346800  0.317000  0.639700  1.0  -0.5679
  O  O424  1  0.401700  0.306000  0.581700  1.0  -0.5846
  O  O425  1  0.134500  0.812400  0.521500  1.0  -0.5812
  O  O426  1  0.072300  0.792800  0.577300  1.0  -0.5954
  O  O427  1  0.023700  0.059400  0.811700  1.0  -0.9697
  O  O428  1  0.985400  0.913700  0.855600  1.0  -0.9372
  O  O429  1  0.029300  0.931200  0.977600  1.0  -0.959
  O  O430  1  0.353700  0.653600  0.808000  1.0  -0.5724
  O  O431  1  0.414300  0.673800  0.752000  1.0  -0.6049
  O  O432  1  0.153200  0.817000  0.860300  1.0  -0.5694
  O  O433  1  0.098300  0.806000  0.918300  1.0  -0.584
  O  O434  1  0.365500  0.312400  0.978500  1.0  -0.5807
  O  O435  1  0.427700  0.292800  0.922700  1.0  -0.5936
  O  O436  1  0.523700  0.559400  0.811700  1.0  -0.9697
  O  O437  1  0.485400  0.413700  0.855600  1.0  -0.9372
  O  O438  1  0.529300  0.431200  0.977600  1.0  -0.959
  O  O439  1  0.853700  0.153600  0.808000  1.0  -0.5724
  O  O440  1  0.914300  0.173800  0.752000  1.0  -0.6049
  O  O441  1  0.653200  0.317000  0.860300  1.0  -0.5694
  O  O442  1  0.598300  0.306000  0.918300  1.0  -0.584
  O  O443  1  0.865500  0.812400  0.978500  1.0  -0.5807
  O  O444  1  0.927700  0.792800  0.922700  1.0  -0.5936
