# generated using pymatgen
data_Co3H8C14(NO)6
_symmetry_space_group_name_H-M   'P 1'
_cell_length_a   17.76200000
_cell_length_b   12.86800000
_cell_length_c   11.23220000
_cell_angle_alpha   90.00000000
_cell_angle_beta   95.19800000
_cell_angle_gamma   90.00000000
_symmetry_Int_Tables_number   1
_chemical_formula_structural   Co3H8C14(NO)6
_chemical_formula_sum   'Co12 H32 C56 N24 O24'
_cell_volume   2556.68988966
_cell_formula_units_Z   4
loop_
 _symmetry_equiv_pos_site_id
 _symmetry_equiv_pos_as_xyz
  1  'x, y, z'
loop_
 _atom_site_type_symbol
 _atom_site_label
 _atom_site_symmetry_multiplicity
 _atom_site_fract_x
 _atom_site_fract_y
 _atom_site_fract_z
 _atom_site_occupancy
 _atom_site_charge
  Co  Co1  1  0.579360  0.558080  0.000370  1.0  1.0072
  Co  Co2  1  0.079360  0.058080  0.000370  1.0  1.0072
  Co  Co3  1  0.420640  0.558080  0.499630  1.0  1.0067
  Co  Co4  1  0.920640  0.058080  0.499630  1.0  1.0067
  Co  Co5  1  0.420640  0.441920  0.999630  1.0  1.0042
  Co  Co6  1  0.920640  0.941920  0.999630  1.0  1.0042
  Co  Co7  1  0.579360  0.441920  0.500370  1.0  1.0045
  Co  Co8  1  0.079360  0.941920  0.500370  1.0  1.0045
  Co  Co9  1  0.500000  0.594100  0.250000  1.0  0.9886
  Co  Co10  1  0.000000  0.094100  0.250000  1.0  0.9886
  Co  Co11  1  0.500000  0.405900  0.750000  1.0  0.991
  Co  Co12  1  0.000000  0.905900  0.750000  1.0  0.991
  H  H13  1  0.762000  0.892100  0.480300  1.0  0.1295
  H  H14  1  0.669400  0.778900  0.390200  1.0  0.1053
  H  H15  1  0.750000  0.811000  0.067700  1.0  0.1231
  H  H16  1  0.446900  0.618100  0.036800  1.0  0.4551
  H  H17  1  0.262000  0.392100  0.480300  1.0  0.1295
  H  H18  1  0.169400  0.278900  0.390200  1.0  0.1053
  H  H19  1  0.250000  0.311000  0.067700  1.0  0.1231
  H  H20  1  0.946900  0.118100  0.036800  1.0  0.4551
  H  H21  1  0.238000  0.892100  0.019700  1.0  0.1294
  H  H22  1  0.330600  0.778900  0.109800  1.0  0.1051
  H  H23  1  0.250000  0.811000  0.432300  1.0  0.1227
  H  H24  1  0.553100  0.618100  0.463200  1.0  0.4545
  H  H25  1  0.738000  0.392100  0.019700  1.0  0.1294
  H  H26  1  0.830600  0.278900  0.109800  1.0  0.1051
  H  H27  1  0.750000  0.311000  0.432300  1.0  0.1227
  H  H28  1  0.053100  0.118100  0.463200  1.0  0.4545
  H  H29  1  0.238000  0.107900  0.519700  1.0  0.1294
  H  H30  1  0.330600  0.221100  0.609800  1.0  0.1051
  H  H31  1  0.250000  0.189000  0.932300  1.0  0.1228
  H  H32  1  0.553100  0.381900  0.963200  1.0  0.4556
  H  H33  1  0.738000  0.607900  0.519700  1.0  0.1294
  H  H34  1  0.830600  0.721100  0.609800  1.0  0.1051
  H  H35  1  0.750000  0.689000  0.932300  1.0  0.1228
  H  H36  1  0.053100  0.881900  0.963200  1.0  0.4556
  H  H37  1  0.762000  0.107900  0.980300  1.0  0.1298
  H  H38  1  0.669400  0.221100  0.890200  1.0  0.1052
  H  H39  1  0.750000  0.189000  0.567700  1.0  0.1231
  H  H40  1  0.446900  0.381900  0.536800  1.0  0.4548
  H  H41  1  0.262000  0.607900  0.980300  1.0  0.1298
  H  H42  1  0.169400  0.721100  0.890200  1.0  0.1052
  H  H43  1  0.250000  0.689000  0.567700  1.0  0.1231
  H  H44  1  0.946900  0.881900  0.536800  1.0  0.4548
  C  C45  1  0.811300  0.888900  0.204200  1.0  0.0642
  C  C46  1  0.815300  0.910300  0.328100  1.0  0.1346
  C  C47  1  0.760900  0.874500  0.399900  1.0  -0.1127
  C  C48  1  0.703800  0.810200  0.344000  1.0  -0.0689
  C  C49  1  0.697800  0.792100  0.218300  1.0  -0.1128
  C  C50  1  0.752000  0.827200  0.148600  1.0  -0.0301
  C  C51  1  0.635400  0.722800  0.169300  1.0  0.7204
  C  C52  1  0.311300  0.388900  0.204200  1.0  0.0642
  C  C53  1  0.315300  0.410300  0.328100  1.0  0.1346
  C  C54  1  0.260900  0.374500  0.399900  1.0  -0.1127
  C  C55  1  0.203800  0.310200  0.344000  1.0  -0.0689
  C  C56  1  0.197800  0.292100  0.218300  1.0  -0.1128
  C  C57  1  0.252000  0.327200  0.148600  1.0  -0.0301
  C  C58  1  0.135400  0.222800  0.169300  1.0  0.7204
  C  C59  1  0.188700  0.888900  0.295800  1.0  0.0631
  C  C60  1  0.184700  0.910300  0.171900  1.0  0.1351
  C  C61  1  0.239100  0.874500  0.100100  1.0  -0.1119
  C  C62  1  0.296200  0.810200  0.156000  1.0  -0.0696
  C  C63  1  0.302200  0.792100  0.281700  1.0  -0.1133
  C  C64  1  0.248000  0.827200  0.351400  1.0  -0.0323
  C  C65  1  0.364600  0.722800  0.330700  1.0  0.7207
  C  C66  1  0.688700  0.388900  0.295800  1.0  0.0631
  C  C67  1  0.684700  0.410300  0.171900  1.0  0.1351
  C  C68  1  0.739100  0.374500  0.100100  1.0  -0.1119
  C  C69  1  0.796200  0.310200  0.156000  1.0  -0.0696
  C  C70  1  0.802200  0.292100  0.281700  1.0  -0.1133
  C  C71  1  0.748000  0.327200  0.351400  1.0  -0.0323
  C  C72  1  0.864600  0.222800  0.330700  1.0  0.7207
  C  C73  1  0.188700  0.111100  0.795800  1.0  0.0631
  C  C74  1  0.184700  0.089700  0.671900  1.0  0.135
  C  C75  1  0.239100  0.125500  0.600100  1.0  -0.1114
  C  C76  1  0.296200  0.189800  0.656000  1.0  -0.0694
  C  C77  1  0.302200  0.207900  0.781700  1.0  -0.114
  C  C78  1  0.248000  0.172800  0.851400  1.0  -0.0324
  C  C79  1  0.364600  0.277200  0.830700  1.0  0.7211
  C  C80  1  0.688700  0.611100  0.795800  1.0  0.0631
  C  C81  1  0.684700  0.589700  0.671900  1.0  0.135
  C  C82  1  0.739100  0.625500  0.600100  1.0  -0.1114
  C  C83  1  0.796200  0.689800  0.656000  1.0  -0.0694
  C  C84  1  0.802200  0.707900  0.781700  1.0  -0.114
  C  C85  1  0.748000  0.672800  0.851400  1.0  -0.0324
  C  C86  1  0.864600  0.777200  0.830700  1.0  0.7211
  C  C87  1  0.811300  0.111100  0.704200  1.0  0.0643
  C  C88  1  0.815300  0.089700  0.828100  1.0  0.1343
  C  C89  1  0.760900  0.125500  0.899900  1.0  -0.1124
  C  C90  1  0.703800  0.189800  0.844000  1.0  -0.0685
  C  C91  1  0.697800  0.207900  0.718300  1.0  -0.1132
  C  C92  1  0.752000  0.172800  0.648600  1.0  -0.0304
  C  C93  1  0.635400  0.277200  0.669300  1.0  0.7209
  C  C94  1  0.311300  0.611100  0.704200  1.0  0.0643
  C  C95  1  0.315300  0.589700  0.828100  1.0  0.1343
  C  C96  1  0.260900  0.625500  0.899900  1.0  -0.1124
  C  C97  1  0.203800  0.689800  0.844000  1.0  -0.0685
  C  C98  1  0.197800  0.707900  0.718300  1.0  -0.1132
  C  C99  1  0.252000  0.672800  0.648600  1.0  -0.0304
  C  C100  1  0.135400  0.777200  0.669300  1.0  0.7209
  N  N101  1  0.873300  0.935200  0.162200  1.0  -0.3056
  N  N102  1  0.909500  0.983600  0.253600  1.0  -0.1117
  N  N103  1  0.876300  0.972200  0.355600  1.0  -0.309
  N  N104  1  0.373300  0.435200  0.162200  1.0  -0.3056
  N  N105  1  0.409500  0.483600  0.253600  1.0  -0.1117
  N  N106  1  0.376300  0.472200  0.355600  1.0  -0.309
  N  N107  1  0.126700  0.935200  0.337800  1.0  -0.3059
  N  N108  1  0.090500  0.983600  0.246400  1.0  -0.1112
  N  N109  1  0.123700  0.972200  0.144400  1.0  -0.3102
  N  N110  1  0.626700  0.435200  0.337800  1.0  -0.3059
  N  N111  1  0.590500  0.483600  0.246400  1.0  -0.1112
  N  N112  1  0.623700  0.472200  0.144400  1.0  -0.3102
  N  N113  1  0.126700  0.064800  0.837800  1.0  -0.3054
  N  N114  1  0.090500  0.016400  0.746400  1.0  -0.1109
  N  N115  1  0.123700  0.027800  0.644400  1.0  -0.3083
  N  N116  1  0.626700  0.564800  0.837800  1.0  -0.3054
  N  N117  1  0.590500  0.516400  0.746400  1.0  -0.1109
  N  N118  1  0.623700  0.527800  0.644400  1.0  -0.3083
  N  N119  1  0.873300  0.064800  0.662200  1.0  -0.3042
  N  N120  1  0.909500  0.016400  0.753600  1.0  -0.1116
  N  N121  1  0.876300  0.027800  0.855600  1.0  -0.3072
  N  N122  1  0.373300  0.564800  0.662200  1.0  -0.3042
  N  N123  1  0.409500  0.516400  0.753600  1.0  -0.1116
  N  N124  1  0.376300  0.527800  0.855600  1.0  -0.3072
  O  O125  1  0.637500  0.686600  0.064700  1.0  -0.5984
  O  O126  1  0.582300  0.709700  0.235300  1.0  -0.603
  O  O127  1  0.481100  0.577300  0.068300  1.0  -0.9803
  O  O128  1  0.137500  0.186600  0.064700  1.0  -0.5984
  O  O129  1  0.082300  0.209700  0.235300  1.0  -0.603
  O  O130  1  0.981100  0.077300  0.068300  1.0  -0.9803
  O  O131  1  0.362500  0.686600  0.435300  1.0  -0.5973
  O  O132  1  0.417700  0.709700  0.264700  1.0  -0.6023
  O  O133  1  0.518900  0.577300  0.431700  1.0  -0.9804
  O  O134  1  0.862500  0.186600  0.435300  1.0  -0.5973
  O  O135  1  0.917700  0.209700  0.264700  1.0  -0.6023
  O  O136  1  0.018900  0.077300  0.431700  1.0  -0.9804
  O  O137  1  0.362500  0.313400  0.935300  1.0  -0.598
  O  O138  1  0.417700  0.290300  0.764700  1.0  -0.6007
  O  O139  1  0.518900  0.422700  0.931700  1.0  -0.9808
  O  O140  1  0.862500  0.813400  0.935300  1.0  -0.598
  O  O141  1  0.917700  0.790300  0.764700  1.0  -0.6007
  O  O142  1  0.018900  0.922700  0.931700  1.0  -0.9808
  O  O143  1  0.637500  0.313400  0.564700  1.0  -0.599
  O  O144  1  0.582300  0.290300  0.735300  1.0  -0.6034
  O  O145  1  0.481100  0.422700  0.568300  1.0  -0.9816
  O  O146  1  0.137500  0.813400  0.564700  1.0  -0.599
  O  O147  1  0.082300  0.790300  0.735300  1.0  -0.6034
  O  O148  1  0.981100  0.922700  0.568300  1.0  -0.9816
