# generated using pymatgen
data_Co3H8C14(NO)6
_symmetry_space_group_name_H-M   'P 1'
_cell_length_a   10.64890000
_cell_length_b   10.88570000
_cell_length_c   11.07820000
_cell_angle_alpha   84.00500000
_cell_angle_beta   89.82600000
_cell_angle_gamma   63.60500000
_symmetry_Int_Tables_number   1
_chemical_formula_structural   Co3H8C14(NO)6
_chemical_formula_sum   'Co6 H16 C28 N12 O12'
_cell_volume   1142.66756424
_cell_formula_units_Z   2
loop_
 _symmetry_equiv_pos_site_id
 _symmetry_equiv_pos_as_xyz
  1  'x, y, z'
loop_
 _atom_site_type_symbol
 _atom_site_label
 _atom_site_symmetry_multiplicity
 _atom_site_fract_x
 _atom_site_fract_y
 _atom_site_fract_z
 _atom_site_occupancy
 _atom_site_charge
  Co  Co1  1  0.097200  0.887900  0.254450  1.0  0.9794
  Co  Co2  1  0.961400  0.872200  0.000240  1.0  0.964
  Co  Co3  1  0.843800  0.027200  0.477580  1.0  0.9737
  Co  Co4  1  0.902800  0.112100  0.745550  1.0  0.9771
  Co  Co5  1  0.038600  0.127800  0.999760  1.0  0.9641
  Co  Co6  1  0.156200  0.972800  0.522420  1.0  0.9693
  H  H7  1  0.207100  0.872000  0.076200  1.0  0.3563
  H  H8  1  0.071600  0.808800  0.476300  1.0  0.3849
  H  H9  1  0.452100  0.829000  0.126000  1.0  0.1059
  H  H10  1  0.630400  0.852900  0.023100  1.0  0.1271
  H  H11  1  0.577800  0.914500  0.436500  1.0  0.1252
  H  H12  1  0.128800  0.313200  0.499000  1.0  0.1264
  H  H13  1  0.113300  0.521400  0.408100  1.0  0.1114
  H  H14  1  0.073000  0.425600  0.074200  1.0  0.1312
  H  H15  1  0.792900  0.128000  0.923800  1.0  0.3555
  H  H16  1  0.928400  0.191200  0.523700  1.0  0.3822
  H  H17  1  0.547900  0.171000  0.874000  1.0  0.1061
  H  H18  1  0.369600  0.147100  0.976900  1.0  0.1265
  H  H19  1  0.422200  0.085500  0.563500  1.0  0.1247
  H  H20  1  0.871200  0.686800  0.501000  1.0  0.1256
  H  H21  1  0.886700  0.478600  0.591900  1.0  0.1116
  H  H22  1  0.927000  0.574400  0.925800  1.0  0.1312
  C  C23  1  0.689400  0.923700  0.290600  1.0  0.1417
  C  C24  1  0.706900  0.904500  0.166700  1.0  0.1518
  C  C25  1  0.513000  0.852300  0.166900  1.0  -0.0109
  C  C26  1  0.619000  0.867300  0.104500  1.0  -0.0858
  C  C27  1  0.496000  0.871300  0.290800  1.0  -0.142
  C  C28  1  0.586300  0.904900  0.354100  1.0  -0.0645
  C  C29  1  0.382000  0.851400  0.352800  1.0  0.7224
  C  C30  1  0.092100  0.278800  0.212400  1.0  0.1119
  C  C31  1  0.108300  0.246300  0.338700  1.0  0.2059
  C  C32  1  0.117300  0.335400  0.415100  1.0  -0.1468
  C  C33  1  0.108500  0.458500  0.359900  1.0  -0.0325
  C  C34  1  0.092500  0.491500  0.235000  1.0  -0.1443
  C  C35  1  0.083800  0.402900  0.158100  1.0  -0.054
  C  C36  1  0.084000  0.628900  0.182600  1.0  0.7141
  C  C37  1  0.310600  0.076300  0.709400  1.0  0.1412
  C  C38  1  0.293100  0.095500  0.833300  1.0  0.1509
  C  C39  1  0.487000  0.147700  0.833100  1.0  -0.0121
  C  C40  1  0.381000  0.132700  0.895500  1.0  -0.0862
  C  C41  1  0.504000  0.128700  0.709200  1.0  -0.142
  C  C42  1  0.413700  0.095100  0.645900  1.0  -0.0642
  C  C43  1  0.618000  0.148600  0.647200  1.0  0.7229
  C  C44  1  0.907900  0.721200  0.787600  1.0  0.1098
  C  C45  1  0.891700  0.753700  0.661300  1.0  0.2057
  C  C46  1  0.882700  0.664600  0.584900  1.0  -0.147
  C  C47  1  0.891500  0.541500  0.640100  1.0  -0.031
  C  C48  1  0.907500  0.508500  0.765000  1.0  -0.1447
  C  C49  1  0.916200  0.597100  0.841900  1.0  -0.0551
  C  C50  1  0.916000  0.371100  0.817400  1.0  0.7144
  N  N51  1  0.818600  0.927200  0.132600  1.0  -0.3146
  N  N52  1  0.866300  0.959600  0.230000  1.0  -0.1021
  N  N53  1  0.791200  0.957800  0.325800  1.0  -0.2237
  N  N54  1  0.087000  0.169000  0.165700  1.0  -0.3897
  N  N55  1  0.100100  0.078300  0.260800  1.0  -0.1356
  N  N56  1  0.113100  0.119300  0.366500  1.0  -0.2897
  N  N57  1  0.181400  0.072800  0.867400  1.0  -0.3138
  N  N58  1  0.133700  0.040400  0.770000  1.0  -0.1008
  N  N59  1  0.208800  0.042200  0.674200  1.0  -0.225
  N  N60  1  0.913000  0.831000  0.834300  1.0  -0.3917
  N  N61  1  0.899900  0.921700  0.739200  1.0  -0.1339
  N  N62  1  0.886900  0.880700  0.633500  1.0  -0.2895
  O  O63  1  0.105900  0.917400  0.069500  1.0  -0.9766
  O  O64  1  0.051100  0.895500  0.429300  1.0  -0.9624
  O  O65  1  0.355000  0.887600  0.458600  1.0  -0.5911
  O  O66  1  0.320000  0.800000  0.295300  1.0  -0.6093
  O  O67  1  0.038900  0.671500  0.072500  1.0  -0.568
  O  O68  1  0.112000  0.693100  0.257400  1.0  -0.5823
  O  O69  1  0.894100  0.082600  0.930500  1.0  -0.9769
  O  O70  1  0.948900  0.104500  0.570700  1.0  -0.9623
  O  O71  1  0.645000  0.112400  0.541400  1.0  -0.5914
  O  O72  1  0.680000  0.200000  0.704700  1.0  -0.6084
  O  O73  1  0.961100  0.328500  0.927500  1.0  -0.5679
  O  O74  1  0.888000  0.306900  0.742600  1.0  -0.5821
