# generated using pymatgen
data_Co3H8C14(NO)6
_symmetry_space_group_name_H-M   'P 1'
_cell_length_a   10.25410000
_cell_length_b   10.86570000
_cell_length_c   10.98600000
_cell_angle_alpha   83.30900000
_cell_angle_beta   91.74000000
_cell_angle_gamma   61.65700000
_symmetry_Int_Tables_number   1
_chemical_formula_structural   Co3H8C14(NO)6
_chemical_formula_sum   'Co6 H16 C28 N12 O12'
_cell_volume   1064.81210736
_cell_formula_units_Z   2
loop_
 _symmetry_equiv_pos_site_id
 _symmetry_equiv_pos_as_xyz
  1  'x, y, z'
loop_
 _atom_site_type_symbol
 _atom_site_label
 _atom_site_symmetry_multiplicity
 _atom_site_fract_x
 _atom_site_fract_y
 _atom_site_fract_z
 _atom_site_occupancy
 _atom_site_charge
  Co  Co1  1  0.098200  0.883100  0.256790  1.0  0.9607
  Co  Co2  1  0.953500  0.876700  0.997920  1.0  0.9338
  Co  Co3  1  0.834000  0.042600  0.467980  1.0  0.9721
  Co  Co4  1  0.901800  0.116900  0.743210  1.0  0.9622
  Co  Co5  1  0.046500  0.123300  0.002080  1.0  0.9361
  Co  Co6  1  0.166000  0.957400  0.532020  1.0  0.9698
  H  H7  1  0.613400  0.852600  0.021000  1.0  0.1309
  H  H8  1  0.439700  0.820300  0.132500  1.0  0.1144
  H  H9  1  0.572700  0.927700  0.433800  1.0  0.1291
  H  H10  1  0.126900  0.302500  0.509300  1.0  0.1262
  H  H11  1  0.104700  0.517000  0.418600  1.0  0.1099
  H  H12  1  0.080800  0.420900  0.077400  1.0  0.1256
  H  H13  1  0.214400  0.870200  0.058800  1.0  0.4381
  H  H14  1  0.119800  0.796300  0.475000  1.0  0.3067
  H  H15  1  0.386600  0.147400  0.979000  1.0  0.1298
  H  H16  1  0.560300  0.179700  0.867500  1.0  0.1143
  H  H17  1  0.427300  0.072300  0.566200  1.0  0.1304
  H  H18  1  0.873100  0.697500  0.490700  1.0  0.1267
  H  H19  1  0.895300  0.483000  0.581400  1.0  0.1068
  H  H20  1  0.919200  0.579100  0.922600  1.0  0.1264
  H  H21  1  0.785600  0.129800  0.941200  1.0  0.4366
  H  H22  1  0.880200  0.203700  0.525000  1.0  0.3075
  C  C23  1  0.679000  0.938700  0.283500  1.0  0.2033
  C  C24  1  0.689000  0.917100  0.160200  1.0  0.1768
  C  C25  1  0.603000  0.869400  0.102200  1.0  -0.0907
  C  C26  1  0.503000  0.847800  0.169100  1.0  -0.0455
  C  C27  1  0.496000  0.867600  0.293500  1.0  -0.1208
  C  C28  1  0.581000  0.913700  0.351800  1.0  -0.1129
  C  C29  1  0.395000  0.833000  0.364500  1.0  0.7013
  C  C30  1  0.102900  0.269600  0.216800  1.0  0.1451
  C  C31  1  0.117000  0.234800  0.344300  1.0  0.2305
  C  C32  1  0.118000  0.326000  0.424200  1.0  -0.1171
  C  C33  1  0.104000  0.453200  0.369000  1.0  -0.0473
  C  C34  1  0.091000  0.488700  0.240900  1.0  -0.1523
  C  C35  1  0.089800  0.397400  0.162500  1.0  -0.066
  C  C36  1  0.077000  0.627600  0.189900  1.0  0.6647
  C  C37  1  0.321000  0.061300  0.716500  1.0  0.2049
  C  C38  1  0.311000  0.082900  0.839800  1.0  0.1772
  C  C39  1  0.397000  0.130600  0.897800  1.0  -0.0923
  C  C40  1  0.497000  0.152200  0.830900  1.0  -0.0474
  C  C41  1  0.504000  0.132400  0.706500  1.0  -0.1214
  C  C42  1  0.419000  0.086300  0.648200  1.0  -0.1107
  C  C43  1  0.605000  0.167000  0.635500  1.0  0.7104
  C  C44  1  0.897100  0.730400  0.783200  1.0  0.1437
  C  C45  1  0.883000  0.765200  0.655700  1.0  0.23
  C  C46  1  0.882000  0.674000  0.575800  1.0  -0.1174
  C  C47  1  0.896000  0.546800  0.631000  1.0  -0.0489
  C  C48  1  0.909000  0.511300  0.759100  1.0  -0.1523
  C  C49  1  0.910200  0.602600  0.837500  1.0  -0.0685
  C  C50  1  0.923000  0.372400  0.810100  1.0  0.6651
  N  N51  1  0.780000  0.978400  0.315800  1.0  -0.2344
  N  N52  1  0.848000  0.984700  0.215700  1.0  -0.1065
  N  N53  1  0.796000  0.946800  0.121900  1.0  -0.2128
  N  N54  1  0.105700  0.159400  0.168200  1.0  -0.3846
  N  N55  1  0.120400  0.065300  0.264200  1.0  -0.1702
  N  N56  1  0.127700  0.105300  0.373300  1.0  -0.3101
  N  N57  1  0.220000  0.021600  0.684200  1.0  -0.2345
  N  N58  1  0.152000  0.015300  0.784300  1.0  -0.1068
  N  N59  1  0.204000  0.053200  0.878100  1.0  -0.2118
  N  N60  1  0.894300  0.840600  0.831800  1.0  -0.3862
  N  N61  1  0.879600  0.934700  0.735800  1.0  -0.1699
  N  N62  1  0.872300  0.894700  0.626700  1.0  -0.3103
  O  O63  1  0.111200  0.908000  0.074800  1.0  -0.973
  O  O64  1  0.054000  0.890800  0.430800  1.0  -0.9367
  O  O65  1  0.374000  0.862600  0.475500  1.0  -0.6077
  O  O66  1  0.326000  0.775000  0.314400  1.0  -0.6117
  O  O67  1  0.037000  0.669600  0.073800  1.0  -0.594
  O  O68  1  0.086000  0.698800  0.265400  1.0  -0.5734
  O  O69  1  0.888800  0.092000  0.925200  1.0  -0.9719
  O  O70  1  0.946000  0.109200  0.569200  1.0  -0.936
  O  O71  1  0.626000  0.137400  0.524500  1.0  -0.6089
  O  O72  1  0.674000  0.225000  0.685600  1.0  -0.6141
  O  O73  1  0.963000  0.330400  0.926200  1.0  -0.596
  O  O74  1  0.914000  0.301200  0.734600  1.0  -0.5738
