# generated using pymatgen
data_Co3H8C14(NO)6
_symmetry_space_group_name_H-M   'P 1'
_cell_length_a   10.85200000
_cell_length_b   10.91260000
_cell_length_c   11.14780000
_cell_angle_alpha   84.49900000
_cell_angle_beta   88.21100000
_cell_angle_gamma   66.36000000
_symmetry_Int_Tables_number   1
_chemical_formula_structural   Co3H8C14(NO)6
_chemical_formula_sum   'Co6 H16 C28 N12 O12'
_cell_volume   1203.77036727
_cell_formula_units_Z   2
loop_
 _symmetry_equiv_pos_site_id
 _symmetry_equiv_pos_as_xyz
  1  'x, y, z'
loop_
 _atom_site_type_symbol
 _atom_site_label
 _atom_site_symmetry_multiplicity
 _atom_site_fract_x
 _atom_site_fract_y
 _atom_site_fract_z
 _atom_site_occupancy
 _atom_site_charge
  Co  Co1  1  0.095100  0.893300  0.252200  1.0  0.9743
  Co  Co2  1  0.967700  0.867700  0.001200  1.0  0.9771
  Co  Co3  1  0.849800  0.014100  0.484900  1.0  0.9447
  Co  Co4  1  0.904900  0.106700  0.747800  1.0  0.9742
  Co  Co5  1  0.032300  0.132300  0.998800  1.0  0.9751
  Co  Co6  1  0.150200  0.985900  0.515100  1.0  0.9387
  H  H7  1  0.635400  0.862900  0.022500  1.0  0.125
  H  H8  1  0.454100  0.839700  0.122900  1.0  0.117
  H  H9  1  0.570800  0.921700  0.435600  1.0  0.1303
  H  H10  1  0.130700  0.322000  0.490500  1.0  0.1352
  H  H11  1  0.119100  0.528000  0.399700  1.0  0.1153
  H  H12  1  0.065600  0.429900  0.072700  1.0  0.1309
  H  H13  1  0.193000  0.873200  0.072800  1.0  0.2754
  H  H14  1  0.055800  0.822200  0.480200  1.0  0.3796
  H  H15  1  0.364600  0.137100  0.977500  1.0  0.1253
  H  H16  1  0.545900  0.160300  0.877100  1.0  0.1173
  H  H17  1  0.429200  0.078300  0.564400  1.0  0.1303
  H  H18  1  0.869300  0.678000  0.509500  1.0  0.1359
  H  H19  1  0.880900  0.472000  0.600300  1.0  0.1153
  H  H20  1  0.934400  0.570100  0.927300  1.0  0.1311
  H  H21  1  0.807000  0.126800  0.927200  1.0  0.2744
  H  H22  1  0.944200  0.177800  0.519800  1.0  0.38
  C  C23  1  0.695000  0.916500  0.293600  1.0  0.1625
  C  C24  1  0.715000  0.898300  0.170800  1.0  0.1309
  C  C25  1  0.624000  0.872000  0.104600  1.0  -0.073
  C  C26  1  0.515000  0.860000  0.164600  1.0  -0.0213
  C  C27  1  0.497000  0.878000  0.286300  1.0  -0.1435
  C  C28  1  0.585000  0.908200  0.354300  1.0  -0.1204
  C  C29  1  0.381000  0.867000  0.343600  1.0  0.7018
  C  C30  1  0.085000  0.284400  0.209300  1.0  0.1097
  C  C31  1  0.104500  0.254500  0.333000  1.0  0.2081
  C  C32  1  0.118000  0.343300  0.407800  1.0  -0.1187
  C  C33  1  0.111000  0.465800  0.352600  1.0  -0.0141
  C  C34  1  0.092000  0.497400  0.229700  1.0  -0.132
  C  C35  1  0.078000  0.408100  0.155300  1.0  -0.0285
  C  C36  1  0.085000  0.631300  0.176400  1.0  0.7179
  C  C37  1  0.305000  0.083500  0.706400  1.0  0.1637
  C  C38  1  0.285000  0.101700  0.829200  1.0  0.1301
  C  C39  1  0.376000  0.128000  0.895400  1.0  -0.0752
  C  C40  1  0.485000  0.140000  0.835400  1.0  -0.0225
  C  C41  1  0.503000  0.122000  0.713700  1.0  -0.1439
  C  C42  1  0.415000  0.091800  0.645700  1.0  -0.1186
  C  C43  1  0.619000  0.133000  0.656400  1.0  0.702
  C  C44  1  0.915000  0.715600  0.790700  1.0  0.1082
  C  C45  1  0.895500  0.745500  0.667000  1.0  0.2083
  C  C46  1  0.882000  0.656700  0.592200  1.0  -0.1185
  C  C47  1  0.889000  0.534200  0.647400  1.0  -0.0119
  C  C48  1  0.908000  0.502600  0.770300  1.0  -0.1319
  C  C49  1  0.922000  0.591900  0.844700  1.0  -0.0297
  C  C50  1  0.915000  0.368700  0.823600  1.0  0.7185
  N  N51  1  0.799000  0.943200  0.331900  1.0  -0.2266
  N  N52  1  0.879000  0.941400  0.238200  1.0  -0.1097
  N  N53  1  0.831000  0.914400  0.139800  1.0  -0.3086
  N  N54  1  0.076100  0.176600  0.163500  1.0  -0.3699
  N  N55  1  0.089800  0.087100  0.258100  1.0  -0.1184
  N  N56  1  0.107000  0.128900  0.361800  1.0  -0.2736
  N  N57  1  0.201000  0.056800  0.668100  1.0  -0.2235
  N  N58  1  0.121000  0.058600  0.761800  1.0  -0.1072
  N  N59  1  0.169000  0.085600  0.860200  1.0  -0.3079
  N  N60  1  0.923900  0.823400  0.836500  1.0  -0.3724
  N  N61  1  0.910200  0.912900  0.741900  1.0  -0.1178
  N  N62  1  0.893000  0.871100  0.638200  1.0  -0.2734
  O  O63  1  0.096900  0.927100  0.067100  1.0  -0.916
  O  O64  1  0.057000  0.896000  0.428800  1.0  -0.9666
  O  O65  1  0.350000  0.904500  0.450400  1.0  -0.5771
  O  O66  1  0.305000  0.823000  0.284500  1.0  -0.6167
  O  O67  1  0.043000  0.672800  0.068300  1.0  -0.5787
  O  O68  1  0.114000  0.698500  0.248400  1.0  -0.6239
  O  O69  1  0.903100  0.072900  0.932900  1.0  -0.9147
  O  O70  1  0.943000  0.104000  0.571200  1.0  -0.9646
  O  O71  1  0.650000  0.095500  0.549600  1.0  -0.5782
  O  O72  1  0.695000  0.177000  0.715500  1.0  -0.6112
  O  O73  1  0.957000  0.327200  0.931700  1.0  -0.5791
  O  O74  1  0.886000  0.301500  0.751600  1.0  -0.6244
