# generated using pymatgen
data_Zn9H42C48(N6O13)2
_symmetry_space_group_name_H-M   'P 1'
_cell_length_a   14.34700000
_cell_length_b   14.34700000
_cell_length_c   20.40800000
_cell_angle_alpha   90.00000000
_cell_angle_beta   90.00000000
_cell_angle_gamma   120.00000000
_symmetry_Int_Tables_number   1
_chemical_formula_structural   Zn9H42C48(N6O13)2
_chemical_formula_sum   'Zn18 H84 C96 N24 O52'
_cell_volume   3637.92108452
_cell_formula_units_Z   2
loop_
 _symmetry_equiv_pos_site_id
 _symmetry_equiv_pos_as_xyz
  1  'x, y, z'
loop_
 _atom_site_type_symbol
 _atom_site_label
 _atom_site_symmetry_multiplicity
 _atom_site_fract_x
 _atom_site_fract_y
 _atom_site_fract_z
 _atom_site_occupancy
 _atom_site_charge
  Zn  Zn1  1  0.773670  0.279180  0.994200  1.0  0.9203
  Zn  Zn2  1  0.505510  0.226330  0.994200  1.0  0.9209
  Zn  Zn3  1  0.720820  0.494490  0.994200  1.0  0.9231
  Zn  Zn4  1  0.494490  0.720820  0.505800  1.0  0.9199
  Zn  Zn5  1  0.279180  0.773670  0.505800  1.0  0.9207
  Zn  Zn6  1  0.226330  0.505510  0.505800  1.0  0.9243
  Zn  Zn7  1  0.226330  0.720820  0.005800  1.0  0.9208
  Zn  Zn8  1  0.494490  0.773670  0.005800  1.0  0.9205
  Zn  Zn9  1  0.279180  0.505510  0.005800  1.0  0.9239
  Zn  Zn10  1  0.505510  0.279180  0.494200  1.0  0.921
  Zn  Zn11  1  0.720820  0.226330  0.494200  1.0  0.9212
  Zn  Zn12  1  0.773670  0.494490  0.494200  1.0  0.9227
  Zn  Zn13  1  0.637500  0.000000  0.750000  1.0  1.018
  Zn  Zn14  1  0.362500  0.362500  0.750000  1.0  1.0141
  Zn  Zn15  1  0.000000  0.637500  0.750000  1.0  1.0106
  Zn  Zn16  1  0.362500  0.000000  0.250000  1.0  1.0171
  Zn  Zn17  1  0.637500  0.637500  0.250000  1.0  1.0109
  Zn  Zn18  1  0.000000  0.362500  0.250000  1.0  1.0146
  H  H19  1  0.600500  0.982800  0.122100  1.0  0.1594
  H  H20  1  0.693100  0.102600  0.115100  1.0  0.1545
  H  H21  1  0.762200  0.998400  0.162300  1.0  0.1363
  H  H22  1  0.723300  0.921200  0.101600  1.0  0.1288
  H  H23  1  0.852300  0.069500  0.035900  1.0  0.1351
  H  H24  1  0.906600  0.033600  0.089200  1.0  0.1366
  H  H25  1  0.896700  0.136400  0.100600  1.0  0.1401
  H  H26  1  0.382300  0.399500  0.122100  1.0  0.1592
  H  H27  1  0.409500  0.306900  0.115100  1.0  0.1499
  H  H28  1  0.236200  0.237800  0.162300  1.0  0.1362
  H  H29  1  0.197900  0.276700  0.101600  1.0  0.1251
  H  H30  1  0.217200  0.147700  0.035900  1.0  0.1345
  H  H31  1  0.127000  0.093400  0.089200  1.0  0.1387
  H  H32  1  0.239700  0.103300  0.100600  1.0  0.1381
  H  H33  1  0.017200  0.617700  0.122100  1.0  0.1599
  H  H34  1  0.897400  0.590500  0.115100  1.0  0.1543
  H  H35  1  0.001600  0.763800  0.162300  1.0  0.1357
  H  H36  1  0.078800  0.802100  0.101600  1.0  0.1298
  H  H37  1  0.930500  0.782800  0.035900  1.0  0.1352
  H  H38  1  0.966400  0.873000  0.089200  1.0  0.1399
  H  H39  1  0.863600  0.760300  0.100600  1.0  0.1383
  H  H40  1  0.617700  0.017200  0.377900  1.0  0.1587
  H  H41  1  0.590500  0.897400  0.384900  1.0  0.1537
  H  H42  1  0.763800  0.001600  0.337700  1.0  0.1366
  H  H43  1  0.802100  0.078800  0.398400  1.0  0.1294
  H  H44  1  0.782800  0.930500  0.464100  1.0  0.1342
  H  H45  1  0.873000  0.966400  0.410800  1.0  0.1373
  H  H46  1  0.760300  0.863600  0.399400  1.0  0.1395
  H  H47  1  0.982800  0.600500  0.377900  1.0  0.1583
  H  H48  1  0.102600  0.693100  0.384900  1.0  0.1502
  H  H49  1  0.998400  0.762200  0.337700  1.0  0.1365
  H  H50  1  0.921200  0.723300  0.398400  1.0  0.1246
  H  H51  1  0.069500  0.852300  0.464100  1.0  0.1335
  H  H52  1  0.033600  0.906600  0.410800  1.0  0.1371
  H  H53  1  0.136400  0.896700  0.399400  1.0  0.1401
  H  H54  1  0.399500  0.382300  0.377900  1.0  0.1601
  H  H55  1  0.306900  0.409500  0.384900  1.0  0.153
  H  H56  1  0.237800  0.236200  0.337700  1.0  0.1357
  H  H57  1  0.276700  0.197900  0.398400  1.0  0.1291
  H  H58  1  0.147700  0.217200  0.464100  1.0  0.1343
  H  H59  1  0.093400  0.127000  0.410800  1.0  0.1389
  H  H60  1  0.103300  0.239700  0.399400  1.0  0.1375
  H  H61  1  0.399500  0.017200  0.877900  1.0  0.1582
  H  H62  1  0.306900  0.897400  0.884900  1.0  0.1533
  H  H63  1  0.237800  0.001600  0.837700  1.0  0.1364
  H  H64  1  0.276700  0.078800  0.898400  1.0  0.1293
  H  H65  1  0.147700  0.930500  0.964100  1.0  0.1341
  H  H66  1  0.093400  0.966400  0.910800  1.0  0.1351
  H  H67  1  0.103300  0.863600  0.899400  1.0  0.139
  H  H68  1  0.617700  0.600500  0.877900  1.0  0.1586
  H  H69  1  0.590500  0.693100  0.884900  1.0  0.1498
  H  H70  1  0.763800  0.762200  0.837700  1.0  0.1365
  H  H71  1  0.802100  0.723300  0.898400  1.0  0.1229
  H  H72  1  0.782800  0.852300  0.964100  1.0  0.1335
  H  H73  1  0.873000  0.906600  0.910800  1.0  0.139
  H  H74  1  0.760300  0.896700  0.899400  1.0  0.1387
  H  H75  1  0.982800  0.382300  0.877900  1.0  0.1597
  H  H76  1  0.102600  0.409500  0.884900  1.0  0.1535
  H  H77  1  0.998400  0.236200  0.837700  1.0  0.1357
  H  H78  1  0.921200  0.197900  0.898400  1.0  0.1297
  H  H79  1  0.069500  0.217200  0.964100  1.0  0.1342
  H  H80  1  0.033600  0.127000  0.910800  1.0  0.1383
  H  H81  1  0.136400  0.239700  0.899400  1.0  0.1367
  H  H82  1  0.382300  0.982800  0.622100  1.0  0.1595
  H  H83  1  0.409500  0.102600  0.615100  1.0  0.1547
  H  H84  1  0.236200  0.998400  0.662300  1.0  0.1364
  H  H85  1  0.197900  0.921200  0.601600  1.0  0.1285
  H  H86  1  0.217200  0.069500  0.535900  1.0  0.1351
  H  H87  1  0.127000  0.033600  0.589200  1.0  0.1364
  H  H88  1  0.239700  0.136400  0.600600  1.0  0.1402
  H  H89  1  0.017200  0.399500  0.622100  1.0  0.1594
  H  H90  1  0.897400  0.306900  0.615100  1.0  0.1526
  H  H91  1  0.001600  0.237800  0.662300  1.0  0.1361
  H  H92  1  0.078800  0.276700  0.601600  1.0  0.1216
  H  H93  1  0.930500  0.147700  0.535900  1.0  0.1351
  H  H94  1  0.966400  0.093400  0.589200  1.0  0.1379
  H  H95  1  0.863600  0.103300  0.600600  1.0  0.1384
  H  H96  1  0.600500  0.617700  0.622100  1.0  0.161
  H  H97  1  0.693100  0.590500  0.615100  1.0  0.1546
  H  H98  1  0.762200  0.763800  0.662300  1.0  0.1359
  H  H99  1  0.723300  0.802100  0.601600  1.0  0.1307
  H  H100  1  0.852300  0.782800  0.535900  1.0  0.1351
  H  H101  1  0.906600  0.873000  0.589200  1.0  0.14
  H  H102  1  0.896700  0.760300  0.600600  1.0  0.1347
  C  C103  1  0.521500  0.882500  0.876900  1.0  0.6932
  C  C104  1  0.697400  0.160600  0.869400  1.0  0.6804
  C  C105  1  0.643900  0.026400  0.027100  1.0  0.2788
  C  C106  1  0.588000  0.966300  0.926800  1.0  0.0024
  C  C107  1  0.657800  0.079700  0.923300  1.0  -0.023
  C  C108  1  0.666900  0.030000  0.099200  1.0  -0.2502
  C  C109  1  0.752000  0.995000  0.115200  1.0  -0.0695
  C  C110  1  0.862300  0.065300  0.082100  1.0  -0.2678
  C  C111  1  0.361000  0.478500  0.876900  1.0  0.6918
  C  C112  1  0.463200  0.302600  0.869400  1.0  0.6788
  C  C113  1  0.382500  0.356100  0.027100  1.0  0.2781
  C  C114  1  0.378300  0.412000  0.926800  1.0  0.0021
  C  C115  1  0.421900  0.342200  0.923300  1.0  -0.0251
  C  C116  1  0.363100  0.333100  0.099200  1.0  -0.2539
  C  C117  1  0.243000  0.248000  0.115200  1.0  -0.066
  C  C118  1  0.203000  0.137700  0.082100  1.0  -0.2696
  C  C119  1  0.117500  0.639000  0.876900  1.0  0.6899
  C  C120  1  0.839400  0.536800  0.869400  1.0  0.6798
  C  C121  1  0.973600  0.617500  0.027100  1.0  0.2784
  C  C122  1  0.033700  0.621700  0.926800  1.0  0.0024
  C  C123  1  0.920300  0.578100  0.923300  1.0  -0.0238
  C  C124  1  0.970000  0.636900  0.099200  1.0  -0.2526
  C  C125  1  0.005000  0.757000  0.115200  1.0  -0.0678
  C  C126  1  0.934700  0.797000  0.082100  1.0  -0.2665
  C  C127  1  0.639000  0.117500  0.623100  1.0  0.6909
  C  C128  1  0.536800  0.839400  0.630600  1.0  0.6814
  C  C129  1  0.617500  0.973600  0.472900  1.0  0.2789
  C  C130  1  0.621700  0.033700  0.573200  1.0  0.0014
  C  C131  1  0.578100  0.920300  0.576700  1.0  -0.0231
  C  C132  1  0.636900  0.970000  0.400800  1.0  -0.2508
  C  C133  1  0.757000  0.005000  0.384800  1.0  -0.0675
  C  C134  1  0.797000  0.934700  0.417900  1.0  -0.2681
  C  C135  1  0.882500  0.521500  0.623100  1.0  0.6906
  C  C136  1  0.160600  0.697400  0.630600  1.0  0.6818
  C  C137  1  0.026400  0.643900  0.472900  1.0  0.2783
  C  C138  1  0.966300  0.588000  0.573200  1.0  0.0012
  C  C139  1  0.079700  0.657800  0.576700  1.0  -0.0253
  C  C140  1  0.030000  0.666900  0.400800  1.0  -0.2548
  C  C141  1  0.995000  0.752000  0.384800  1.0  -0.0652
  C  C142  1  0.065300  0.862300  0.417900  1.0  -0.2683
  C  C143  1  0.478500  0.361000  0.623100  1.0  0.692
  C  C144  1  0.302600  0.463200  0.630600  1.0  0.6795
  C  C145  1  0.356100  0.382500  0.472900  1.0  0.2782
  C  C146  1  0.412000  0.378300  0.573200  1.0  0.0017
  C  C147  1  0.342200  0.421900  0.576700  1.0  -0.0241
  C  C148  1  0.333100  0.363100  0.400800  1.0  -0.2526
  C  C149  1  0.248000  0.243000  0.384800  1.0  -0.068
  C  C150  1  0.137700  0.203000  0.417900  1.0  -0.2661
  C  C151  1  0.478500  0.117500  0.123100  1.0  0.6911
  C  C152  1  0.302600  0.839400  0.130600  1.0  0.6825
  C  C153  1  0.356100  0.973600  0.972900  1.0  0.2782
  C  C154  1  0.412000  0.033700  0.073200  1.0  0.0013
  C  C155  1  0.342200  0.920300  0.076700  1.0  -0.023
  C  C156  1  0.333100  0.970000  0.900800  1.0  -0.251
  C  C157  1  0.248000  0.005000  0.884800  1.0  -0.0679
  C  C158  1  0.137700  0.934700  0.917900  1.0  -0.2675
  C  C159  1  0.639000  0.521500  0.123100  1.0  0.6928
  C  C160  1  0.536800  0.697400  0.130600  1.0  0.6801
  C  C161  1  0.617500  0.643900  0.972900  1.0  0.2785
  C  C162  1  0.621700  0.588000  0.073200  1.0  0.0015
  C  C163  1  0.578100  0.657800  0.076700  1.0  -0.025
  C  C164  1  0.636900  0.666900  0.900800  1.0  -0.2528
  C  C165  1  0.757000  0.752000  0.884800  1.0  -0.0659
  C  C166  1  0.797000  0.862300  0.917900  1.0  -0.2688
  C  C167  1  0.882500  0.361000  0.123100  1.0  0.6902
  C  C168  1  0.160600  0.463200  0.130600  1.0  0.6803
  C  C169  1  0.026400  0.382500  0.972900  1.0  0.2785
  C  C170  1  0.966300  0.378300  0.073200  1.0  0.0014
  C  C171  1  0.079700  0.421900  0.076700  1.0  -0.0242
  C  C172  1  0.030000  0.363100  0.900800  1.0  -0.2521
  C  C173  1  0.995000  0.243000  0.884800  1.0  -0.0674
  C  C174  1  0.065300  0.203000  0.917900  1.0  -0.2661
  C  C175  1  0.361000  0.882500  0.376900  1.0  0.6928
  C  C176  1  0.463200  0.160600  0.369400  1.0  0.6801
  C  C177  1  0.382500  0.026400  0.527100  1.0  0.278
  C  C178  1  0.378300  0.966300  0.426800  1.0  0.0026
  C  C179  1  0.421900  0.079700  0.423300  1.0  -0.0231
  C  C180  1  0.363100  0.030000  0.599200  1.0  -0.2507
  C  C181  1  0.243000  0.995000  0.615200  1.0  -0.0702
  C  C182  1  0.203000  0.065300  0.582100  1.0  -0.2673
  C  C183  1  0.117500  0.478500  0.376900  1.0  0.691
  C  C184  1  0.839400  0.302600  0.369400  1.0  0.6807
  C  C185  1  0.973600  0.356100  0.527100  1.0  0.2782
  C  C186  1  0.033700  0.412000  0.426800  1.0  0.0024
  C  C187  1  0.920300  0.342200  0.423300  1.0  -0.0244
  C  C188  1  0.970000  0.333100  0.599200  1.0  -0.2534
  C  C189  1  0.005000  0.248000  0.615200  1.0  -0.066
  C  C190  1  0.934700  0.137700  0.582100  1.0  -0.2695
  C  C191  1  0.521500  0.639000  0.376900  1.0  0.6913
  C  C192  1  0.697400  0.536800  0.369400  1.0  0.6788
  C  C193  1  0.643900  0.617500  0.527100  1.0  0.2785
  C  C194  1  0.588000  0.621700  0.426800  1.0  0.0023
  C  C195  1  0.657800  0.578100  0.423300  1.0  -0.0239
  C  C196  1  0.666900  0.636900  0.599200  1.0  -0.2525
  C  C197  1  0.752000  0.757000  0.615200  1.0  -0.0683
  C  C198  1  0.862300  0.797000  0.582100  1.0  -0.2667
  N  N199  1  0.689100  0.115200  0.987400  1.0  -0.4229
  N  N200  1  0.580800  0.935200  0.992200  1.0  -0.4173
  N  N201  1  0.426100  0.310900  0.987400  1.0  -0.4263
  N  N202  1  0.354400  0.419200  0.992200  1.0  -0.4202
  N  N203  1  0.884800  0.573900  0.987400  1.0  -0.4265
  N  N204  1  0.064800  0.645600  0.992200  1.0  -0.4223
  N  N205  1  0.573900  0.884800  0.512600  1.0  -0.4212
  N  N206  1  0.645600  0.064800  0.507800  1.0  -0.4174
  N  N207  1  0.115200  0.689100  0.512600  1.0  -0.4269
  N  N208  1  0.935200  0.580800  0.507800  1.0  -0.4193
  N  N209  1  0.310900  0.426100  0.512600  1.0  -0.4266
  N  N210  1  0.419200  0.354400  0.507800  1.0  -0.4219
  N  N211  1  0.310900  0.884800  0.012600  1.0  -0.4217
  N  N212  1  0.419200  0.064800  0.007800  1.0  -0.4175
  N  N213  1  0.573900  0.689100  0.012600  1.0  -0.4263
  N  N214  1  0.645600  0.580800  0.007800  1.0  -0.4197
  N  N215  1  0.115200  0.426100  0.012600  1.0  -0.4266
  N  N216  1  0.935200  0.354400  0.007800  1.0  -0.4218
  N  N217  1  0.426100  0.115200  0.487400  1.0  -0.4237
  N  N218  1  0.354400  0.935200  0.492200  1.0  -0.4176
  N  N219  1  0.884800  0.310900  0.487400  1.0  -0.4267
  N  N220  1  0.064800  0.419200  0.492200  1.0  -0.4211
  N  N221  1  0.689100  0.573900  0.487400  1.0  -0.426
  N  N222  1  0.580800  0.645600  0.492200  1.0  -0.422
  O  O223  1  0.455900  0.787500  0.901000  1.0  -0.5697
  O  O224  1  0.526600  0.902800  0.816700  1.0  -0.6185
  O  O225  1  0.760200  0.260600  0.887800  1.0  -0.5654
  O  O226  1  0.674800  0.134400  0.810000  1.0  -0.6231
  O  O227  1  0.331600  0.544100  0.901000  1.0  -0.5704
  O  O228  1  0.376200  0.473400  0.816700  1.0  -0.6188
  O  O229  1  0.500400  0.239800  0.887800  1.0  -0.5641
  O  O230  1  0.459600  0.325200  0.810000  1.0  -0.6237
  O  O231  1  0.212500  0.668400  0.901000  1.0  -0.5703
  O  O232  1  0.097200  0.623800  0.816700  1.0  -0.6195
  O  O233  1  0.739400  0.499600  0.887800  1.0  -0.5655
  O  O234  1  0.865600  0.540400  0.810000  1.0  -0.6234
  O  O235  1  0.668400  0.212500  0.599000  1.0  -0.5704
  O  O236  1  0.623800  0.097200  0.683300  1.0  -0.6185
  O  O237  1  0.499600  0.739400  0.612200  1.0  -0.567
  O  O238  1  0.540400  0.865600  0.690000  1.0  -0.6266
  O  O239  1  0.787500  0.455900  0.599000  1.0  -0.5703
  O  O240  1  0.902800  0.526600  0.683300  1.0  -0.6189
  O  O241  1  0.260600  0.760200  0.612200  1.0  -0.5648
  O  O242  1  0.134400  0.674800  0.690000  1.0  -0.6276
  O  O243  1  0.544100  0.331600  0.599000  1.0  -0.5708
  O  O244  1  0.473400  0.376200  0.683300  1.0  -0.6187
  O  O245  1  0.239800  0.500400  0.612200  1.0  -0.5649
  O  O246  1  0.325200  0.459600  0.690000  1.0  -0.6289
  O  O247  1  0.544100  0.212500  0.099000  1.0  -0.5692
  O  O248  1  0.473400  0.097200  0.183300  1.0  -0.6181
  O  O249  1  0.239800  0.739400  0.112200  1.0  -0.5672
  O  O250  1  0.325200  0.865600  0.190000  1.0  -0.6258
  O  O251  1  0.668400  0.455900  0.099000  1.0  -0.5687
  O  O252  1  0.623800  0.526600  0.183300  1.0  -0.619
  O  O253  1  0.499600  0.760200  0.112200  1.0  -0.566
  O  O254  1  0.540400  0.674800  0.190000  1.0  -0.628
  O  O255  1  0.787500  0.331600  0.099000  1.0  -0.5717
  O  O256  1  0.902800  0.376200  0.183300  1.0  -0.6196
  O  O257  1  0.260600  0.500400  0.112200  1.0  -0.5634
  O  O258  1  0.134400  0.459600  0.190000  1.0  -0.6277
  O  O259  1  0.331600  0.787500  0.401000  1.0  -0.5693
  O  O260  1  0.376200  0.902800  0.316700  1.0  -0.6181
  O  O261  1  0.500400  0.260600  0.387800  1.0  -0.5647
  O  O262  1  0.459600  0.134400  0.310000  1.0  -0.6227
  O  O263  1  0.212500  0.544100  0.401000  1.0  -0.5688
  O  O264  1  0.097200  0.473400  0.316700  1.0  -0.6199
  O  O265  1  0.739400  0.239800  0.387800  1.0  -0.5658
  O  O266  1  0.865600  0.325200  0.310000  1.0  -0.6227
  O  O267  1  0.455900  0.668400  0.401000  1.0  -0.5709
  O  O268  1  0.526600  0.623800  0.316700  1.0  -0.6189
  O  O269  1  0.760200  0.499600  0.387800  1.0  -0.5639
  O  O270  1  0.674800  0.540400  0.310000  1.0  -0.6236
  O  O271  1  0.666667  0.333333  0.979100  1.0  -0.695
  O  O272  1  0.333333  0.666667  0.520900  1.0  -0.695
  O  O273  1  0.333333  0.666667  0.020900  1.0  -0.695
  O  O274  1  0.666667  0.333333  0.479100  1.0  -0.695
