# generated using pymatgen
data_In(CO2)3
_symmetry_space_group_name_H-M   'P 1'
_cell_length_a   26.07670000
_cell_length_b   26.07670000
_cell_length_c   8.94670000
_cell_angle_alpha   90.00000000
_cell_angle_beta   90.00000000
_cell_angle_gamma   90.00000000
_symmetry_Int_Tables_number   1
_chemical_formula_structural   In(CO2)3
_chemical_formula_sum   'In16 C48 O96'
_cell_volume   6083.70485073
_cell_formula_units_Z   16
loop_
 _symmetry_equiv_pos_site_id
 _symmetry_equiv_pos_as_xyz
  1  'x, y, z'
loop_
 _atom_site_type_symbol
 _atom_site_label
 _atom_site_symmetry_multiplicity
 _atom_site_fract_x
 _atom_site_fract_y
 _atom_site_fract_z
 _atom_site_occupancy
 _atom_site_charge
  In  In1  1  0.274330  0.142600  0.683620  1.0  1.3169
  In  In2  1  0.774330  0.642600  0.183620  1.0  1.3169
  In  In3  1  0.225670  0.857400  0.183620  1.0  1.317
  In  In4  1  0.725670  0.357400  0.683620  1.0  1.317
  In  In5  1  0.607400  0.524330  0.933620  1.0  1.3163
  In  In6  1  0.107400  0.024330  0.433620  1.0  1.3163
  In  In7  1  0.892600  0.475670  0.433620  1.0  1.3165
  In  In8  1  0.392600  0.975670  0.933620  1.0  1.3165
  In  In9  1  0.725670  0.857400  0.316380  1.0  1.3178
  In  In10  1  0.225670  0.357400  0.816380  1.0  1.3178
  In  In11  1  0.774330  0.142600  0.816380  1.0  1.3175
  In  In12  1  0.274330  0.642600  0.316380  1.0  1.3175
  In  In13  1  0.392600  0.475670  0.066380  1.0  1.3169
  In  In14  1  0.892600  0.975670  0.566380  1.0  1.3169
  In  In15  1  0.107400  0.524330  0.566380  1.0  1.3169
  In  In16  1  0.607400  0.024330  0.066380  1.0  1.3169
  C  C17  1  0.181220  0.082080  0.632300  1.0  0.6269
  C  C18  1  0.203630  0.088710  0.473900  1.0  0.6294
  C  C19  1  0.262490  0.246980  0.826600  1.0  0.6391
  C  C20  1  0.681220  0.582080  0.132300  1.0  0.6269
  C  C21  1  0.703630  0.588710  0.973900  1.0  0.6294
  C  C22  1  0.762490  0.746980  0.326600  1.0  0.6391
  C  C23  1  0.318780  0.917920  0.132300  1.0  0.6285
  C  C24  1  0.296370  0.911290  0.973900  1.0  0.6297
  C  C25  1  0.237510  0.753020  0.326600  1.0  0.6376
  C  C26  1  0.818780  0.417920  0.632300  1.0  0.6285
  C  C27  1  0.796370  0.411290  0.473900  1.0  0.6297
  C  C28  1  0.737510  0.253020  0.826600  1.0  0.6376
  C  C29  1  0.667920  0.431220  0.882300  1.0  0.6265
  C  C30  1  0.661290  0.453630  0.723900  1.0  0.6297
  C  C31  1  0.503020  0.512490  0.076600  1.0  0.6361
  C  C32  1  0.167920  0.931220  0.382300  1.0  0.6265
  C  C33  1  0.161290  0.953630  0.223900  1.0  0.6297
  C  C34  1  0.003020  0.012490  0.576600  1.0  0.6361
  C  C35  1  0.832080  0.568780  0.382300  1.0  0.6248
  C  C36  1  0.838710  0.546370  0.223900  1.0  0.6298
  C  C37  1  0.996980  0.487510  0.576600  1.0  0.6361
  C  C38  1  0.332080  0.068780  0.882300  1.0  0.6248
  C  C39  1  0.338710  0.046370  0.723900  1.0  0.6298
  C  C40  1  0.496980  0.987510  0.076600  1.0  0.6361
  C  C41  1  0.818780  0.917920  0.367700  1.0  0.6268
  C  C42  1  0.796370  0.911290  0.526100  1.0  0.6288
  C  C43  1  0.737510  0.753020  0.173400  1.0  0.6394
  C  C44  1  0.318780  0.417920  0.867700  1.0  0.6268
  C  C45  1  0.296370  0.411290  0.026100  1.0  0.6288
  C  C46  1  0.237510  0.253020  0.673400  1.0  0.6394
  C  C47  1  0.681220  0.082080  0.867700  1.0  0.6269
  C  C48  1  0.703630  0.088710  0.026100  1.0  0.6293
  C  C49  1  0.762490  0.246980  0.673400  1.0  0.6393
  C  C50  1  0.181220  0.582080  0.367700  1.0  0.6269
  C  C51  1  0.203630  0.588710  0.526100  1.0  0.6293
  C  C52  1  0.262490  0.746980  0.173400  1.0  0.6393
  C  C53  1  0.332080  0.568780  0.117700  1.0  0.6244
  C  C54  1  0.338710  0.546370  0.276100  1.0  0.6299
  C  C55  1  0.496980  0.487510  0.923400  1.0  0.6385
  C  C56  1  0.832080  0.068780  0.617700  1.0  0.6244
  C  C57  1  0.838710  0.046370  0.776100  1.0  0.6299
  C  C58  1  0.996980  0.987510  0.423400  1.0  0.6385
  C  C59  1  0.167920  0.431220  0.617700  1.0  0.6247
  C  C60  1  0.161290  0.453630  0.776100  1.0  0.6287
  C  C61  1  0.003020  0.512490  0.423400  1.0  0.6395
  C  C62  1  0.667920  0.931220  0.117700  1.0  0.6247
  C  C63  1  0.661290  0.953630  0.276100  1.0  0.6287
  C  C64  1  0.503020  0.012490  0.923400  1.0  0.6395
  O  O65  1  0.203880  0.104740  0.738600  1.0  -0.5121
  O  O66  1  0.142210  0.055470  0.646300  1.0  -0.5333
  O  O67  1  0.241150  0.118430  0.461000  1.0  -0.4993
  O  O68  1  0.182600  0.063490  0.373400  1.0  -0.5537
  O  O69  1  0.275660  0.202580  0.863900  1.0  -0.5667
  O  O70  1  0.267350  0.286550  0.903800  1.0  -0.5459
  O  O71  1  0.703880  0.604740  0.238600  1.0  -0.5121
  O  O72  1  0.642210  0.555470  0.146300  1.0  -0.5333
  O  O73  1  0.741150  0.618430  0.961000  1.0  -0.4993
  O  O74  1  0.682600  0.563490  0.873400  1.0  -0.5537
  O  O75  1  0.775660  0.702580  0.363900  1.0  -0.5667
  O  O76  1  0.767350  0.786550  0.403800  1.0  -0.5459
  O  O77  1  0.296120  0.895260  0.238600  1.0  -0.5134
  O  O78  1  0.357790  0.944530  0.146300  1.0  -0.5335
  O  O79  1  0.258850  0.881570  0.961000  1.0  -0.4998
  O  O80  1  0.317400  0.936510  0.873400  1.0  -0.5534
  O  O81  1  0.224340  0.797420  0.363900  1.0  -0.5664
  O  O82  1  0.232650  0.713450  0.403800  1.0  -0.5474
  O  O83  1  0.796120  0.395260  0.738600  1.0  -0.5134
  O  O84  1  0.857790  0.444530  0.646300  1.0  -0.5335
  O  O85  1  0.758850  0.381570  0.461000  1.0  -0.4998
  O  O86  1  0.817400  0.436510  0.373400  1.0  -0.5534
  O  O87  1  0.724340  0.297420  0.863900  1.0  -0.5664
  O  O88  1  0.732650  0.213450  0.903800  1.0  -0.5474
  O  O89  1  0.645260  0.453880  0.988600  1.0  -0.5116
  O  O90  1  0.694530  0.392210  0.896300  1.0  -0.5321
  O  O91  1  0.631570  0.491150  0.711000  1.0  -0.5001
  O  O92  1  0.686510  0.432600  0.623400  1.0  -0.5573
  O  O93  1  0.547420  0.525660  0.113900  1.0  -0.5641
  O  O94  1  0.463450  0.517350  0.153800  1.0  -0.5461
  O  O95  1  0.145260  0.953880  0.488600  1.0  -0.5116
  O  O96  1  0.194530  0.892210  0.396300  1.0  -0.5321
  O  O97  1  0.131570  0.991150  0.211000  1.0  -0.5001
  O  O98  1  0.186510  0.932600  0.123400  1.0  -0.5573
  O  O99  1  0.047420  0.025660  0.613900  1.0  -0.5641
  O  O100  1  0.963450  0.017350  0.653800  1.0  -0.5461
  O  O101  1  0.854740  0.546120  0.488600  1.0  -0.5123
  O  O102  1  0.805470  0.607790  0.396300  1.0  -0.5298
  O  O103  1  0.868430  0.508850  0.211000  1.0  -0.4983
  O  O104  1  0.813490  0.567400  0.123400  1.0  -0.5573
  O  O105  1  0.952580  0.474340  0.613900  1.0  -0.5633
  O  O106  1  0.036550  0.482650  0.653800  1.0  -0.5467
  O  O107  1  0.354740  0.046120  0.988600  1.0  -0.5123
  O  O108  1  0.305470  0.107790  0.896300  1.0  -0.5298
  O  O109  1  0.368430  0.008850  0.711000  1.0  -0.4983
  O  O110  1  0.313490  0.067400  0.623400  1.0  -0.5573
  O  O111  1  0.452580  0.974340  0.113900  1.0  -0.5633
  O  O112  1  0.536550  0.982650  0.153800  1.0  -0.5467
  O  O113  1  0.796120  0.895260  0.261400  1.0  -0.5138
  O  O114  1  0.857790  0.944530  0.353700  1.0  -0.5335
  O  O115  1  0.758850  0.881570  0.539000  1.0  -0.4999
  O  O116  1  0.817400  0.936510  0.626600  1.0  -0.5523
  O  O117  1  0.724340  0.797420  0.136100  1.0  -0.5665
  O  O118  1  0.732650  0.713450  0.096200  1.0  -0.5469
  O  O119  1  0.296120  0.395260  0.761400  1.0  -0.5138
  O  O120  1  0.357790  0.444530  0.853700  1.0  -0.5335
  O  O121  1  0.258850  0.381570  0.039000  1.0  -0.4999
  O  O122  1  0.317400  0.436510  0.126600  1.0  -0.5523
  O  O123  1  0.224340  0.297420  0.636100  1.0  -0.5665
  O  O124  1  0.232650  0.213450  0.596200  1.0  -0.5469
  O  O125  1  0.703880  0.104740  0.761400  1.0  -0.5135
  O  O126  1  0.642210  0.055470  0.853700  1.0  -0.5332
  O  O127  1  0.741150  0.118430  0.039000  1.0  -0.4998
  O  O128  1  0.682600  0.063490  0.126600  1.0  -0.5518
  O  O129  1  0.775660  0.202580  0.636100  1.0  -0.5666
  O  O130  1  0.767350  0.286550  0.596200  1.0  -0.5459
  O  O131  1  0.203880  0.604740  0.261400  1.0  -0.5135
  O  O132  1  0.142210  0.555470  0.353700  1.0  -0.5332
  O  O133  1  0.241150  0.618430  0.539000  1.0  -0.4998
  O  O134  1  0.182600  0.563490  0.626600  1.0  -0.5518
  O  O135  1  0.275660  0.702580  0.136100  1.0  -0.5666
  O  O136  1  0.267350  0.786550  0.096200  1.0  -0.5459
  O  O137  1  0.354740  0.546120  0.011400  1.0  -0.5121
  O  O138  1  0.305470  0.607790  0.103700  1.0  -0.5302
  O  O139  1  0.368430  0.508850  0.289000  1.0  -0.4992
  O  O140  1  0.313490  0.567400  0.376600  1.0  -0.5554
  O  O141  1  0.452580  0.474340  0.886100  1.0  -0.5642
  O  O142  1  0.536550  0.482650  0.846200  1.0  -0.5472
  O  O143  1  0.854740  0.046120  0.511400  1.0  -0.5121
  O  O144  1  0.805470  0.107790  0.603700  1.0  -0.5302
  O  O145  1  0.868430  0.008850  0.789000  1.0  -0.4992
  O  O146  1  0.813490  0.067400  0.876600  1.0  -0.5554
  O  O147  1  0.952580  0.974340  0.386100  1.0  -0.5642
  O  O148  1  0.036550  0.982650  0.346200  1.0  -0.5472
  O  O149  1  0.145260  0.453880  0.511400  1.0  -0.5121
  O  O150  1  0.194530  0.392210  0.603700  1.0  -0.5314
  O  O151  1  0.131570  0.491150  0.789000  1.0  -0.5003
  O  O152  1  0.186510  0.432600  0.876600  1.0  -0.5562
  O  O153  1  0.047420  0.525660  0.386100  1.0  -0.5645
  O  O154  1  0.963450  0.517350  0.346200  1.0  -0.5459
  O  O155  1  0.645260  0.953880  0.011400  1.0  -0.5121
  O  O156  1  0.694530  0.892210  0.103700  1.0  -0.5314
  O  O157  1  0.631570  0.991150  0.289000  1.0  -0.5003
  O  O158  1  0.686510  0.932600  0.376600  1.0  -0.5562
  O  O159  1  0.547420  0.025660  0.886100  1.0  -0.5645
  O  O160  1  0.463450  0.017350  0.846200  1.0  -0.5459
