# generated using pymatgen
data_In(CO2)5
_symmetry_space_group_name_H-M   'P 1'
_cell_length_a   25.13350000
_cell_length_b   25.13350000
_cell_length_c   9.74540000
_cell_angle_alpha   90.00000000
_cell_angle_beta   90.00000000
_cell_angle_gamma   90.00000000
_symmetry_Int_Tables_number   1
_chemical_formula_structural   In(CO2)5
_chemical_formula_sum   'In16 C80 O160'
_cell_volume   6156.09922996
_cell_formula_units_Z   16
loop_
 _symmetry_equiv_pos_site_id
 _symmetry_equiv_pos_as_xyz
  1  'x, y, z'
loop_
 _atom_site_type_symbol
 _atom_site_label
 _atom_site_symmetry_multiplicity
 _atom_site_fract_x
 _atom_site_fract_y
 _atom_site_fract_z
 _atom_site_occupancy
 _atom_site_charge
  In  In1  1  0.703160  0.356070  0.696720  1.0  1.5155
  In  In2  1  0.203160  0.856070  0.196720  1.0  1.5155
  In  In3  1  0.796840  0.643930  0.196720  1.0  1.5154
  In  In4  1  0.296840  0.143930  0.696720  1.0  1.5154
  In  In5  1  0.393930  0.953160  0.946720  1.0  1.5153
  In  In6  1  0.893930  0.453160  0.446720  1.0  1.5153
  In  In7  1  0.106070  0.046840  0.446720  1.0  1.5149
  In  In8  1  0.606070  0.546840  0.946720  1.0  1.5149
  In  In9  1  0.296840  0.643930  0.303280  1.0  1.515
  In  In10  1  0.796840  0.143930  0.803280  1.0  1.515
  In  In11  1  0.203160  0.356070  0.803280  1.0  1.5151
  In  In12  1  0.703160  0.856070  0.303280  1.0  1.5151
  In  In13  1  0.606070  0.046840  0.053280  1.0  1.5146
  In  In14  1  0.106070  0.546840  0.553280  1.0  1.5146
  In  In15  1  0.893930  0.953160  0.553280  1.0  1.5148
  In  In16  1  0.393930  0.453160  0.053280  1.0  1.5148
  C  C17  1  0.785390  0.403240  0.501600  1.0  0.6234
  C  C18  1  0.806590  0.413230  0.647600  1.0  0.6173
  C  C19  1  0.751170  0.244770  0.672400  1.0  0.6061
  C  C20  1  0.592660  0.331400  0.579800  1.0  0.6662
  C  C21  1  0.585560  0.330060  0.736600  1.0  0.6961
  C  C22  1  0.285390  0.903240  0.001600  1.0  0.6234
  C  C23  1  0.306590  0.913230  0.147600  1.0  0.6173
  C  C24  1  0.251170  0.744770  0.172400  1.0  0.6061
  C  C25  1  0.092660  0.831400  0.079800  1.0  0.6662
  C  C26  1  0.085560  0.830060  0.236600  1.0  0.6961
  C  C27  1  0.714610  0.596760  0.001600  1.0  0.6229
  C  C28  1  0.693410  0.586770  0.147600  1.0  0.616
  C  C29  1  0.748830  0.755230  0.172400  1.0  0.6062
  C  C30  1  0.907340  0.668600  0.079800  1.0  0.6652
  C  C31  1  0.914440  0.669940  0.236600  1.0  0.6962
  C  C32  1  0.214610  0.096760  0.501600  1.0  0.6229
  C  C33  1  0.193410  0.086770  0.647600  1.0  0.616
  C  C34  1  0.248830  0.255230  0.672400  1.0  0.6062
  C  C35  1  0.407340  0.168600  0.579800  1.0  0.6652
  C  C36  1  0.414440  0.169940  0.736600  1.0  0.6962
  C  C37  1  0.346760  0.035390  0.751600  1.0  0.6194
  C  C38  1  0.336770  0.056590  0.897600  1.0  0.6168
  C  C39  1  0.505230  0.001170  0.922400  1.0  0.6063
  C  C40  1  0.418600  0.842660  0.829800  1.0  0.6617
  C  C41  1  0.419940  0.835560  0.986600  1.0  0.6949
  C  C42  1  0.846760  0.535390  0.251600  1.0  0.6194
  C  C43  1  0.836770  0.556590  0.397600  1.0  0.6168
  C  C44  1  0.005230  0.501170  0.422400  1.0  0.6063
  C  C45  1  0.918600  0.342660  0.329800  1.0  0.6617
  C  C46  1  0.919940  0.335560  0.486600  1.0  0.6949
  C  C47  1  0.153240  0.964610  0.251600  1.0  0.6204
  C  C48  1  0.163230  0.943410  0.397600  1.0  0.6179
  C  C49  1  0.994770  0.998830  0.422400  1.0  0.606
  C  C50  1  0.081400  0.157340  0.329800  1.0  0.6636
  C  C51  1  0.080060  0.164440  0.486600  1.0  0.6929
  C  C52  1  0.653240  0.464610  0.751600  1.0  0.6204
  C  C53  1  0.663230  0.443410  0.897600  1.0  0.6179
  C  C54  1  0.494770  0.498830  0.922400  1.0  0.606
  C  C55  1  0.581400  0.657340  0.829800  1.0  0.6636
  C  C56  1  0.580060  0.664440  0.986600  1.0  0.6929
  C  C57  1  0.214610  0.596760  0.498400  1.0  0.623
  C  C58  1  0.193410  0.586770  0.352400  1.0  0.6155
  C  C59  1  0.248830  0.755230  0.327600  1.0  0.6063
  C  C60  1  0.407340  0.668600  0.420200  1.0  0.6658
  C  C61  1  0.414440  0.669940  0.263400  1.0  0.6956
  C  C62  1  0.714610  0.096760  0.998400  1.0  0.623
  C  C63  1  0.693410  0.086770  0.852400  1.0  0.6155
  C  C64  1  0.748830  0.255230  0.827600  1.0  0.6063
  C  C65  1  0.907340  0.168600  0.920200  1.0  0.6658
  C  C66  1  0.914440  0.169940  0.763400  1.0  0.6956
  C  C67  1  0.285390  0.403240  0.998400  1.0  0.6215
  C  C68  1  0.306590  0.413230  0.852400  1.0  0.6157
  C  C69  1  0.251170  0.244770  0.827600  1.0  0.6062
  C  C70  1  0.092660  0.331400  0.920200  1.0  0.6652
  C  C71  1  0.085560  0.330060  0.763400  1.0  0.6969
  C  C72  1  0.785390  0.903240  0.498400  1.0  0.6215
  C  C73  1  0.806590  0.913230  0.352400  1.0  0.6157
  C  C74  1  0.751170  0.744770  0.327600  1.0  0.6062
  C  C75  1  0.592660  0.831400  0.420200  1.0  0.6652
  C  C76  1  0.585560  0.830060  0.263400  1.0  0.6969
  C  C77  1  0.653240  0.964610  0.248400  1.0  0.6188
  C  C78  1  0.663230  0.943410  0.102400  1.0  0.6162
  C  C79  1  0.494770  0.998830  0.077600  1.0  0.6059
  C  C80  1  0.581400  0.157340  0.170200  1.0  0.6632
  C  C81  1  0.580060  0.164440  0.013400  1.0  0.6943
  C  C82  1  0.153240  0.464610  0.748400  1.0  0.6188
  C  C83  1  0.163230  0.443410  0.602400  1.0  0.6162
  C  C84  1  0.994770  0.498830  0.577600  1.0  0.6059
  C  C85  1  0.081400  0.657340  0.670200  1.0  0.6632
  C  C86  1  0.080060  0.664440  0.513400  1.0  0.6943
  C  C87  1  0.846760  0.035390  0.748400  1.0  0.6194
  C  C88  1  0.836770  0.056590  0.602400  1.0  0.6165
  C  C89  1  0.005230  0.001170  0.577600  1.0  0.6068
  C  C90  1  0.918600  0.842660  0.670200  1.0  0.662
  C  C91  1  0.919940  0.835560  0.513400  1.0  0.6941
  C  C92  1  0.346760  0.535390  0.248400  1.0  0.6194
  C  C93  1  0.336770  0.556590  0.102400  1.0  0.6165
  C  C94  1  0.505230  0.501170  0.077600  1.0  0.6068
  C  C95  1  0.418600  0.342660  0.170200  1.0  0.662
  C  C96  1  0.419940  0.335560  0.013400  1.0  0.6941
  O  O97  1  0.740590  0.381630  0.492000  1.0  -0.4655
  O  O98  1  0.814630  0.416970  0.404500  1.0  -0.4835
  O  O99  1  0.780950  0.392100  0.744200  1.0  -0.4799
  O  O100  1  0.847790  0.440360  0.658300  1.0  -0.5055
  O  O101  1  0.734370  0.280840  0.596300  1.0  -0.4799
  O  O102  1  0.768720  0.200550  0.635500  1.0  -0.4762
  O  O103  1  0.640380  0.335440  0.538900  1.0  -0.5021
  O  O104  1  0.553090  0.328060  0.505500  1.0  -0.3884
  O  O105  1  0.628850  0.328120  0.804200  1.0  -0.5194
  O  O106  1  0.541400  0.330750  0.788600  1.0  -0.4166
  O  O107  1  0.240590  0.881630  0.992000  1.0  -0.4655
  O  O108  1  0.314630  0.916970  0.904500  1.0  -0.4835
  O  O109  1  0.280950  0.892100  0.244200  1.0  -0.4799
  O  O110  1  0.347790  0.940360  0.158300  1.0  -0.5055
  O  O111  1  0.234370  0.780840  0.096300  1.0  -0.4799
  O  O112  1  0.268720  0.700550  0.135500  1.0  -0.4762
  O  O113  1  0.140380  0.835440  0.038900  1.0  -0.5021
  O  O114  1  0.053090  0.828060  0.005500  1.0  -0.3884
  O  O115  1  0.128850  0.828120  0.304200  1.0  -0.5194
  O  O116  1  0.041400  0.830750  0.288600  1.0  -0.4166
  O  O117  1  0.759410  0.618370  0.992000  1.0  -0.4661
  O  O118  1  0.685370  0.583030  0.904500  1.0  -0.4827
  O  O119  1  0.719050  0.607900  0.244200  1.0  -0.481
  O  O120  1  0.652210  0.559640  0.158300  1.0  -0.5046
  O  O121  1  0.765630  0.719160  0.096300  1.0  -0.4799
  O  O122  1  0.731280  0.799450  0.135500  1.0  -0.48
  O  O123  1  0.859620  0.664560  0.038900  1.0  -0.5023
  O  O124  1  0.946910  0.671940  0.005500  1.0  -0.3866
  O  O125  1  0.871150  0.671880  0.304200  1.0  -0.5206
  O  O126  1  0.958600  0.669250  0.288600  1.0  -0.4148
  O  O127  1  0.259410  0.118370  0.492000  1.0  -0.4661
  O  O128  1  0.185370  0.083030  0.404500  1.0  -0.4827
  O  O129  1  0.219050  0.107900  0.744200  1.0  -0.481
  O  O130  1  0.152210  0.059640  0.658300  1.0  -0.5046
  O  O131  1  0.265630  0.219160  0.596300  1.0  -0.4799
  O  O132  1  0.231280  0.299450  0.635500  1.0  -0.48
  O  O133  1  0.359620  0.164560  0.538900  1.0  -0.5023
  O  O134  1  0.446910  0.171940  0.505500  1.0  -0.3866
  O  O135  1  0.371150  0.171880  0.804200  1.0  -0.5206
  O  O136  1  0.458600  0.169250  0.788600  1.0  -0.4148
  O  O137  1  0.368370  0.990590  0.742000  1.0  -0.4635
  O  O138  1  0.333030  0.064630  0.654500  1.0  -0.4809
  O  O139  1  0.357900  0.030950  0.994200  1.0  -0.4782
  O  O140  1  0.309640  0.097790  0.908300  1.0  -0.5064
  O  O141  1  0.469160  0.984370  0.846300  1.0  -0.4821
  O  O142  1  0.549450  0.018720  0.885500  1.0  -0.4777
  O  O143  1  0.414560  0.890380  0.788900  1.0  -0.5038
  O  O144  1  0.421940  0.803090  0.755500  1.0  -0.3868
  O  O145  1  0.421880  0.878850  0.054200  1.0  -0.5202
  O  O146  1  0.419250  0.791400  0.038600  1.0  -0.4152
  O  O147  1  0.868370  0.490590  0.242000  1.0  -0.4635
  O  O148  1  0.833030  0.564630  0.154500  1.0  -0.4809
  O  O149  1  0.857900  0.530950  0.494200  1.0  -0.4782
  O  O150  1  0.809640  0.597790  0.408300  1.0  -0.5064
  O  O151  1  0.969160  0.484370  0.346300  1.0  -0.4821
  O  O152  1  0.049450  0.518720  0.385500  1.0  -0.4777
  O  O153  1  0.914560  0.390380  0.288900  1.0  -0.5038
  O  O154  1  0.921940  0.303090  0.255500  1.0  -0.3868
  O  O155  1  0.921880  0.378850  0.554200  1.0  -0.5202
  O  O156  1  0.919250  0.291400  0.538600  1.0  -0.4152
  O  O157  1  0.131630  0.009410  0.242000  1.0  -0.4629
  O  O158  1  0.166970  0.935370  0.154500  1.0  -0.4828
  O  O159  1  0.142100  0.969050  0.494200  1.0  -0.4789
  O  O160  1  0.190360  0.902210  0.408300  1.0  -0.5041
  O  O161  1  0.030840  0.015630  0.346300  1.0  -0.4815
  O  O162  1  0.950550  0.981280  0.385500  1.0  -0.4768
  O  O163  1  0.085440  0.109620  0.288900  1.0  -0.5028
  O  O164  1  0.078060  0.196910  0.255500  1.0  -0.3856
  O  O165  1  0.078120  0.121150  0.554200  1.0  -0.5205
  O  O166  1  0.080750  0.208600  0.538600  1.0  -0.4146
  O  O167  1  0.631630  0.509410  0.742000  1.0  -0.4629
  O  O168  1  0.666970  0.435370  0.654500  1.0  -0.4828
  O  O169  1  0.642100  0.469050  0.994200  1.0  -0.4789
  O  O170  1  0.690360  0.402210  0.908300  1.0  -0.5041
  O  O171  1  0.530840  0.515630  0.846300  1.0  -0.4815
  O  O172  1  0.450550  0.481280  0.885500  1.0  -0.4768
  O  O173  1  0.585440  0.609620  0.788900  1.0  -0.5028
  O  O174  1  0.578060  0.696910  0.755500  1.0  -0.3856
  O  O175  1  0.578120  0.621150  0.054200  1.0  -0.5205
  O  O176  1  0.580750  0.708600  0.038600  1.0  -0.4146
  O  O177  1  0.259410  0.618370  0.508000  1.0  -0.4655
  O  O178  1  0.185370  0.583030  0.595500  1.0  -0.486
  O  O179  1  0.219050  0.607900  0.255800  1.0  -0.478
  O  O180  1  0.152210  0.559640  0.341700  1.0  -0.5061
  O  O181  1  0.265630  0.719160  0.403700  1.0  -0.4812
  O  O182  1  0.231280  0.799450  0.364500  1.0  -0.4803
  O  O183  1  0.359620  0.664560  0.461100  1.0  -0.5029
  O  O184  1  0.446910  0.671940  0.494500  1.0  -0.3905
  O  O185  1  0.371150  0.671880  0.195800  1.0  -0.5187
  O  O186  1  0.458600  0.669250  0.211400  1.0  -0.4142
  O  O187  1  0.759410  0.118370  0.008000  1.0  -0.4655
  O  O188  1  0.685370  0.083030  0.095500  1.0  -0.486
  O  O189  1  0.719050  0.107900  0.755800  1.0  -0.478
  O  O190  1  0.652210  0.059640  0.841700  1.0  -0.5061
  O  O191  1  0.765630  0.219160  0.903700  1.0  -0.4812
  O  O192  1  0.731280  0.299450  0.864500  1.0  -0.4803
  O  O193  1  0.859620  0.164560  0.961100  1.0  -0.5029
  O  O194  1  0.946910  0.171940  0.994500  1.0  -0.3905
  O  O195  1  0.871150  0.171880  0.695800  1.0  -0.5187
  O  O196  1  0.958600  0.169250  0.711400  1.0  -0.4142
  O  O197  1  0.240590  0.381630  0.008000  1.0  -0.4666
  O  O198  1  0.314630  0.416970  0.095500  1.0  -0.4872
  O  O199  1  0.280950  0.392100  0.755800  1.0  -0.4787
  O  O200  1  0.347790  0.440360  0.841700  1.0  -0.5074
  O  O201  1  0.234370  0.280840  0.903700  1.0  -0.4806
  O  O202  1  0.268720  0.200550  0.864500  1.0  -0.4787
  O  O203  1  0.140380  0.335440  0.961100  1.0  -0.5033
  O  O204  1  0.053090  0.328060  0.994500  1.0  -0.3906
  O  O205  1  0.128850  0.328120  0.695800  1.0  -0.5183
  O  O206  1  0.041400  0.330750  0.711400  1.0  -0.4154
  O  O207  1  0.740590  0.881630  0.508000  1.0  -0.4666
  O  O208  1  0.814630  0.916970  0.595500  1.0  -0.4872
  O  O209  1  0.780950  0.892100  0.255800  1.0  -0.4787
  O  O210  1  0.847790  0.940360  0.341700  1.0  -0.5074
  O  O211  1  0.734370  0.780840  0.403700  1.0  -0.4806
  O  O212  1  0.768720  0.700550  0.364500  1.0  -0.4787
  O  O213  1  0.640380  0.835440  0.461100  1.0  -0.5033
  O  O214  1  0.553090  0.828060  0.494500  1.0  -0.3906
  O  O215  1  0.628850  0.828120  0.195800  1.0  -0.5183
  O  O216  1  0.541400  0.830750  0.211400  1.0  -0.4154
  O  O217  1  0.631630  0.009410  0.258000  1.0  -0.4622
  O  O218  1  0.666970  0.935370  0.345500  1.0  -0.4865
  O  O219  1  0.642100  0.969050  0.005800  1.0  -0.4759
  O  O220  1  0.690360  0.902210  0.091700  1.0  -0.5059
  O  O221  1  0.530840  0.015630  0.153700  1.0  -0.4829
  O  O222  1  0.450550  0.981280  0.114500  1.0  -0.4786
  O  O223  1  0.585440  0.109620  0.211100  1.0  -0.5044
  O  O224  1  0.578060  0.196910  0.244500  1.0  -0.3873
  O  O225  1  0.578120  0.121150  0.945800  1.0  -0.5184
  O  O226  1  0.580750  0.208600  0.961400  1.0  -0.4126
  O  O227  1  0.131630  0.509410  0.758000  1.0  -0.4622
  O  O228  1  0.166970  0.435370  0.845500  1.0  -0.4865
  O  O229  1  0.142100  0.469050  0.505800  1.0  -0.4759
  O  O230  1  0.190360  0.402210  0.591700  1.0  -0.5059
  O  O231  1  0.030840  0.515630  0.653700  1.0  -0.4829
  O  O232  1  0.950550  0.481280  0.614500  1.0  -0.4786
  O  O233  1  0.085440  0.609620  0.711100  1.0  -0.5044
  O  O234  1  0.078060  0.696910  0.744500  1.0  -0.3873
  O  O235  1  0.078120  0.621150  0.445800  1.0  -0.5184
  O  O236  1  0.080750  0.708600  0.461400  1.0  -0.4126
  O  O237  1  0.868370  0.990590  0.758000  1.0  -0.4644
  O  O238  1  0.833030  0.064630  0.845500  1.0  -0.4845
  O  O239  1  0.857900  0.030950  0.505800  1.0  -0.4757
  O  O240  1  0.809640  0.097790  0.591700  1.0  -0.5075
  O  O241  1  0.969160  0.984370  0.653700  1.0  -0.4827
  O  O242  1  0.049450  0.018720  0.614500  1.0  -0.4794
  O  O243  1  0.914560  0.890380  0.711100  1.0  -0.5034
  O  O244  1  0.921940  0.803090  0.744500  1.0  -0.3878
  O  O245  1  0.921880  0.878850  0.445800  1.0  -0.5188
  O  O246  1  0.919250  0.791400  0.461400  1.0  -0.415
  O  O247  1  0.368370  0.490590  0.258000  1.0  -0.4644
  O  O248  1  0.333030  0.564630  0.345500  1.0  -0.4845
  O  O249  1  0.357900  0.530950  0.005800  1.0  -0.4757
  O  O250  1  0.309640  0.597790  0.091700  1.0  -0.5075
  O  O251  1  0.469160  0.484370  0.153700  1.0  -0.4827
  O  O252  1  0.549450  0.518720  0.114500  1.0  -0.4794
  O  O253  1  0.414560  0.390380  0.211100  1.0  -0.5034
  O  O254  1  0.421940  0.303090  0.244500  1.0  -0.3878
  O  O255  1  0.421880  0.378850  0.945800  1.0  -0.5188
  O  O256  1  0.419250  0.291400  0.961400  1.0  -0.415
