# generated using pymatgen
data_LaH2(C4O3)3
_symmetry_space_group_name_H-M   'P 1'
_cell_length_a   10.43400000
_cell_length_b   11.16300000
_cell_length_c   12.42200000
_cell_angle_alpha   102.67600000
_cell_angle_beta   106.31300000
_cell_angle_gamma   99.41500000
_symmetry_Int_Tables_number   1
_chemical_formula_structural   LaH2(C4O3)3
_chemical_formula_sum   'La2 H4 C24 O18'
_cell_volume   1314.98277999
_cell_formula_units_Z   2
loop_
 _symmetry_equiv_pos_site_id
 _symmetry_equiv_pos_as_xyz
  1  'x, y, z'
loop_
 _atom_site_type_symbol
 _atom_site_label
 _atom_site_symmetry_multiplicity
 _atom_site_fract_x
 _atom_site_fract_y
 _atom_site_fract_z
 _atom_site_occupancy
 _atom_site_charge
  La  La1  1  0.403660  0.456940  0.816350  1.0  2.1444
  La  La2  1  0.596340  0.543060  0.183650  1.0  2.1443
  H  H3  1  0.110000  0.445800  0.867300  1.0  0.1106
  H  H4  1  0.488900  0.853200  0.831800  1.0  0.1408
  H  H5  1  0.890000  0.554200  0.132700  1.0  0.111
  H  H6  1  0.511100  0.146800  0.168200  1.0  0.1404
  C  C7  1  0.140700  0.011500  0.514900  1.0  0.0724
  C  C8  1  0.074300  0.549400  0.118700  1.0  0.3221
  C  C9  1  0.957000  0.099500  0.557200  1.0  0.3237
  C  C10  1  0.065200  0.468200  0.920900  1.0  -0.0634
  C  C11  1  0.095300  0.111400  0.572300  1.0  -0.1646
  C  C12  1  0.528700  0.883100  0.006500  1.0  -0.2296
  C  C13  1  0.294700  0.538600  0.078000  1.0  0.7454
  C  C14  1  0.143200  0.518800  0.039500  1.0  -0.1763
  C  C15  1  0.198000  0.230100  0.645600  1.0  0.6954
  C  C16  1  0.555900  0.756400  0.008200  1.0  0.7234
  C  C17  1  0.493500  0.912500  0.899300  1.0  -0.0618
  C  C18  1  0.534200  0.972500  0.107700  1.0  0.355
  C  C19  1  0.859300  0.988500  0.485100  1.0  0.0727
  C  C20  1  0.925700  0.450600  0.881300  1.0  0.3208
  C  C21  1  0.043000  0.900500  0.442800  1.0  0.3248
  C  C22  1  0.934800  0.531800  0.079100  1.0  -0.063
  C  C23  1  0.904700  0.888600  0.427700  1.0  -0.1636
  C  C24  1  0.471300  0.116900  0.993500  1.0  -0.2293
  C  C25  1  0.705300  0.461400  0.922000  1.0  0.7474
  C  C26  1  0.856800  0.481200  0.960500  1.0  -0.176
  C  C27  1  0.802000  0.769900  0.354400  1.0  0.6947
  C  C28  1  0.444100  0.243600  0.991800  1.0  0.726
  C  C29  1  0.506500  0.087500  0.100700  1.0  -0.0621
  C  C30  1  0.465800  0.027500  0.892300  1.0  0.3553
  O  O31  1  0.142600  0.597800  0.236500  1.0  -0.3123
  O  O32  1  0.538800  0.677100  0.912400  1.0  -0.7088
  O  O33  1  0.596400  0.733500  0.107600  1.0  -0.6311
  O  O34  1  0.321900  0.246000  0.648200  1.0  -0.6274
  O  O35  1  0.160400  0.315800  0.708000  1.0  -0.6675
  O  O36  1  0.568700  0.952700  0.216200  1.0  -0.3127
  O  O37  1  0.355700  0.518700  0.002300  1.0  -0.8061
  O  O38  1  0.362000  0.576300  0.185700  1.0  -0.5931
  O  O39  1  0.899100  0.190600  0.603500  1.0  -0.2838
  O  O40  1  0.857400  0.402200  0.763500  1.0  -0.3111
  O  O41  1  0.461200  0.322900  0.087600  1.0  -0.7089
  O  O42  1  0.403600  0.266500  0.892400  1.0  -0.6311
  O  O43  1  0.678100  0.754000  0.351800  1.0  -0.6247
  O  O44  1  0.839600  0.684200  0.292000  1.0  -0.6675
  O  O45  1  0.431300  0.047300  0.783800  1.0  -0.3118
  O  O46  1  0.644300  0.481300  0.997700  1.0  -0.806
  O  O47  1  0.638000  0.423700  0.814300  1.0  -0.5946
  O  O48  1  0.100900  0.809400  0.396500  1.0  -0.2827
