# generated using pymatgen
data_NdH4(C4O3)3
_symmetry_space_group_name_H-M   'P 1'
_cell_length_a   10.41950000
_cell_length_b   11.17430000
_cell_length_c   12.56900000
_cell_angle_alpha   102.19800000
_cell_angle_beta   108.53700000
_cell_angle_gamma   98.94400000
_symmetry_Int_Tables_number   1
_chemical_formula_structural   NdH4(C4O3)3
_chemical_formula_sum   'Nd2 H8 C24 O18'
_cell_volume   1316.44685031
_cell_formula_units_Z   2
loop_
 _symmetry_equiv_pos_site_id
 _symmetry_equiv_pos_as_xyz
  1  'x, y, z'
loop_
 _atom_site_type_symbol
 _atom_site_label
 _atom_site_symmetry_multiplicity
 _atom_site_fract_x
 _atom_site_fract_y
 _atom_site_fract_z
 _atom_site_occupancy
 _atom_site_charge
  Nd  Nd1  1  0.398290  0.955600  0.319270  1.0  2.2364
  Nd  Nd2  1  0.601710  0.044400  0.680730  1.0  2.2349
  H  H3  1  0.568700  0.373600  0.706900  1.0  0.406
  H  H4  1  0.239100  0.102200  0.747400  1.0  0.4189
  H  H5  1  0.494300  0.357700  0.335100  1.0  0.1299
  H  H6  1  0.101400  0.938600  0.365100  1.0  0.1115
  H  H7  1  0.431300  0.626400  0.293100  1.0  0.4074
  H  H8  1  0.760900  0.897800  0.252600  1.0  0.4203
  H  H9  1  0.505700  0.642300  0.664900  1.0  0.1296
  H  H10  1  0.898600  0.061400  0.634900  1.0  0.1113
  C  C11  1  0.545600  0.251400  0.506100  1.0  0.8037
  C  C12  1  0.524900  0.381700  0.505700  1.0  -0.2601
  C  C13  1  0.496300  0.414800  0.401600  1.0  -0.1142
  C  C14  1  0.529200  0.468500  0.604900  1.0  0.3365
  C  C15  1  0.138800  0.517300  0.011000  1.0  0.0411
  C  C16  1  0.956500  0.593100  0.063600  1.0  0.3244
  C  C17  1  0.095800  0.611000  0.074400  1.0  -0.1538
  C  C18  1  0.200100  0.730800  0.153400  1.0  0.678
  C  C19  1  0.297400  0.033800  0.572900  1.0  0.7952
  C  C20  1  0.144300  0.015700  0.536200  1.0  -0.2631
  C  C21  1  0.082400  0.052100  0.618400  1.0  0.343
  C  C22  1  0.060500  0.963600  0.419200  1.0  -0.1213
  C  C23  1  0.454400  0.748600  0.493900  1.0  0.8057
  C  C24  1  0.475100  0.618300  0.494300  1.0  -0.2607
  C  C25  1  0.503700  0.585200  0.598400  1.0  -0.1132
  C  C26  1  0.470800  0.531500  0.395100  1.0  0.3336
  C  C27  1  0.861200  0.482700  0.989000  1.0  0.0436
  C  C28  1  0.043500  0.406900  0.936400  1.0  0.325
  C  C29  1  0.904200  0.389000  0.925600  1.0  -0.1495
  C  C30  1  0.799900  0.269200  0.846600  1.0  0.6795
  C  C31  1  0.702600  0.966200  0.427100  1.0  0.7968
  C  C32  1  0.855700  0.984300  0.463800  1.0  -0.2634
  C  C33  1  0.917600  0.947900  0.381600  1.0  0.341
  C  C34  1  0.939500  0.036400  0.580800  1.0  -0.1197
  O  O35  1  0.522300  0.174000  0.409700  1.0  -0.7736
  O  O36  1  0.584500  0.228800  0.604300  1.0  -0.6861
  O  O37  1  0.556500  0.445000  0.712000  1.0  -0.5009
  O  O38  1  0.321200  0.752700  0.153700  1.0  -0.6724
  O  O39  1  0.352800  0.009100  0.497300  1.0  -0.8371
  O  O40  1  0.371000  0.071900  0.681000  1.0  -0.6805
  O  O41  1  0.157000  0.102800  0.734400  1.0  -0.4945
  O  O42  1  0.160700  0.809200  0.217300  1.0  -0.7163
  O  O43  1  0.899100  0.675900  0.117800  1.0  -0.3534
  O  O44  1  0.477700  0.826000  0.590300  1.0  -0.7723
  O  O45  1  0.415500  0.771200  0.395700  1.0  -0.686
  O  O46  1  0.443500  0.555000  0.288000  1.0  -0.5011
  O  O47  1  0.678800  0.247300  0.846300  1.0  -0.6724
  O  O48  1  0.647200  0.990900  0.502700  1.0  -0.8386
  O  O49  1  0.629000  0.928100  0.319000  1.0  -0.6805
  O  O50  1  0.843000  0.897200  0.265600  1.0  -0.4945
  O  O51  1  0.839300  0.190800  0.782700  1.0  -0.7186
  O  O52  1  0.100900  0.324100  0.882200  1.0  -0.3553
