# generated using pymatgen
data_NdH6(C6O5)2
_symmetry_space_group_name_H-M   'P 1'
_cell_length_a   10.52300000
_cell_length_b   11.18400000
_cell_length_c   12.70000000
_cell_angle_alpha   102.98000000
_cell_angle_beta   109.32900000
_cell_angle_gamma   97.76600000
_symmetry_Int_Tables_number   1
_chemical_formula_structural   NdH6(C6O5)2
_chemical_formula_sum   'Nd2 H12 C24 O20'
_cell_volume   1338.23037680
_cell_formula_units_Z   2
loop_
 _symmetry_equiv_pos_site_id
 _symmetry_equiv_pos_as_xyz
  1  'x, y, z'
loop_
 _atom_site_type_symbol
 _atom_site_label
 _atom_site_symmetry_multiplicity
 _atom_site_fract_x
 _atom_site_fract_y
 _atom_site_fract_z
 _atom_site_occupancy
 _atom_site_charge
  Nd  Nd1  1  0.102330  0.546330  0.681320  1.0  2.232
  Nd  Nd2  1  0.897670  0.453670  0.318680  1.0  2.2349
  H  H3  1  0.935500  0.123700  0.293800  1.0  0.38
  H  H4  1  0.256300  0.394500  0.256000  1.0  0.3895
  H  H5  1  0.181900  0.916900  0.949500  1.0  0.3903
  H  H6  1  0.460000  0.230400  0.172500  1.0  0.3549
  H  H7  1  0.005900  0.145900  0.662300  1.0  0.1074
  H  H8  1  0.404200  0.560800  0.637100  1.0  0.0842
  H  H9  1  0.064500  0.876300  0.706200  1.0  0.3794
  H  H10  1  0.743700  0.605500  0.744000  1.0  0.3899
  H  H11  1  0.818100  0.083100  0.050500  1.0  0.3883
  H  H12  1  0.540000  0.769600  0.827500  1.0  0.3551
  H  H13  1  0.994100  0.854100  0.337700  1.0  0.1077
  H  H14  1  0.595800  0.439200  0.362900  1.0  0.0837
  C  C15  1  0.972700  0.030000  0.394500  1.0  0.3235
  C  C16  1  0.978000  0.118900  0.494000  1.0  -0.2816
  C  C17  1  0.004000  0.087000  0.596900  1.0  -0.1399
  C  C18  1  0.959900  0.249800  0.493200  1.0  0.7645
  C  C19  1  0.415500  0.449100  0.382600  1.0  0.3232
  C  C20  1  0.357200  0.484400  0.465900  1.0  -0.2721
  C  C21  1  0.442800  0.535900  0.581900  1.0  -0.1315
  C  C22  1  0.205700  0.468600  0.432000  1.0  0.7363
  C  C23  1  0.362000  0.985400  0.990900  1.0  0.2469
  C  C24  1  0.402600  0.890100  0.926400  1.0  -0.0731
  C  C25  1  0.539900  0.904500  0.935600  1.0  0.2369
  C  C26  1  0.299100  0.770900  0.848100  1.0  0.6919
  C  C27  1  0.027300  0.970000  0.605500  1.0  0.3233
  C  C28  1  0.022000  0.881100  0.506000  1.0  -0.2817
  C  C29  1  0.996000  0.913000  0.403100  1.0  -0.1389
  C  C30  1  0.040100  0.750200  0.506800  1.0  0.7633
  C  C31  1  0.584500  0.550900  0.617400  1.0  0.3238
  C  C32  1  0.642800  0.515600  0.534100  1.0  -0.2721
  C  C33  1  0.557200  0.464100  0.418100  1.0  -0.1289
  C  C34  1  0.794300  0.531400  0.568000  1.0  0.7341
  C  C35  1  0.638000  0.014600  0.009100  1.0  0.2451
  C  C36  1  0.597400  0.109900  0.073600  1.0  -0.073
  C  C37  1  0.460100  0.095500  0.064400  1.0  0.2362
  C  C38  1  0.700900  0.229100  0.151900  1.0  0.6924
  O  O39  1  0.983000  0.327800  0.588200  1.0  -0.766
  O  O40  1  0.923000  0.271300  0.394900  1.0  -0.6894
  O  O41  1  0.947200  0.052000  0.289100  1.0  -0.5259
  O  O42  1  0.153200  0.493200  0.507400  1.0  -0.834
  O  O43  1  0.129700  0.430000  0.324300  1.0  -0.7024
  O  O44  1  0.338200  0.398400  0.267000  1.0  -0.522
  O  O45  1  0.178500  0.752000  0.849200  1.0  -0.6324
  O  O46  1  0.335500  0.691800  0.783700  1.0  -0.6096
  O  O47  1  0.234200  0.984600  0.991600  1.0  -0.5371
  O  O48  1  0.401600  0.181900  0.112000  1.0  -0.5415
  O  O49  1  0.017000  0.672200  0.411800  1.0  -0.7636
  O  O50  1  0.077000  0.728700  0.605100  1.0  -0.6886
  O  O51  1  0.052800  0.948000  0.710900  1.0  -0.5254
  O  O52  1  0.846800  0.506800  0.492600  1.0  -0.8338
  O  O53  1  0.870300  0.570000  0.675700  1.0  -0.7029
  O  O54  1  0.661800  0.601600  0.733000  1.0  -0.5214
  O  O55  1  0.821500  0.248000  0.150800  1.0  -0.6398
  O  O56  1  0.664500  0.308200  0.216300  1.0  -0.6101
  O  O57  1  0.765800  0.015400  0.008400  1.0  -0.5372
  O  O58  1  0.598400  0.818100  0.888000  1.0  -0.5428
