# generated using pymatgen
data_LaH5(C4O3)3
_symmetry_space_group_name_H-M   'P 1'
_cell_length_a   10.53400000
_cell_length_b   11.30000000
_cell_length_c   12.66100000
_cell_angle_alpha   101.90100000
_cell_angle_beta   108.73000000
_cell_angle_gamma   99.04400000
_symmetry_Int_Tables_number   1
_chemical_formula_structural   LaH5(C4O3)3
_chemical_formula_sum   'La2 H10 C24 O18'
_cell_volume   1355.40601265
_cell_formula_units_Z   2
loop_
 _symmetry_equiv_pos_site_id
 _symmetry_equiv_pos_as_xyz
  1  'x, y, z'
loop_
 _atom_site_type_symbol
 _atom_site_label
 _atom_site_symmetry_multiplicity
 _atom_site_fract_x
 _atom_site_fract_y
 _atom_site_fract_z
 _atom_site_occupancy
 _atom_site_charge
  La  La1  1  0.896800  0.455600  0.317680  1.0  2.1512
  La  La2  1  0.103200  0.544400  0.682320  1.0  2.1507
  H  H3  1  0.073900  0.877500  0.706600  1.0  0.3927
  H  H4  1  0.738100  0.605800  0.744800  1.0  0.415
  H  H5  1  0.814100  0.086700  0.057300  1.0  0.4171
  H  H6  1  0.985800  0.856500  0.336700  1.0  0.1212
  H  H7  1  0.599700  0.437700  0.367700  1.0  0.1019
  H  H8  1  0.926100  0.122500  0.293400  1.0  0.3935
  H  H9  1  0.261900  0.394200  0.255200  1.0  0.4164
  H  H10  1  0.185900  0.913300  0.942700  1.0  0.4196
  H  H11  1  0.014200  0.143500  0.663300  1.0  0.1213
  H  H12  1  0.400300  0.562300  0.632300  1.0  0.1026
  C  C13  1  0.031900  0.970100  0.606300  1.0  0.3263
  C  C14  1  0.022900  0.882700  0.505800  1.0  -0.2461
  C  C15  1  0.991500  0.914700  0.402800  1.0  -0.1321
  C  C16  1  0.041400  0.753700  0.507100  1.0  0.7919
  C  C17  1  0.582000  0.551100  0.617700  1.0  0.3204
  C  C18  1  0.643300  0.514400  0.537100  1.0  -0.2706
  C  C19  1  0.559300  0.463200  0.421100  1.0  -0.1306
  C  C20  1  0.793800  0.531100  0.573000  1.0  0.7763
  C  C21  1  0.637500  0.018000  0.012500  1.0  0.2613
  C  C22  1  0.593000  0.110600  0.073200  1.0  -0.2503
  C  C23  1  0.454100  0.092200  0.059300  1.0  0.017
  C  C24  1  0.695500  0.228900  0.149700  1.0  0.698
  C  C25  1  0.968100  0.029900  0.393700  1.0  0.3265
  C  C26  1  0.977100  0.117300  0.494200  1.0  -0.2454
  C  C27  1  0.008500  0.085300  0.597200  1.0  -0.1328
  C  C28  1  0.958600  0.246300  0.492900  1.0  0.7951
  C  C29  1  0.418000  0.448900  0.382300  1.0  0.3204
  C  C30  1  0.356700  0.485600  0.462900  1.0  -0.2704
  C  C31  1  0.440700  0.536800  0.578900  1.0  -0.1297
  C  C32  1  0.206200  0.468900  0.427000  1.0  0.7766
  C  C33  1  0.362500  0.982000  0.987500  1.0  0.2652
  C  C34  1  0.407000  0.889400  0.926800  1.0  -0.2485
  C  C35  1  0.545900  0.907800  0.940700  1.0  0.0188
  C  C36  1  0.304500  0.771100  0.850300  1.0  0.6986
  O  O37  1  0.016000  0.677200  0.412500  1.0  -0.7435
  O  O38  1  0.081300  0.731200  0.605000  1.0  -0.694
  O  O39  1  0.062400  0.948300  0.711500  1.0  -0.506
  O  O40  1  0.849300  0.506500  0.498900  1.0  -0.8102
  O  O41  1  0.867000  0.568700  0.679700  1.0  -0.6807
  O  O42  1  0.655900  0.601200  0.732400  1.0  -0.5012
  O  O43  1  0.814400  0.251500  0.148900  1.0  -0.6479
  O  O44  1  0.655500  0.305900  0.213500  1.0  -0.6884
  O  O45  1  0.762300  0.019600  0.015500  1.0  -0.5004
  O  O46  1  0.984000  0.322800  0.587500  1.0  -0.7417
  O  O47  1  0.918700  0.268800  0.395000  1.0  -0.6946
  O  O48  1  0.937600  0.051700  0.288500  1.0  -0.5074
  O  O49  1  0.150700  0.493500  0.501100  1.0  -0.8087
  O  O50  1  0.133000  0.431300  0.320300  1.0  -0.6792
  O  O51  1  0.344100  0.398800  0.267600  1.0  -0.5019
  O  O52  1  0.185600  0.748500  0.851100  1.0  -0.6424
  O  O53  1  0.344500  0.694100  0.786500  1.0  -0.6911
  O  O54  1  0.237700  0.980400  0.984500  1.0  -0.4996
