# generated using pymatgen
data_SmH6(C4O3)3
_symmetry_space_group_name_H-M   'P 1'
_cell_length_a   10.51520000
_cell_length_b   11.10580000
_cell_length_c   12.73960000
_cell_angle_alpha   103.89100000
_cell_angle_beta   109.70900000
_cell_angle_gamma   96.68400000
_symmetry_Int_Tables_number   1
_chemical_formula_structural   SmH6(C4O3)3
_chemical_formula_sum   'Sm2 H12 C24 O18'
_cell_volume   1327.52924932
_cell_formula_units_Z   2
loop_
 _symmetry_equiv_pos_site_id
 _symmetry_equiv_pos_as_xyz
  1  'x, y, z'
loop_
 _atom_site_type_symbol
 _atom_site_label
 _atom_site_symmetry_multiplicity
 _atom_site_fract_x
 _atom_site_fract_y
 _atom_site_fract_z
 _atom_site_occupancy
 _atom_site_charge
  Sm  Sm1  1  0.897930  0.452230  0.318450  1.0  2.2461
  Sm  Sm2  1  0.102070  0.547770  0.681550  1.0  2.2492
  H  H3  1  0.059700  0.876400  0.705000  1.0  0.3991
  H  H4  1  0.747500  0.606100  0.743200  1.0  0.4154
  H  H5  1  0.815400  0.080900  0.045700  1.0  0.4177
  H  H6  1  0.995800  0.851400  0.337400  1.0  0.124
  H  H7  1  0.591600  0.440000  0.359300  1.0  0.1099
  H  H8  1  0.440100  0.162800  0.113300  1.0  0.1226
  H  H9  1  0.940300  0.123600  0.295000  1.0  0.399
  H  H10  1  0.252500  0.393900  0.256800  1.0  0.4161
  H  H11  1  0.184600  0.919100  0.954300  1.0  0.4186
  H  H12  1  0.004200  0.148600  0.662600  1.0  0.1235
  H  H13  1  0.408400  0.560000  0.640700  1.0  0.1091
  H  H14  1  0.559900  0.837200  0.886700  1.0  0.1237
  C  C15  1  0.024200  0.970700  0.605400  1.0  0.3322
  C  C16  1  0.021800  0.879700  0.506500  1.0  -0.2808
  C  C17  1  0.997500  0.911700  0.402900  1.0  -0.1283
  C  C18  1  0.039700  0.748100  0.507700  1.0  0.8116
  C  C19  1  0.586600  0.551500  0.617600  1.0  0.3295
  C  C20  1  0.643200  0.515600  0.532300  1.0  -0.2691
  C  C21  1  0.554600  0.464300  0.416000  1.0  -0.1192
  C  C22  1  0.794200  0.532200  0.564400  1.0  0.8041
  C  C23  1  0.636000  0.011200  0.004800  1.0  0.3086
  C  C24  1  0.600000  0.109000  0.073400  1.0  -0.253
  C  C25  1  0.463900  0.097300  0.067900  1.0  -0.1236
  C  C26  1  0.704300  0.227800  0.152200  1.0  0.7194
  C  C27  1  0.975800  0.029300  0.394600  1.0  0.3323
  C  C28  1  0.978200  0.120300  0.493500  1.0  -0.2806
  C  C29  1  0.002500  0.088300  0.597100  1.0  -0.129
  C  C30  1  0.960300  0.251900  0.492300  1.0  0.8141
  C  C31  1  0.413400  0.448500  0.382400  1.0  0.3283
  C  C32  1  0.356800  0.484400  0.467700  1.0  -0.2699
  C  C33  1  0.445400  0.535700  0.584000  1.0  -0.119
  C  C34  1  0.205800  0.467800  0.435600  1.0  0.8056
  C  C35  1  0.364000  0.988800  0.995200  1.0  0.31
  C  C36  1  0.400000  0.891000  0.926600  1.0  -0.254
  C  C37  1  0.536100  0.902700  0.932100  1.0  -0.1257
  C  C38  1  0.295700  0.772200  0.847800  1.0  0.7192
  O  O39  1  0.017100  0.667900  0.412200  1.0  -0.7883
  O  O40  1  0.074100  0.726700  0.605500  1.0  -0.6993
  O  O41  1  0.047800  0.948900  0.710000  1.0  -0.5093
  O  O42  1  0.843500  0.507400  0.487200  1.0  -0.832
  O  O43  1  0.872300  0.571500  0.671900  1.0  -0.7161
  O  O44  1  0.665700  0.602600  0.733100  1.0  -0.5076
  O  O45  1  0.824100  0.244300  0.150600  1.0  -0.6839
  O  O46  1  0.669500  0.310200  0.217400  1.0  -0.7148
  O  O47  1  0.763800  0.012700  0.002900  1.0  -0.5231
  O  O48  1  0.982900  0.332100  0.587800  1.0  -0.7885
  O  O49  1  0.925900  0.273300  0.394500  1.0  -0.7005
  O  O50  1  0.952200  0.051100  0.290000  1.0  -0.5091
  O  O51  1  0.156500  0.492600  0.512800  1.0  -0.8323
  O  O52  1  0.127700  0.428500  0.328100  1.0  -0.715
  O  O53  1  0.334300  0.397400  0.266900  1.0  -0.5068
  O  O54  1  0.175900  0.755700  0.849400  1.0  -0.6712
  O  O55  1  0.330500  0.689800  0.782600  1.0  -0.7178
  O  O56  1  0.236200  0.987300  0.997100  1.0  -0.5211
