# generated using pymatgen
data_GdH6(C4O3)3
_symmetry_space_group_name_H-M   'P 1'
_cell_length_a   10.52260000
_cell_length_b   11.05450000
_cell_length_c   12.77110000
_cell_angle_alpha   103.82600000
_cell_angle_beta   110.02400000
_cell_angle_gamma   96.60200000
_symmetry_Int_Tables_number   1
_chemical_formula_structural   GdH6(C4O3)3
_chemical_formula_sum   'Gd2 H12 C24 O18'
_cell_volume   1323.40873461
_cell_formula_units_Z   2
loop_
 _symmetry_equiv_pos_site_id
 _symmetry_equiv_pos_as_xyz
  1  'x, y, z'
loop_
 _atom_site_type_symbol
 _atom_site_label
 _atom_site_symmetry_multiplicity
 _atom_site_fract_x
 _atom_site_fract_y
 _atom_site_fract_z
 _atom_site_occupancy
 _atom_site_charge
  Gd  Gd1  1  0.896960  0.452170  0.318320  1.0  2.1605
  Gd  Gd2  1  0.103040  0.547830  0.681680  1.0  2.1587
  H  H3  1  0.056900  0.874300  0.703200  1.0  0.3996
  H  H4  1  0.751700  0.604600  0.742200  1.0  0.4174
  H  H5  1  0.816000  0.083500  0.046700  1.0  0.4144
  H  H6  1  0.998200  0.851300  0.339300  1.0  0.1234
  H  H7  1  0.588200  0.440700  0.357600  1.0  0.112
  H  H8  1  0.441000  0.162800  0.113800  1.0  0.1242
  H  H9  1  0.943100  0.125700  0.296800  1.0  0.4004
  H  H10  1  0.248300  0.395400  0.257800  1.0  0.4172
  H  H11  1  0.184000  0.916500  0.953300  1.0  0.4159
  H  H12  1  0.001800  0.148700  0.660700  1.0  0.1229
  H  H13  1  0.411800  0.559300  0.642400  1.0  0.1116
  H  H14  1  0.559000  0.837200  0.886200  1.0  0.1255
  C  C15  1  0.023500  0.970100  0.605200  1.0  0.3239
  C  C16  1  0.021800  0.878800  0.506600  1.0  -0.2705
  C  C17  1  0.998700  0.911600  0.404200  1.0  -0.1244
  C  C18  1  0.038600  0.746400  0.507200  1.0  0.8006
  C  C19  1  0.589000  0.550800  0.617500  1.0  0.3121
  C  C20  1  0.642700  0.515400  0.530700  1.0  -0.2607
  C  C21  1  0.552500  0.464800  0.414900  1.0  -0.1164
  C  C22  1  0.793700  0.531300  0.561100  1.0  0.7899
  C  C23  1  0.635900  0.011600  0.004900  1.0  0.3157
  C  C24  1  0.599900  0.109100  0.073600  1.0  -0.2511
  C  C25  1  0.464500  0.097200  0.068100  1.0  -0.1288
  C  C26  1  0.704700  0.228400  0.153300  1.0  0.7016
  C  C27  1  0.976500  0.029900  0.394800  1.0  0.3238
  C  C28  1  0.978200  0.121200  0.493400  1.0  -0.2705
  C  C29  1  0.001300  0.088400  0.595800  1.0  -0.1262
  C  C30  1  0.961400  0.253600  0.492800  1.0  0.8019
  C  C31  1  0.411000  0.449200  0.382500  1.0  0.3124
  C  C32  1  0.357300  0.484600  0.469300  1.0  -0.2611
  C  C33  1  0.447500  0.535200  0.585100  1.0  -0.1167
  C  C34  1  0.206300  0.468700  0.438900  1.0  0.7927
  C  C35  1  0.364100  0.988400  0.995100  1.0  0.3178
  C  C36  1  0.400100  0.890900  0.926400  1.0  -0.2523
  C  C37  1  0.535500  0.902800  0.931900  1.0  -0.1299
  C  C38  1  0.295300  0.771600  0.846700  1.0  0.7013
  O  O39  1  0.016600  0.666300  0.412400  1.0  -0.7691
  O  O40  1  0.073100  0.725500  0.605700  1.0  -0.7017
  O  O41  1  0.045000  0.947200  0.708300  1.0  -0.5076
  O  O42  1  0.841000  0.506300  0.482400  1.0  -0.8198
  O  O43  1  0.874400  0.570000  0.668300  1.0  -0.6982
  O  O44  1  0.670200  0.601500  0.733000  1.0  -0.5076
  O  O45  1  0.824500  0.245600  0.151600  1.0  -0.6878
  O  O46  1  0.670700  0.310100  0.219300  1.0  -0.6552
  O  O47  1  0.764900  0.014800  0.003600  1.0  -0.4989
  O  O48  1  0.983400  0.333700  0.587600  1.0  -0.7683
  O  O49  1  0.926900  0.274500  0.394300  1.0  -0.7022
  O  O50  1  0.955000  0.052800  0.291700  1.0  -0.5076
  O  O51  1  0.159000  0.493700  0.517600  1.0  -0.8207
  O  O52  1  0.125600  0.430000  0.331700  1.0  -0.6986
  O  O53  1  0.329800  0.398500  0.267000  1.0  -0.5075
  O  O54  1  0.175500  0.754400  0.848400  1.0  -0.6824
  O  O55  1  0.329300  0.689900  0.780700  1.0  -0.6579
  O  O56  1  0.235100  0.985200  0.996400  1.0  -0.4974
