# generated using pymatgen
data_GdH6(C4O3)3
_symmetry_space_group_name_H-M   'P 1'
_cell_length_a   10.41400000
_cell_length_b   10.95400000
_cell_length_c   12.43200000
_cell_angle_alpha   104.28600000
_cell_angle_beta   106.96100000
_cell_angle_gamma   98.02700000
_symmetry_Int_Tables_number   1
_chemical_formula_structural   GdH6(C4O3)3
_chemical_formula_sum   'Gd2 H12 C24 O18'
_cell_volume   1279.82702694
_cell_formula_units_Z   2
loop_
 _symmetry_equiv_pos_site_id
 _symmetry_equiv_pos_as_xyz
  1  'x, y, z'
loop_
 _atom_site_type_symbol
 _atom_site_label
 _atom_site_symmetry_multiplicity
 _atom_site_fract_x
 _atom_site_fract_y
 _atom_site_fract_z
 _atom_site_occupancy
 _atom_site_charge
  Gd  Gd1  1  0.893520  0.924230  0.806210  1.0  2.1968
  Gd  Gd2  1  0.094330  0.066870  0.194360  1.0  2.1755
  H  H3  1  0.304590  0.506160  0.191190  1.0  0.3331
  H  H4  1  0.612380  0.050580  0.861560  1.0  0.1187
  H  H5  1  0.782310  0.318280  0.883230  1.0  0.1264
  H  H6  1  0.576220  0.921020  0.245950  1.0  0.3606
  H  H7  1  0.740620  0.638430  0.902020  1.0  0.268
  H  H8  1  0.373960  0.961420  0.135930  1.0  0.1129
  H  H9  1  0.198790  0.663030  0.133890  1.0  0.1106
  H  H10  1  0.287760  0.134930  0.816500  1.0  0.3893
  H  H11  1  0.439660  0.656600  0.635750  1.0  0.1245
  H  H12  1  0.559920  0.328620  0.350260  1.0  0.112
  H  H13  1  0.810540  0.619500  0.489290  1.0  0.3811
  H  H14  1  0.216820  0.533240  0.559720  1.0  0.3779
  C  C15  1  0.634000  0.510930  0.487210  1.0  0.276
  C  C16  1  0.466300  0.586260  0.572660  1.0  -0.1599
  C  C17  1  0.705770  0.719090  0.659030  1.0  0.6572
  C  C18  1  0.564440  0.971310  0.097130  1.0  0.2986
  C  C19  1  0.560930  0.028860  0.921050  1.0  -0.1244
  C  C20  1  0.987890  0.215480  0.992060  1.0  0.6754
  C  C21  1  0.990570  0.357230  0.004440  1.0  -0.1973
  C  C22  1  0.107720  0.457840  0.076610  1.0  0.2359
  C  C23  1  0.874610  0.392320  0.938110  1.0  -0.085
  C  C24  1  0.785790  0.996380  0.047650  1.0  0.6996
  C  C25  1  0.633480  0.992960  0.018070  1.0  -0.1836
  C  C26  1  0.601530  0.604570  0.570950  1.0  -0.1818
  C  C27  1  0.364590  0.477070  0.494830  1.0  0.2982
  C  C28  1  0.533630  0.399430  0.413260  1.0  -0.129
  C  C29  1  0.291990  0.268260  0.330510  1.0  0.6737
  C  C30  1  0.425250  0.046400  0.903380  1.0  0.2746
  C  C31  1  0.426250  0.984110  0.077300  1.0  -0.1677
  C  C32  1  0.999310  0.762200  0.013910  1.0  0.7367
  C  C33  1  0.991720  0.622590  0.011620  1.0  -0.19
  C  C34  1  0.872820  0.521830  0.941950  1.0  0.2687
  C  C35  1  0.106940  0.588150  0.079750  1.0  -0.1816
  C  C36  1  0.200870  0.015290  0.950510  1.0  0.6547
  C  C37  1  0.353910  0.021270  0.980790  1.0  -0.1617
  C  C38  1  0.398570  0.382490  0.414620  1.0  -0.1479
  O  O39  1  0.863640  0.036750  0.153890  1.0  -0.6924
  O  O40  1  0.850280  0.972460  0.975120  1.0  -0.7299
  O  O41  1  0.894550  0.130570  0.903100  1.0  -0.6945
  O  O42  1  0.086940  0.181130  0.059240  1.0  -0.5857
  O  O43  1  0.834980  0.727250  0.683170  1.0  -0.6786
  O  O44  1  0.674520  0.817920  0.717440  1.0  -0.6752
  O  O45  1  0.226220  0.427960  0.142380  1.0  -0.4919
  O  O46  1  0.633310  0.934670  0.194590  1.0  -0.4996
  O  O47  1  0.761730  0.526450  0.470600  1.0  -0.4965
  O  O48  1  0.123890  0.978590  0.843920  1.0  -0.6474
  O  O49  1  0.133470  0.035350  0.022020  1.0  -0.6426
  O  O50  1  0.064390  0.850270  0.113450  1.0  -0.7045
  O  O51  1  0.941970  0.785150  0.916070  1.0  -0.6765
  O  O52  1  0.164790  0.271590  0.297740  1.0  -0.6348
  O  O53  1  0.317420  0.158840  0.286420  1.0  -0.6744
  O  O54  1  0.748810  0.545500  0.878350  1.0  -0.5004
  O  O55  1  0.367300  0.093700  0.809940  1.0  -0.5195
  O  O56  1  0.230510  0.460330  0.498830  1.0  -0.4826
