# generated using pymatgen
data_ErH6(C4O3)3
_symmetry_space_group_name_H-M   'P 1'
_cell_length_a   10.55070000
_cell_length_b   10.92650000
_cell_length_c   12.89780000
_cell_angle_alpha   103.18400000
_cell_angle_beta   111.14700000
_cell_angle_gamma   96.56600000
_symmetry_Int_Tables_number   1
_chemical_formula_structural   ErH6(C4O3)3
_chemical_formula_sum   'Er2 H12 C24 O18'
_cell_volume   1318.17197917
_cell_formula_units_Z   2
loop_
 _symmetry_equiv_pos_site_id
 _symmetry_equiv_pos_as_xyz
  1  'x, y, z'
loop_
 _atom_site_type_symbol
 _atom_site_label
 _atom_site_symmetry_multiplicity
 _atom_site_fract_x
 _atom_site_fract_y
 _atom_site_fract_z
 _atom_site_occupancy
 _atom_site_charge
  Er  Er1  1  0.893540  0.453470  0.317330  1.0  1.5152
  Er  Er2  1  0.106460  0.546530  0.682670  1.0  1.5147
  H  H3  1  0.053200  0.870000  0.701600  1.0  0.4139
  H  H4  1  0.763400  0.596000  0.737200  1.0  0.4076
  H  H5  1  0.816000  0.088400  0.049400  1.0  0.4235
  H  H6  1  0.000900  0.852000  0.341300  1.0  0.1383
  H  H7  1  0.577100  0.444800  0.352600  1.0  0.1256
  H  H8  1  0.440200  0.160800  0.112700  1.0  0.1325
  H  H9  1  0.946800  0.130000  0.298400  1.0  0.4132
  H  H10  1  0.236600  0.404000  0.262800  1.0  0.4088
  H  H11  1  0.184000  0.911600  0.950600  1.0  0.4245
  H  H12  1  0.999100  0.148000  0.658700  1.0  0.138
  H  H13  1  0.422900  0.555200  0.647400  1.0  0.1248
  H  H14  1  0.559800  0.839200  0.887300  1.0  0.1335
  C  C15  1  0.021000  0.967800  0.603100  1.0  0.3499
  C  C16  1  0.020900  0.877100  0.506400  1.0  -0.2399
  C  C17  1  0.000300  0.911700  0.405300  1.0  -0.1101
  C  C18  1  0.036800  0.743300  0.507600  1.0  0.7678
  C  C19  1  0.595400  0.547000  0.615800  1.0  0.3627
  C  C20  1  0.642200  0.513900  0.527300  1.0  -0.2308
  C  C21  1  0.545700  0.467000  0.411800  1.0  -0.091
  C  C22  1  0.793200  0.527800  0.551600  1.0  0.7629
  C  C23  1  0.636000  0.013200  0.005900  1.0  0.3388
  C  C24  1  0.600700  0.110300  0.075300  1.0  -0.2267
  C  C25  1  0.464200  0.095900  0.067600  1.0  -0.1138
  C  C26  1  0.704600  0.230200  0.154300  1.0  0.6902
  C  C27  1  0.979000  0.032200  0.396900  1.0  0.3502
  C  C28  1  0.979100  0.122900  0.493600  1.0  -0.2398
  C  C29  1  0.999700  0.088300  0.594700  1.0  -0.1096
  C  C30  1  0.963200  0.256700  0.492400  1.0  0.7683
  C  C31  1  0.404600  0.453000  0.384200  1.0  0.3628
  C  C32  1  0.357800  0.486100  0.472700  1.0  -0.2311
  C  C33  1  0.454300  0.533000  0.588200  1.0  -0.0902
  C  C34  1  0.206800  0.472200  0.448400  1.0  0.7626
  C  C35  1  0.364000  0.986800  0.994100  1.0  0.3392
  C  C36  1  0.399300  0.889700  0.924700  1.0  -0.2278
  C  C37  1  0.535800  0.904100  0.932400  1.0  -0.1162
  C  C38  1  0.295400  0.769800  0.845700  1.0  0.6886
  O  O39  1  0.014900  0.662800  0.413400  1.0  -0.6882
  O  O40  1  0.071700  0.719900  0.605100  1.0  -0.6382
  O  O41  1  0.041100  0.943500  0.706000  1.0  -0.4637
  O  O42  1  0.831800  0.503100  0.469900  1.0  -0.7157
  O  O43  1  0.879200  0.564800  0.657200  1.0  -0.666
  O  O44  1  0.682800  0.593900  0.730300  1.0  -0.4738
  O  O45  1  0.826300  0.249700  0.155200  1.0  -0.6511
  O  O46  1  0.671800  0.312000  0.219900  1.0  -0.6509
  O  O47  1  0.765200  0.019100  0.005800  1.0  -0.4725
  O  O48  1  0.985100  0.337200  0.586600  1.0  -0.6876
  O  O49  1  0.928300  0.280100  0.394900  1.0  -0.6372
  O  O50  1  0.958900  0.056500  0.294000  1.0  -0.4641
  O  O51  1  0.168200  0.496900  0.530100  1.0  -0.7147
  O  O52  1  0.120800  0.435200  0.342800  1.0  -0.666
  O  O53  1  0.317200  0.406100  0.269700  1.0  -0.4752
  O  O54  1  0.173700  0.750300  0.844800  1.0  -0.6437
  O  O55  1  0.328200  0.688000  0.780100  1.0  -0.6511
  O  O56  1  0.234800  0.980900  0.994200  1.0  -0.4711
