# generated using pymatgen
data_Co2H10C15N3O7
_symmetry_space_group_name_H-M   'P 1'
_cell_length_a   10.18450000
_cell_length_b   20.87470000
_cell_length_c   10.70700000
_cell_angle_alpha   90.00000000
_cell_angle_beta   101.87600000
_cell_angle_gamma   90.00000000
_symmetry_Int_Tables_number   1
_chemical_formula_structural   Co2H10C15N3O7
_chemical_formula_sum   'Co8 H40 C60 N12 O28'
_cell_volume   2227.56749483
_cell_formula_units_Z   4
loop_
 _symmetry_equiv_pos_site_id
 _symmetry_equiv_pos_as_xyz
  1  'x, y, z'
loop_
 _atom_site_type_symbol
 _atom_site_label
 _atom_site_symmetry_multiplicity
 _atom_site_fract_x
 _atom_site_fract_y
 _atom_site_fract_z
 _atom_site_occupancy
 _atom_site_charge
  Co  Co1  1  0.914620  0.449350  0.559780  1.0  0.9561
  Co  Co2  1  0.077060  0.385940  0.364180  1.0  0.9729
  Co  Co3  1  0.585380  0.949350  0.940220  1.0  0.956
  Co  Co4  1  0.422940  0.885940  0.135820  1.0  0.9747
  Co  Co5  1  0.085380  0.550650  0.440220  1.0  0.9574
  Co  Co6  1  0.922940  0.614060  0.635820  1.0  0.9755
  Co  Co7  1  0.414620  0.050650  0.059780  1.0  0.9557
  Co  Co8  1  0.577060  0.114060  0.864180  1.0  0.9739
  H  H9  1  0.161000  0.453800  0.558000  1.0  0.4117
  H  H10  1  0.377300  0.588100  0.040000  1.0  0.1201
  H  H11  1  0.413400  0.397800  0.009100  1.0  0.114
  H  H12  1  0.224800  0.439900  0.084700  1.0  0.113
  H  H13  1  0.220700  0.513600  0.120000  1.0  0.1088
  H  H14  1  0.116800  0.409200  0.842300  1.0  0.1065
  H  H15  1  0.085700  0.589500  0.939500  1.0  0.1074
  H  H16  1  0.834600  0.248200  0.667700  1.0  0.1105
  H  H17  1  0.046300  0.101700  0.852600  1.0  0.1018
  H  H18  1  0.230900  0.233200  0.673800  1.0  0.1059
  H  H19  1  0.339000  0.953800  0.942000  1.0  0.4109
  H  H20  1  0.122700  0.088100  0.460000  1.0  0.1202
  H  H21  1  0.086600  0.897800  0.490900  1.0  0.114
  H  H22  1  0.275200  0.939900  0.415300  1.0  0.1126
  H  H23  1  0.279300  0.013600  0.380000  1.0  0.1083
  H  H24  1  0.383200  0.909200  0.657700  1.0  0.1062
  H  H25  1  0.414300  0.089500  0.560500  1.0  0.1078
  H  H26  1  0.665400  0.748200  0.832300  1.0  0.1108
  H  H27  1  0.453700  0.601700  0.647400  1.0  0.1021
  H  H28  1  0.269100  0.733200  0.826200  1.0  0.106
  H  H29  1  0.839000  0.546200  0.442000  1.0  0.4127
  H  H30  1  0.622700  0.411900  0.960000  1.0  0.1203
  H  H31  1  0.586600  0.602200  0.990900  1.0  0.1138
  H  H32  1  0.775200  0.560100  0.915300  1.0  0.1127
  H  H33  1  0.779300  0.486400  0.880000  1.0  0.1088
  H  H34  1  0.883200  0.590800  0.157700  1.0  0.1057
  H  H35  1  0.914300  0.410500  0.060500  1.0  0.108
  H  H36  1  0.165400  0.751800  0.332300  1.0  0.1105
  H  H37  1  0.953700  0.898300  0.147400  1.0  0.1018
  H  H38  1  0.769100  0.766800  0.326200  1.0  0.1061
  H  H39  1  0.661000  0.046200  0.058000  1.0  0.4133
  H  H40  1  0.877300  0.911900  0.540000  1.0  0.1199
  H  H41  1  0.913400  0.102200  0.509100  1.0  0.1142
  H  H42  1  0.724800  0.060100  0.584700  1.0  0.1124
  H  H43  1  0.720700  0.986400  0.620000  1.0  0.1098
  H  H44  1  0.616800  0.090800  0.342300  1.0  0.1062
  H  H45  1  0.585700  0.910500  0.439500  1.0  0.1086
  H  H46  1  0.334600  0.251800  0.167700  1.0  0.1106
  H  H47  1  0.546300  0.398300  0.352600  1.0  0.1015
  H  H48  1  0.730900  0.266800  0.173800  1.0  0.1056
  C  C49  1  0.374200  0.491940  0.029000  1.0  0.062
  C  C50  1  0.426900  0.552210  0.023700  1.0  -0.0712
  C  C51  1  0.448100  0.439300  0.005400  1.0  -0.111
  C  C52  1  0.234900  0.483400  0.053900  1.0  -0.0646
  C  C53  1  0.091500  0.452510  0.840400  1.0  0.1411
  C  C54  1  0.074400  0.550830  0.893600  1.0  0.14
  C  C55  1  0.032600  0.250890  0.661100  1.0  -0.1274
  C  C56  1  0.916500  0.226380  0.693100  1.0  -0.0329
  C  C57  1  0.921500  0.170010  0.762300  1.0  -0.156
  C  C58  1  0.042700  0.139110  0.803100  1.0  -0.0134
  C  C59  1  0.160200  0.162870  0.771800  1.0  -0.1564
  C  C60  1  0.153300  0.217920  0.698600  1.0  -0.0132
  C  C61  1  0.029500  0.312790  0.589600  1.0  0.7032
  C  C62  1  0.796400  0.143960  0.798200  1.0  0.6587
  C  C63  1  0.292200  0.131130  0.823300  1.0  0.6915
  C  C64  1  0.125800  0.991940  0.471000  1.0  0.0626
  C  C65  1  0.073100  0.052210  0.476300  1.0  -0.0699
  C  C66  1  0.051900  0.939300  0.494600  1.0  -0.1094
  C  C67  1  0.265100  0.983400  0.446100  1.0  -0.0607
  C  C68  1  0.408500  0.952510  0.659600  1.0  0.141
  C  C69  1  0.425600  0.050830  0.606400  1.0  0.1399
  C  C70  1  0.467400  0.750890  0.838900  1.0  -0.1275
  C  C71  1  0.583500  0.726380  0.806900  1.0  -0.0316
  C  C72  1  0.578500  0.670010  0.737700  1.0  -0.157
  C  C73  1  0.457300  0.639110  0.696900  1.0  -0.0145
  C  C74  1  0.339800  0.662870  0.728200  1.0  -0.157
  C  C75  1  0.346700  0.717920  0.801400  1.0  -0.0139
  C  C76  1  0.470500  0.812790  0.910400  1.0  0.7041
  C  C77  1  0.703600  0.643960  0.701800  1.0  0.6589
  C  C78  1  0.207800  0.631130  0.676700  1.0  0.6912
  C  C79  1  0.625800  0.508060  0.971000  1.0  0.0628
  C  C80  1  0.573100  0.447790  0.976300  1.0  -0.0699
  C  C81  1  0.551900  0.560700  0.994600  1.0  -0.1105
  C  C82  1  0.765100  0.516600  0.946100  1.0  -0.0603
  C  C83  1  0.908500  0.547490  0.159600  1.0  0.1409
  C  C84  1  0.925600  0.449170  0.106400  1.0  0.1404
  C  C85  1  0.967400  0.749110  0.338900  1.0  -0.1276
  C  C86  1  0.083500  0.773620  0.306900  1.0  -0.0317
  C  C87  1  0.078500  0.829990  0.237700  1.0  -0.1567
  C  C88  1  0.957300  0.860890  0.196900  1.0  -0.0143
  C  C89  1  0.839800  0.837130  0.228200  1.0  -0.1576
  C  C90  1  0.846700  0.782080  0.301400  1.0  -0.0134
  C  C91  1  0.970500  0.687210  0.410400  1.0  0.7039
  C  C92  1  0.203600  0.856040  0.201800  1.0  0.6586
  C  C93  1  0.707800  0.868870  0.176700  1.0  0.6914
  C  C94  1  0.874200  0.008060  0.529000  1.0  0.0621
  C  C95  1  0.926900  0.947790  0.523700  1.0  -0.0693
  C  C96  1  0.948100  0.060700  0.505400  1.0  -0.1114
  C  C97  1  0.734900  0.016600  0.553900  1.0  -0.0641
  C  C98  1  0.591500  0.047490  0.340400  1.0  0.1416
  C  C99  1  0.574400  0.949170  0.393600  1.0  0.1406
  C  C100  1  0.532600  0.249110  0.161100  1.0  -0.1278
  C  C101  1  0.416500  0.273620  0.193100  1.0  -0.0328
  C  C102  1  0.421500  0.329990  0.262300  1.0  -0.1564
  C  C103  1  0.542700  0.360890  0.303100  1.0  -0.0133
  C  C104  1  0.660200  0.337130  0.271800  1.0  -0.1572
  C  C105  1  0.653300  0.282080  0.198600  1.0  -0.0128
  C  C106  1  0.529500  0.187210  0.089600  1.0  0.7031
  C  C107  1  0.296400  0.356040  0.298200  1.0  0.6591
  C  C108  1  0.792200  0.368870  0.323300  1.0  0.6916
  N  N109  1  0.010600  0.480160  0.745400  1.0  -0.2075
  N  N110  1  0.998800  0.543600  0.779700  1.0  -0.2363
  N  N111  1  0.133900  0.494840  0.935500  1.0  0.0515
  N  N112  1  0.489400  0.980160  0.754600  1.0  -0.2057
  N  N113  1  0.501200  0.043600  0.720300  1.0  -0.236
  N  N114  1  0.366100  0.994840  0.564500  1.0  0.0518
  N  N115  1  0.989400  0.519840  0.254600  1.0  -0.2059
  N  N116  1  0.001200  0.456400  0.220300  1.0  -0.2355
  N  N117  1  0.866100  0.505160  0.064500  1.0  0.0518
  N  N118  1  0.510600  0.019840  0.245400  1.0  -0.206
  N  N119  1  0.498800  0.956400  0.279700  1.0  -0.2366
  N  N120  1  0.633900  0.005160  0.435500  1.0  0.0515
  O  O121  1  0.947090  0.354480  0.613100  1.0  -0.6393
  O  O122  1  0.109130  0.318660  0.514900  1.0  -0.5706
  O  O123  1  0.683450  0.167200  0.748300  1.0  -0.5992
  O  O124  1  0.805390  0.099670  0.877600  1.0  -0.595
  O  O125  1  0.292050  0.079020  0.882300  1.0  -0.6359
  O  O126  1  0.396390  0.159090  0.805000  1.0  -0.5789
  O  O127  1  0.093790  0.456030  0.492900  1.0  -0.9758
  O  O128  1  0.552910  0.854480  0.886900  1.0  -0.639
  O  O129  1  0.390870  0.818660  0.985100  1.0  -0.5704
  O  O130  1  0.816550  0.667200  0.751700  1.0  -0.5989
  O  O131  1  0.694610  0.599670  0.622400  1.0  -0.5938
  O  O132  1  0.207950  0.579020  0.617700  1.0  -0.6349
  O  O133  1  0.103610  0.659090  0.695000  1.0  -0.5792
  O  O134  1  0.406210  0.956030  0.007100  1.0  -0.9749
  O  O135  1  0.052910  0.645520  0.386900  1.0  -0.6386
  O  O136  1  0.890870  0.681340  0.485100  1.0  -0.5701
  O  O137  1  0.316550  0.832800  0.251700  1.0  -0.6003
  O  O138  1  0.194610  0.900330  0.122400  1.0  -0.5941
  O  O139  1  0.707950  0.920980  0.117700  1.0  -0.635
  O  O140  1  0.603610  0.840910  0.195000  1.0  -0.5798
  O  O141  1  0.906210  0.543970  0.507100  1.0  -0.9747
  O  O142  1  0.447090  0.145520  0.113100  1.0  -0.6396
  O  O143  1  0.609130  0.181340  0.014900  1.0  -0.5706
  O  O144  1  0.183450  0.332800  0.248300  1.0  -0.6007
  O  O145  1  0.305390  0.400330  0.377600  1.0  -0.596
  O  O146  1  0.792050  0.420980  0.382300  1.0  -0.6361
  O  O147  1  0.896390  0.340910  0.305000  1.0  -0.5791
  O  O148  1  0.593790  0.043970  0.992900  1.0  -0.9757
