# generated using pymatgen
data_Mn3Mo12(P4O25)2
_symmetry_space_group_name_H-M   'P 1'
_cell_length_a   11.96770000
_cell_length_b   12.20120000
_cell_length_c   14.73860000
_cell_angle_alpha   67.61300000
_cell_angle_beta   74.52700000
_cell_angle_gamma   63.72400000
_symmetry_Int_Tables_number   1
_chemical_formula_structural   Mn3Mo12(P4O25)2
_chemical_formula_sum   'Mn3 Mo12 P8 O50'
_cell_volume   1771.76312063
_cell_formula_units_Z   1
loop_
 _symmetry_equiv_pos_site_id
 _symmetry_equiv_pos_as_xyz
  1  'x, y, z'
loop_
 _atom_site_type_symbol
 _atom_site_label
 _atom_site_symmetry_multiplicity
 _atom_site_fract_x
 _atom_site_fract_y
 _atom_site_fract_z
 _atom_site_occupancy
 _atom_site_charge
  Mn  Mn1  1  0.261650  0.837020  0.008730  1.0  1.2124
  Mn  Mn2  1  0.738350  0.162980  0.991270  1.0  1.2089
  Mn  Mn3  1  0.500000  0.000000  0.500000  1.0  1.0709
  Mo  Mo4  1  0.279200  0.296880  0.324190  1.0  1.2998
  Mo  Mo5  1  0.747300  0.805120  0.335910  1.0  1.2834
  Mo  Mo6  1  0.529530  0.810780  0.332170  1.0  1.3218
  Mo  Mo7  1  0.574480  0.292070  0.326560  1.0  1.3103
  Mo  Mo8  1  0.774060  0.083700  0.329960  1.0  1.3043
  Mo  Mo9  1  0.263630  0.093940  0.321710  1.0  1.3061
  Mo  Mo10  1  0.720800  0.703120  0.675810  1.0  1.2961
  Mo  Mo11  1  0.252700  0.194880  0.664090  1.0  1.2845
  Mo  Mo12  1  0.470470  0.189220  0.667830  1.0  1.3242
  Mo  Mo13  1  0.425520  0.707930  0.673440  1.0  1.3081
  Mo  Mo14  1  0.225940  0.916300  0.670040  1.0  1.3086
  Mo  Mo15  1  0.736370  0.906060  0.678290  1.0  1.304
  P  P16  1  0.551760  0.108380  0.212320  1.0  1.8503
  P  P17  1  0.385210  0.513080  0.158150  1.0  1.6842
  P  P18  1  0.306160  0.903770  0.194540  1.0  1.7861
  P  P19  1  0.934020  0.928380  0.164960  1.0  1.7184
  P  P20  1  0.448240  0.891620  0.787680  1.0  1.8516
  P  P21  1  0.614790  0.486920  0.841850  1.0  1.6835
  P  P22  1  0.693840  0.096230  0.805460  1.0  1.7861
  P  P23  1  0.065980  0.071620  0.835040  1.0  1.717
  O  O24  1  0.614000  0.115800  0.417600  1.0  -0.736
  O  O25  1  0.586800  0.858600  0.420300  1.0  -0.7292
  O  O26  1  0.338600  0.118900  0.413100  1.0  -0.7265
  O  O27  1  0.814000  0.885500  0.405300  1.0  -0.674
  O  O28  1  0.386700  0.332300  0.395600  1.0  -0.5924
  O  O29  1  0.675400  0.021800  0.261100  1.0  -0.7884
  O  O30  1  0.248000  0.256300  0.220800  1.0  -0.6036
  O  O31  1  0.347600  0.896300  0.396400  1.0  -0.6223
  O  O32  1  0.483700  0.224600  0.254700  1.0  -0.7821
  O  O33  1  0.675500  0.801500  0.234200  1.0  -0.621
  O  O34  1  0.716900  0.247500  0.228500  1.0  -0.6031
  O  O35  1  0.468500  0.028600  0.250600  1.0  -0.7999
  O  O36  1  0.080700  0.866300  0.137400  1.0  -0.6928
  O  O37  1  0.871800  0.992000  0.072600  1.0  -0.7281
  O  O38  1  0.576600  0.155000  0.101300  1.0  -0.7411
  O  O39  1  0.898300  0.813900  0.233700  1.0  -0.6301
  O  O40  1  0.252900  0.035700  0.212400  1.0  -0.6509
  O  O41  1  0.913100  0.018100  0.224000  1.0  -0.682
  O  O42  1  0.309400  0.925700  0.085600  1.0  -0.6208
  O  O43  1  0.494400  0.460500  0.218800  1.0  -0.6877
  O  O44  1  0.441700  0.828200  0.222800  1.0  -0.6538
  O  O45  1  0.279500  0.469600  0.221600  1.0  -0.6377
  O  O46  1  0.433500  0.446400  0.073900  1.0  -0.403
  O  O47  1  0.222800  0.828600  0.258400  1.0  -0.4686
  O  O48  1  0.347300  0.653600  0.112500  1.0  -0.7312
  O  O49  1  0.386000  0.884200  0.582400  1.0  -0.734
  O  O50  1  0.413200  0.141400  0.579700  1.0  -0.7302
  O  O51  1  0.661400  0.881100  0.586900  1.0  -0.7288
  O  O52  1  0.186000  0.114500  0.594700  1.0  -0.671
  O  O53  1  0.613300  0.667700  0.604400  1.0  -0.5941
  O  O54  1  0.324600  0.978200  0.738900  1.0  -0.7879
  O  O55  1  0.752000  0.743700  0.779200  1.0  -0.6066
  O  O56  1  0.652400  0.103700  0.603600  1.0  -0.6215
  O  O57  1  0.516300  0.775400  0.745300  1.0  -0.7817
  O  O58  1  0.324500  0.198500  0.765800  1.0  -0.6192
  O  O59  1  0.283100  0.752500  0.771500  1.0  -0.6005
  O  O60  1  0.531500  0.971400  0.749400  1.0  -0.8021
  O  O61  1  0.919300  0.133700  0.862600  1.0  -0.6942
  O  O62  1  0.128200  0.008000  0.927400  1.0  -0.7294
  O  O63  1  0.423400  0.845000  0.898700  1.0  -0.7431
  O  O64  1  0.101700  0.186100  0.766300  1.0  -0.6312
  O  O65  1  0.747100  0.964300  0.787600  1.0  -0.6506
  O  O66  1  0.086900  0.981900  0.776000  1.0  -0.6829
  O  O67  1  0.690600  0.074300  0.914400  1.0  -0.6231
  O  O68  1  0.505600  0.539500  0.781200  1.0  -0.6875
  O  O69  1  0.558300  0.171800  0.777200  1.0  -0.6537
  O  O70  1  0.720500  0.530400  0.778400  1.0  -0.6377
  O  O71  1  0.566500  0.553600  0.926100  1.0  -0.4034
  O  O72  1  0.777200  0.171400  0.741600  1.0  -0.4696
  O  O73  1  0.652700  0.346400  0.887500  1.0  -0.7304
