# generated using pymatgen
data_Cd2H22C29S(NO4)2
_symmetry_space_group_name_H-M   'P 1'
_cell_length_a   11.16600000
_cell_length_b   17.71000000
_cell_length_c   19.66900000
_cell_angle_alpha   90.00000000
_cell_angle_beta   97.07000000
_cell_angle_gamma   90.00000000
_symmetry_Int_Tables_number   1
_chemical_formula_structural   Cd2H22C29S(NO4)2
_chemical_formula_sum   'Cd8 H88 C116 S4 N8 O32'
_cell_volume   3859.96793937
_cell_formula_units_Z   4
loop_
 _symmetry_equiv_pos_site_id
 _symmetry_equiv_pos_as_xyz
  1  'x, y, z'
loop_
 _atom_site_type_symbol
 _atom_site_label
 _atom_site_symmetry_multiplicity
 _atom_site_fract_x
 _atom_site_fract_y
 _atom_site_fract_z
 _atom_site_occupancy
 _atom_site_charge
  Cd  Cd1  1  0.606050  0.612370  0.558700  1.0  0.9908
  Cd  Cd2  1  0.564410  0.559270  0.377360  1.0  1.0424
  Cd  Cd3  1  0.393950  0.112370  0.941300  1.0  0.9893
  Cd  Cd4  1  0.435590  0.059270  0.122640  1.0  1.0455
  Cd  Cd5  1  0.393950  0.387630  0.441300  1.0  0.9891
  Cd  Cd6  1  0.435590  0.440730  0.622640  1.0  1.0443
  Cd  Cd7  1  0.606050  0.887630  0.058700  1.0  0.9926
  Cd  Cd8  1  0.564410  0.940730  0.877360  1.0  1.0416
  H  H9  1  0.356500  0.733800  0.434200  1.0  0.1112
  H  H10  1  0.167300  0.755200  0.379200  1.0  0.1164
  H  H11  1  0.141000  0.828000  0.278400  1.0  0.1102
  H  H12  1  0.302100  0.874400  0.231800  1.0  0.1195
  H  H13  1  0.756300  0.916600  0.252900  1.0  0.1111
  H  H14  1  0.938800  0.900900  0.313300  1.0  0.1125
  H  H15  1  0.962200  0.832400  0.416300  1.0  0.1239
  H  H16  1  0.798900  0.775400  0.452700  1.0  0.1093
  H  H17  1  0.862800  0.586900  0.501900  1.0  0.0854
  H  H18  1  0.059000  0.627500  0.513500  1.0  0.126
  H  H19  1  0.990200  0.754300  0.670200  1.0  0.1332
  H  H20  1  0.795400  0.709100  0.657500  1.0  0.098
  H  H21  1  0.227800  0.690700  0.579700  1.0  0.1047
  H  H22  1  0.206900  0.731300  0.648200  1.0  0.1046
  H  H23  1  0.155700  0.796500  0.517100  1.0  0.1025
  H  H24  1  0.129700  0.837000  0.584700  1.0  0.0957
  H  H25  1  0.365500  0.798400  0.555200  1.0  0.1111
  H  H26  1  0.314000  0.880800  0.550200  1.0  0.1459
  H  H27  1  0.307800  0.932900  0.787700  1.0  0.0878
  H  H28  1  0.223900  0.909800  0.676200  1.0  0.1373
  H  H29  1  0.518100  0.789500  0.649900  1.0  0.1472
  H  H30  1  0.592600  0.818900  0.760500  1.0  0.0834
  H  H31  1  0.643500  0.233800  0.065800  1.0  0.111
  H  H32  1  0.832700  0.255200  0.120800  1.0  0.1158
  H  H33  1  0.859000  0.328000  0.221600  1.0  0.1101
  H  H34  1  0.697900  0.374400  0.268200  1.0  0.1192
  H  H35  1  0.243700  0.416600  0.247100  1.0  0.1107
  H  H36  1  0.061200  0.400900  0.186700  1.0  0.1126
  H  H37  1  0.037800  0.332400  0.083700  1.0  0.124
  H  H38  1  0.201100  0.275400  0.047300  1.0  0.1097
  H  H39  1  0.137200  0.086900  0.998100  1.0  0.0861
  H  H40  1  0.941000  0.127500  0.986500  1.0  0.1259
  H  H41  1  0.009800  0.254300  0.829800  1.0  0.1331
  H  H42  1  0.204600  0.209100  0.842500  1.0  0.0974
  H  H43  1  0.772200  0.190700  0.920300  1.0  0.1053
  H  H44  1  0.793100  0.231300  0.851800  1.0  0.1052
  H  H45  1  0.844300  0.296500  0.982900  1.0  0.102
  H  H46  1  0.870300  0.337000  0.915300  1.0  0.0958
  H  H47  1  0.634500  0.298400  0.944800  1.0  0.1113
  H  H48  1  0.686000  0.380800  0.949800  1.0  0.145
  H  H49  1  0.692200  0.432900  0.712300  1.0  0.087
  H  H50  1  0.776100  0.409800  0.823800  1.0  0.1381
  H  H51  1  0.481900  0.289500  0.850100  1.0  0.1465
  H  H52  1  0.407400  0.318900  0.739500  1.0  0.083
  H  H53  1  0.643500  0.266200  0.565800  1.0  0.111
  H  H54  1  0.832700  0.244800  0.620800  1.0  0.1159
  H  H55  1  0.859000  0.172000  0.721600  1.0  0.1103
  H  H56  1  0.697900  0.125600  0.768200  1.0  0.119
  H  H57  1  0.243700  0.083400  0.747100  1.0  0.1106
  H  H58  1  0.061200  0.099100  0.686700  1.0  0.1127
  H  H59  1  0.037800  0.167600  0.583700  1.0  0.1239
  H  H60  1  0.201100  0.224600  0.547300  1.0  0.1093
  H  H61  1  0.137200  0.413100  0.498100  1.0  0.0858
  H  H62  1  0.941000  0.372500  0.486500  1.0  0.1256
  H  H63  1  0.009800  0.245700  0.329800  1.0  0.1329
  H  H64  1  0.204600  0.290900  0.342500  1.0  0.0977
  H  H65  1  0.772200  0.309300  0.420300  1.0  0.1055
  H  H66  1  0.793100  0.268700  0.351800  1.0  0.1058
  H  H67  1  0.844300  0.203500  0.482900  1.0  0.1018
  H  H68  1  0.870300  0.163000  0.415300  1.0  0.095
  H  H69  1  0.634500  0.201600  0.444800  1.0  0.1109
  H  H70  1  0.686000  0.119200  0.449800  1.0  0.1457
  H  H71  1  0.692200  0.067100  0.212300  1.0  0.0868
  H  H72  1  0.776100  0.090200  0.323800  1.0  0.1377
  H  H73  1  0.481900  0.210500  0.350100  1.0  0.1466
  H  H74  1  0.407400  0.181100  0.239500  1.0  0.0834
  H  H75  1  0.356500  0.766200  0.934200  1.0  0.1113
  H  H76  1  0.167300  0.744800  0.879200  1.0  0.1161
  H  H77  1  0.141000  0.672000  0.778400  1.0  0.1103
  H  H78  1  0.302100  0.625600  0.731800  1.0  0.1193
  H  H79  1  0.756300  0.583400  0.752900  1.0  0.1103
  H  H80  1  0.938800  0.599100  0.813300  1.0  0.1122
  H  H81  1  0.962200  0.667600  0.916300  1.0  0.1241
  H  H82  1  0.798900  0.724600  0.952700  1.0  0.1093
  H  H83  1  0.862800  0.913100  0.001900  1.0  0.0854
  H  H84  1  0.059000  0.872500  0.013500  1.0  0.1254
  H  H85  1  0.990200  0.745700  0.170200  1.0  0.1333
  H  H86  1  0.795400  0.790900  0.157500  1.0  0.0982
  H  H87  1  0.227800  0.809300  0.079700  1.0  0.1052
  H  H88  1  0.206900  0.768700  0.148200  1.0  0.1036
  H  H89  1  0.155700  0.703500  0.017100  1.0  0.1018
  H  H90  1  0.129700  0.663000  0.084700  1.0  0.096
  H  H91  1  0.365500  0.701600  0.055200  1.0  0.1104
  H  H92  1  0.314000  0.619200  0.050200  1.0  0.1446
  H  H93  1  0.307800  0.567100  0.287700  1.0  0.0881
  H  H94  1  0.223900  0.590200  0.176200  1.0  0.1374
  H  H95  1  0.518100  0.710500  0.149900  1.0  0.147
  H  H96  1  0.592600  0.681100  0.260500  1.0  0.0838
  C  C97  1  0.585000  0.730200  0.463100  1.0  0.6877
  C  C98  1  0.566700  0.782400  0.402800  1.0  -0.078
  C  C99  1  0.450800  0.795600  0.369700  1.0  -0.0605
  C  C100  1  0.346800  0.763300  0.394900  1.0  -0.1064
  C  C101  1  0.234200  0.775400  0.361800  1.0  -0.1205
  C  C102  1  0.218500  0.819100  0.300200  1.0  -0.1223
  C  C103  1  0.314800  0.848000  0.272900  1.0  -0.0871
  C  C104  1  0.435200  0.838600  0.306000  1.0  0.0537
  C  C105  1  0.538400  0.866200  0.279000  1.0  -0.054
  C  C106  1  0.653900  0.857100  0.314900  1.0  0.0424
  C  C107  1  0.762300  0.888700  0.293300  1.0  -0.1178
  C  C108  1  0.871600  0.879400  0.329300  1.0  -0.0894
  C  C109  1  0.886400  0.837500  0.391300  1.0  -0.1369
  C  C110  1  0.788300  0.805100  0.413400  1.0  -0.08
  C  C111  1  0.668600  0.814700  0.378500  1.0  0.0397
  C  C112  1  0.524600  0.899500  0.206700  1.0  0.7162
  C  C113  1  0.888500  0.620300  0.537200  1.0  0.1868
  C  C114  1  0.007200  0.645200  0.543400  1.0  -0.1899
  C  C115  1  0.048100  0.695700  0.593300  1.0  0.1373
  C  C116  1  0.966400  0.719500  0.635800  1.0  -0.1256
  C  C117  1  0.848400  0.691900  0.628000  1.0  0.1773
  C  C118  1  0.176600  0.726300  0.600000  1.0  -0.161
  C  C119  1  0.183100  0.801700  0.565600  1.0  -0.0787
  C  C120  1  0.312900  0.833500  0.575100  1.0  -0.227
  C  C121  1  0.351500  0.904800  0.759300  1.0  0.1915
  C  C122  1  0.299600  0.890700  0.692400  1.0  -0.2129
  C  C123  1  0.363600  0.847500  0.650800  1.0  0.0819
  C  C124  1  0.473800  0.819600  0.676400  1.0  -0.2167
  C  C125  1  0.517300  0.837900  0.743200  1.0  0.207
  C  C126  1  0.415000  0.230200  0.036900  1.0  0.6891
  C  C127  1  0.433300  0.282400  0.097200  1.0  -0.0788
  C  C128  1  0.549200  0.295600  0.130300  1.0  -0.0602
  C  C129  1  0.653200  0.263300  0.105100  1.0  -0.106
  C  C130  1  0.765800  0.275400  0.138200  1.0  -0.1197
  C  C131  1  0.781500  0.319100  0.199800  1.0  -0.1215
  C  C132  1  0.685200  0.348000  0.227100  1.0  -0.0892
  C  C133  1  0.564800  0.338600  0.194000  1.0  0.0539
  C  C134  1  0.461600  0.366200  0.221000  1.0  -0.0539
  C  C135  1  0.346100  0.357100  0.185100  1.0  0.0416
  C  C136  1  0.237700  0.388700  0.206700  1.0  -0.1185
  C  C137  1  0.128400  0.379400  0.170700  1.0  -0.0889
  C  C138  1  0.113600  0.337500  0.108700  1.0  -0.1384
  C  C139  1  0.211700  0.305100  0.086600  1.0  -0.0799
  C  C140  1  0.331400  0.314700  0.121500  1.0  0.0391
  C  C141  1  0.475400  0.399500  0.293300  1.0  0.716
  C  C142  1  0.111500  0.120300  0.962800  1.0  0.1882
  C  C143  1  0.992800  0.145200  0.956600  1.0  -0.1891
  C  C144  1  0.951900  0.195700  0.906700  1.0  0.137
  C  C145  1  0.033600  0.219500  0.864200  1.0  -0.1244
  C  C146  1  0.151600  0.191900  0.872000  1.0  0.1778
  C  C147  1  0.823400  0.226300  0.900000  1.0  -0.1613
  C  C148  1  0.816900  0.301700  0.934400  1.0  -0.0818
  C  C149  1  0.687100  0.333500  0.924900  1.0  -0.2294
  C  C150  1  0.648500  0.404800  0.740700  1.0  0.1927
  C  C151  1  0.700400  0.390700  0.807600  1.0  -0.2145
  C  C152  1  0.636400  0.347500  0.849200  1.0  0.0806
  C  C153  1  0.526200  0.319600  0.823600  1.0  -0.2151
  C  C154  1  0.482700  0.337900  0.756800  1.0  0.2065
  C  C155  1  0.415000  0.269800  0.536900  1.0  0.6893
  C  C156  1  0.433300  0.217600  0.597200  1.0  -0.0787
  C  C157  1  0.549200  0.204400  0.630300  1.0  -0.0608
  C  C158  1  0.653200  0.236700  0.605100  1.0  -0.1064
  C  C159  1  0.765800  0.224600  0.638200  1.0  -0.12
  C  C160  1  0.781500  0.180900  0.699800  1.0  -0.1216
  C  C161  1  0.685200  0.152000  0.727100  1.0  -0.0882
  C  C162  1  0.564800  0.161400  0.694000  1.0  0.0533
  C  C163  1  0.461600  0.133800  0.721000  1.0  -0.0545
  C  C164  1  0.346100  0.142900  0.685100  1.0  0.0409
  C  C165  1  0.237700  0.111300  0.706700  1.0  -0.1186
  C  C166  1  0.128400  0.120600  0.670700  1.0  -0.0888
  C  C167  1  0.113600  0.162500  0.608700  1.0  -0.1378
  C  C168  1  0.211700  0.194900  0.586600  1.0  -0.0786
  C  C169  1  0.331400  0.185300  0.621500  1.0  0.0386
  C  C170  1  0.475400  0.100500  0.793300  1.0  0.7168
  C  C171  1  0.111500  0.379700  0.462800  1.0  0.188
  C  C172  1  0.992800  0.354800  0.456600  1.0  -0.1896
  C  C173  1  0.951900  0.304300  0.406700  1.0  0.1375
  C  C174  1  0.033600  0.280500  0.364200  1.0  -0.1251
  C  C175  1  0.151600  0.308100  0.372000  1.0  0.1776
  C  C176  1  0.823400  0.273700  0.400000  1.0  -0.1611
  C  C177  1  0.816900  0.198300  0.434400  1.0  -0.08
  C  C178  1  0.687100  0.166500  0.424900  1.0  -0.2278
  C  C179  1  0.648500  0.095200  0.240700  1.0  0.1917
  C  C180  1  0.700400  0.109300  0.307600  1.0  -0.2144
  C  C181  1  0.636400  0.152500  0.349200  1.0  0.0799
  C  C182  1  0.526200  0.180400  0.323600  1.0  -0.214
  C  C183  1  0.482700  0.162100  0.256800  1.0  0.2065
  C  C184  1  0.585000  0.769800  0.963100  1.0  0.6881
  C  C185  1  0.566700  0.717600  0.902800  1.0  -0.0776
  C  C186  1  0.450800  0.704400  0.869700  1.0  -0.0606
  C  C187  1  0.346800  0.736700  0.894900  1.0  -0.1065
  C  C188  1  0.234200  0.724600  0.861800  1.0  -0.1209
  C  C189  1  0.218500  0.680900  0.800200  1.0  -0.1218
  C  C190  1  0.314800  0.652000  0.772900  1.0  -0.086
  C  C191  1  0.435200  0.661400  0.806000  1.0  0.0532
  C  C192  1  0.538400  0.633800  0.779000  1.0  -0.0545
  C  C193  1  0.653900  0.642900  0.814900  1.0  0.0418
  C  C194  1  0.762300  0.611300  0.793300  1.0  -0.1181
  C  C195  1  0.871600  0.620600  0.829300  1.0  -0.089
  C  C196  1  0.886400  0.662500  0.891300  1.0  -0.1363
  C  C197  1  0.788300  0.694900  0.913400  1.0  -0.0788
  C  C198  1  0.668600  0.685300  0.878500  1.0  0.0395
  C  C199  1  0.524600  0.600500  0.706700  1.0  0.716
  C  C200  1  0.888500  0.879700  0.037200  1.0  0.1872
  C  C201  1  0.007200  0.854800  0.043400  1.0  -0.1884
  C  C202  1  0.048100  0.804300  0.093300  1.0  0.1379
  C  C203  1  0.966400  0.780500  0.135800  1.0  -0.1256
  C  C204  1  0.848400  0.808100  0.128000  1.0  0.1773
  C  C205  1  0.176600  0.773700  0.100000  1.0  -0.1606
  C  C206  1  0.183100  0.698300  0.065600  1.0  -0.0782
  C  C207  1  0.312900  0.666500  0.075100  1.0  -0.228
  C  C208  1  0.351500  0.595200  0.259300  1.0  0.1913
  C  C209  1  0.299600  0.609300  0.192400  1.0  -0.2121
  C  C210  1  0.363600  0.652500  0.150800  1.0  0.0812
  C  C211  1  0.473800  0.680400  0.176400  1.0  -0.2158
  C  C212  1  0.517300  0.662100  0.243200  1.0  0.2061
  S  S213  1  0.331050  0.555270  0.483320  1.0  1.6396
  S  S214  1  0.668950  0.055270  0.016680  1.0  1.6392
  S  S215  1  0.668950  0.444730  0.516680  1.0  1.6386
  S  S216  1  0.331050  0.944730  0.983320  1.0  1.6393
  N  N217  1  0.808800  0.641600  0.579300  1.0  -0.3184
  N  N218  1  0.460600  0.880100  0.784500  1.0  -0.3174
  N  N219  1  0.191200  0.141600  0.920700  1.0  -0.317
  N  N220  1  0.539400  0.380100  0.715500  1.0  -0.3191
  N  N221  1  0.191200  0.358400  0.420700  1.0  -0.3166
  N  N222  1  0.539400  0.119900  0.215500  1.0  -0.32
  N  N223  1  0.808800  0.858400  0.079300  1.0  -0.3175
  N  N224  1  0.460600  0.619900  0.284500  1.0  -0.3167
  O  O225  1  0.606100  0.661000  0.449400  1.0  -0.6695
  O  O226  1  0.580500  0.752800  0.522900  1.0  -0.6253
  O  O227  1  0.457000  0.955800  0.193900  1.0  -0.6964
  O  O228  1  0.585700  0.866400  0.166500  1.0  -0.6046
  O  O229  1  0.405300  0.616000  0.519900  1.0  -0.7922
  O  O230  1  0.399900  0.520800  0.429200  1.0  -0.8952
  O  O231  1  0.216800  0.583700  0.451500  1.0  -0.6368
  O  O232  1  0.312900  0.492600  0.531600  1.0  -0.85
  O  O233  1  0.393900  0.161000  0.050600  1.0  -0.6682
  O  O234  1  0.419500  0.252800  0.977100  1.0  -0.6242
  O  O235  1  0.543000  0.455800  0.306100  1.0  -0.6961
  O  O236  1  0.414300  0.366400  0.333500  1.0  -0.6037
  O  O237  1  0.594700  0.116000  0.980100  1.0  -0.7923
  O  O238  1  0.600100  0.020800  0.070800  1.0  -0.8949
  O  O239  1  0.783200  0.083700  0.048500  1.0  -0.6377
  O  O240  1  0.687100  0.992600  0.968400  1.0  -0.8488
  O  O241  1  0.393900  0.339000  0.550600  1.0  -0.6697
  O  O242  1  0.419500  0.247200  0.477100  1.0  -0.6245
  O  O243  1  0.543000  0.044200  0.806100  1.0  -0.6953
  O  O244  1  0.414300  0.133600  0.833500  1.0  -0.6029
  O  O245  1  0.594700  0.384000  0.480100  1.0  -0.7923
  O  O246  1  0.600100  0.479200  0.570800  1.0  -0.8952
  O  O247  1  0.783200  0.416300  0.548500  1.0  -0.638
  O  O248  1  0.687100  0.507400  0.468400  1.0  -0.8486
  O  O249  1  0.606100  0.839000  0.949400  1.0  -0.6685
  O  O250  1  0.580500  0.747200  0.022900  1.0  -0.625
  O  O251  1  0.457000  0.544200  0.693900  1.0  -0.6955
  O  O252  1  0.585700  0.633600  0.666500  1.0  -0.6039
  O  O253  1  0.405300  0.884000  0.019900  1.0  -0.793
  O  O254  1  0.399900  0.979200  0.929200  1.0  -0.8948
  O  O255  1  0.216800  0.916300  0.951500  1.0  -0.6373
  O  O256  1  0.312900  0.007400  0.031600  1.0  -0.8507
