# generated using pymatgen
data_Zn3P4(HO3)4
_symmetry_space_group_name_H-M   'P 1'
_cell_length_a   10.51300000
_cell_length_b   15.61700000
_cell_length_c   13.89500000
_cell_angle_alpha   90.00000000
_cell_angle_beta   97.01400000
_cell_angle_gamma   90.00000000
_symmetry_Int_Tables_number   1
_chemical_formula_structural   Zn3P4(HO3)4
_chemical_formula_sum   'Zn12 P16 H16 O48'
_cell_volume   2264.22975249
_cell_formula_units_Z   4
loop_
 _symmetry_equiv_pos_site_id
 _symmetry_equiv_pos_as_xyz
  1  'x, y, z'
loop_
 _atom_site_type_symbol
 _atom_site_label
 _atom_site_symmetry_multiplicity
 _atom_site_fract_x
 _atom_site_fract_y
 _atom_site_fract_z
 _atom_site_occupancy
 _atom_site_charge
  Zn  Zn1  1  0.033260  0.085500  0.390170  1.0  1.1482
  Zn  Zn2  1  0.533260  0.585500  0.390170  1.0  1.1482
  Zn  Zn3  1  0.966740  0.085500  0.109830  1.0  1.1487
  Zn  Zn4  1  0.466740  0.585500  0.109830  1.0  1.1487
  Zn  Zn5  1  0.966740  0.914500  0.609830  1.0  1.1486
  Zn  Zn6  1  0.466740  0.414500  0.609830  1.0  1.1486
  Zn  Zn7  1  0.033260  0.914500  0.890170  1.0  1.1481
  Zn  Zn8  1  0.533260  0.414500  0.890170  1.0  1.1481
  Zn  Zn9  1  0.000000  0.266130  0.750000  1.0  1.0959
  Zn  Zn10  1  0.500000  0.766130  0.750000  1.0  1.0959
  Zn  Zn11  1  0.000000  0.733870  0.250000  1.0  1.0956
  Zn  Zn12  1  0.500000  0.233870  0.250000  1.0  1.0956
  P  P13  1  0.070530  0.106940  0.617670  1.0  1.4938
  P  P14  1  0.207930  0.165570  0.229020  1.0  1.506
  P  P15  1  0.570530  0.606940  0.617670  1.0  1.4938
  P  P16  1  0.707930  0.665570  0.229020  1.0  1.506
  P  P17  1  0.929470  0.106940  0.882330  1.0  1.4934
  P  P18  1  0.792070  0.165570  0.270980  1.0  1.5075
  P  P19  1  0.429470  0.606940  0.882330  1.0  1.4934
  P  P20  1  0.292070  0.665570  0.270980  1.0  1.5075
  P  P21  1  0.929470  0.893060  0.382330  1.0  1.4939
  P  P22  1  0.792070  0.834430  0.770980  1.0  1.5059
  P  P23  1  0.429470  0.393060  0.382330  1.0  1.4939
  P  P24  1  0.292070  0.334430  0.770980  1.0  1.5059
  P  P25  1  0.070530  0.893060  0.117670  1.0  1.4944
  P  P26  1  0.207930  0.834430  0.729020  1.0  1.5075
  P  P27  1  0.570530  0.393060  0.117670  1.0  1.4944
  P  P28  1  0.707930  0.334430  0.729020  1.0  1.5075
  H  H29  1  0.169800  0.088400  0.683500  1.0  -0.0719
  H  H30  1  0.181600  0.242300  0.247000  1.0  -0.0334
  H  H31  1  0.669800  0.588400  0.683500  1.0  -0.0719
  H  H32  1  0.681600  0.742300  0.247000  1.0  -0.0334
  H  H33  1  0.830200  0.088400  0.816500  1.0  -0.0741
  H  H34  1  0.818400  0.242300  0.253000  1.0  -0.0328
  H  H35  1  0.330200  0.588400  0.816500  1.0  -0.0741
  H  H36  1  0.318400  0.742300  0.253000  1.0  -0.0328
  H  H37  1  0.830200  0.911600  0.316500  1.0  -0.0734
  H  H38  1  0.818400  0.757700  0.753000  1.0  -0.033
  H  H39  1  0.330200  0.411600  0.316500  1.0  -0.0734
  H  H40  1  0.318400  0.257700  0.753000  1.0  -0.033
  H  H41  1  0.169800  0.911600  0.183500  1.0  -0.0714
  H  H42  1  0.181600  0.757700  0.747000  1.0  -0.0338
  H  H43  1  0.669800  0.411600  0.183500  1.0  -0.0714
  H  H44  1  0.681600  0.257700  0.747000  1.0  -0.0338
  O  O45  1  0.122300  0.106520  0.519850  1.0  -0.7434
  O  O46  1  0.172600  0.110980  0.312180  1.0  -0.8114
  O  O47  1  0.872000  0.144050  0.365870  1.0  -0.7611
  O  O48  1  0.028200  0.962040  0.372950  1.0  -0.7927
  O  O49  1  0.020800  0.195560  0.638310  1.0  -0.7714
  O  O50  1  0.351100  0.159880  0.221710  1.0  -0.7119
  O  O51  1  0.622300  0.606520  0.519850  1.0  -0.7434
  O  O52  1  0.672600  0.610980  0.312180  1.0  -0.8114
  O  O53  1  0.372000  0.644050  0.365870  1.0  -0.7611
  O  O54  1  0.528200  0.462040  0.372950  1.0  -0.7927
  O  O55  1  0.520800  0.695560  0.638310  1.0  -0.7714
  O  O56  1  0.851100  0.659880  0.221710  1.0  -0.7119
  O  O57  1  0.877700  0.106520  0.980150  1.0  -0.7441
  O  O58  1  0.827400  0.110980  0.187820  1.0  -0.8117
  O  O59  1  0.128000  0.144050  0.134130  1.0  -0.7586
  O  O60  1  0.971800  0.962040  0.127050  1.0  -0.7932
  O  O61  1  0.979200  0.195560  0.861690  1.0  -0.7707
  O  O62  1  0.648900  0.159880  0.278290  1.0  -0.7119
  O  O63  1  0.377700  0.606520  0.980150  1.0  -0.7441
  O  O64  1  0.327400  0.610980  0.187820  1.0  -0.8117
  O  O65  1  0.628000  0.644050  0.134130  1.0  -0.7586
  O  O66  1  0.471800  0.462040  0.127050  1.0  -0.7932
  O  O67  1  0.479200  0.695560  0.861690  1.0  -0.7711
  O  O68  1  0.148900  0.659880  0.278290  1.0  -0.7119
  O  O69  1  0.877700  0.893480  0.480150  1.0  -0.7436
  O  O70  1  0.827400  0.889020  0.687820  1.0  -0.8117
  O  O71  1  0.128000  0.855950  0.634130  1.0  -0.7588
  O  O72  1  0.971800  0.037960  0.627050  1.0  -0.7929
  O  O73  1  0.979200  0.804440  0.361690  1.0  -0.7702
  O  O74  1  0.648900  0.840120  0.778290  1.0  -0.7126
  O  O75  1  0.377700  0.393480  0.480150  1.0  -0.7436
  O  O76  1  0.327400  0.389020  0.687820  1.0  -0.8117
  O  O77  1  0.628000  0.355950  0.634130  1.0  -0.7588
  O  O78  1  0.471800  0.537960  0.627050  1.0  -0.7929
  O  O79  1  0.479200  0.304440  0.361690  1.0  -0.7702
  O  O80  1  0.148900  0.340120  0.778290  1.0  -0.7126
  O  O81  1  0.122300  0.893480  0.019850  1.0  -0.7436
  O  O82  1  0.172600  0.889020  0.812180  1.0  -0.8116
  O  O83  1  0.872000  0.855950  0.865870  1.0  -0.7606
  O  O84  1  0.028200  0.037960  0.872950  1.0  -0.7928
  O  O85  1  0.020800  0.804440  0.138310  1.0  -0.7712
  O  O86  1  0.351100  0.840120  0.721710  1.0  -0.7118
  O  O87  1  0.622300  0.393480  0.019850  1.0  -0.7436
  O  O88  1  0.672600  0.389020  0.812180  1.0  -0.8116
  O  O89  1  0.372000  0.355950  0.865870  1.0  -0.7606
  O  O90  1  0.528200  0.537960  0.872950  1.0  -0.7928
  O  O91  1  0.520800  0.304440  0.138310  1.0  -0.7714
  O  O92  1  0.851100  0.340120  0.721710  1.0  -0.7118
