# generated using pymatgen
data_Zn3P4(HO3)4
_symmetry_space_group_name_H-M   'P 1'
_cell_length_a   10.46470000
_cell_length_b   15.57220000
_cell_length_c   13.87840000
_cell_angle_alpha   90.00000000
_cell_angle_beta   96.82900000
_cell_angle_gamma   90.00000000
_symmetry_Int_Tables_number   1
_chemical_formula_structural   Zn3P4(HO3)4
_chemical_formula_sum   'Zn12 P16 H16 O48'
_cell_volume   2245.55683247
_cell_formula_units_Z   4
loop_
 _symmetry_equiv_pos_site_id
 _symmetry_equiv_pos_as_xyz
  1  'x, y, z'
loop_
 _atom_site_type_symbol
 _atom_site_label
 _atom_site_symmetry_multiplicity
 _atom_site_fract_x
 _atom_site_fract_y
 _atom_site_fract_z
 _atom_site_occupancy
 _atom_site_charge
  Zn  Zn1  1  0.533220  0.414420  0.390120  1.0  1.161
  Zn  Zn2  1  0.033220  0.914420  0.390120  1.0  1.161
  Zn  Zn3  1  0.466780  0.414420  0.109880  1.0  1.1623
  Zn  Zn4  1  0.966780  0.914420  0.109880  1.0  1.1623
  Zn  Zn5  1  0.466780  0.585580  0.609880  1.0  1.1624
  Zn  Zn6  1  0.966780  0.085580  0.609880  1.0  1.1624
  Zn  Zn7  1  0.533220  0.585580  0.890120  1.0  1.1611
  Zn  Zn8  1  0.033220  0.085580  0.890120  1.0  1.1611
  Zn  Zn9  1  0.000000  0.266170  0.250000  1.0  1.1069
  Zn  Zn10  1  0.500000  0.766170  0.250000  1.0  1.1069
  Zn  Zn11  1  0.000000  0.733830  0.750000  1.0  1.1068
  Zn  Zn12  1  0.500000  0.233830  0.750000  1.0  1.1068
  P  P13  1  0.429470  0.606930  0.382290  1.0  1.5191
  P  P14  1  0.708090  0.334380  0.229050  1.0  1.5094
  P  P15  1  0.929470  0.106930  0.382290  1.0  1.5191
  P  P16  1  0.208090  0.834380  0.229050  1.0  1.5094
  P  P17  1  0.570530  0.606930  0.117710  1.0  1.5176
  P  P18  1  0.291910  0.334380  0.270950  1.0  1.5111
  P  P19  1  0.070530  0.106930  0.117710  1.0  1.5176
  P  P20  1  0.791910  0.834380  0.270950  1.0  1.5112
  P  P21  1  0.570530  0.393070  0.617710  1.0  1.5182
  P  P22  1  0.291910  0.665620  0.770950  1.0  1.5109
  P  P23  1  0.070530  0.893070  0.617710  1.0  1.5182
  P  P24  1  0.791910  0.165620  0.770950  1.0  1.5109
  P  P25  1  0.429470  0.393070  0.882290  1.0  1.5199
  P  P26  1  0.708090  0.665620  0.729050  1.0  1.5091
  P  P27  1  0.929470  0.893070  0.882290  1.0  1.5199
  P  P28  1  0.208090  0.165620  0.729050  1.0  1.5091
  H  H29  1  0.323900  0.595900  0.314000  1.0  -0.0715
  H  H30  1  0.684400  0.255800  0.248100  1.0  -0.0638
  H  H31  1  0.823900  0.095900  0.314000  1.0  -0.0715
  H  H32  1  0.184400  0.755800  0.248100  1.0  -0.0638
  H  H33  1  0.676100  0.595900  0.186000  1.0  -0.072
  H  H34  1  0.315600  0.255800  0.251900  1.0  -0.063
  H  H35  1  0.176100  0.095900  0.186000  1.0  -0.072
  H  H36  1  0.815600  0.755800  0.251900  1.0  -0.063
  H  H37  1  0.676100  0.404100  0.686000  1.0  -0.0718
  H  H38  1  0.315600  0.744200  0.751900  1.0  -0.0641
  H  H39  1  0.176100  0.904100  0.686000  1.0  -0.0718
  H  H40  1  0.815600  0.244200  0.751900  1.0  -0.0641
  H  H41  1  0.323900  0.404100  0.814000  1.0  -0.0713
  H  H42  1  0.684400  0.744200  0.748100  1.0  -0.0651
  H  H43  1  0.823900  0.904100  0.814000  1.0  -0.0713
  H  H44  1  0.184400  0.244200  0.748100  1.0  -0.0651
  O  O45  1  0.672480  0.389060  0.312440  1.0  -0.8119
  O  O46  1  0.851330  0.340080  0.221430  1.0  -0.7288
  O  O47  1  0.627690  0.355640  0.134260  1.0  -0.7607
  O  O48  1  0.528280  0.538110  0.372970  1.0  -0.7814
  O  O49  1  0.377800  0.606440  0.480260  1.0  -0.7496
  O  O50  1  0.479240  0.695530  0.361690  1.0  -0.7745
  O  O51  1  0.172480  0.889060  0.312440  1.0  -0.8119
  O  O52  1  0.351330  0.840080  0.221430  1.0  -0.7288
  O  O53  1  0.127690  0.855640  0.134260  1.0  -0.7607
  O  O54  1  0.028280  0.038110  0.372970  1.0  -0.7814
  O  O55  1  0.877800  0.106440  0.480260  1.0  -0.7496
  O  O56  1  0.979240  0.195530  0.361690  1.0  -0.7744
  O  O57  1  0.327520  0.389060  0.187560  1.0  -0.8119
  O  O58  1  0.148670  0.340080  0.278570  1.0  -0.7291
  O  O59  1  0.372310  0.355640  0.365740  1.0  -0.7628
  O  O60  1  0.471720  0.538110  0.127030  1.0  -0.7818
  O  O61  1  0.622200  0.606440  0.019740  1.0  -0.7493
  O  O62  1  0.520760  0.695530  0.138310  1.0  -0.7756
  O  O63  1  0.827520  0.889060  0.187560  1.0  -0.8119
  O  O64  1  0.648670  0.840080  0.278570  1.0  -0.7291
  O  O65  1  0.872310  0.855640  0.365740  1.0  -0.7628
  O  O66  1  0.971720  0.038110  0.127030  1.0  -0.7818
  O  O67  1  0.122200  0.106440  0.019740  1.0  -0.7493
  O  O68  1  0.020760  0.195530  0.138310  1.0  -0.7754
  O  O69  1  0.327520  0.610940  0.687560  1.0  -0.812
  O  O70  1  0.148670  0.659920  0.778570  1.0  -0.7293
  O  O71  1  0.372310  0.644360  0.865740  1.0  -0.7632
  O  O72  1  0.471720  0.461890  0.627030  1.0  -0.7817
  O  O73  1  0.622200  0.393560  0.519740  1.0  -0.7493
  O  O74  1  0.520760  0.304470  0.638310  1.0  -0.7746
  O  O75  1  0.827520  0.110940  0.687560  1.0  -0.812
  O  O76  1  0.648670  0.159920  0.778570  1.0  -0.7293
  O  O77  1  0.872310  0.144360  0.865740  1.0  -0.7632
  O  O78  1  0.971720  0.961890  0.627030  1.0  -0.7817
  O  O79  1  0.122200  0.893560  0.519740  1.0  -0.7493
  O  O80  1  0.020760  0.804470  0.638310  1.0  -0.7745
  O  O81  1  0.672480  0.610940  0.812440  1.0  -0.812
  O  O82  1  0.851330  0.659920  0.721430  1.0  -0.7299
  O  O83  1  0.627690  0.644360  0.634260  1.0  -0.7603
  O  O84  1  0.528280  0.461890  0.872970  1.0  -0.7808
  O  O85  1  0.377800  0.393560  0.980260  1.0  -0.7494
  O  O86  1  0.479240  0.304470  0.861690  1.0  -0.7734
  O  O87  1  0.172480  0.110940  0.812440  1.0  -0.812
  O  O88  1  0.351330  0.159920  0.721430  1.0  -0.7299
  O  O89  1  0.127690  0.144360  0.634260  1.0  -0.7603
  O  O90  1  0.028280  0.961890  0.872970  1.0  -0.7808
  O  O91  1  0.877800  0.893560  0.980260  1.0  -0.7494
  O  O92  1  0.979240  0.804470  0.861690  1.0  -0.7731
