# generated using pymatgen
data_CdH19C27N7O4
_symmetry_space_group_name_H-M   'P 1'
_cell_length_a   14.47500000
_cell_length_b   16.61300000
_cell_length_c   24.83900000
_cell_angle_alpha   90.00000000
_cell_angle_beta   95.06200000
_cell_angle_gamma   90.00000000
_symmetry_Int_Tables_number   1
_chemical_formula_structural   CdH19C27N7O4
_chemical_formula_sum   'Cd8 H152 C216 N56 O32'
_cell_volume   5949.81687730
_cell_formula_units_Z   8
loop_
 _symmetry_equiv_pos_site_id
 _symmetry_equiv_pos_as_xyz
  1  'x, y, z'
loop_
 _atom_site_type_symbol
 _atom_site_label
 _atom_site_symmetry_multiplicity
 _atom_site_fract_x
 _atom_site_fract_y
 _atom_site_fract_z
 _atom_site_occupancy
 _atom_site_charge
  Cd  Cd1  1  0.375970  0.260260  0.486630  1.0  0.9876
  Cd  Cd2  1  0.875970  0.760260  0.486630  1.0  0.9876
  Cd  Cd3  1  0.624030  0.260260  0.013370  1.0  0.9889
  Cd  Cd4  1  0.124030  0.760260  0.013370  1.0  0.9889
  Cd  Cd5  1  0.624030  0.739740  0.513370  1.0  0.9875
  Cd  Cd6  1  0.124030  0.239740  0.513370  1.0  0.9875
  Cd  Cd7  1  0.375970  0.739740  0.986630  1.0  0.9863
  Cd  Cd8  1  0.875970  0.239740  0.986630  1.0  0.9863
  H  H9  1  0.060900  0.795700  0.172900  1.0  0.0728
  H  H10  1  0.122300  0.007900  0.242700  1.0  0.1035
  H  H11  1  0.214700  0.801000  0.308600  1.0  0.0702
  H  H12  1  0.978600  0.864100  0.107300  1.0  0.3014
  H  H13  1  0.878000  0.926300  0.011300  1.0  0.1138
  H  H14  1  0.843800  0.050300  0.972500  1.0  0.0651
  H  H15  1  0.970300  0.166900  0.094200  1.0  0.085
  H  H16  1  0.284900  0.874600  0.378300  1.0  0.2897
  H  H17  1  0.378300  0.946000  0.473500  1.0  0.1071
  H  H18  1  0.403500  0.073400  0.509400  1.0  0.0636
  H  H19  1  0.267300  0.178200  0.385400  1.0  0.0828
  H  H20  1  0.195300  0.713800  0.463100  1.0  0.1268
  H  H21  1  0.155800  0.745500  0.406200  1.0  0.1261
  H  H22  1  0.012800  0.596100  0.410700  1.0  0.0722
  H  H23  1  0.022500  0.464200  0.381500  1.0  0.0984
  H  H24  1  0.294000  0.492300  0.372400  1.0  0.0933
  H  H25  1  0.285000  0.622700  0.402300  1.0  0.1087
  H  H26  1  0.212800  0.371100  0.332400  1.0  0.1099
  H  H27  1  0.108900  0.356600  0.343500  1.0  0.1088
  H  H28  1  0.560900  0.295700  0.172900  1.0  0.0728
  H  H29  1  0.622300  0.507900  0.242700  1.0  0.1035
  H  H30  1  0.714700  0.301000  0.308600  1.0  0.0702
  H  H31  1  0.478600  0.364100  0.107300  1.0  0.3014
  H  H32  1  0.378000  0.426300  0.011300  1.0  0.1138
  H  H33  1  0.343800  0.550300  0.972500  1.0  0.0651
  H  H34  1  0.470300  0.666900  0.094200  1.0  0.085
  H  H35  1  0.784900  0.374600  0.378300  1.0  0.2897
  H  H36  1  0.878300  0.446000  0.473500  1.0  0.1071
  H  H37  1  0.903500  0.573400  0.509400  1.0  0.0636
  H  H38  1  0.767300  0.678200  0.385400  1.0  0.0828
  H  H39  1  0.695300  0.213800  0.463100  1.0  0.1268
  H  H40  1  0.655800  0.245500  0.406200  1.0  0.1261
  H  H41  1  0.512800  0.096100  0.410700  1.0  0.0722
  H  H42  1  0.522500  0.964200  0.381500  1.0  0.0984
  H  H43  1  0.794000  0.992300  0.372400  1.0  0.0933
  H  H44  1  0.785000  0.122700  0.402300  1.0  0.1087
  H  H45  1  0.712800  0.871100  0.332400  1.0  0.1099
  H  H46  1  0.608900  0.856600  0.343500  1.0  0.1088
  H  H47  1  0.939100  0.795700  0.327100  1.0  0.0729
  H  H48  1  0.877700  0.007900  0.257300  1.0  0.1035
  H  H49  1  0.785300  0.801000  0.191400  1.0  0.0709
  H  H50  1  0.021400  0.864100  0.392700  1.0  0.3016
  H  H51  1  0.122000  0.926300  0.488700  1.0  0.1143
  H  H52  1  0.156200  0.050300  0.527500  1.0  0.0654
  H  H53  1  0.029700  0.166900  0.405800  1.0  0.0849
  H  H54  1  0.715100  0.874600  0.121700  1.0  0.289
  H  H55  1  0.621700  0.946000  0.026500  1.0  0.1073
  H  H56  1  0.596500  0.073400  0.990600  1.0  0.0635
  H  H57  1  0.732700  0.178200  0.114600  1.0  0.0824
  H  H58  1  0.804700  0.713800  0.036900  1.0  0.1265
  H  H59  1  0.844200  0.745500  0.093800  1.0  0.1286
  H  H60  1  0.987200  0.596100  0.089300  1.0  0.0728
  H  H61  1  0.977500  0.464200  0.118500  1.0  0.098
  H  H62  1  0.706000  0.492300  0.127600  1.0  0.0928
  H  H63  1  0.715000  0.622700  0.097700  1.0  0.1092
  H  H64  1  0.787200  0.371100  0.167600  1.0  0.1124
  H  H65  1  0.891100  0.356600  0.156500  1.0  0.1073
  H  H66  1  0.439100  0.295700  0.327100  1.0  0.0729
  H  H67  1  0.377700  0.507900  0.257300  1.0  0.1035
  H  H68  1  0.285300  0.301000  0.191400  1.0  0.0709
  H  H69  1  0.521400  0.364100  0.392700  1.0  0.3016
  H  H70  1  0.622000  0.426300  0.488700  1.0  0.1143
  H  H71  1  0.656200  0.550300  0.527500  1.0  0.0654
  H  H72  1  0.529700  0.666900  0.405800  1.0  0.0849
  H  H73  1  0.215100  0.374600  0.121700  1.0  0.289
  H  H74  1  0.121700  0.446000  0.026500  1.0  0.1073
  H  H75  1  0.096500  0.573400  0.990600  1.0  0.0635
  H  H76  1  0.232700  0.678200  0.114600  1.0  0.0824
  H  H77  1  0.304700  0.213800  0.036900  1.0  0.1265
  H  H78  1  0.344200  0.245500  0.093800  1.0  0.1286
  H  H79  1  0.487200  0.096100  0.089300  1.0  0.0728
  H  H80  1  0.477500  0.964200  0.118500  1.0  0.098
  H  H81  1  0.206000  0.992300  0.127600  1.0  0.0928
  H  H82  1  0.215000  0.122700  0.097700  1.0  0.1092
  H  H83  1  0.287200  0.871100  0.167600  1.0  0.1124
  H  H84  1  0.391100  0.856600  0.156500  1.0  0.1073
  H  H85  1  0.939100  0.204300  0.827100  1.0  0.0724
  H  H86  1  0.877700  0.992100  0.757300  1.0  0.1043
  H  H87  1  0.785300  0.199000  0.691400  1.0  0.0711
  H  H88  1  0.021400  0.135900  0.892700  1.0  0.3009
  H  H89  1  0.122000  0.073700  0.988700  1.0  0.1144
  H  H90  1  0.156200  0.949700  0.027500  1.0  0.0653
  H  H91  1  0.029700  0.833100  0.905800  1.0  0.0849
  H  H92  1  0.715100  0.125400  0.621700  1.0  0.2899
  H  H93  1  0.621700  0.054000  0.526500  1.0  0.1072
  H  H94  1  0.596500  0.926600  0.490600  1.0  0.064
  H  H95  1  0.732700  0.821800  0.614600  1.0  0.0829
  H  H96  1  0.804700  0.286200  0.536900  1.0  0.1263
  H  H97  1  0.844200  0.254500  0.593800  1.0  0.1289
  H  H98  1  0.987200  0.403900  0.589300  1.0  0.0731
  H  H99  1  0.977500  0.535800  0.618500  1.0  0.0981
  H  H100  1  0.706000  0.507700  0.627600  1.0  0.0931
  H  H101  1  0.715000  0.377300  0.597700  1.0  0.1086
  H  H102  1  0.787200  0.628900  0.667600  1.0  0.1123
  H  H103  1  0.891100  0.643400  0.656500  1.0  0.1073
  H  H104  1  0.439100  0.704300  0.827100  1.0  0.0724
  H  H105  1  0.377700  0.492100  0.757300  1.0  0.1043
  H  H106  1  0.285300  0.699000  0.691400  1.0  0.0711
  H  H107  1  0.521400  0.635900  0.892700  1.0  0.3009
  H  H108  1  0.622000  0.573700  0.988700  1.0  0.1144
  H  H109  1  0.656200  0.449700  0.027500  1.0  0.0653
  H  H110  1  0.529700  0.333100  0.905800  1.0  0.0849
  H  H111  1  0.215100  0.625400  0.621700  1.0  0.2899
  H  H112  1  0.121700  0.554000  0.526500  1.0  0.1072
  H  H113  1  0.096500  0.426600  0.490600  1.0  0.064
  H  H114  1  0.232700  0.321800  0.614600  1.0  0.0829
  H  H115  1  0.304700  0.786200  0.536900  1.0  0.1263
  H  H116  1  0.344200  0.754500  0.593800  1.0  0.1289
  H  H117  1  0.487200  0.903900  0.589300  1.0  0.0731
  H  H118  1  0.477500  0.035800  0.618500  1.0  0.0981
  H  H119  1  0.206000  0.007700  0.627600  1.0  0.0931
  H  H120  1  0.215000  0.877300  0.597700  1.0  0.1086
  H  H121  1  0.287200  0.128900  0.667600  1.0  0.1123
  H  H122  1  0.391100  0.143400  0.656500  1.0  0.1073
  H  H123  1  0.060900  0.204300  0.672900  1.0  0.073
  H  H124  1  0.122300  0.992100  0.742700  1.0  0.105
  H  H125  1  0.214700  0.199000  0.808600  1.0  0.0704
  H  H126  1  0.978600  0.135900  0.607300  1.0  0.3006
  H  H127  1  0.878000  0.073700  0.511300  1.0  0.1147
  H  H128  1  0.843800  0.949700  0.472500  1.0  0.0651
  H  H129  1  0.970300  0.833100  0.594200  1.0  0.0851
  H  H130  1  0.284900  0.125400  0.878300  1.0  0.29
  H  H131  1  0.378300  0.054000  0.973500  1.0  0.1069
  H  H132  1  0.403500  0.926600  0.009400  1.0  0.0647
  H  H133  1  0.267300  0.821800  0.885400  1.0  0.083
  H  H134  1  0.195300  0.286200  0.963100  1.0  0.1274
  H  H135  1  0.155800  0.254500  0.906200  1.0  0.1267
  H  H136  1  0.012800  0.403900  0.910700  1.0  0.0724
  H  H137  1  0.022500  0.535800  0.881500  1.0  0.0984
  H  H138  1  0.294000  0.507700  0.872400  1.0  0.0932
  H  H139  1  0.285000  0.377300  0.902300  1.0  0.1084
  H  H140  1  0.212800  0.628900  0.832400  1.0  0.1101
  H  H141  1  0.108900  0.643400  0.843500  1.0  0.1085
  H  H142  1  0.560900  0.704300  0.672900  1.0  0.073
  H  H143  1  0.622300  0.492100  0.742700  1.0  0.105
  H  H144  1  0.714700  0.699000  0.808600  1.0  0.0704
  H  H145  1  0.478600  0.635900  0.607300  1.0  0.3006
  H  H146  1  0.378000  0.573700  0.511300  1.0  0.1147
  H  H147  1  0.343800  0.449700  0.472500  1.0  0.0651
  H  H148  1  0.470300  0.333100  0.594200  1.0  0.0851
  H  H149  1  0.784900  0.625400  0.878300  1.0  0.29
  H  H150  1  0.878300  0.554000  0.973500  1.0  0.1069
  H  H151  1  0.903500  0.426600  0.009400  1.0  0.0647
  H  H152  1  0.767300  0.321800  0.885400  1.0  0.083
  H  H153  1  0.695300  0.786200  0.963100  1.0  0.1274
  H  H154  1  0.655800  0.754500  0.906200  1.0  0.1267
  H  H155  1  0.512800  0.903900  0.910700  1.0  0.0724
  H  H156  1  0.522500  0.035800  0.881500  1.0  0.0984
  H  H157  1  0.794000  0.007700  0.872400  1.0  0.0932
  H  H158  1  0.785000  0.877300  0.902300  1.0  0.1084
  H  H159  1  0.712800  0.128900  0.832400  1.0  0.1101
  H  H160  1  0.608900  0.143400  0.843500  1.0  0.1085
  C  C161  1  0.091600  0.825420  0.200680  1.0  0.1612
  C  C162  1  0.082970  0.908020  0.199590  1.0  -0.0318
  C  C163  1  0.126950  0.952120  0.242220  1.0  -0.0119
  C  C164  1  0.178100  0.911630  0.284270  1.0  -0.0099
  C  C165  1  0.181900  0.828900  0.280560  1.0  0.1733
  C  C166  1  0.031430  0.952290  0.155510  1.0  0.3135
  C  C167  1  0.976500  0.046350  0.104030  1.0  0.1333
  C  C168  1  0.949800  0.973510  0.078320  1.0  0.1283
  C  C169  1  0.898000  0.973720  0.028470  1.0  -0.1666
  C  C170  1  0.877900  0.048290  0.006000  1.0  0.1497
  C  C171  1  0.952500  0.118310  0.077770  1.0  0.1711
  C  C172  1  0.223600  0.956980  0.328930  1.0  0.3623
  C  C173  1  0.268500  0.057060  0.379270  1.0  0.1132
  C  C174  1  0.303200  0.987220  0.405260  1.0  0.1101
  C  C175  1  0.355000  0.991640  0.455310  1.0  -0.1587
  C  C176  1  0.369300  0.068100  0.476070  1.0  0.1373
  C  C177  1  0.288200  0.131360  0.403060  1.0  0.1621
  C  C178  1  0.056500  0.727900  0.456990  1.0  0.6802
  C  C179  1  0.145200  0.707600  0.434800  1.0  -0.3895
  C  C180  1  0.147800  0.622450  0.412280  1.0  0.0453
  C  C181  1  0.070300  0.575000  0.404150  1.0  -0.1202
  C  C182  1  0.075900  0.495500  0.386140  1.0  -0.119
  C  C183  1  0.160100  0.462950  0.375130  1.0  0.0535
  C  C184  1  0.237200  0.512400  0.380910  1.0  -0.1027
  C  C185  1  0.232000  0.590800  0.399010  1.0  -0.1474
  C  C186  1  0.168400  0.376100  0.359260  1.0  -0.3811
  C  C187  1  0.199800  0.326460  0.408160  1.0  0.7453
  C  C188  1  0.591600  0.325420  0.200680  1.0  0.1612
  C  C189  1  0.582970  0.408020  0.199590  1.0  -0.0318
  C  C190  1  0.626950  0.452120  0.242220  1.0  -0.0119
  C  C191  1  0.678100  0.411630  0.284270  1.0  -0.0099
  C  C192  1  0.681900  0.328900  0.280560  1.0  0.1733
  C  C193  1  0.531430  0.452290  0.155510  1.0  0.3135
  C  C194  1  0.476500  0.546350  0.104030  1.0  0.1333
  C  C195  1  0.449800  0.473510  0.078320  1.0  0.1283
  C  C196  1  0.398000  0.473720  0.028470  1.0  -0.1666
  C  C197  1  0.377900  0.548290  0.006000  1.0  0.1497
  C  C198  1  0.452500  0.618310  0.077770  1.0  0.1711
  C  C199  1  0.723600  0.456980  0.328930  1.0  0.3623
  C  C200  1  0.768500  0.557060  0.379270  1.0  0.1132
  C  C201  1  0.803200  0.487220  0.405260  1.0  0.1101
  C  C202  1  0.855000  0.491640  0.455310  1.0  -0.1587
  C  C203  1  0.869300  0.568100  0.476070  1.0  0.1373
  C  C204  1  0.788200  0.631360  0.403060  1.0  0.1621
  C  C205  1  0.556500  0.227900  0.456990  1.0  0.6802
  C  C206  1  0.645200  0.207600  0.434800  1.0  -0.3895
  C  C207  1  0.647800  0.122450  0.412280  1.0  0.0453
  C  C208  1  0.570300  0.075000  0.404150  1.0  -0.1202
  C  C209  1  0.575900  0.995500  0.386140  1.0  -0.119
  C  C210  1  0.660100  0.962950  0.375130  1.0  0.0535
  C  C211  1  0.737200  0.012400  0.380910  1.0  -0.1027
  C  C212  1  0.732000  0.090800  0.399010  1.0  -0.1474
  C  C213  1  0.668400  0.876100  0.359260  1.0  -0.3811
  C  C214  1  0.699800  0.826460  0.408160  1.0  0.7453
  C  C215  1  0.908400  0.825420  0.299320  1.0  0.1614
  C  C216  1  0.917030  0.908020  0.300410  1.0  -0.0331
  C  C217  1  0.873050  0.952120  0.257780  1.0  -0.0108
  C  C218  1  0.821900  0.911630  0.215730  1.0  -0.0099
  C  C219  1  0.818100  0.828900  0.219440  1.0  0.1749
  C  C220  1  0.968570  0.952290  0.344490  1.0  0.3145
  C  C221  1  0.023500  0.046350  0.395970  1.0  0.1337
  C  C222  1  0.050200  0.973510  0.421680  1.0  0.1285
  C  C223  1  0.102000  0.973720  0.471530  1.0  -0.1666
  C  C224  1  0.122100  0.048290  0.494000  1.0  0.1492
  C  C225  1  0.047500  0.118310  0.422230  1.0  0.1703
  C  C226  1  0.776400  0.956980  0.171070  1.0  0.3655
  C  C227  1  0.731500  0.057060  0.120730  1.0  0.1145
  C  C228  1  0.696800  0.987220  0.094740  1.0  0.1094
  C  C229  1  0.645000  0.991640  0.044690  1.0  -0.1587
  C  C230  1  0.630700  0.068100  0.023930  1.0  0.1372
  C  C231  1  0.711800  0.131360  0.096940  1.0  0.1634
  C  C232  1  0.943500  0.727900  0.043010  1.0  0.6828
  C  C233  1  0.854800  0.707600  0.065200  1.0  -0.3897
  C  C234  1  0.852200  0.622450  0.087720  1.0  0.0463
  C  C235  1  0.929700  0.575000  0.095850  1.0  -0.1188
  C  C236  1  0.924100  0.495500  0.113860  1.0  -0.1174
  C  C237  1  0.839900  0.462950  0.124870  1.0  0.057
  C  C238  1  0.762800  0.512400  0.119090  1.0  -0.1007
  C  C239  1  0.768000  0.590800  0.100990  1.0  -0.1469
  C  C240  1  0.831600  0.376100  0.140740  1.0  -0.383
  C  C241  1  0.800200  0.326460  0.091840  1.0  0.7437
  C  C242  1  0.408400  0.325420  0.299320  1.0  0.1614
  C  C243  1  0.417030  0.408020  0.300410  1.0  -0.0331
  C  C244  1  0.373050  0.452120  0.257780  1.0  -0.0108
  C  C245  1  0.321900  0.411630  0.215730  1.0  -0.0099
  C  C246  1  0.318100  0.328900  0.219440  1.0  0.1749
  C  C247  1  0.468570  0.452290  0.344490  1.0  0.3145
  C  C248  1  0.523500  0.546350  0.395970  1.0  0.1337
  C  C249  1  0.550200  0.473510  0.421680  1.0  0.1285
  C  C250  1  0.602000  0.473720  0.471530  1.0  -0.1666
  C  C251  1  0.622100  0.548290  0.494000  1.0  0.1492
  C  C252  1  0.547500  0.618310  0.422230  1.0  0.1703
  C  C253  1  0.276400  0.456980  0.171070  1.0  0.3655
  C  C254  1  0.231500  0.557060  0.120730  1.0  0.1145
  C  C255  1  0.196800  0.487220  0.094740  1.0  0.1094
  C  C256  1  0.145000  0.491640  0.044690  1.0  -0.1587
  C  C257  1  0.130700  0.568100  0.023930  1.0  0.1372
  C  C258  1  0.211800  0.631360  0.096940  1.0  0.1634
  C  C259  1  0.443500  0.227900  0.043010  1.0  0.6828
  C  C260  1  0.354800  0.207600  0.065200  1.0  -0.3897
  C  C261  1  0.352200  0.122450  0.087720  1.0  0.0463
  C  C262  1  0.429700  0.075000  0.095850  1.0  -0.1188
  C  C263  1  0.424100  0.995500  0.113860  1.0  -0.1174
  C  C264  1  0.339900  0.962950  0.124870  1.0  0.057
  C  C265  1  0.262800  0.012400  0.119090  1.0  -0.1007
  C  C266  1  0.268000  0.090800  0.100990  1.0  -0.1469
  C  C267  1  0.331600  0.876100  0.140740  1.0  -0.383
  C  C268  1  0.300200  0.826460  0.091840  1.0  0.7437
  C  C269  1  0.908400  0.174580  0.799320  1.0  0.161
  C  C270  1  0.917030  0.091980  0.800410  1.0  -0.0335
  C  C271  1  0.873050  0.047880  0.757780  1.0  -0.0093
  C  C272  1  0.821900  0.088370  0.715730  1.0  -0.0096
  C  C273  1  0.818100  0.171100  0.719440  1.0  0.1753
  C  C274  1  0.968570  0.047710  0.844490  1.0  0.3137
  C  C275  1  0.023500  0.953650  0.895970  1.0  0.1332
  C  C276  1  0.050200  0.026490  0.921680  1.0  0.1286
  C  C277  1  0.102000  0.026280  0.971530  1.0  -0.1665
  C  C278  1  0.122100  0.951710  0.994000  1.0  0.1492
  C  C279  1  0.047500  0.881690  0.922230  1.0  0.1704
  C  C280  1  0.776400  0.043020  0.671070  1.0  0.365
  C  C281  1  0.731500  0.942940  0.620730  1.0  0.114
  C  C282  1  0.696800  0.012780  0.594740  1.0  0.1098
  C  C283  1  0.645000  0.008360  0.544690  1.0  -0.1591
  C  C284  1  0.630700  0.931900  0.523930  1.0  0.1371
  C  C285  1  0.711800  0.868640  0.596940  1.0  0.165
  C  C286  1  0.943500  0.272100  0.543010  1.0  0.683
  C  C287  1  0.854800  0.292400  0.565200  1.0  -0.389
  C  C288  1  0.852200  0.377550  0.587720  1.0  0.0462
  C  C289  1  0.929700  0.425000  0.595850  1.0  -0.1187
  C  C290  1  0.924100  0.504500  0.613860  1.0  -0.1175
  C  C291  1  0.839900  0.537050  0.624870  1.0  0.057
  C  C292  1  0.762800  0.487600  0.619090  1.0  -0.1011
  C  C293  1  0.768000  0.409200  0.600990  1.0  -0.1453
  C  C294  1  0.831600  0.623900  0.640740  1.0  -0.3811
  C  C295  1  0.800200  0.673540  0.591840  1.0  0.7444
  C  C296  1  0.408400  0.674580  0.799320  1.0  0.161
  C  C297  1  0.417030  0.591980  0.800410  1.0  -0.0335
  C  C298  1  0.373050  0.547880  0.757780  1.0  -0.0093
  C  C299  1  0.321900  0.588370  0.715730  1.0  -0.0096
  C  C300  1  0.318100  0.671100  0.719440  1.0  0.1753
  C  C301  1  0.468570  0.547710  0.844490  1.0  0.3137
  C  C302  1  0.523500  0.453650  0.895970  1.0  0.1332
  C  C303  1  0.550200  0.526490  0.921680  1.0  0.1286
  C  C304  1  0.602000  0.526280  0.971530  1.0  -0.1665
  C  C305  1  0.622100  0.451710  0.994000  1.0  0.1492
  C  C306  1  0.547500  0.381690  0.922230  1.0  0.1704
  C  C307  1  0.276400  0.543020  0.671070  1.0  0.365
  C  C308  1  0.231500  0.442940  0.620730  1.0  0.114
  C  C309  1  0.196800  0.512780  0.594740  1.0  0.1098
  C  C310  1  0.145000  0.508360  0.544690  1.0  -0.1591
  C  C311  1  0.130700  0.431900  0.523930  1.0  0.1371
  C  C312  1  0.211800  0.368640  0.596940  1.0  0.165
  C  C313  1  0.443500  0.772100  0.543010  1.0  0.683
  C  C314  1  0.354800  0.792400  0.565200  1.0  -0.389
  C  C315  1  0.352200  0.877550  0.587720  1.0  0.0462
  C  C316  1  0.429700  0.925000  0.595850  1.0  -0.1187
  C  C317  1  0.424100  0.004500  0.613860  1.0  -0.1175
  C  C318  1  0.339900  0.037050  0.624870  1.0  0.057
  C  C319  1  0.262800  0.987600  0.619090  1.0  -0.1011
  C  C320  1  0.268000  0.909200  0.600990  1.0  -0.1453
  C  C321  1  0.331600  0.123900  0.640740  1.0  -0.3811
  C  C322  1  0.300200  0.173540  0.591840  1.0  0.7444
  C  C323  1  0.091600  0.174580  0.700680  1.0  0.1604
  C  C324  1  0.082970  0.091980  0.699590  1.0  -0.0319
  C  C325  1  0.126950  0.047880  0.742220  1.0  -0.0096
  C  C326  1  0.178100  0.088370  0.784270  1.0  -0.0098
  C  C327  1  0.181900  0.171100  0.780560  1.0  0.1741
  C  C328  1  0.031430  0.047710  0.655510  1.0  0.3132
  C  C329  1  0.976500  0.953650  0.604030  1.0  0.1327
  C  C330  1  0.949800  0.026490  0.578320  1.0  0.1281
  C  C331  1  0.898000  0.026280  0.528470  1.0  -0.1657
  C  C332  1  0.877900  0.951710  0.506000  1.0  0.1494
  C  C333  1  0.952500  0.881690  0.577770  1.0  0.1697
  C  C334  1  0.223600  0.043020  0.828930  1.0  0.3622
  C  C335  1  0.268500  0.942940  0.879270  1.0  0.1116
  C  C336  1  0.303200  0.012780  0.905260  1.0  0.1103
  C  C337  1  0.355000  0.008360  0.955310  1.0  -0.1592
  C  C338  1  0.369300  0.931900  0.976070  1.0  0.1373
  C  C339  1  0.288200  0.868640  0.903060  1.0  0.1631
  C  C340  1  0.056500  0.272100  0.956990  1.0  0.6804
  C  C341  1  0.145200  0.292400  0.934800  1.0  -0.3887
  C  C342  1  0.147800  0.377550  0.912280  1.0  0.0451
  C  C343  1  0.070300  0.425000  0.904150  1.0  -0.1199
  C  C344  1  0.075900  0.504500  0.886140  1.0  -0.1194
  C  C345  1  0.160100  0.537050  0.875130  1.0  0.0533
  C  C346  1  0.237200  0.487600  0.880910  1.0  -0.1033
  C  C347  1  0.232000  0.409200  0.899010  1.0  -0.1483
  C  C348  1  0.168400  0.623900  0.859260  1.0  -0.3823
  C  C349  1  0.199800  0.673540  0.908160  1.0  0.7448
  C  C350  1  0.591600  0.674580  0.700680  1.0  0.1604
  C  C351  1  0.582970  0.591980  0.699590  1.0  -0.0319
  C  C352  1  0.626950  0.547880  0.742220  1.0  -0.0096
  C  C353  1  0.678100  0.588370  0.784270  1.0  -0.0098
  C  C354  1  0.681900  0.671100  0.780560  1.0  0.1741
  C  C355  1  0.531430  0.547710  0.655510  1.0  0.3132
  C  C356  1  0.476500  0.453650  0.604030  1.0  0.1327
  C  C357  1  0.449800  0.526490  0.578320  1.0  0.1281
  C  C358  1  0.398000  0.526280  0.528470  1.0  -0.1657
  C  C359  1  0.377900  0.451710  0.506000  1.0  0.1494
  C  C360  1  0.452500  0.381690  0.577770  1.0  0.1697
  C  C361  1  0.723600  0.543020  0.828930  1.0  0.3622
  C  C362  1  0.768500  0.442940  0.879270  1.0  0.1116
  C  C363  1  0.803200  0.512780  0.905260  1.0  0.1103
  C  C364  1  0.855000  0.508360  0.955310  1.0  -0.1592
  C  C365  1  0.869300  0.431900  0.976070  1.0  0.1373
  C  C366  1  0.788200  0.368640  0.903060  1.0  0.1631
  C  C367  1  0.556500  0.772100  0.956990  1.0  0.6804
  C  C368  1  0.645200  0.792400  0.934800  1.0  -0.3887
  C  C369  1  0.647800  0.877550  0.912280  1.0  0.0451
  C  C370  1  0.570300  0.925000  0.904150  1.0  -0.1199
  C  C371  1  0.575900  0.004500  0.886140  1.0  -0.1194
  C  C372  1  0.660100  0.037050  0.875130  1.0  0.0533
  C  C373  1  0.737200  0.987600  0.880910  1.0  -0.1033
  C  C374  1  0.732000  0.909200  0.899010  1.0  -0.1483
  C  C375  1  0.668400  0.123900  0.859260  1.0  -0.3823
  C  C376  1  0.699800  0.173540  0.908160  1.0  0.7448
  N  N377  1  0.142100  0.786320  0.239750  1.0  -0.4215
  N  N378  1  0.984660  0.915170  0.112130  1.0  -0.241
  N  N379  1  0.027110  0.031270  0.152740  1.0  -0.4657
  N  N380  1  0.905090  0.118830  0.029970  1.0  -0.3573
  N  N381  1  0.273790  0.924890  0.372510  1.0  -0.2772
  N  N382  1  0.217910  0.037500  0.331350  1.0  -0.4878
  N  N383  1  0.336540  0.135960  0.450820  1.0  -0.3558
  N  N384  1  0.642100  0.286320  0.239750  1.0  -0.4215
  N  N385  1  0.484660  0.415170  0.112130  1.0  -0.241
  N  N386  1  0.527110  0.531270  0.152740  1.0  -0.4657
  N  N387  1  0.405090  0.618830  0.029970  1.0  -0.3573
  N  N388  1  0.773790  0.424890  0.372510  1.0  -0.2772
  N  N389  1  0.717910  0.537500  0.331350  1.0  -0.4878
  N  N390  1  0.836540  0.635960  0.450820  1.0  -0.3558
  N  N391  1  0.857900  0.786320  0.260250  1.0  -0.4234
  N  N392  1  0.015340  0.915170  0.387870  1.0  -0.2415
  N  N393  1  0.972890  0.031270  0.347260  1.0  -0.4666
  N  N394  1  0.094910  0.118830  0.470030  1.0  -0.3574
  N  N395  1  0.726210  0.924890  0.127490  1.0  -0.2771
  N  N396  1  0.782090  0.037500  0.168650  1.0  -0.49
  N  N397  1  0.663460  0.135960  0.049180  1.0  -0.3547
  N  N398  1  0.357900  0.286320  0.260250  1.0  -0.4234
  N  N399  1  0.515340  0.415170  0.387870  1.0  -0.2415
  N  N400  1  0.472890  0.531270  0.347260  1.0  -0.4666
  N  N401  1  0.594910  0.618830  0.470030  1.0  -0.3574
  N  N402  1  0.226210  0.424890  0.127490  1.0  -0.2771
  N  N403  1  0.282090  0.537500  0.168650  1.0  -0.49
  N  N404  1  0.163460  0.635960  0.049180  1.0  -0.3547
  N  N405  1  0.857900  0.213680  0.760250  1.0  -0.4271
  N  N406  1  0.015340  0.084830  0.887870  1.0  -0.242
  N  N407  1  0.972890  0.968730  0.847260  1.0  -0.4651
  N  N408  1  0.094910  0.881170  0.970030  1.0  -0.3579
  N  N409  1  0.726210  0.075110  0.627490  1.0  -0.277
  N  N410  1  0.782090  0.962500  0.668650  1.0  -0.487
  N  N411  1  0.663460  0.864040  0.549180  1.0  -0.3537
  N  N412  1  0.357900  0.713680  0.760250  1.0  -0.4271
  N  N413  1  0.515340  0.584830  0.887870  1.0  -0.242
  N  N414  1  0.472890  0.468730  0.847260  1.0  -0.4651
  N  N415  1  0.594910  0.381170  0.970030  1.0  -0.3579
  N  N416  1  0.226210  0.575110  0.627490  1.0  -0.277
  N  N417  1  0.282090  0.462500  0.668650  1.0  -0.487
  N  N418  1  0.163460  0.364040  0.549180  1.0  -0.3537
  N  N419  1  0.142100  0.213680  0.739750  1.0  -0.4277
  N  N420  1  0.984660  0.084830  0.612130  1.0  -0.2413
  N  N421  1  0.027110  0.968730  0.652740  1.0  -0.4662
  N  N422  1  0.905090  0.881170  0.529970  1.0  -0.3593
  N  N423  1  0.273790  0.075110  0.872510  1.0  -0.2779
  N  N424  1  0.217910  0.962500  0.831350  1.0  -0.4887
  N  N425  1  0.336540  0.864040  0.950820  1.0  -0.3551
  N  N426  1  0.642100  0.713680  0.739750  1.0  -0.4277
  N  N427  1  0.484660  0.584830  0.612130  1.0  -0.2413
  N  N428  1  0.527110  0.468730  0.652740  1.0  -0.4662
  N  N429  1  0.405090  0.381170  0.529970  1.0  -0.3593
  N  N430  1  0.773790  0.575110  0.872510  1.0  -0.2779
  N  N431  1  0.717910  0.462500  0.831350  1.0  -0.4887
  N  N432  1  0.836540  0.364040  0.950820  1.0  -0.3551
  O  O433  1  0.995890  0.765400  0.428010  1.0  -0.6331
  O  O434  1  0.041230  0.706530  0.503370  1.0  -0.6527
  O  O435  1  0.138500  0.290370  0.430990  1.0  -0.6559
  O  O436  1  0.285850  0.326040  0.421980  1.0  -0.648
  O  O437  1  0.495890  0.265400  0.428010  1.0  -0.6331
  O  O438  1  0.541230  0.206530  0.503370  1.0  -0.6527
  O  O439  1  0.638500  0.790370  0.430990  1.0  -0.6559
  O  O440  1  0.785850  0.826040  0.421980  1.0  -0.648
  O  O441  1  0.004110  0.765400  0.071990  1.0  -0.6329
  O  O442  1  0.958770  0.706530  0.996630  1.0  -0.6517
  O  O443  1  0.861500  0.290370  0.069010  1.0  -0.6553
  O  O444  1  0.714150  0.326040  0.078020  1.0  -0.6486
  O  O445  1  0.504110  0.265400  0.071990  1.0  -0.6329
  O  O446  1  0.458770  0.206530  0.996630  1.0  -0.6517
  O  O447  1  0.361500  0.790370  0.069010  1.0  -0.6553
  O  O448  1  0.214150  0.826040  0.078020  1.0  -0.6486
  O  O449  1  0.004110  0.234600  0.571990  1.0  -0.6334
  O  O450  1  0.958770  0.293470  0.496630  1.0  -0.6516
  O  O451  1  0.861500  0.709630  0.569010  1.0  -0.6548
  O  O452  1  0.714150  0.673960  0.578020  1.0  -0.6476
  O  O453  1  0.504110  0.734600  0.571990  1.0  -0.6334
  O  O454  1  0.458770  0.793470  0.496630  1.0  -0.6516
  O  O455  1  0.361500  0.209630  0.569010  1.0  -0.6548
  O  O456  1  0.214150  0.173960  0.578020  1.0  -0.6476
  O  O457  1  0.995890  0.234600  0.928010  1.0  -0.6341
  O  O458  1  0.041230  0.293470  0.003370  1.0  -0.6529
  O  O459  1  0.138500  0.709630  0.930990  1.0  -0.6557
  O  O460  1  0.285850  0.673960  0.921980  1.0  -0.648
  O  O461  1  0.495890  0.734600  0.928010  1.0  -0.6341
  O  O462  1  0.541230  0.793470  0.003370  1.0  -0.6529
  O  O463  1  0.638500  0.209630  0.930990  1.0  -0.6557
  O  O464  1  0.785850  0.173960  0.921980  1.0  -0.648
