# generated using pymatgen
data_ZnH22C39NO4
_symmetry_space_group_name_H-M   'P 1'
_cell_length_a   44.26000000
_cell_length_b   15.01600000
_cell_length_c   14.97400000
_cell_angle_alpha   90.00000000
_cell_angle_beta   94.01200000
_cell_angle_gamma   90.00000000
_symmetry_Int_Tables_number   1
_chemical_formula_structural   ZnH22C39NO4
_chemical_formula_sum   'Zn8 H176 C312 N8 O32'
_cell_volume   9927.45478769
_cell_formula_units_Z   8
loop_
 _symmetry_equiv_pos_site_id
 _symmetry_equiv_pos_as_xyz
  1  'x, y, z'
loop_
 _atom_site_type_symbol
 _atom_site_label
 _atom_site_symmetry_multiplicity
 _atom_site_fract_x
 _atom_site_fract_y
 _atom_site_fract_z
 _atom_site_occupancy
 _atom_site_charge
  Zn  Zn1  1  0.216870  0.250560  0.995640  1.0  0.9393
  Zn  Zn2  1  0.716870  0.750560  0.995640  1.0  0.9393
  Zn  Zn3  1  0.783130  0.250560  0.504360  1.0  0.9392
  Zn  Zn4  1  0.283130  0.750560  0.504360  1.0  0.9392
  Zn  Zn5  1  0.783130  0.749440  0.004360  1.0  0.9392
  Zn  Zn6  1  0.283130  0.249440  0.004360  1.0  0.9392
  Zn  Zn7  1  0.216870  0.749440  0.495640  1.0  0.9394
  Zn  Zn8  1  0.716870  0.249440  0.495640  1.0  0.9394
  H  H9  1  0.204600  0.525300  0.445700  1.0  0.1076
  H  H10  1  0.254200  0.634400  0.005100  1.0  0.0979
  H  H11  1  0.255700  0.704600  0.264300  1.0  0.1066
  H  H12  1  0.303800  0.513300  0.459100  1.0  0.1149
  H  H13  1  0.255400  0.744400  0.114200  1.0  0.1035
  H  H14  1  0.297300  0.288900  0.244000  1.0  0.1039
  H  H15  1  0.335100  0.285200  0.358800  1.0  0.1049
  H  H16  1  0.338600  0.396700  0.465700  1.0  0.1029
  H  H17  1  0.199000  0.307100  0.223600  1.0  0.1131
  H  H18  1  0.179000  0.328700  0.850500  1.0  0.0756
  H  H19  1  0.251800  0.485400  0.045600  1.0  0.1072
  H  H20  1  0.161300  0.317900  0.323700  1.0  0.1075
  H  H21  1  0.130100  0.321600  0.788600  1.0  0.1238
  H  H22  1  0.164500  0.424300  0.435500  1.0  0.1027
  H  H23  1  0.108100  0.181400  0.004200  1.0  0.1227
  H  H24  1  0.158000  0.189700  0.059400  1.0  0.0862
  H  H25  1  0.050000  0.076400  0.808600  1.0  0.1063
  H  H26  1  0.065500  0.331000  0.667000  1.0  0.1071
  H  H27  1  0.051600  0.403000  0.533300  1.0  0.1021
  H  H28  1  0.001600  0.406000  0.476400  1.0  0.1121
  H  H29  1  0.025200  0.942000  0.779300  1.0  0.1108
  H  H30  1  0.035300  0.335000  0.943900  1.0  0.1039
  H  H31  1  0.704600  0.025300  0.445700  1.0  0.1076
  H  H32  1  0.754200  0.134400  0.005100  1.0  0.0979
  H  H33  1  0.755700  0.204600  0.264300  1.0  0.1066
  H  H34  1  0.803800  0.013300  0.459100  1.0  0.1149
  H  H35  1  0.755400  0.244400  0.114200  1.0  0.1035
  H  H36  1  0.797300  0.788900  0.244000  1.0  0.1039
  H  H37  1  0.835100  0.785200  0.358800  1.0  0.1049
  H  H38  1  0.838600  0.896700  0.465700  1.0  0.1029
  H  H39  1  0.699000  0.807100  0.223600  1.0  0.1131
  H  H40  1  0.679000  0.828700  0.850500  1.0  0.0756
  H  H41  1  0.751800  0.985400  0.045600  1.0  0.1072
  H  H42  1  0.661300  0.817900  0.323700  1.0  0.1075
  H  H43  1  0.630100  0.821600  0.788600  1.0  0.1238
  H  H44  1  0.664500  0.924300  0.435500  1.0  0.1027
  H  H45  1  0.608100  0.681400  0.004200  1.0  0.1227
  H  H46  1  0.658000  0.689700  0.059400  1.0  0.0862
  H  H47  1  0.550000  0.576400  0.808600  1.0  0.1063
  H  H48  1  0.565500  0.831000  0.667000  1.0  0.1071
  H  H49  1  0.551600  0.903000  0.533300  1.0  0.1021
  H  H50  1  0.501600  0.906000  0.476400  1.0  0.1121
  H  H51  1  0.525200  0.442000  0.779300  1.0  0.1108
  H  H52  1  0.535300  0.835000  0.943900  1.0  0.1039
  H  H53  1  0.795400  0.525300  0.054300  1.0  0.1081
  H  H54  1  0.745800  0.634400  0.494900  1.0  0.0988
  H  H55  1  0.744300  0.704600  0.235700  1.0  0.107
  H  H56  1  0.696200  0.513300  0.040900  1.0  0.1156
  H  H57  1  0.744600  0.744400  0.385800  1.0  0.1029
  H  H58  1  0.702700  0.288900  0.256000  1.0  0.1048
  H  H59  1  0.664900  0.285200  0.141200  1.0  0.1041
  H  H60  1  0.661400  0.396700  0.034300  1.0  0.1026
  H  H61  1  0.801000  0.307100  0.276400  1.0  0.113
  H  H62  1  0.821000  0.328700  0.649500  1.0  0.0759
  H  H63  1  0.748200  0.485400  0.454400  1.0  0.107
  H  H64  1  0.838700  0.317900  0.176300  1.0  0.1075
  H  H65  1  0.869900  0.321600  0.711400  1.0  0.1232
  H  H66  1  0.835500  0.424300  0.064500  1.0  0.1015
  H  H67  1  0.891900  0.181400  0.495800  1.0  0.1231
  H  H68  1  0.842000  0.189700  0.440600  1.0  0.0857
  H  H69  1  0.950000  0.076400  0.691400  1.0  0.1074
  H  H70  1  0.934500  0.331000  0.833000  1.0  0.1076
  H  H71  1  0.948400  0.403000  0.966700  1.0  0.102
  H  H72  1  0.998400  0.406000  0.023600  1.0  0.1125
  H  H73  1  0.974800  0.942000  0.720700  1.0  0.1106
  H  H74  1  0.964700  0.335000  0.556100  1.0  0.1041
  H  H75  1  0.295400  0.025300  0.054300  1.0  0.1081
  H  H76  1  0.245800  0.134400  0.494900  1.0  0.0988
  H  H77  1  0.244300  0.204600  0.235700  1.0  0.107
  H  H78  1  0.196200  0.013300  0.040900  1.0  0.1156
  H  H79  1  0.244600  0.244400  0.385800  1.0  0.1029
  H  H80  1  0.202700  0.788900  0.256000  1.0  0.1048
  H  H81  1  0.164900  0.785200  0.141200  1.0  0.1041
  H  H82  1  0.161400  0.896700  0.034300  1.0  0.1026
  H  H83  1  0.301000  0.807100  0.276400  1.0  0.113
  H  H84  1  0.321000  0.828700  0.649500  1.0  0.0759
  H  H85  1  0.248200  0.985400  0.454400  1.0  0.107
  H  H86  1  0.338700  0.817900  0.176300  1.0  0.1075
  H  H87  1  0.369900  0.821600  0.711400  1.0  0.1232
  H  H88  1  0.335500  0.924300  0.064500  1.0  0.1015
  H  H89  1  0.391900  0.681400  0.495800  1.0  0.1231
  H  H90  1  0.342000  0.689700  0.440600  1.0  0.0857
  H  H91  1  0.450000  0.576400  0.691400  1.0  0.1074
  H  H92  1  0.434500  0.831000  0.833000  1.0  0.1076
  H  H93  1  0.448400  0.903000  0.966700  1.0  0.102
  H  H94  1  0.498400  0.906000  0.023600  1.0  0.1125
  H  H95  1  0.474800  0.442000  0.720700  1.0  0.1106
  H  H96  1  0.464700  0.835000  0.556100  1.0  0.1041
  H  H97  1  0.795400  0.474700  0.554300  1.0  0.108
  H  H98  1  0.745800  0.365600  0.994900  1.0  0.099
  H  H99  1  0.744300  0.295400  0.735700  1.0  0.1074
  H  H100  1  0.696200  0.486700  0.540900  1.0  0.115
  H  H101  1  0.744600  0.255600  0.885800  1.0  0.1037
  H  H102  1  0.702700  0.711100  0.756000  1.0  0.1044
  H  H103  1  0.664900  0.714800  0.641200  1.0  0.1054
  H  H104  1  0.661400  0.603300  0.534300  1.0  0.1027
  H  H105  1  0.801000  0.692900  0.776400  1.0  0.1131
  H  H106  1  0.821000  0.671300  0.149500  1.0  0.076
  H  H107  1  0.748200  0.514600  0.954400  1.0  0.1068
  H  H108  1  0.838700  0.682100  0.676300  1.0  0.1076
  H  H109  1  0.869900  0.678400  0.211400  1.0  0.1232
  H  H110  1  0.835500  0.575700  0.564500  1.0  0.1019
  H  H111  1  0.891900  0.818600  0.995800  1.0  0.1235
  H  H112  1  0.842000  0.810300  0.940600  1.0  0.0859
  H  H113  1  0.950000  0.923600  0.191400  1.0  0.1071
  H  H114  1  0.934500  0.669000  0.333000  1.0  0.1075
  H  H115  1  0.948400  0.597000  0.466700  1.0  0.1024
  H  H116  1  0.998400  0.594000  0.523600  1.0  0.1127
  H  H117  1  0.974800  0.058000  0.220700  1.0  0.1099
  H  H118  1  0.964700  0.665000  0.056100  1.0  0.1045
  H  H119  1  0.295400  0.974700  0.554300  1.0  0.108
  H  H120  1  0.245800  0.865600  0.994900  1.0  0.099
  H  H121  1  0.244300  0.795400  0.735700  1.0  0.1074
  H  H122  1  0.196200  0.986700  0.540900  1.0  0.115
  H  H123  1  0.244600  0.755600  0.885800  1.0  0.1037
  H  H124  1  0.202700  0.211100  0.756000  1.0  0.1044
  H  H125  1  0.164900  0.214800  0.641200  1.0  0.1054
  H  H126  1  0.161400  0.103300  0.534300  1.0  0.1027
  H  H127  1  0.301000  0.192900  0.776400  1.0  0.1131
  H  H128  1  0.321000  0.171300  0.149500  1.0  0.076
  H  H129  1  0.248200  0.014600  0.954400  1.0  0.1068
  H  H130  1  0.338700  0.182100  0.676300  1.0  0.1076
  H  H131  1  0.369900  0.178400  0.211400  1.0  0.1232
  H  H132  1  0.335500  0.075700  0.564500  1.0  0.1019
  H  H133  1  0.391900  0.318600  0.995800  1.0  0.1235
  H  H134  1  0.342000  0.310300  0.940600  1.0  0.0859
  H  H135  1  0.450000  0.423600  0.191400  1.0  0.1071
  H  H136  1  0.434500  0.169000  0.333000  1.0  0.1075
  H  H137  1  0.448400  0.097000  0.466700  1.0  0.1024
  H  H138  1  0.498400  0.094000  0.523600  1.0  0.1127
  H  H139  1  0.474800  0.558000  0.220700  1.0  0.1099
  H  H140  1  0.464700  0.165000  0.056100  1.0  0.1045
  H  H141  1  0.204600  0.474700  0.945700  1.0  0.1082
  H  H142  1  0.254200  0.365600  0.505100  1.0  0.0979
  H  H143  1  0.255700  0.295400  0.764300  1.0  0.1064
  H  H144  1  0.303800  0.486700  0.959100  1.0  0.1151
  H  H145  1  0.255400  0.255600  0.614200  1.0  0.1039
  H  H146  1  0.297300  0.711100  0.744000  1.0  0.1039
  H  H147  1  0.335100  0.714800  0.858800  1.0  0.1051
  H  H148  1  0.338600  0.603300  0.965700  1.0  0.1028
  H  H149  1  0.199000  0.692900  0.723600  1.0  0.1136
  H  H150  1  0.179000  0.671300  0.350500  1.0  0.0759
  H  H151  1  0.251800  0.514600  0.545600  1.0  0.1067
  H  H152  1  0.161300  0.682100  0.823700  1.0  0.1071
  H  H153  1  0.130100  0.678400  0.288600  1.0  0.1237
  H  H154  1  0.164500  0.575700  0.935500  1.0  0.103
  H  H155  1  0.108100  0.818600  0.504200  1.0  0.1226
  H  H156  1  0.158000  0.810300  0.559400  1.0  0.0858
  H  H157  1  0.050000  0.923600  0.308600  1.0  0.1064
  H  H158  1  0.065500  0.669000  0.167000  1.0  0.1071
  H  H159  1  0.051600  0.597000  0.033300  1.0  0.1022
  H  H160  1  0.001600  0.594000  0.976400  1.0  0.1125
  H  H161  1  0.025200  0.058000  0.279300  1.0  0.1096
  H  H162  1  0.035300  0.665000  0.443900  1.0  0.1042
  H  H163  1  0.704600  0.974700  0.945700  1.0  0.1082
  H  H164  1  0.754200  0.865600  0.505100  1.0  0.0979
  H  H165  1  0.755700  0.795400  0.764300  1.0  0.1064
  H  H166  1  0.803800  0.986700  0.959100  1.0  0.1151
  H  H167  1  0.755400  0.755600  0.614200  1.0  0.1039
  H  H168  1  0.797300  0.211100  0.744000  1.0  0.1039
  H  H169  1  0.835100  0.214800  0.858800  1.0  0.1051
  H  H170  1  0.838600  0.103300  0.965700  1.0  0.1028
  H  H171  1  0.699000  0.192900  0.723600  1.0  0.1136
  H  H172  1  0.679000  0.171300  0.350500  1.0  0.0759
  H  H173  1  0.751800  0.014600  0.545600  1.0  0.1067
  H  H174  1  0.661300  0.182100  0.823700  1.0  0.1071
  H  H175  1  0.630100  0.178400  0.288600  1.0  0.1237
  H  H176  1  0.664500  0.075700  0.935500  1.0  0.103
  H  H177  1  0.608100  0.318600  0.504200  1.0  0.1226
  H  H178  1  0.658000  0.310300  0.559400  1.0  0.0858
  H  H179  1  0.550000  0.423600  0.308600  1.0  0.1064
  H  H180  1  0.565500  0.169000  0.167000  1.0  0.1071
  H  H181  1  0.551600  0.097000  0.033300  1.0  0.1022
  H  H182  1  0.501600  0.094000  0.976400  1.0  0.1125
  H  H183  1  0.525200  0.558000  0.279300  1.0  0.1096
  H  H184  1  0.535300  0.165000  0.443900  1.0  0.1042
  C  C185  1  0.279690  0.469400  0.347900  1.0  0.0032
  C  C186  1  0.253550  0.571700  0.243100  1.0  0.0146
  C  C187  1  0.253470  0.535400  0.338000  1.0  -0.0428
  C  C188  1  0.250700  0.412800  0.215900  1.0  -0.0208
  C  C189  1  0.252460  0.506900  0.179200  1.0  0.0078
  C  C190  1  0.223670  0.411600  0.273300  1.0  -0.0045
  C  C191  1  0.225320  0.477000  0.339700  1.0  -0.0251
  C  C192  1  0.203470  0.481400  0.400000  1.0  -0.1805
  C  C193  1  0.277960  0.403000  0.283200  1.0  -0.0028
  C  C194  1  0.253900  0.618400  0.066400  1.0  -0.1043
  C  C195  1  0.254830  0.659800  0.219400  1.0  -0.1086
  C  C196  1  0.302320  0.467400  0.415300  1.0  -0.0811
  C  C197  1  0.254800  0.683300  0.130800  1.0  -0.1181
  C  C198  1  0.298520  0.334800  0.287900  1.0  -0.1422
  C  C199  1  0.320880  0.332700  0.355600  1.0  -0.1362
  C  C200  1  0.249570  0.350800  0.135800  1.0  0.6696
  C  C201  1  0.255160  0.615200  0.400000  1.0  0.6667
  C  C202  1  0.322940  0.398500  0.419000  1.0  -0.1335
  C  C203  1  0.200070  0.352100  0.268200  1.0  -0.1647
  C  C204  1  0.164240  0.297600  0.881700  1.0  0.1494
  C  C205  1  0.252610  0.530200  0.090400  1.0  -0.1031
  C  C206  1  0.177900  0.358000  0.328100  1.0  -0.1279
  C  C207  1  0.135340  0.294300  0.844800  1.0  -0.193
  C  C208  1  0.179710  0.421400  0.393800  1.0  -0.132
  C  C209  1  0.122530  0.211700  0.971300  1.0  -0.1847
  C  C210  1  0.152090  0.217000  0.003700  1.0  0.1529
  C  C211  1  0.083440  0.246000  0.852200  1.0  0.0581
  C  C212  1  0.058880  0.245900  0.819500  1.0  0.1789
  C  C213  1  0.027800  0.246100  0.781700  1.0  0.0083
  C  C214  1  0.023190  0.293300  0.692400  1.0  0.0376
  C  C215  1  0.006740  0.293700  0.842100  1.0  -0.0284
  C  C216  1  0.113860  0.250900  0.890100  1.0  -0.0045
  C  C217  1  0.029580  0.076000  0.784600  1.0  -0.039
  C  C218  1  0.044850  0.332600  0.645100  1.0  -0.1035
  C  C219  1  0.036530  0.374700  0.565400  1.0  -0.1413
  C  C220  1  0.007040  0.376700  0.531400  1.0  -0.1068
  C  C221  1  0.014960  0.996700  0.767400  1.0  -0.0954
  C  C222  1  0.014740  0.334800  0.921100  1.0  -0.0857
  C  C223  1  0.014920  0.152900  0.767400  1.0  0.0258
  C  C224  1  0.779690  0.969400  0.347900  1.0  0.0032
  C  C225  1  0.753550  0.071700  0.243100  1.0  0.0146
  C  C226  1  0.753470  0.035400  0.338000  1.0  -0.0428
  C  C227  1  0.750700  0.912800  0.215900  1.0  -0.0208
  C  C228  1  0.752460  0.006900  0.179200  1.0  0.0078
  C  C229  1  0.723670  0.911600  0.273300  1.0  -0.0045
  C  C230  1  0.725320  0.977000  0.339700  1.0  -0.0251
  C  C231  1  0.703470  0.981400  0.400000  1.0  -0.1805
  C  C232  1  0.777960  0.903000  0.283200  1.0  -0.0028
  C  C233  1  0.753900  0.118400  0.066400  1.0  -0.1043
  C  C234  1  0.754830  0.159800  0.219400  1.0  -0.1086
  C  C235  1  0.802320  0.967400  0.415300  1.0  -0.0811
  C  C236  1  0.754800  0.183300  0.130800  1.0  -0.1181
  C  C237  1  0.798520  0.834800  0.287900  1.0  -0.1422
  C  C238  1  0.820880  0.832700  0.355600  1.0  -0.1362
  C  C239  1  0.749570  0.850800  0.135800  1.0  0.6696
  C  C240  1  0.755160  0.115200  0.400000  1.0  0.6667
  C  C241  1  0.822940  0.898500  0.419000  1.0  -0.1335
  C  C242  1  0.700070  0.852100  0.268200  1.0  -0.1647
  C  C243  1  0.664240  0.797600  0.881700  1.0  0.1494
  C  C244  1  0.752610  0.030200  0.090400  1.0  -0.1031
  C  C245  1  0.677900  0.858000  0.328100  1.0  -0.1279
  C  C246  1  0.635340  0.794300  0.844800  1.0  -0.193
  C  C247  1  0.679710  0.921400  0.393800  1.0  -0.132
  C  C248  1  0.622530  0.711700  0.971300  1.0  -0.1847
  C  C249  1  0.652090  0.717000  0.003700  1.0  0.1529
  C  C250  1  0.583440  0.746000  0.852200  1.0  0.0581
  C  C251  1  0.558880  0.745900  0.819500  1.0  0.1789
  C  C252  1  0.527800  0.746100  0.781700  1.0  0.0083
  C  C253  1  0.523190  0.793300  0.692400  1.0  0.0376
  C  C254  1  0.506740  0.793700  0.842100  1.0  -0.0284
  C  C255  1  0.613860  0.750900  0.890100  1.0  -0.0045
  C  C256  1  0.529580  0.576000  0.784600  1.0  -0.039
  C  C257  1  0.544850  0.832600  0.645100  1.0  -0.1035
  C  C258  1  0.536530  0.874700  0.565400  1.0  -0.1413
  C  C259  1  0.507040  0.876700  0.531400  1.0  -0.1068
  C  C260  1  0.514960  0.496700  0.767400  1.0  -0.0954
  C  C261  1  0.514740  0.834800  0.921100  1.0  -0.0857
  C  C262  1  0.514920  0.652900  0.767400  1.0  0.0258
  C  C263  1  0.720310  0.469400  0.152100  1.0  -0.0005
  C  C264  1  0.746450  0.571700  0.256900  1.0  0.0153
  C  C265  1  0.746530  0.535400  0.162000  1.0  -0.0438
  C  C266  1  0.749300  0.412800  0.284100  1.0  -0.0184
  C  C267  1  0.747540  0.506900  0.320800  1.0  0.0073
  C  C268  1  0.776330  0.411600  0.226700  1.0  0.0016
  C  C269  1  0.774680  0.477000  0.160300  1.0  -0.0207
  C  C270  1  0.796530  0.481400  0.100000  1.0  -0.1784
  C  C271  1  0.722040  0.403000  0.216800  1.0  -0.0062
  C  C272  1  0.746100  0.618400  0.433600  1.0  -0.1034
  C  C273  1  0.745170  0.659800  0.280600  1.0  -0.1074
  C  C274  1  0.697680  0.467400  0.084700  1.0  -0.0827
  C  C275  1  0.745200  0.683300  0.369200  1.0  -0.1197
  C  C276  1  0.701480  0.334800  0.212100  1.0  -0.1449
  C  C277  1  0.679120  0.332700  0.144400  1.0  -0.1391
  C  C278  1  0.750430  0.350800  0.364200  1.0  0.669
  C  C279  1  0.744840  0.615200  0.100000  1.0  0.6679
  C  C280  1  0.677060  0.398500  0.081000  1.0  -0.1329
  C  C281  1  0.799930  0.352100  0.231800  1.0  -0.1658
  C  C282  1  0.835760  0.297600  0.618300  1.0  0.1499
  C  C283  1  0.747390  0.530200  0.409600  1.0  -0.1031
  C  C284  1  0.822100  0.358000  0.171900  1.0  -0.129
  C  C285  1  0.864660  0.294300  0.655200  1.0  -0.1942
  C  C286  1  0.820290  0.421400  0.106200  1.0  -0.1353
  C  C287  1  0.877470  0.211700  0.528700  1.0  -0.1832
  C  C288  1  0.847910  0.217000  0.496300  1.0  0.1525
  C  C289  1  0.916560  0.246000  0.647800  1.0  0.0611
  C  C290  1  0.941120  0.245900  0.680500  1.0  0.1779
  C  C291  1  0.972200  0.246100  0.718300  1.0  0.0088
  C  C292  1  0.976810  0.293300  0.807600  1.0  0.0363
  C  C293  1  0.993260  0.293700  0.657900  1.0  -0.0272
  C  C294  1  0.886140  0.250900  0.609900  1.0  -0.0018
  C  C295  1  0.970420  0.076000  0.715400  1.0  -0.0397
  C  C296  1  0.955150  0.332600  0.854900  1.0  -0.1081
  C  C297  1  0.963470  0.374700  0.934600  1.0  -0.1458
  C  C298  1  0.992960  0.376700  0.968600  1.0  -0.106
  C  C299  1  0.985040  0.996700  0.732600  1.0  -0.0963
  C  C300  1  0.985260  0.334800  0.578900  1.0  -0.0854
  C  C301  1  0.985080  0.152900  0.732600  1.0  0.0244
  C  C302  1  0.220310  0.969400  0.152100  1.0  -0.0005
  C  C303  1  0.246450  0.071700  0.256900  1.0  0.0153
  C  C304  1  0.246530  0.035400  0.162000  1.0  -0.0438
  C  C305  1  0.249300  0.912800  0.284100  1.0  -0.0184
  C  C306  1  0.247540  0.006900  0.320800  1.0  0.0073
  C  C307  1  0.276330  0.911600  0.226700  1.0  0.0016
  C  C308  1  0.274680  0.977000  0.160300  1.0  -0.0207
  C  C309  1  0.296530  0.981400  0.100000  1.0  -0.1784
  C  C310  1  0.222040  0.903000  0.216800  1.0  -0.0062
  C  C311  1  0.246100  0.118400  0.433600  1.0  -0.1034
  C  C312  1  0.245170  0.159800  0.280600  1.0  -0.1074
  C  C313  1  0.197680  0.967400  0.084700  1.0  -0.0827
  C  C314  1  0.245200  0.183300  0.369200  1.0  -0.1197
  C  C315  1  0.201480  0.834800  0.212100  1.0  -0.1449
  C  C316  1  0.179120  0.832700  0.144400  1.0  -0.1391
  C  C317  1  0.250430  0.850800  0.364200  1.0  0.669
  C  C318  1  0.244840  0.115200  0.100000  1.0  0.6679
  C  C319  1  0.177060  0.898500  0.081000  1.0  -0.1329
  C  C320  1  0.299930  0.852100  0.231800  1.0  -0.1658
  C  C321  1  0.335760  0.797600  0.618300  1.0  0.1499
  C  C322  1  0.247390  0.030200  0.409600  1.0  -0.1031
  C  C323  1  0.322100  0.858000  0.171900  1.0  -0.129
  C  C324  1  0.364660  0.794300  0.655200  1.0  -0.1942
  C  C325  1  0.320290  0.921400  0.106200  1.0  -0.1353
  C  C326  1  0.377470  0.711700  0.528700  1.0  -0.1832
  C  C327  1  0.347910  0.717000  0.496300  1.0  0.1525
  C  C328  1  0.416560  0.746000  0.647800  1.0  0.0611
  C  C329  1  0.441120  0.745900  0.680500  1.0  0.1779
  C  C330  1  0.472200  0.746100  0.718300  1.0  0.0088
  C  C331  1  0.476810  0.793300  0.807600  1.0  0.0363
  C  C332  1  0.493260  0.793700  0.657900  1.0  -0.0272
  C  C333  1  0.386140  0.750900  0.609900  1.0  -0.0018
  C  C334  1  0.470420  0.576000  0.715400  1.0  -0.0397
  C  C335  1  0.455150  0.832600  0.854900  1.0  -0.1081
  C  C336  1  0.463470  0.874700  0.934600  1.0  -0.1458
  C  C337  1  0.492960  0.876700  0.968600  1.0  -0.106
  C  C338  1  0.485040  0.496700  0.732600  1.0  -0.0963
  C  C339  1  0.485260  0.834800  0.578900  1.0  -0.0854
  C  C340  1  0.485080  0.652900  0.732600  1.0  0.0244
  C  C341  1  0.720310  0.530600  0.652100  1.0  -0.001
  C  C342  1  0.746450  0.428300  0.756900  1.0  0.0152
  C  C343  1  0.746530  0.464600  0.662000  1.0  -0.0444
  C  C344  1  0.749300  0.587200  0.784100  1.0  -0.018
  C  C345  1  0.747540  0.493100  0.820800  1.0  0.0073
  C  C346  1  0.776330  0.588400  0.726700  1.0  0.0016
  C  C347  1  0.774680  0.523000  0.660300  1.0  -0.0209
  C  C348  1  0.796530  0.518600  0.600000  1.0  -0.1789
  C  C349  1  0.722040  0.597000  0.716800  1.0  -0.0064
  C  C350  1  0.746100  0.381600  0.933600  1.0  -0.1027
  C  C351  1  0.745170  0.340200  0.780600  1.0  -0.1081
  C  C352  1  0.697680  0.532600  0.584700  1.0  -0.0836
  C  C353  1  0.745200  0.316700  0.869200  1.0  -0.1189
  C  C354  1  0.701480  0.665200  0.712100  1.0  -0.1458
  C  C355  1  0.679120  0.667300  0.644400  1.0  -0.1388
  C  C356  1  0.750430  0.649200  0.864200  1.0  0.669
  C  C357  1  0.744840  0.384800  0.600000  1.0  0.6673
  C  C358  1  0.677060  0.601500  0.581000  1.0  -0.1325
  C  C359  1  0.799930  0.647900  0.731800  1.0  -0.1666
  C  C360  1  0.835760  0.702400  0.118300  1.0  0.1501
  C  C361  1  0.747390  0.469800  0.909600  1.0  -0.1022
  C  C362  1  0.822100  0.642000  0.671900  1.0  -0.1285
  C  C363  1  0.864660  0.705700  0.155200  1.0  -0.1937
  C  C364  1  0.820290  0.578600  0.606200  1.0  -0.1359
  C  C365  1  0.877470  0.788300  0.028700  1.0  -0.1831
  C  C366  1  0.847910  0.783000  0.996300  1.0  0.1531
  C  C367  1  0.916560  0.754000  0.147800  1.0  0.0617
  C  C368  1  0.941120  0.754100  0.180500  1.0  0.1779
  C  C369  1  0.972200  0.753900  0.218300  1.0  0.0088
  C  C370  1  0.976810  0.706700  0.307600  1.0  0.0366
  C  C371  1  0.993260  0.706300  0.157900  1.0  -0.0269
  C  C372  1  0.886140  0.749100  0.109900  1.0  -0.0018
  C  C373  1  0.970420  0.924000  0.215400  1.0  -0.0417
  C  C374  1  0.955150  0.667400  0.354900  1.0  -0.1068
  C  C375  1  0.963470  0.625300  0.434600  1.0  -0.144
  C  C376  1  0.992960  0.623300  0.468600  1.0  -0.1047
  C  C377  1  0.985040  0.003300  0.232600  1.0  -0.0955
  C  C378  1  0.985260  0.665200  0.078900  1.0  -0.0833
  C  C379  1  0.985080  0.847100  0.232600  1.0  0.0245
  C  C380  1  0.220310  0.030600  0.652100  1.0  -0.001
  C  C381  1  0.246450  0.928300  0.756900  1.0  0.0152
  C  C382  1  0.246530  0.964600  0.662000  1.0  -0.0444
  C  C383  1  0.249300  0.087200  0.784100  1.0  -0.018
  C  C384  1  0.247540  0.993100  0.820800  1.0  0.0073
  C  C385  1  0.276330  0.088400  0.726700  1.0  0.0016
  C  C386  1  0.274680  0.023000  0.660300  1.0  -0.0209
  C  C387  1  0.296530  0.018600  0.600000  1.0  -0.1789
  C  C388  1  0.222040  0.097000  0.716800  1.0  -0.0064
  C  C389  1  0.246100  0.881600  0.933600  1.0  -0.1027
  C  C390  1  0.245170  0.840200  0.780600  1.0  -0.1081
  C  C391  1  0.197680  0.032600  0.584700  1.0  -0.0836
  C  C392  1  0.245200  0.816700  0.869200  1.0  -0.1189
  C  C393  1  0.201480  0.165200  0.712100  1.0  -0.1458
  C  C394  1  0.179120  0.167300  0.644400  1.0  -0.1388
  C  C395  1  0.250430  0.149200  0.864200  1.0  0.669
  C  C396  1  0.244840  0.884800  0.600000  1.0  0.6673
  C  C397  1  0.177060  0.101500  0.581000  1.0  -0.1325
  C  C398  1  0.299930  0.147900  0.731800  1.0  -0.1666
  C  C399  1  0.335760  0.202400  0.118300  1.0  0.1501
  C  C400  1  0.247390  0.969800  0.909600  1.0  -0.1022
  C  C401  1  0.322100  0.142000  0.671900  1.0  -0.1285
  C  C402  1  0.364660  0.205700  0.155200  1.0  -0.1937
  C  C403  1  0.320290  0.078600  0.606200  1.0  -0.1359
  C  C404  1  0.377470  0.288300  0.028700  1.0  -0.1831
  C  C405  1  0.347910  0.283000  0.996300  1.0  0.1531
  C  C406  1  0.416560  0.254000  0.147800  1.0  0.0617
  C  C407  1  0.441120  0.254100  0.180500  1.0  0.1779
  C  C408  1  0.472200  0.253900  0.218300  1.0  0.0088
  C  C409  1  0.476810  0.206700  0.307600  1.0  0.0366
  C  C410  1  0.493260  0.206300  0.157900  1.0  -0.0269
  C  C411  1  0.386140  0.249100  0.109900  1.0  -0.0018
  C  C412  1  0.470420  0.424000  0.215400  1.0  -0.0417
  C  C413  1  0.455150  0.167400  0.354900  1.0  -0.1068
  C  C414  1  0.463470  0.125300  0.434600  1.0  -0.144
  C  C415  1  0.492960  0.123300  0.468600  1.0  -0.1047
  C  C416  1  0.485040  0.503300  0.232600  1.0  -0.0955
  C  C417  1  0.485260  0.165200  0.078900  1.0  -0.0833
  C  C418  1  0.485080  0.347100  0.232600  1.0  0.0245
  C  C419  1  0.279690  0.530600  0.847900  1.0  0.0027
  C  C420  1  0.253550  0.428300  0.743100  1.0  0.0148
  C  C421  1  0.253470  0.464600  0.838000  1.0  -0.0431
  C  C422  1  0.250700  0.587200  0.715900  1.0  -0.0202
  C  C423  1  0.252460  0.493100  0.679200  1.0  0.0076
  C  C424  1  0.223670  0.588400  0.773300  1.0  -0.0044
  C  C425  1  0.225320  0.523000  0.839700  1.0  -0.025
  C  C426  1  0.203470  0.518600  0.900000  1.0  -0.1804
  C  C427  1  0.277960  0.597000  0.783200  1.0  -0.0029
  C  C428  1  0.253900  0.381600  0.566400  1.0  -0.1042
  C  C429  1  0.254830  0.340200  0.719400  1.0  -0.1092
  C  C430  1  0.302320  0.532600  0.915300  1.0  -0.0812
  C  C431  1  0.254800  0.316700  0.630800  1.0  -0.1167
  C  C432  1  0.298520  0.665200  0.787900  1.0  -0.1432
  C  C433  1  0.320880  0.667300  0.855600  1.0  -0.1365
  C  C434  1  0.249570  0.649200  0.635800  1.0  0.6701
  C  C435  1  0.255160  0.384800  0.900000  1.0  0.6663
  C  C436  1  0.322940  0.601500  0.919000  1.0  -0.1336
  C  C437  1  0.200070  0.647900  0.768200  1.0  -0.1657
  C  C438  1  0.164240  0.702400  0.381700  1.0  0.1494
  C  C439  1  0.252610  0.469800  0.590400  1.0  -0.1021
  C  C440  1  0.177900  0.642000  0.828100  1.0  -0.1275
  C  C441  1  0.135340  0.705700  0.344800  1.0  -0.1941
  C  C442  1  0.179710  0.578600  0.893800  1.0  -0.132
  C  C443  1  0.122530  0.788300  0.471300  1.0  -0.1859
  C  C444  1  0.152090  0.783000  0.503700  1.0  0.1521
  C  C445  1  0.083440  0.754000  0.352200  1.0  0.0585
  C  C446  1  0.058880  0.754100  0.319500  1.0  0.1789
  C  C447  1  0.027800  0.753900  0.281700  1.0  0.0081
  C  C448  1  0.023190  0.706700  0.192400  1.0  0.0381
  C  C449  1  0.006740  0.706300  0.342100  1.0  -0.0288
  C  C450  1  0.113860  0.749100  0.390100  1.0  -0.0045
  C  C451  1  0.029580  0.924000  0.284600  1.0  -0.0417
  C  C452  1  0.044850  0.667400  0.145100  1.0  -0.1053
  C  C453  1  0.036530  0.625300  0.065400  1.0  -0.1424
  C  C454  1  0.007040  0.623300  0.031400  1.0  -0.1076
  C  C455  1  0.014960  0.003300  0.267400  1.0  -0.0946
  C  C456  1  0.014740  0.665200  0.421100  1.0  -0.0865
  C  C457  1  0.014920  0.847100  0.267400  1.0  0.0255
  C  C458  1  0.779690  0.030600  0.847900  1.0  0.0027
  C  C459  1  0.753550  0.928300  0.743100  1.0  0.0148
  C  C460  1  0.753470  0.964600  0.838000  1.0  -0.0431
  C  C461  1  0.750700  0.087200  0.715900  1.0  -0.0202
  C  C462  1  0.752460  0.993100  0.679200  1.0  0.0076
  C  C463  1  0.723670  0.088400  0.773300  1.0  -0.0044
  C  C464  1  0.725320  0.023000  0.839700  1.0  -0.025
  C  C465  1  0.703470  0.018600  0.900000  1.0  -0.1804
  C  C466  1  0.777960  0.097000  0.783200  1.0  -0.0029
  C  C467  1  0.753900  0.881600  0.566400  1.0  -0.1042
  C  C468  1  0.754830  0.840200  0.719400  1.0  -0.1092
  C  C469  1  0.802320  0.032600  0.915300  1.0  -0.0812
  C  C470  1  0.754800  0.816700  0.630800  1.0  -0.1167
  C  C471  1  0.798520  0.165200  0.787900  1.0  -0.1432
  C  C472  1  0.820880  0.167300  0.855600  1.0  -0.1365
  C  C473  1  0.749570  0.149200  0.635800  1.0  0.6701
  C  C474  1  0.755160  0.884800  0.900000  1.0  0.6663
  C  C475  1  0.822940  0.101500  0.919000  1.0  -0.1336
  C  C476  1  0.700070  0.147900  0.768200  1.0  -0.1657
  C  C477  1  0.664240  0.202400  0.381700  1.0  0.1494
  C  C478  1  0.752610  0.969800  0.590400  1.0  -0.1021
  C  C479  1  0.677900  0.142000  0.828100  1.0  -0.1275
  C  C480  1  0.635340  0.205700  0.344800  1.0  -0.1941
  C  C481  1  0.679710  0.078600  0.893800  1.0  -0.132
  C  C482  1  0.622530  0.288300  0.471300  1.0  -0.1859
  C  C483  1  0.652090  0.283000  0.503700  1.0  0.1521
  C  C484  1  0.583440  0.254000  0.352200  1.0  0.0585
  C  C485  1  0.558880  0.254100  0.319500  1.0  0.1789
  C  C486  1  0.527800  0.253900  0.281700  1.0  0.0081
  C  C487  1  0.523190  0.206700  0.192400  1.0  0.0381
  C  C488  1  0.506740  0.206300  0.342100  1.0  -0.0288
  C  C489  1  0.613860  0.249100  0.390100  1.0  -0.0045
  C  C490  1  0.529580  0.424000  0.284600  1.0  -0.0417
  C  C491  1  0.544850  0.167400  0.145100  1.0  -0.1053
  C  C492  1  0.536530  0.125300  0.065400  1.0  -0.1424
  C  C493  1  0.507040  0.123300  0.031400  1.0  -0.1076
  C  C494  1  0.514960  0.503300  0.267400  1.0  -0.0946
  C  C495  1  0.514740  0.165200  0.421100  1.0  -0.0865
  C  C496  1  0.514920  0.347100  0.267400  1.0  0.0255
  N  N497  1  0.172940  0.259100  0.960000  1.0  -0.3053
  N  N498  1  0.672940  0.759100  0.960000  1.0  -0.3053
  N  N499  1  0.827060  0.259100  0.540000  1.0  -0.3045
  N  N500  1  0.327060  0.759100  0.540000  1.0  -0.3045
  N  N501  1  0.827060  0.740900  0.040000  1.0  -0.3047
  N  N502  1  0.327060  0.240900  0.040000  1.0  -0.3047
  N  N503  1  0.172940  0.740900  0.460000  1.0  -0.3053
  N  N504  1  0.672940  0.240900  0.460000  1.0  -0.3053
  O  O505  1  0.224330  0.330050  0.101730  1.0  -0.5819
  O  O506  1  0.230900  0.648760  0.418420  1.0  -0.5842
  O  O507  1  0.274100  0.330680  0.106910  1.0  -0.5848
  O  O508  1  0.280660  0.644410  0.423300  1.0  -0.5652
  O  O509  1  0.724330  0.830050  0.101730  1.0  -0.5819
  O  O510  1  0.730900  0.148760  0.418420  1.0  -0.5842
  O  O511  1  0.774100  0.830680  0.106910  1.0  -0.5848
  O  O512  1  0.780660  0.144410  0.423300  1.0  -0.5652
  O  O513  1  0.775670  0.330050  0.398270  1.0  -0.5799
  O  O514  1  0.769100  0.648760  0.081580  1.0  -0.5836
  O  O515  1  0.725900  0.330680  0.393090  1.0  -0.5859
  O  O516  1  0.719340  0.644410  0.076700  1.0  -0.5672
  O  O517  1  0.275670  0.830050  0.398270  1.0  -0.5799
  O  O518  1  0.269100  0.148760  0.081580  1.0  -0.5836
  O  O519  1  0.225900  0.830680  0.393090  1.0  -0.5859
  O  O520  1  0.219340  0.144410  0.076700  1.0  -0.5672
  O  O521  1  0.775670  0.669950  0.898270  1.0  -0.5802
  O  O522  1  0.769100  0.351240  0.581580  1.0  -0.5824
  O  O523  1  0.725900  0.669320  0.893090  1.0  -0.5854
  O  O524  1  0.719340  0.355590  0.576700  1.0  -0.5674
  O  O525  1  0.275670  0.169950  0.898270  1.0  -0.5802
  O  O526  1  0.269100  0.851240  0.581580  1.0  -0.5824
  O  O527  1  0.225900  0.169320  0.893090  1.0  -0.5854
  O  O528  1  0.219340  0.855590  0.576700  1.0  -0.5674
  O  O529  1  0.224330  0.669950  0.601730  1.0  -0.5819
  O  O530  1  0.230900  0.351240  0.918420  1.0  -0.5843
  O  O531  1  0.274100  0.669320  0.606910  1.0  -0.5846
  O  O532  1  0.280660  0.355590  0.923300  1.0  -0.565
  O  O533  1  0.724330  0.169950  0.601730  1.0  -0.5819
  O  O534  1  0.730900  0.851240  0.918420  1.0  -0.5843
  O  O535  1  0.774100  0.169320  0.606910  1.0  -0.5846
  O  O536  1  0.780660  0.855590  0.923300  1.0  -0.565
