# generated using pymatgen
data_ZnH18C31NO4
_symmetry_space_group_name_H-M   'P 1'
_cell_length_a   15.63900000
_cell_length_b   21.42600000
_cell_length_c   15.99810000
_cell_angle_alpha   90.00000000
_cell_angle_beta   94.58870000
_cell_angle_gamma   90.00000000
_symmetry_Int_Tables_number   1
_chemical_formula_structural   ZnH18C31NO4
_chemical_formula_sum   'Zn8 H144 C248 N8 O32'
_cell_volume   5343.48010909
_cell_formula_units_Z   8
loop_
 _symmetry_equiv_pos_site_id
 _symmetry_equiv_pos_as_xyz
  1  'x, y, z'
loop_
 _atom_site_type_symbol
 _atom_site_label
 _atom_site_symmetry_multiplicity
 _atom_site_fract_x
 _atom_site_fract_y
 _atom_site_fract_z
 _atom_site_occupancy
 _atom_site_charge
  Zn  Zn1  1  0.807100  0.763320  0.946160  1.0  0.9021
  Zn  Zn2  1  0.325640  0.256570  0.432240  1.0  0.9232
  Zn  Zn3  1  0.192900  0.263320  0.553840  1.0  0.902
  Zn  Zn4  1  0.674360  0.756570  0.067760  1.0  0.9239
  Zn  Zn5  1  0.192900  0.236680  0.053840  1.0  0.9019
  Zn  Zn6  1  0.674360  0.743430  0.567760  1.0  0.9237
  Zn  Zn7  1  0.807100  0.736680  0.446160  1.0  0.902
  Zn  Zn8  1  0.325640  0.243430  0.932240  1.0  0.923
  H  H9  1  0.981000  0.819700  0.943700  1.0  0.0794
  H  H10  1  0.089300  0.831500  0.854300  1.0  0.1367
  H  H11  1  0.937100  0.743900  0.674800  1.0  0.1094
  H  H12  1  0.834000  0.733500  0.770200  1.0  0.0818
  H  H13  1  0.174700  0.665400  0.659100  1.0  0.104
  H  H14  1  0.241300  0.569900  0.636400  1.0  0.1004
  H  H15  1  0.335300  0.560100  0.530900  1.0  0.1002
  H  H16  1  0.362500  0.646200  0.446400  1.0  0.1021
  H  H17  1  0.040900  0.826600  0.522500  1.0  0.1063
  H  H18  1  0.997600  0.862700  0.387000  1.0  0.1011
  H  H19  1  0.089200  0.853300  0.280500  1.0  0.0846
  H  H20  1  0.226800  0.811200  0.307500  1.0  0.1113
  H  H21  1  0.267200  0.859700  0.708500  1.0  0.1146
  H  H22  1  0.398300  0.912200  0.717900  1.0  0.0968
  H  H23  1  0.492300  0.900100  0.614100  1.0  0.101
  H  H24  1  0.455600  0.836300  0.497500  1.0  0.1051
  H  H25  1  0.550200  0.697400  0.334800  1.0  0.1099
  H  H26  1  0.646900  0.695700  0.232700  1.0  0.0756
  H  H27  1  0.497300  0.802800  0.085700  1.0  0.0782
  H  H28  1  0.396500  0.808800  0.184500  1.0  0.1211
  H  H29  1  0.680500  0.652700  0.743800  1.0  0.0975
  H  H30  1  0.606500  0.580500  0.657000  1.0  0.1084
  H  H31  1  0.461300  0.535000  0.845800  1.0  0.108
  H  H32  1  0.536000  0.606100  0.932700  1.0  0.0976
  H  H33  1  0.567400  0.486000  0.607700  1.0  0.1143
  H  H34  1  0.492700  0.408400  0.531500  1.0  0.0957
  H  H35  1  0.291300  0.431700  0.671300  1.0  0.0942
  H  H36  1  0.364700  0.510400  0.746400  1.0  0.1135
  H  H37  1  0.065100  0.090300  0.470300  1.0  0.099
  H  H38  1  0.985700  0.012700  0.398300  1.0  0.1076
  H  H39  1  0.109000  0.048500  0.190700  1.0  0.1125
  H  H40  1  0.191600  0.123600  0.264300  1.0  0.0961
  H  H41  1  0.877400  0.985500  0.301100  1.0  0.1112
  H  H42  1  0.795300  0.910300  0.227700  1.0  0.1047
  H  H43  1  0.992100  0.875100  0.086300  1.0  0.1043
  H  H44  1  0.074000  0.950100  0.160000  1.0  0.1091
  H  H45  1  0.019000  0.319700  0.556300  1.0  0.079
  H  H46  1  0.910700  0.331500  0.645700  1.0  0.137
  H  H47  1  0.062900  0.243900  0.825200  1.0  0.1091
  H  H48  1  0.166000  0.233500  0.729800  1.0  0.0823
  H  H49  1  0.825300  0.165400  0.840900  1.0  0.1027
  H  H50  1  0.758700  0.069900  0.863600  1.0  0.0997
  H  H51  1  0.664700  0.060100  0.969100  1.0  0.1003
  H  H52  1  0.637500  0.146200  0.053600  1.0  0.1003
  H  H53  1  0.959100  0.326600  0.977500  1.0  0.1066
  H  H54  1  0.002400  0.362700  0.113000  1.0  0.1003
  H  H55  1  0.910800  0.353300  0.219500  1.0  0.0852
  H  H56  1  0.773200  0.311200  0.192500  1.0  0.1114
  H  H57  1  0.732800  0.359700  0.791500  1.0  0.1144
  H  H58  1  0.601700  0.412200  0.782100  1.0  0.0975
  H  H59  1  0.507700  0.400100  0.885900  1.0  0.1011
  H  H60  1  0.544400  0.336300  0.002500  1.0  0.1059
  H  H61  1  0.449800  0.197400  0.165200  1.0  0.1096
  H  H62  1  0.353100  0.195700  0.267300  1.0  0.0754
  H  H63  1  0.502700  0.302800  0.414300  1.0  0.0776
  H  H64  1  0.603500  0.308800  0.315500  1.0  0.1215
  H  H65  1  0.319500  0.152700  0.756200  1.0  0.0974
  H  H66  1  0.393500  0.080500  0.843000  1.0  0.1073
  H  H67  1  0.538700  0.035000  0.654200  1.0  0.1079
  H  H68  1  0.464000  0.106100  0.567300  1.0  0.097
  H  H69  1  0.432600  0.986000  0.892300  1.0  0.1136
  H  H70  1  0.507300  0.908400  0.968500  1.0  0.0966
  H  H71  1  0.708700  0.931700  0.828700  1.0  0.0945
  H  H72  1  0.635300  0.010400  0.753600  1.0  0.1132
  H  H73  1  0.934900  0.590300  0.029700  1.0  0.0994
  H  H74  1  0.014300  0.512700  0.101700  1.0  0.1078
  H  H75  1  0.891000  0.548500  0.309300  1.0  0.1125
  H  H76  1  0.808400  0.623600  0.235700  1.0  0.0962
  H  H77  1  0.122600  0.485500  0.198900  1.0  0.1115
  H  H78  1  0.204700  0.410300  0.272300  1.0  0.1055
  H  H79  1  0.007900  0.375100  0.413700  1.0  0.1042
  H  H80  1  0.926000  0.450100  0.340000  1.0  0.1089
  H  H81  1  0.019000  0.180300  0.056300  1.0  0.0786
  H  H82  1  0.910700  0.168500  0.145700  1.0  0.1366
  H  H83  1  0.062900  0.256100  0.325200  1.0  0.1085
  H  H84  1  0.166000  0.266500  0.229800  1.0  0.0822
  H  H85  1  0.825300  0.334600  0.340900  1.0  0.103
  H  H86  1  0.758700  0.430100  0.363600  1.0  0.0999
  H  H87  1  0.664700  0.439900  0.469100  1.0  0.1001
  H  H88  1  0.637500  0.353800  0.553600  1.0  0.0999
  H  H89  1  0.959100  0.173400  0.477500  1.0  0.1064
  H  H90  1  0.002400  0.137300  0.613000  1.0  0.1003
  H  H91  1  0.910800  0.146700  0.719500  1.0  0.0864
  H  H92  1  0.773200  0.188800  0.692500  1.0  0.1114
  H  H93  1  0.732800  0.140300  0.291500  1.0  0.114
  H  H94  1  0.601700  0.087800  0.282100  1.0  0.0972
  H  H95  1  0.507700  0.099900  0.385900  1.0  0.1011
  H  H96  1  0.544400  0.163700  0.502500  1.0  0.1063
  H  H97  1  0.449800  0.302600  0.665200  1.0  0.1101
  H  H98  1  0.353100  0.304300  0.767300  1.0  0.0753
  H  H99  1  0.502700  0.197200  0.914300  1.0  0.0777
  H  H100  1  0.603500  0.191200  0.815500  1.0  0.121
  H  H101  1  0.319500  0.347300  0.256200  1.0  0.0977
  H  H102  1  0.393500  0.419500  0.343000  1.0  0.1072
  H  H103  1  0.538700  0.465000  0.154200  1.0  0.1081
  H  H104  1  0.464000  0.393900  0.067300  1.0  0.0967
  H  H105  1  0.432600  0.514000  0.392300  1.0  0.1135
  H  H106  1  0.507300  0.591600  0.468500  1.0  0.0963
  H  H107  1  0.708700  0.568300  0.328700  1.0  0.0943
  H  H108  1  0.635300  0.489600  0.253600  1.0  0.1131
  H  H109  1  0.934900  0.909700  0.529700  1.0  0.0992
  H  H110  1  0.014300  0.987300  0.601700  1.0  0.1078
  H  H111  1  0.891000  0.951500  0.809300  1.0  0.1125
  H  H112  1  0.808400  0.876400  0.735700  1.0  0.0961
  H  H113  1  0.122600  0.014500  0.698900  1.0  0.1113
  H  H114  1  0.204700  0.089700  0.772300  1.0  0.1051
  H  H115  1  0.007900  0.124900  0.913700  1.0  0.1039
  H  H116  1  0.926000  0.049900  0.840000  1.0  0.1101
  H  H117  1  0.981000  0.680300  0.443700  1.0  0.0792
  H  H118  1  0.089300  0.668500  0.354300  1.0  0.1363
  H  H119  1  0.937100  0.756100  0.174800  1.0  0.1089
  H  H120  1  0.834000  0.766500  0.270200  1.0  0.082
  H  H121  1  0.174700  0.834600  0.159100  1.0  0.1041
  H  H122  1  0.241300  0.930100  0.136400  1.0  0.1002
  H  H123  1  0.335300  0.939900  0.030900  1.0  0.1003
  H  H124  1  0.362500  0.853800  0.946400  1.0  0.1017
  H  H125  1  0.040900  0.673400  0.022500  1.0  0.1064
  H  H126  1  0.997600  0.637300  0.887000  1.0  0.1006
  H  H127  1  0.089200  0.646700  0.780500  1.0  0.0856
  H  H128  1  0.226800  0.688800  0.807500  1.0  0.1111
  H  H129  1  0.267200  0.640300  0.208500  1.0  0.1141
  H  H130  1  0.398300  0.587800  0.217900  1.0  0.0968
  H  H131  1  0.492300  0.599900  0.114100  1.0  0.101
  H  H132  1  0.455600  0.663700  0.997500  1.0  0.1052
  H  H133  1  0.550200  0.802600  0.834800  1.0  0.1098
  H  H134  1  0.646900  0.804300  0.732700  1.0  0.0755
  H  H135  1  0.497300  0.697200  0.585700  1.0  0.0781
  H  H136  1  0.396500  0.691200  0.684500  1.0  0.1209
  H  H137  1  0.680500  0.847300  0.243800  1.0  0.0979
  H  H138  1  0.606500  0.919500  0.157000  1.0  0.1087
  H  H139  1  0.461300  0.965000  0.345800  1.0  0.108
  H  H140  1  0.536000  0.893900  0.432700  1.0  0.0975
  H  H141  1  0.567400  0.014000  0.107700  1.0  0.1143
  H  H142  1  0.492700  0.091600  0.031500  1.0  0.0953
  H  H143  1  0.291300  0.068300  0.171300  1.0  0.0943
  H  H144  1  0.364700  0.989600  0.246400  1.0  0.1136
  H  H145  1  0.065100  0.409700  0.970300  1.0  0.099
  H  H146  1  0.985700  0.487300  0.898300  1.0  0.1074
  H  H147  1  0.109000  0.451500  0.690700  1.0  0.1125
  H  H148  1  0.191600  0.376400  0.764300  1.0  0.0962
  H  H149  1  0.877400  0.514500  0.801100  1.0  0.1113
  H  H150  1  0.795300  0.589700  0.727700  1.0  0.1048
  H  H151  1  0.992100  0.624900  0.586300  1.0  0.1043
  H  H152  1  0.074000  0.549900  0.660000  1.0  0.1101
  C  C153  1  0.972600  0.803660  0.888320  1.0  0.1587
  C  C154  1  0.037460  0.810920  0.835650  1.0  -0.1932
  C  C155  1  0.025200  0.787590  0.755030  1.0  0.0256
  C  C156  1  0.947910  0.759290  0.730360  1.0  -0.1994
  C  C157  1  0.886660  0.753610  0.787280  1.0  0.1534
  C  C158  1  0.091190  0.788750  0.697890  1.0  -0.0058
  C  C159  1  0.142070  0.785140  0.646560  1.0  0.0973
  C  C160  1  0.200580  0.779620  0.580750  1.0  -0.0162
  C  C161  1  0.232240  0.712870  0.569000  1.0  0.0004
  C  C162  1  0.213800  0.661750  0.616900  1.0  -0.0341
  C  C163  1  0.252800  0.605000  0.602800  1.0  -0.0986
  C  C164  1  0.308600  0.599100  0.540000  1.0  -0.0805
  C  C165  1  0.325500  0.650340  0.490300  1.0  -0.0167
  C  C166  1  0.287890  0.707190  0.505300  1.0  -0.0509
  C  C167  1  0.304290  0.769060  0.461010  1.0  -0.0255
  C  C168  1  0.215460  0.795460  0.431300  1.0  -0.0375
  C  C169  1  0.160390  0.800740  0.494950  1.0  -0.006
  C  C170  1  0.078870  0.824350  0.479100  1.0  -0.0073
  C  C171  1  0.053000  0.844960  0.398600  1.0  -0.0973
  C  C172  1  0.107600  0.839700  0.335500  1.0  -0.0924
  C  C173  1  0.189500  0.814770  0.351300  1.0  -0.0733
  C  C174  1  0.283310  0.818430  0.596520  1.0  0.0172
  C  C175  1  0.305200  0.855410  0.665500  1.0  -0.0339
  C  C176  1  0.383000  0.886070  0.671100  1.0  -0.1003
  C  C177  1  0.438600  0.879140  0.609300  1.0  -0.0964
  C  C178  1  0.416800  0.841580  0.539600  1.0  -0.1254
  C  C179  1  0.338640  0.812420  0.532850  1.0  -0.0443
  C  C180  1  0.361350  0.763420  0.393700  1.0  0.1201
  C  C181  1  0.406230  0.759320  0.337100  1.0  -0.0175
  C  C182  1  0.464010  0.754930  0.271430  1.0  -0.0397
  C  C183  1  0.538410  0.720210  0.284280  1.0  -0.1637
  C  C184  1  0.595500  0.719080  0.222650  1.0  0.1685
  C  C185  1  0.508360  0.781470  0.137490  1.0  0.1603
  C  C186  1  0.447750  0.785560  0.196050  1.0  -0.1985
  C  C187  1  0.661460  0.685360  0.901920  1.0  0.6643
  C  C188  1  0.615070  0.637520  0.846680  1.0  -0.1485
  C  C189  1  0.635630  0.628900  0.764630  1.0  -0.1261
  C  C190  1  0.591370  0.585930  0.712850  1.0  -0.1311
  C  C191  1  0.525010  0.550550  0.741680  1.0  0.0457
  C  C192  1  0.505830  0.559010  0.824580  1.0  -0.1334
  C  C193  1  0.550030  0.601470  0.876320  1.0  -0.1026
  C  C194  1  0.475740  0.504440  0.687970  1.0  0.0409
  C  C195  1  0.511680  0.474460  0.621760  1.0  -0.1099
  C  C196  1  0.467230  0.428240  0.576410  1.0  -0.0539
  C  C197  1  0.385410  0.410460  0.595860  1.0  -0.1194
  C  C198  1  0.347920  0.442100  0.658870  1.0  -0.0472
  C  C199  1  0.391850  0.488740  0.704010  1.0  -0.1346
  C  C200  1  0.340710  0.355690  0.553610  1.0  0.6741
  C  C201  1  0.183680  0.167130  0.419470  1.0  0.6644
  C  C202  1  0.135340  0.115260  0.374420  1.0  -0.1498
  C  C203  1  0.074370  0.081770  0.413420  1.0  -0.0235
  C  C204  1  0.026580  0.035870  0.370300  1.0  -0.1206
  C  C205  1  0.037780  0.023340  0.286500  1.0  0.0453
  C  C206  1  0.099940  0.056710  0.247680  1.0  -0.1314
  C  C207  1  0.148680  0.101730  0.291290  1.0  -0.05
  C  C208  1  0.984810  0.975870  0.238900  1.0  0.0501
  C  C209  1  0.901300  0.963000  0.257400  1.0  -0.1255
  C  C210  1  0.852200  0.918300  0.213600  1.0  -0.052
  C  C211  1  0.885010  0.885110  0.149660  1.0  -0.103
  C  C212  1  0.968430  0.897550  0.130180  1.0  -0.0344
  C  C213  1  0.017150  0.942240  0.174230  1.0  -0.1123
  C  C214  1  0.832680  0.836790  0.100660  1.0  0.6373
  C  C215  1  0.027400  0.303660  0.611680  1.0  0.1593
  C  C216  1  0.962540  0.310920  0.664350  1.0  -0.1939
  C  C217  1  0.974800  0.287590  0.744970  1.0  0.0226
  C  C218  1  0.052090  0.259290  0.769640  1.0  -0.1986
  C  C219  1  0.113340  0.253610  0.712720  1.0  0.1527
  C  C220  1  0.908810  0.288750  0.802110  1.0  -0.0093
  C  C221  1  0.857930  0.285140  0.853440  1.0  0.0982
  C  C222  1  0.799420  0.279620  0.919250  1.0  -0.0148
  C  C223  1  0.767760  0.212870  0.931000  1.0  0.0011
  C  C224  1  0.786200  0.161750  0.883100  1.0  -0.0356
  C  C225  1  0.747200  0.105000  0.897200  1.0  -0.0988
  C  C226  1  0.691400  0.099100  0.960000  1.0  -0.081
  C  C227  1  0.674500  0.150340  0.009700  1.0  -0.0159
  C  C228  1  0.712110  0.207190  0.994700  1.0  -0.0505
  C  C229  1  0.695710  0.269060  0.038990  1.0  -0.0251
  C  C230  1  0.784540  0.295460  0.068700  1.0  -0.0383
  C  C231  1  0.839610  0.300740  0.005050  1.0  -0.0059
  C  C232  1  0.921130  0.324350  0.020900  1.0  -0.0062
  C  C233  1  0.947000  0.344960  0.101400  1.0  -0.0976
  C  C234  1  0.892400  0.339700  0.164500  1.0  -0.0932
  C  C235  1  0.810500  0.314770  0.148700  1.0  -0.0746
  C  C236  1  0.716690  0.318430  0.903480  1.0  0.0175
  C  C237  1  0.694800  0.355410  0.834500  1.0  -0.0323
  C  C238  1  0.617000  0.386070  0.828900  1.0  -0.1013
  C  C239  1  0.561400  0.379140  0.890700  1.0  -0.0978
  C  C240  1  0.583200  0.341580  0.960400  1.0  -0.126
  C  C241  1  0.661360  0.312420  0.967150  1.0  -0.0436
  C  C242  1  0.638650  0.263420  0.106300  1.0  0.1165
  C  C243  1  0.593770  0.259320  0.162900  1.0  -0.0157
  C  C244  1  0.535990  0.254930  0.228570  1.0  -0.0386
  C  C245  1  0.461590  0.220210  0.215720  1.0  -0.1658
  C  C246  1  0.404500  0.219080  0.277350  1.0  0.1689
  C  C247  1  0.491640  0.281470  0.362510  1.0  0.1605
  C  C248  1  0.552250  0.285560  0.303950  1.0  -0.1981
  C  C249  1  0.338540  0.185360  0.598080  1.0  0.6642
  C  C250  1  0.384930  0.137520  0.653320  1.0  -0.1473
  C  C251  1  0.364370  0.128900  0.735370  1.0  -0.1261
  C  C252  1  0.408630  0.085930  0.787150  1.0  -0.1309
  C  C253  1  0.474990  0.050550  0.758320  1.0  0.045
  C  C254  1  0.494170  0.059010  0.675420  1.0  -0.1347
  C  C255  1  0.449970  0.101470  0.623680  1.0  -0.1019
  C  C256  1  0.524260  0.004440  0.812030  1.0  0.0411
  C  C257  1  0.488320  0.974460  0.878240  1.0  -0.108
  C  C258  1  0.532770  0.928240  0.923590  1.0  -0.0527
  C  C259  1  0.614590  0.910460  0.904140  1.0  -0.1159
  C  C260  1  0.652080  0.942100  0.841130  1.0  -0.0491
  C  C261  1  0.608150  0.988740  0.795990  1.0  -0.1367
  C  C262  1  0.659290  0.855690  0.946390  1.0  0.6744
  C  C263  1  0.816320  0.667130  0.080530  1.0  0.6637
  C  C264  1  0.864660  0.615260  0.125580  1.0  -0.1499
  C  C265  1  0.925630  0.581770  0.086580  1.0  -0.0217
  C  C266  1  0.973420  0.535870  0.129700  1.0  -0.1213
  C  C267  1  0.962220  0.523340  0.213500  1.0  0.0451
  C  C268  1  0.900060  0.556710  0.252320  1.0  -0.1332
  C  C269  1  0.851320  0.601730  0.208710  1.0  -0.0503
  C  C270  1  0.015190  0.475870  0.261100  1.0  0.0517
  C  C271  1  0.098700  0.463000  0.242600  1.0  -0.1257
  C  C272  1  0.147800  0.418300  0.286400  1.0  -0.0511
  C  C273  1  0.114990  0.385110  0.350340  1.0  -0.103
  C  C274  1  0.031570  0.397550  0.369820  1.0  -0.0332
  C  C275  1  0.982850  0.442240  0.325770  1.0  -0.1123
  C  C276  1  0.167320  0.336790  0.399340  1.0  0.6376
  C  C277  1  0.027400  0.196340  0.111680  1.0  0.159
  C  C278  1  0.962540  0.189080  0.164350  1.0  -0.1937
  C  C279  1  0.974800  0.212410  0.244970  1.0  0.0236
  C  C280  1  0.052090  0.240710  0.269640  1.0  -0.1983
  C  C281  1  0.113340  0.246390  0.212720  1.0  0.1526
  C  C282  1  0.908810  0.211250  0.302110  1.0  -0.0091
  C  C283  1  0.857930  0.214860  0.353440  1.0  0.0969
  C  C284  1  0.799420  0.220380  0.419250  1.0  -0.0153
  C  C285  1  0.767760  0.287130  0.431000  1.0  0.0013
  C  C286  1  0.786200  0.338250  0.383100  1.0  -0.0349
  C  C287  1  0.747200  0.395000  0.397200  1.0  -0.0972
  C  C288  1  0.691400  0.400900  0.460000  1.0  -0.0818
  C  C289  1  0.674500  0.349660  0.509700  1.0  -0.0158
  C  C290  1  0.712110  0.292810  0.494700  1.0  -0.0505
  C  C291  1  0.695710  0.230940  0.538990  1.0  -0.0248
  C  C292  1  0.784540  0.204540  0.568700  1.0  -0.0382
  C  C293  1  0.839610  0.199260  0.505050  1.0  -0.0062
  C  C294  1  0.921130  0.175650  0.520900  1.0  -0.0067
  C  C295  1  0.947000  0.155040  0.601400  1.0  -0.0987
  C  C296  1  0.892400  0.160300  0.664500  1.0  -0.0933
  C  C297  1  0.810500  0.185230  0.648700  1.0  -0.0753
  C  C298  1  0.716690  0.181570  0.403480  1.0  0.0168
  C  C299  1  0.694800  0.144590  0.334500  1.0  -0.032
  C  C300  1  0.617000  0.113930  0.328900  1.0  -0.1015
  C  C301  1  0.561400  0.120860  0.390700  1.0  -0.0988
  C  C302  1  0.583200  0.158420  0.460400  1.0  -0.1266
  C  C303  1  0.661360  0.187580  0.467150  1.0  -0.0438
  C  C304  1  0.638650  0.236580  0.606300  1.0  0.1167
  C  C305  1  0.593770  0.240680  0.662900  1.0  -0.0157
  C  C306  1  0.535990  0.245070  0.728570  1.0  -0.0387
  C  C307  1  0.461590  0.279790  0.715720  1.0  -0.166
  C  C308  1  0.404500  0.280920  0.777350  1.0  0.1687
  C  C309  1  0.491640  0.218530  0.862510  1.0  0.1603
  C  C310  1  0.552250  0.214440  0.803950  1.0  -0.1985
  C  C311  1  0.338540  0.314640  0.098080  1.0  0.6646
  C  C312  1  0.384930  0.362480  0.153320  1.0  -0.1482
  C  C313  1  0.364370  0.371100  0.235370  1.0  -0.126
  C  C314  1  0.408630  0.414070  0.287150  1.0  -0.1302
  C  C315  1  0.474990  0.449450  0.258320  1.0  0.045
  C  C316  1  0.494170  0.440990  0.175420  1.0  -0.1348
  C  C317  1  0.449970  0.398530  0.123680  1.0  -0.1019
  C  C318  1  0.524260  0.495560  0.312030  1.0  0.0411
  C  C319  1  0.488320  0.525540  0.378240  1.0  -0.1078
  C  C320  1  0.532770  0.571760  0.423590  1.0  -0.053
  C  C321  1  0.614590  0.589540  0.404140  1.0  -0.1162
  C  C322  1  0.652080  0.557900  0.341130  1.0  -0.0491
  C  C323  1  0.608150  0.511260  0.295990  1.0  -0.1374
  C  C324  1  0.659290  0.644310  0.446390  1.0  0.6742
  C  C325  1  0.816320  0.832870  0.580530  1.0  0.6638
  C  C326  1  0.864660  0.884740  0.625580  1.0  -0.1504
  C  C327  1  0.925630  0.918230  0.586580  1.0  -0.0218
  C  C328  1  0.973420  0.964130  0.629700  1.0  -0.1207
  C  C329  1  0.962220  0.976660  0.713500  1.0  0.0449
  C  C330  1  0.900060  0.943290  0.752320  1.0  -0.1333
  C  C331  1  0.851320  0.898270  0.708710  1.0  -0.0502
  C  C332  1  0.015190  0.024130  0.761100  1.0  0.0513
  C  C333  1  0.098700  0.037000  0.742600  1.0  -0.1255
  C  C334  1  0.147800  0.081700  0.786400  1.0  -0.052
  C  C335  1  0.114990  0.114890  0.850340  1.0  -0.1032
  C  C336  1  0.031570  0.102450  0.869820  1.0  -0.0338
  C  C337  1  0.982850  0.057760  0.825770  1.0  -0.112
  C  C338  1  0.167320  0.163210  0.899340  1.0  0.6369
  C  C339  1  0.972600  0.696340  0.388320  1.0  0.159
  C  C340  1  0.037460  0.689080  0.335650  1.0  -0.1933
  C  C341  1  0.025200  0.712410  0.255030  1.0  0.026
  C  C342  1  0.947910  0.740710  0.230360  1.0  -0.1991
  C  C343  1  0.886660  0.746390  0.287280  1.0  0.1529
  C  C344  1  0.091190  0.711250  0.197890  1.0  -0.0055
  C  C345  1  0.142070  0.714860  0.146560  1.0  0.0964
  C  C346  1  0.200580  0.720380  0.080750  1.0  -0.0162
  C  C347  1  0.232240  0.787130  0.069000  1.0  0.0007
  C  C348  1  0.213800  0.838250  0.116900  1.0  -0.034
  C  C349  1  0.252800  0.895000  0.102800  1.0  -0.0974
  C  C350  1  0.308600  0.900900  0.040000  1.0  -0.0802
  C  C351  1  0.325500  0.849660  0.990300  1.0  -0.0163
  C  C352  1  0.287890  0.792810  0.005300  1.0  -0.0504
  C  C353  1  0.304290  0.730940  0.961010  1.0  -0.0254
  C  C354  1  0.215460  0.704540  0.931300  1.0  -0.0374
  C  C355  1  0.160390  0.699260  0.994950  1.0  -0.0064
  C  C356  1  0.078870  0.675650  0.979100  1.0  -0.0073
  C  C357  1  0.053000  0.655040  0.898600  1.0  -0.098
  C  C358  1  0.107600  0.660300  0.835500  1.0  -0.0929
  C  C359  1  0.189500  0.685230  0.851300  1.0  -0.0743
  C  C360  1  0.283310  0.681570  0.096520  1.0  0.0174
  C  C361  1  0.305200  0.644590  0.165500  1.0  -0.0328
  C  C362  1  0.383000  0.613930  0.171100  1.0  -0.1011
  C  C363  1  0.438600  0.620860  0.109300  1.0  -0.0991
  C  C364  1  0.416800  0.658420  0.039600  1.0  -0.1276
  C  C365  1  0.338640  0.687580  0.032850  1.0  -0.0447
  C  C366  1  0.361350  0.736580  0.893700  1.0  0.1201
  C  C367  1  0.406230  0.740680  0.837100  1.0  -0.0174
  C  C368  1  0.464010  0.745070  0.771430  1.0  -0.0398
  C  C369  1  0.538410  0.779790  0.784280  1.0  -0.1643
  C  C370  1  0.595500  0.780920  0.722650  1.0  0.1689
  C  C371  1  0.508360  0.718530  0.637490  1.0  0.1601
  C  C372  1  0.447750  0.714440  0.696050  1.0  -0.199
  C  C373  1  0.661460  0.814640  0.401920  1.0  0.6642
  C  C374  1  0.615070  0.862480  0.346680  1.0  -0.1482
  C  C375  1  0.635630  0.871100  0.264630  1.0  -0.1259
  C  C376  1  0.591370  0.914070  0.212850  1.0  -0.131
  C  C377  1  0.525010  0.949450  0.241680  1.0  0.0459
  C  C378  1  0.505830  0.940990  0.324580  1.0  -0.1332
  C  C379  1  0.550030  0.898530  0.376320  1.0  -0.1018
  C  C380  1  0.475740  0.995560  0.187970  1.0  0.0412
  C  C381  1  0.511680  0.025540  0.121760  1.0  -0.1097
  C  C382  1  0.467230  0.071760  0.076410  1.0  -0.0539
  C  C383  1  0.385410  0.089540  0.095860  1.0  -0.1194
  C  C384  1  0.347920  0.057900  0.158870  1.0  -0.0474
  C  C385  1  0.391850  0.011260  0.204010  1.0  -0.1357
  C  C386  1  0.340710  0.144310  0.053610  1.0  0.674
  C  C387  1  0.183680  0.332870  0.919470  1.0  0.6642
  C  C388  1  0.135340  0.384740  0.874420  1.0  -0.1498
  C  C389  1  0.074370  0.418230  0.913420  1.0  -0.0237
  C  C390  1  0.026580  0.464130  0.870300  1.0  -0.1198
  C  C391  1  0.037780  0.476660  0.786500  1.0  0.0453
  C  C392  1  0.099940  0.443290  0.747680  1.0  -0.1315
  C  C393  1  0.148680  0.398270  0.791290  1.0  -0.0501
  C  C394  1  0.984810  0.524130  0.738900  1.0  0.0497
  C  C395  1  0.901300  0.537000  0.757400  1.0  -0.1246
  C  C396  1  0.852200  0.581700  0.713600  1.0  -0.0523
  C  C397  1  0.885010  0.614890  0.649660  1.0  -0.1033
  C  C398  1  0.968430  0.602450  0.630180  1.0  -0.0347
  C  C399  1  0.017150  0.557760  0.674230  1.0  -0.1124
  C  C400  1  0.832680  0.663210  0.600660  1.0  0.6358
  N  N401  1  0.898710  0.775270  0.865200  1.0  -0.322
  N  N402  1  0.582130  0.748950  0.150040  1.0  -0.3473
  N  N403  1  0.101290  0.275270  0.634800  1.0  -0.322
  N  N404  1  0.417870  0.248950  0.349960  1.0  -0.3452
  N  N405  1  0.101290  0.224730  0.134800  1.0  -0.3217
  N  N406  1  0.417870  0.251050  0.849960  1.0  -0.3461
  N  N407  1  0.898710  0.724730  0.365200  1.0  -0.3215
  N  N408  1  0.582130  0.751050  0.650040  1.0  -0.3474
  O  O409  1  0.722820  0.713380  0.871960  1.0  -0.5714
  O  O410  1  0.636030  0.694170  0.973520  1.0  -0.6091
  O  O411  1  0.380870  0.326790  0.500540  1.0  -0.5744
  O  O412  1  0.268030  0.341620  0.576030  1.0  -0.6059
  O  O413  1  0.242940  0.192220  0.382020  1.0  -0.5869
  O  O414  1  0.161370  0.182140  0.490290  1.0  -0.5955
  O  O415  1  0.868710  0.810490  0.042200  1.0  -0.5843
  O  O416  1  0.758770  0.825130  0.121020  1.0  -0.5747
  O  O417  1  0.277180  0.213380  0.628040  1.0  -0.5724
  O  O418  1  0.363970  0.194170  0.526480  1.0  -0.61
  O  O419  1  0.619130  0.826790  0.999460  1.0  -0.5726
  O  O420  1  0.731970  0.841620  0.923970  1.0  -0.6053
  O  O421  1  0.757060  0.692220  0.117980  1.0  -0.5882
  O  O422  1  0.838630  0.682140  0.009710  1.0  -0.5964
  O  O423  1  0.131290  0.310490  0.457800  1.0  -0.5843
  O  O424  1  0.241230  0.325130  0.378980  1.0  -0.5743
  O  O425  1  0.277180  0.286620  0.128040  1.0  -0.5724
  O  O426  1  0.363970  0.305830  0.026480  1.0  -0.61
  O  O427  1  0.619130  0.673210  0.499460  1.0  -0.573
  O  O428  1  0.731970  0.658380  0.423970  1.0  -0.6055
  O  O429  1  0.757060  0.807780  0.617980  1.0  -0.5888
  O  O430  1  0.838630  0.817860  0.509710  1.0  -0.5971
  O  O431  1  0.131290  0.189510  0.957800  1.0  -0.5838
  O  O432  1  0.241230  0.174870  0.878980  1.0  -0.5742
  O  O433  1  0.722820  0.786620  0.371960  1.0  -0.5718
  O  O434  1  0.636030  0.805830  0.473520  1.0  -0.6092
  O  O435  1  0.380870  0.173210  0.000540  1.0  -0.5744
  O  O436  1  0.268030  0.158380  0.076030  1.0  -0.6059
  O  O437  1  0.242940  0.307780  0.882020  1.0  -0.5875
  O  O438  1  0.161370  0.317860  0.990290  1.0  -0.5955
  O  O439  1  0.868710  0.689510  0.542200  1.0  -0.5838
  O  O440  1  0.758770  0.674870  0.621020  1.0  -0.5746
