# generated using pymatgen
data_Y(CO2)4
_symmetry_space_group_name_H-M   'P 1'
_cell_length_a   9.60080000
_cell_length_b   11.54220000
_cell_length_c   14.28860000
_cell_angle_alpha   90.00000000
_cell_angle_beta   122.46000000
_cell_angle_gamma   90.00000000
_symmetry_Int_Tables_number   1
_chemical_formula_structural   Y(CO2)4
_chemical_formula_sum   'Y4 C16 O32'
_cell_volume   1336.00442371
_cell_formula_units_Z   4
loop_
 _symmetry_equiv_pos_site_id
 _symmetry_equiv_pos_as_xyz
  1  'x, y, z'
loop_
 _atom_site_type_symbol
 _atom_site_label
 _atom_site_symmetry_multiplicity
 _atom_site_fract_x
 _atom_site_fract_y
 _atom_site_fract_z
 _atom_site_occupancy
 _atom_site_charge
  Y  Y1  1  0.617700  0.988460  0.332570  1.0  1.9617
  Y  Y2  1  0.382300  0.488460  0.167430  1.0  1.9629
  Y  Y3  1  0.382300  0.011540  0.667430  1.0  1.9625
  Y  Y4  1  0.617700  0.511540  0.832570  1.0  1.9612
  C  C5  1  0.596000  0.714800  0.291900  1.0  0.5335
  C  C6  1  0.416300  0.758700  0.216600  1.0  0.5453
  C  C7  1  0.494700  0.933500  0.498400  1.0  0.5664
  C  C8  1  0.015100  0.000500  0.452400  1.0  0.5478
  C  C9  1  0.404000  0.214800  0.208100  1.0  0.5329
  C  C10  1  0.583700  0.258700  0.283400  1.0  0.5454
  C  C11  1  0.505300  0.433500  0.001600  1.0  0.5667
  C  C12  1  0.984900  0.500500  0.047600  1.0  0.5473
  C  C13  1  0.404000  0.285200  0.708100  1.0  0.5336
  C  C14  1  0.583700  0.241300  0.783400  1.0  0.5462
  C  C15  1  0.505300  0.066500  0.501600  1.0  0.5652
  C  C16  1  0.984900  0.999500  0.547600  1.0  0.5473
  C  C17  1  0.596000  0.785200  0.791900  1.0  0.5333
  C  C18  1  0.416300  0.741300  0.716600  1.0  0.5455
  C  C19  1  0.494700  0.566500  0.998400  1.0  0.5652
  C  C20  1  0.015100  0.499500  0.952400  1.0  0.5475
  O  O21  1  0.704900  0.789900  0.342860  1.0  -0.5153
  O  O22  1  0.616700  0.607330  0.295000  1.0  -0.5051
  O  O23  1  0.305400  0.683340  0.170130  1.0  -0.5321
  O  O24  1  0.395900  0.865350  0.207430  1.0  -0.5131
  O  O25  1  0.519800  0.882680  0.431900  1.0  -0.5335
  O  O26  1  0.461300  0.887620  0.563300  1.0  -0.5069
  O  O27  1  0.889200  0.991230  0.356400  1.0  -0.5447
  O  O28  1  0.161100  0.010360  0.478480  1.0  -0.5147
  O  O29  1  0.295100  0.289900  0.157140  1.0  -0.5111
  O  O30  1  0.383300  0.107330  0.205000  1.0  -0.499
  O  O31  1  0.694600  0.183340  0.329870  1.0  -0.532
  O  O32  1  0.604100  0.365350  0.292570  1.0  -0.5127
  O  O33  1  0.480200  0.382680  0.068100  1.0  -0.5311
  O  O34  1  0.538700  0.387620  0.936700  1.0  -0.5054
  O  O35  1  0.110800  0.491230  0.143600  1.0  -0.5434
  O  O36  1  0.838900  0.510360  0.021520  1.0  -0.5147
  O  O37  1  0.295100  0.210100  0.657140  1.0  -0.512
  O  O38  1  0.383300  0.392670  0.705000  1.0  -0.4978
  O  O39  1  0.694600  0.316660  0.829870  1.0  -0.5352
  O  O40  1  0.604100  0.134650  0.792570  1.0  -0.5138
  O  O41  1  0.480200  0.117320  0.568100  1.0  -0.531
  O  O42  1  0.538700  0.112380  0.436700  1.0  -0.5031
  O  O43  1  0.110800  0.008770  0.643600  1.0  -0.5375
  O  O44  1  0.838900  0.989640  0.521520  1.0  -0.5143
  O  O45  1  0.704900  0.710100  0.842860  1.0  -0.5131
  O  O46  1  0.616700  0.892670  0.795000  1.0  -0.5017
  O  O47  1  0.305400  0.816660  0.670130  1.0  -0.5311
  O  O48  1  0.395900  0.634650  0.707430  1.0  -0.5133
  O  O49  1  0.519800  0.617320  0.931900  1.0  -0.5333
  O  O50  1  0.461300  0.612380  0.063300  1.0  -0.5073
  O  O51  1  0.889200  0.508770  0.856400  1.0  -0.5435
  O  O52  1  0.161100  0.489640  0.978480  1.0  -0.5145
