# generated using pymatgen
data_CoH4(C2O)4
_symmetry_space_group_name_H-M   'P 1'
_cell_length_a   9.84560000
_cell_length_b   12.07530000
_cell_length_c   13.00390000
_cell_angle_alpha   91.84200000
_cell_angle_beta   100.92500000
_cell_angle_gamma   101.74500000
_symmetry_Int_Tables_number   1
_chemical_formula_structural   CoH4(C2O)4
_chemical_formula_sum   'Co6 H24 C48 O24'
_cell_volume   1482.18608667
_cell_formula_units_Z   6
loop_
 _symmetry_equiv_pos_site_id
 _symmetry_equiv_pos_as_xyz
  1  'x, y, z'
loop_
 _atom_site_type_symbol
 _atom_site_label
 _atom_site_symmetry_multiplicity
 _atom_site_fract_x
 _atom_site_fract_y
 _atom_site_fract_z
 _atom_site_occupancy
 _atom_site_charge
  Co  Co1  1  0.462440  0.284290  0.321590  1.0  0.9968
  Co  Co2  1  0.840190  0.784640  0.821370  1.0  0.9619
  Co  Co3  1  0.537560  0.715710  0.678410  1.0  0.9982
  Co  Co4  1  0.159810  0.215360  0.178630  1.0  0.9594
  Co  Co5  1  0.500000  0.500000  0.500000  1.0  1.112
  Co  Co6  1  0.000000  0.000000  0.000000  1.0  1.1903
  H  H7  1  0.237200  0.649200  0.328100  1.0  0.1215
  H  H8  1  0.128300  0.773800  0.221000  1.0  0.1387
  H  H9  1  0.084300  0.553900  0.968500  1.0  0.1505
  H  H10  1  0.202000  0.438500  0.073900  1.0  0.1317
  H  H11  1  0.367700  0.273400  0.724200  1.0  0.1538
  H  H12  1  0.240100  0.151400  0.827200  1.0  0.1105
  H  H13  1  0.067600  0.927900  0.577800  1.0  0.136
  H  H14  1  0.174300  0.059900  0.469800  1.0  0.1091
  H  H15  1  0.819700  0.595800  0.435600  1.0  0.1344
  H  H16  1  0.955200  0.305200  0.520500  1.0  0.1306
  H  H17  1  0.428200  0.807300  0.009900  1.0  0.1274
  H  H18  1  0.680100  0.073800  0.912900  1.0  0.128
  H  H19  1  0.762800  0.350800  0.671900  1.0  0.1215
  H  H20  1  0.871700  0.226200  0.779000  1.0  0.1387
  H  H21  1  0.915700  0.446100  0.031500  1.0  0.1512
  H  H22  1  0.798000  0.561500  0.926100  1.0  0.1322
  H  H23  1  0.632300  0.726600  0.275800  1.0  0.1536
  H  H24  1  0.759900  0.848600  0.172800  1.0  0.1097
  H  H25  1  0.932400  0.072100  0.422200  1.0  0.1366
  H  H26  1  0.825700  0.940100  0.530200  1.0  0.1112
  H  H27  1  0.180300  0.404200  0.564400  1.0  0.1339
  H  H28  1  0.044800  0.694800  0.479500  1.0  0.1298
  H  H29  1  0.571800  0.192700  0.990100  1.0  0.1267
  H  H30  1  0.319900  0.926200  0.087100  1.0  0.1284
  C  C31  1  0.234500  0.533800  0.209000  1.0  -0.1025
  C  C32  1  0.209300  0.632000  0.254400  1.0  -0.0102
  C  C33  1  0.142600  0.705400  0.191000  1.0  -0.0517
  C  C34  1  0.097900  0.676600  0.083900  1.0  -0.0328
  C  C35  1  0.118200  0.575300  0.041200  1.0  -0.0888
  C  C36  1  0.187100  0.506600  0.104200  1.0  -0.0978
  C  C37  1  0.305000  0.455100  0.275300  1.0  0.4497
  C  C38  1  0.026900  0.749700  0.018900  1.0  0.7215
  C  C39  1  0.279700  0.173300  0.583100  1.0  -0.0562
  C  C40  1  0.303800  0.205400  0.693700  1.0  -0.0871
  C  C41  1  0.228400  0.131200  0.754300  1.0  -0.0118
  C  C42  1  0.138400  0.030600  0.712800  1.0  -0.065
  C  C43  1  0.123000  0.999600  0.607300  1.0  -0.1253
  C  C44  1  0.192200  0.077700  0.543400  1.0  -0.1138
  C  C45  1  0.355300  0.251700  0.518600  1.0  0.533
  C  C46  1  0.062700  0.955800  0.779700  1.0  0.7133
  C  C47  1  0.714100  0.370300  0.428900  1.0  0.6858
  C  C48  1  0.894000  0.558200  0.460800  1.0  -0.0116
  C  C49  1  0.863600  0.438800  0.468600  1.0  -0.167
  C  C50  1  0.975900  0.384300  0.511800  1.0  -0.0255
  C  C51  1  0.686600  0.867900  0.933200  1.0  0.7066
  C  C52  1  0.460300  0.886800  0.008100  1.0  -0.0603
  C  C53  1  0.578200  0.926000  0.962600  1.0  -0.0715
  C  C54  1  0.609100  0.043400  0.950700  1.0  -0.133
  C  C55  1  0.765500  0.466200  0.791000  1.0  -0.1044
  C  C56  1  0.790700  0.368000  0.745600  1.0  -0.0162
  C  C57  1  0.857400  0.294600  0.809000  1.0  -0.05
  C  C58  1  0.902100  0.323400  0.916100  1.0  -0.0334
  C  C59  1  0.881800  0.424700  0.958800  1.0  -0.0879
  C  C60  1  0.812900  0.493400  0.895800  1.0  -0.0968
  C  C61  1  0.695000  0.544900  0.724700  1.0  0.4516
  C  C62  1  0.973100  0.250300  0.981100  1.0  0.7217
  C  C63  1  0.720300  0.826700  0.416900  1.0  -0.0614
  C  C64  1  0.696200  0.794600  0.306300  1.0  -0.087
  C  C65  1  0.771600  0.868800  0.245700  1.0  -0.0124
  C  C66  1  0.861600  0.969400  0.287200  1.0  -0.0666
  C  C67  1  0.877000  0.000400  0.392700  1.0  -0.1236
  C  C68  1  0.807800  0.922300  0.456600  1.0  -0.1146
  C  C69  1  0.644700  0.748300  0.481400  1.0  0.5315
  C  C70  1  0.937300  0.044200  0.220300  1.0  0.7127
  C  C71  1  0.285900  0.629700  0.571100  1.0  0.6853
  C  C72  1  0.106000  0.441800  0.539200  1.0  -0.011
  C  C73  1  0.136400  0.561200  0.531400  1.0  -0.1663
  C  C74  1  0.024100  0.615700  0.488200  1.0  -0.0337
  C  C75  1  0.313400  0.132100  0.066800  1.0  0.7041
  C  C76  1  0.539700  0.113200  0.991900  1.0  -0.0602
  C  C77  1  0.421800  0.074000  0.037400  1.0  -0.0701
  C  C78  1  0.390900  0.956600  0.049300  1.0  -0.1355
  O  O79  1  0.316900  0.372200  0.246300  1.0  -0.6088
  O  O80  1  0.341200  0.487100  0.381700  1.0  -0.6451
  O  O81  1  0.030000  0.851000  0.058500  1.0  -0.5786
  O  O82  1  0.967400  0.715900  0.925200  1.0  -0.5798
  O  O83  1  0.351900  0.216300  0.411400  1.0  -0.6121
  O  O84  1  0.427200  0.350500  0.557600  1.0  -0.5904
  O  O85  1  0.097200  0.979900  0.878300  1.0  -0.5844
  O  O86  1  0.963400  0.875600  0.735800  1.0  -0.5603
  O  O87  1  0.616800  0.418200  0.399000  1.0  -0.6162
  O  O88  1  0.695200  0.264100  0.428700  1.0  -0.6047
  O  O89  1  0.792100  0.920400  0.903200  1.0  -0.6051
  O  O90  1  0.653000  0.762200  0.933600  1.0  -0.5818
  O  O91  1  0.683100  0.627800  0.753700  1.0  -0.61
  O  O92  1  0.658800  0.512900  0.618300  1.0  -0.6438
  O  O93  1  0.970000  0.149000  0.941500  1.0  -0.5799
  O  O94  1  0.032600  0.284100  0.074800  1.0  -0.5802
  O  O95  1  0.648100  0.783700  0.588600  1.0  -0.6129
  O  O96  1  0.572800  0.649500  0.442400  1.0  -0.5925
  O  O97  1  0.902800  0.020100  0.121700  1.0  -0.5837
  O  O98  1  0.036600  0.124400  0.264200  1.0  -0.5603
  O  O99  1  0.383200  0.581800  0.601000  1.0  -0.6167
  O  O100  1  0.304800  0.735900  0.571300  1.0  -0.6025
  O  O101  1  0.207900  0.079600  0.096800  1.0  -0.6054
  O  O102  1  0.347000  0.237800  0.066400  1.0  -0.5831
