# generated using pymatgen
data_Sm(CO2)4
_symmetry_space_group_name_H-M   'P 1'
_cell_length_a   9.67110000
_cell_length_b   11.78490000
_cell_length_c   14.38630000
_cell_angle_alpha   90.00000000
_cell_angle_beta   122.27600000
_cell_angle_gamma   90.00000000
_symmetry_Int_Tables_number   1
_chemical_formula_structural   Sm(CO2)4
_chemical_formula_sum   'Sm4 C16 O32'
_cell_volume   1386.29959782
_cell_formula_units_Z   4
loop_
 _symmetry_equiv_pos_site_id
 _symmetry_equiv_pos_as_xyz
  1  'x, y, z'
loop_
 _atom_site_type_symbol
 _atom_site_label
 _atom_site_symmetry_multiplicity
 _atom_site_fract_x
 _atom_site_fract_y
 _atom_site_fract_z
 _atom_site_occupancy
 _atom_site_charge
  Sm  Sm1  1  0.616800  0.983580  0.330360  1.0  2.1603
  Sm  Sm2  1  0.383200  0.483580  0.169640  1.0  2.1608
  Sm  Sm3  1  0.383200  0.016420  0.669640  1.0  2.1608
  Sm  Sm4  1  0.616800  0.516420  0.830360  1.0  2.1604
  C  C5  1  0.595800  0.709500  0.294900  1.0  0.5666
  C  C6  1  0.417200  0.753600  0.217300  1.0  0.5994
  C  C7  1  0.495000  0.934800  0.500400  1.0  0.5876
  C  C8  1  0.016800  0.999900  0.454100  1.0  0.5355
  C  C9  1  0.404200  0.209500  0.205100  1.0  0.5657
  C  C10  1  0.582800  0.253600  0.282700  1.0  0.5985
  C  C11  1  0.505000  0.434800  0.999600  1.0  0.5875
  C  C12  1  0.983200  0.499900  0.045900  1.0  0.5358
  C  C13  1  0.404200  0.290500  0.705100  1.0  0.5661
  C  C14  1  0.582800  0.246400  0.782700  1.0  0.5992
  C  C15  1  0.505000  0.065200  0.499600  1.0  0.5866
  C  C16  1  0.983200  0.000100  0.545900  1.0  0.5358
  C  C17  1  0.595800  0.790500  0.794900  1.0  0.5662
  C  C18  1  0.417200  0.746400  0.717300  1.0  0.5995
  C  C19  1  0.495000  0.565200  0.000400  1.0  0.5866
  C  C20  1  0.016800  0.500100  0.954100  1.0  0.5361
  O  O21  1  0.703600  0.783200  0.343500  1.0  -0.5356
  O  O22  1  0.615600  0.604500  0.301400  1.0  -0.5462
  O  O23  1  0.306300  0.679900  0.173200  1.0  -0.5885
  O  O24  1  0.397800  0.857600  0.204700  1.0  -0.5768
  O  O25  1  0.517200  0.881700  0.434300  1.0  -0.5649
  O  O26  1  0.467000  0.891900  0.567600  1.0  -0.5506
  O  O27  1  0.891200  0.984700  0.357200  1.0  -0.5477
  O  O28  1  0.158500  0.012400  0.477200  1.0  -0.5373
  O  O29  1  0.296400  0.283200  0.156500  1.0  -0.533
  O  O30  1  0.384400  0.104500  0.198600  1.0  -0.5473
  O  O31  1  0.693700  0.179900  0.326800  1.0  -0.5879
  O  O32  1  0.602200  0.357600  0.295300  1.0  -0.5761
  O  O33  1  0.482800  0.381700  0.065700  1.0  -0.5637
  O  O34  1  0.533000  0.391900  0.932400  1.0  -0.5512
  O  O35  1  0.108800  0.484700  0.142800  1.0  -0.5512
  O  O36  1  0.841500  0.512400  0.022800  1.0  -0.5368
  O  O37  1  0.296400  0.216800  0.656500  1.0  -0.5339
  O  O38  1  0.384400  0.395500  0.698600  1.0  -0.5481
  O  O39  1  0.693700  0.320100  0.826800  1.0  -0.5879
  O  O40  1  0.602200  0.142400  0.795300  1.0  -0.5757
  O  O41  1  0.482800  0.118300  0.565700  1.0  -0.5611
  O  O42  1  0.533000  0.108100  0.432400  1.0  -0.5521
  O  O43  1  0.108800  0.015300  0.642800  1.0  -0.5553
  O  O44  1  0.841500  0.987600  0.522800  1.0  -0.537
  O  O45  1  0.703600  0.716800  0.843500  1.0  -0.5354
  O  O46  1  0.615600  0.895500  0.801400  1.0  -0.5448
  O  O47  1  0.306300  0.820100  0.673200  1.0  -0.5879
  O  O48  1  0.397800  0.642400  0.704700  1.0  -0.5756
  O  O49  1  0.517200  0.618300  0.934300  1.0  -0.5622
  O  O50  1  0.467000  0.608100  0.067600  1.0  -0.5517
  O  O51  1  0.891200  0.515300  0.857200  1.0  -0.5543
  O  O52  1  0.158500  0.487600  0.977200  1.0  -0.5372
