# generated using pymatgen
data_Zn3P4(HO3)4
_symmetry_space_group_name_H-M   'P 1'
_cell_length_a   12.79750000
_cell_length_b   10.21820000
_cell_length_c   14.83050000
_cell_angle_alpha   90.00000000
_cell_angle_beta   90.00000000
_cell_angle_gamma   90.00000000
_symmetry_Int_Tables_number   1
_chemical_formula_structural   Zn3P4(HO3)4
_chemical_formula_sum   'Zn12 P16 H16 O48'
_cell_volume   1939.34614074
_cell_formula_units_Z   4
loop_
 _symmetry_equiv_pos_site_id
 _symmetry_equiv_pos_as_xyz
  1  'x, y, z'
loop_
 _atom_site_type_symbol
 _atom_site_label
 _atom_site_symmetry_multiplicity
 _atom_site_fract_x
 _atom_site_fract_y
 _atom_site_fract_z
 _atom_site_occupancy
 _atom_site_charge
  Zn  Zn1  1  0.661600  0.496410  0.062420  1.0  1.1504
  Zn  Zn2  1  0.838400  0.003590  0.562420  1.0  1.1494
  Zn  Zn3  1  0.338400  0.496410  0.437580  1.0  1.149
  Zn  Zn4  1  0.161600  0.003590  0.937580  1.0  1.15
  Zn  Zn5  1  0.338400  0.503590  0.937580  1.0  1.1491
  Zn  Zn6  1  0.161600  0.996410  0.437580  1.0  1.1498
  Zn  Zn7  1  0.661600  0.503590  0.562420  1.0  1.1503
  Zn  Zn8  1  0.838400  0.996410  0.062420  1.0  1.149
  Zn  Zn9  1  0.500000  0.291150  0.250000  1.0  1.158
  Zn  Zn10  1  0.000000  0.208850  0.750000  1.0  1.1569
  Zn  Zn11  1  0.500000  0.708850  0.750000  1.0  1.1569
  Zn  Zn12  1  0.000000  0.791150  0.250000  1.0  1.158
  P  P13  1  0.430090  0.528470  0.131440  1.0  1.6274
  P  P14  1  0.704180  0.213150  0.151500  1.0  1.5411
  P  P15  1  0.069910  0.971530  0.631440  1.0  1.6295
  P  P16  1  0.795820  0.286850  0.651500  1.0  1.5374
  P  P17  1  0.569910  0.528470  0.368560  1.0  1.6303
  P  P18  1  0.295820  0.213150  0.348500  1.0  1.5397
  P  P19  1  0.930090  0.971530  0.868560  1.0  1.6282
  P  P20  1  0.204180  0.286850  0.848500  1.0  1.5441
  P  P21  1  0.569910  0.471530  0.868560  1.0  1.6299
  P  P22  1  0.295820  0.786850  0.848500  1.0  1.5401
  P  P23  1  0.930090  0.028470  0.368560  1.0  1.628
  P  P24  1  0.204180  0.713150  0.348500  1.0  1.5438
  P  P25  1  0.430090  0.471530  0.631440  1.0  1.6272
  P  P26  1  0.704180  0.786850  0.651500  1.0  1.5424
  P  P27  1  0.069910  0.028470  0.131440  1.0  1.6299
  P  P28  1  0.795820  0.713150  0.151500  1.0  1.538
  H  H29  1  0.401800  0.593000  0.204300  1.0  -0.0861
  H  H30  1  0.774600  0.177000  0.210400  1.0  -0.101
  H  H31  1  0.098200  0.907000  0.704300  1.0  -0.0856
  H  H32  1  0.725400  0.323000  0.710400  1.0  -0.1024
  H  H33  1  0.598200  0.593000  0.295700  1.0  -0.0823
  H  H34  1  0.225400  0.177000  0.289600  1.0  -0.0971
  H  H35  1  0.901800  0.907000  0.795700  1.0  -0.0813
  H  H36  1  0.274600  0.323000  0.789600  1.0  -0.0957
  H  H37  1  0.598200  0.407000  0.795700  1.0  -0.0839
  H  H38  1  0.225400  0.823000  0.789600  1.0  -0.0972
  H  H39  1  0.901800  0.093000  0.295700  1.0  -0.0844
  H  H40  1  0.274600  0.677000  0.289600  1.0  -0.0957
  H  H41  1  0.401800  0.407000  0.704300  1.0  -0.0834
  H  H42  1  0.774600  0.823000  0.710400  1.0  -0.1013
  H  H43  1  0.098200  0.093000  0.204300  1.0  -0.0834
  H  H44  1  0.725400  0.677000  0.210400  1.0  -0.1018
  O  O45  1  0.537850  0.580140  0.108650  1.0  -0.8029
  O  O46  1  0.717880  0.358340  0.137680  1.0  -0.8291
  O  O47  1  0.349100  0.564000  0.060680  1.0  -0.7841
  O  O48  1  0.727340  0.132150  0.066930  1.0  -0.7327
  O  O49  1  0.429370  0.384400  0.154360  1.0  -0.7984
  O  O50  1  0.598340  0.175000  0.189610  1.0  -0.7692
  O  O51  1  0.962150  0.919860  0.608650  1.0  -0.8021
  O  O52  1  0.782120  0.141660  0.637680  1.0  -0.8303
  O  O53  1  0.150900  0.936000  0.560680  1.0  -0.785
  O  O54  1  0.772660  0.367850  0.566930  1.0  -0.7318
  O  O55  1  0.070630  0.115600  0.654360  1.0  -0.7962
  O  O56  1  0.901660  0.325000  0.689610  1.0  -0.7685
  O  O57  1  0.462150  0.580140  0.391350  1.0  -0.8025
  O  O58  1  0.282120  0.358340  0.362320  1.0  -0.8298
  O  O59  1  0.650900  0.564000  0.439320  1.0  -0.7842
  O  O60  1  0.272660  0.132150  0.433070  1.0  -0.7333
  O  O61  1  0.570630  0.384400  0.345640  1.0  -0.7966
  O  O62  1  0.401660  0.175000  0.310390  1.0  -0.7681
  O  O63  1  0.037850  0.919860  0.891350  1.0  -0.8013
  O  O64  1  0.217880  0.141660  0.862320  1.0  -0.8295
  O  O65  1  0.849100  0.936000  0.939320  1.0  -0.7851
  O  O66  1  0.227340  0.367850  0.933070  1.0  -0.7344
  O  O67  1  0.929370  0.115600  0.845640  1.0  -0.7963
  O  O68  1  0.098340  0.325000  0.810390  1.0  -0.7689
  O  O69  1  0.462150  0.419860  0.891350  1.0  -0.8015
  O  O70  1  0.282120  0.641660  0.862320  1.0  -0.8301
  O  O71  1  0.650900  0.436000  0.939320  1.0  -0.7852
  O  O72  1  0.272660  0.867850  0.933070  1.0  -0.7328
  O  O73  1  0.570630  0.615600  0.845640  1.0  -0.7958
  O  O74  1  0.401660  0.825000  0.810390  1.0  -0.7676
  O  O75  1  0.037850  0.080140  0.391350  1.0  -0.8019
  O  O76  1  0.217880  0.858340  0.362320  1.0  -0.8286
  O  O77  1  0.849100  0.064000  0.439320  1.0  -0.7844
  O  O78  1  0.227340  0.632150  0.433070  1.0  -0.7349
  O  O79  1  0.929370  0.884400  0.345640  1.0  -0.7968
  O  O80  1  0.098340  0.675000  0.310390  1.0  -0.7687
  O  O81  1  0.537850  0.419860  0.608650  1.0  -0.8022
  O  O82  1  0.717880  0.641660  0.637680  1.0  -0.8299
  O  O83  1  0.349100  0.436000  0.560680  1.0  -0.7849
  O  O84  1  0.727340  0.867850  0.566930  1.0  -0.7325
  O  O85  1  0.429370  0.615600  0.654360  1.0  -0.7971
  O  O86  1  0.598340  0.825000  0.689610  1.0  -0.7695
  O  O87  1  0.962150  0.080140  0.108650  1.0  -0.8036
  O  O88  1  0.782120  0.858340  0.137680  1.0  -0.83
  O  O89  1  0.150900  0.064000  0.060680  1.0  -0.7841
  O  O90  1  0.772660  0.632150  0.066930  1.0  -0.7321
  O  O91  1  0.070630  0.884400  0.154360  1.0  -0.7976
  O  O92  1  0.901660  0.675000  0.189610  1.0  -0.7687
