# generated using pymatgen
data_DyH9C18(NO2)3
_symmetry_space_group_name_H-M   'P 1'
_cell_length_a   13.66050000
_cell_length_b   15.01030000
_cell_length_c   18.53450000
_cell_angle_alpha   69.05100000
_cell_angle_beta   71.14500000
_cell_angle_gamma   65.01400000
_symmetry_Int_Tables_number   1
_chemical_formula_structural   DyH9C18(NO2)3
_chemical_formula_sum   'Dy4 H36 C72 N12 O24'
_cell_volume   3149.85008787
_cell_formula_units_Z   4
loop_
 _symmetry_equiv_pos_site_id
 _symmetry_equiv_pos_as_xyz
  1  'x, y, z'
loop_
 _atom_site_type_symbol
 _atom_site_label
 _atom_site_symmetry_multiplicity
 _atom_site_fract_x
 _atom_site_fract_y
 _atom_site_fract_z
 _atom_site_occupancy
 _atom_site_charge
  Dy  Dy1  1  0.847860  0.497090  0.137640  1.0  2.3097
  Dy  Dy2  1  0.629990  0.503840  0.369860  1.0  2.3009
  Dy  Dy3  1  0.152140  0.502910  0.862360  1.0  2.3116
  Dy  Dy4  1  0.370010  0.496160  0.630140  1.0  2.2985
  H  H5  1  0.555200  0.762300  0.037800  1.0  0.0845
  H  H6  1  0.419800  0.738600  0.268500  1.0  0.1045
  H  H7  1  0.291200  0.900300  0.234000  1.0  0.0983
  H  H8  1  0.062300  0.186600  0.165500  1.0  0.0713
  H  H9  1  0.246900  0.237100  0.951100  1.0  0.0886
  H  H10  1  0.358900  0.065500  0.979000  1.0  0.1109
  H  H11  1  0.834200  0.230900  0.159600  1.0  0.0931
  H  H12  1  0.633800  0.193200  0.371600  1.0  0.0903
  H  H13  1  0.652600  0.034800  0.367600  1.0  0.1242
  H  H14  1  0.672600  0.757900  0.354400  1.0  0.0984
  H  H15  1  0.869100  0.795400  0.139500  1.0  0.0974
  H  H16  1  0.864400  0.946700  0.149100  1.0  0.1157
  H  H17  1  0.930600  0.249000  0.460000  1.0  0.0862
  H  H18  1  0.100100  0.280700  0.237000  1.0  0.1125
  H  H19  1  0.229000  0.121200  0.278800  1.0  0.0986
  H  H20  1  0.455700  0.844600  0.349700  1.0  0.0534
  H  H21  1  0.246500  0.773700  0.548000  1.0  0.1017
  H  H22  1  0.131700  0.942800  0.520800  1.0  0.1041
  H  H23  1  0.444800  0.237700  0.962200  1.0  0.0855
  H  H24  1  0.580200  0.261400  0.731500  1.0  0.1041
  H  H25  1  0.708800  0.099700  0.766000  1.0  0.099
  H  H26  1  0.937700  0.813400  0.834500  1.0  0.071
  H  H27  1  0.753100  0.762900  0.048900  1.0  0.0891
  H  H28  1  0.641100  0.934500  0.021000  1.0  0.1113
  H  H29  1  0.165800  0.769100  0.840400  1.0  0.0941
  H  H30  1  0.366200  0.806800  0.628400  1.0  0.0912
  H  H31  1  0.347400  0.965200  0.632400  1.0  0.1244
  H  H32  1  0.327400  0.242100  0.645600  1.0  0.0974
  H  H33  1  0.130900  0.204600  0.860500  1.0  0.0972
  H  H34  1  0.135600  0.053300  0.850900  1.0  0.1159
  H  H35  1  0.069400  0.751000  0.540000  1.0  0.0856
  H  H36  1  0.899900  0.719300  0.763000  1.0  0.1119
  H  H37  1  0.771000  0.878800  0.721200  1.0  0.0978
  H  H38  1  0.544300  0.155400  0.650300  1.0  0.0539
  H  H39  1  0.753500  0.226300  0.452000  1.0  0.1011
  H  H40  1  0.868300  0.057200  0.479200  1.0  0.1044
  C  C41  1  0.075700  0.342300  0.044200  1.0  0.7395
  C  C42  1  0.594100  0.632700  0.176100  1.0  0.7821
  C  C43  1  0.351500  0.924500  0.115200  1.0  0.1635
  C  C44  1  0.503100  0.790800  0.077700  1.0  0.203
  C  C45  1  0.504800  0.734500  0.155700  1.0  -0.2028
  C  C46  1  0.422500  0.775400  0.216000  1.0  -0.0328
  C  C47  1  0.345900  0.871200  0.195400  1.0  -0.084
  C  C48  1  0.275600  0.030400  0.091000  1.0  0.1902
  C  C49  1  0.124000  0.162800  0.128000  1.0  0.1856
  C  C50  1  0.144500  0.229900  0.057800  1.0  -0.2031
  C  C51  1  0.232500  0.193600  0.000400  1.0  0.017
  C  C52  1  0.299600  0.091600  0.016900  1.0  -0.0903
  C  C53  1  0.714000  0.334000  0.267500  1.0  0.7984
  C  C54  1  0.755000  0.039700  0.260100  1.0  0.1539
  C  C55  1  0.797600  0.191700  0.201200  1.0  0.1232
  C  C56  1  0.729600  0.230100  0.264700  1.0  -0.2053
  C  C57  1  0.677200  0.169100  0.327600  1.0  -0.0248
  C  C58  1  0.688500  0.074400  0.325900  1.0  -0.1293
  C  C59  1  0.762800  0.941700  0.256200  1.0  0.1357
  C  C60  1  0.710200  0.796200  0.312900  1.0  0.1884
  C  C61  1  0.770500  0.760200  0.246400  1.0  -0.2097
  C  C62  1  0.828400  0.818300  0.184400  1.0  -0.0322
  C  C63  1  0.825300  0.908800  0.189600  1.0  -0.1251
  C  C64  1  0.775800  0.660600  0.241200  1.0  0.7621
  C  C65  1  0.903900  0.375100  0.318200  1.0  0.7691
  C  C66  1  0.152100  0.093400  0.392800  1.0  0.1864
  C  C67  1  0.990600  0.222000  0.422800  1.0  0.1796
  C  C68  1  0.998800  0.279200  0.344400  1.0  -0.1696
  C  C69  1  0.090200  0.243000  0.289300  1.0  0.0008
  C  C70  1  0.166800  0.148200  0.314700  1.0  -0.0596
  C  C71  1  0.228200  0.988200  0.418500  1.0  0.1477
  C  C72  1  0.388100  0.863600  0.384000  1.0  0.1961
  C  C73  1  0.361800  0.789500  0.447500  1.0  -0.1481
  C  C74  1  0.265200  0.820000  0.501800  1.0  -0.0067
  C  C75  1  0.197700  0.920800  0.485900  1.0  -0.081
  C  C76  1  0.435300  0.678300  0.456000  1.0  0.7323
  C  C77  1  0.924300  0.657700  0.955800  1.0  0.7389
  C  C78  1  0.405900  0.367300  0.823900  1.0  0.7848
  C  C79  1  0.648500  0.075500  0.884800  1.0  0.1631
  C  C80  1  0.496900  0.209200  0.922300  1.0  0.2009
  C  C81  1  0.495200  0.265500  0.844300  1.0  -0.1988
  C  C82  1  0.577500  0.224600  0.784000  1.0  -0.0342
  C  C83  1  0.654100  0.128800  0.804600  1.0  -0.0835
  C  C84  1  0.724400  0.969600  0.909000  1.0  0.1901
  C  C85  1  0.876000  0.837200  0.872000  1.0  0.184
  C  C86  1  0.855500  0.770100  0.942200  1.0  -0.2048
  C  C87  1  0.767500  0.806400  0.999600  1.0  0.0181
  C  C88  1  0.700400  0.908400  0.983100  1.0  -0.0894
  C  C89  1  0.286000  0.666000  0.732500  1.0  0.7964
  C  C90  1  0.245000  0.960300  0.739900  1.0  0.1537
  C  C91  1  0.202400  0.808300  0.798800  1.0  0.1251
  C  C92  1  0.270400  0.769900  0.735300  1.0  -0.205
  C  C93  1  0.322800  0.830900  0.672400  1.0  -0.026
  C  C94  1  0.311500  0.925600  0.674100  1.0  -0.1293
  C  C95  1  0.237200  0.058300  0.743800  1.0  0.1361
  C  C96  1  0.289800  0.203800  0.687100  1.0  0.1879
  C  C97  1  0.229500  0.239800  0.753600  1.0  -0.2107
  C  C98  1  0.171600  0.181700  0.815600  1.0  -0.0304
  C  C99  1  0.174700  0.091200  0.810400  1.0  -0.1264
  C  C100  1  0.224200  0.339400  0.758800  1.0  0.7609
  C  C101  1  0.096100  0.624900  0.681800  1.0  0.7689
  C  C102  1  0.847900  0.906600  0.607200  1.0  0.187
  C  C103  1  0.009400  0.778000  0.577200  1.0  0.1828
  C  C104  1  0.001200  0.720800  0.655600  1.0  -0.172
  C  C105  1  0.909800  0.757000  0.710700  1.0  0.0031
  C  C106  1  0.833200  0.851800  0.685300  1.0  -0.0614
  C  C107  1  0.771800  0.011800  0.581500  1.0  0.1485
  C  C108  1  0.611900  0.136400  0.616000  1.0  0.198
  C  C109  1  0.638200  0.210500  0.552500  1.0  -0.1487
  C  C110  1  0.734800  0.180000  0.498200  1.0  -0.0068
  C  C111  1  0.802300  0.079200  0.514100  1.0  -0.0809
  C  C112  1  0.564700  0.321700  0.544000  1.0  0.734
  N  N113  1  0.429400  0.884500  0.057600  1.0  -0.4263
  N  N114  1  0.187300  0.064200  0.146300  1.0  -0.4054
  N  N115  1  0.812100  0.095500  0.198400  1.0  -0.4155
  N  N116  1  0.704700  0.887200  0.318800  1.0  -0.4218
  N  N117  1  0.323600  0.960800  0.368200  1.0  -0.4051
  N  N118  1  0.064600  0.129600  0.447800  1.0  -0.4107
  N  N119  1  0.570600  0.115500  0.942400  1.0  -0.4241
  N  N120  1  0.812700  0.935800  0.853700  1.0  -0.4073
  N  N121  1  0.187900  0.904500  0.801600  1.0  -0.4129
  N  N122  1  0.295300  0.112800  0.681200  1.0  -0.4251
  N  N123  1  0.676400  0.039200  0.631800  1.0  -0.4015
  N  N124  1  0.935400  0.870400  0.552200  1.0  -0.4136
  O  O125  1  0.406600  0.613600  0.514400  1.0  -0.7796
  O  O126  1  0.517300  0.659600  0.401800  1.0  -0.6811
  O  O127  1  0.647400  0.365800  0.324700  1.0  -0.6973
  O  O128  1  0.011400  0.372400  0.103100  1.0  -0.7335
  O  O129  1  0.922800  0.429500  0.249200  1.0  -0.7356
  O  O130  1  0.771000  0.379200  0.212600  1.0  -0.7276
  O  O131  1  0.091100  0.397200  0.976500  1.0  -0.7514
  O  O132  1  0.822800  0.637900  0.177000  1.0  -0.6744
  O  O133  1  0.670100  0.605600  0.120500  1.0  -0.6547
  O  O134  1  0.587500  0.582800  0.246000  1.0  -0.7973
  O  O135  1  0.733200  0.608800  0.301200  1.0  -0.7352
  O  O136  1  0.814300  0.391300  0.366100  1.0  -0.7412
  O  O137  1  0.593400  0.386400  0.485600  1.0  -0.7805
  O  O138  1  0.482700  0.340400  0.598200  1.0  -0.6822
  O  O139  1  0.352600  0.634200  0.675300  1.0  -0.6987
  O  O140  1  0.988600  0.627600  0.896900  1.0  -0.7339
  O  O141  1  0.077200  0.570500  0.750800  1.0  -0.7363
  O  O142  1  0.229000  0.620800  0.787400  1.0  -0.7288
  O  O143  1  0.908900  0.602800  0.023500  1.0  -0.7506
  O  O144  1  0.177200  0.362100  0.823000  1.0  -0.6766
  O  O145  1  0.329900  0.394400  0.879500  1.0  -0.6538
  O  O146  1  0.412500  0.417200  0.754000  1.0  -0.7966
  O  O147  1  0.266800  0.391200  0.698800  1.0  -0.7369
  O  O148  1  0.185700  0.608700  0.633900  1.0  -0.7406
