# generated using pymatgen
data_Cu3H72C72(N13O3)2
_symmetry_space_group_name_H-M   'P 1'
_cell_length_a   20.40560000
_cell_length_b   20.40560000
_cell_length_c   20.40560000
_cell_angle_alpha   109.47100000
_cell_angle_beta   109.47100000
_cell_angle_gamma   109.47100000
_symmetry_Int_Tables_number   1
_chemical_formula_structural   Cu3H72C72(N13O3)2
_chemical_formula_sum   'Cu6 H144 C144 N52 O12'
_cell_volume   6540.78335106
_cell_formula_units_Z   2
loop_
 _symmetry_equiv_pos_site_id
 _symmetry_equiv_pos_as_xyz
  1  'x, y, z'
loop_
 _atom_site_type_symbol
 _atom_site_label
 _atom_site_symmetry_multiplicity
 _atom_site_fract_x
 _atom_site_fract_y
 _atom_site_fract_z
 _atom_site_occupancy
 _atom_site_charge
  Cu  Cu1  1  0.500000  0.250000  0.750000  1.0  0.6627
  Cu  Cu2  1  0.500000  0.750000  0.250000  1.0  0.6621
  Cu  Cu3  1  0.250000  0.500000  0.750000  1.0  0.6623
  Cu  Cu4  1  0.750000  0.500000  0.250000  1.0  0.6621
  Cu  Cu5  1  0.750000  0.250000  0.500000  1.0  0.6627
  Cu  Cu6  1  0.250000  0.750000  0.500000  1.0  0.6623
  H  H7  1  0.597600  0.166700  0.673500  1.0  0.1095
  H  H8  1  0.629300  0.245000  0.751100  1.0  0.0995
  H  H9  1  0.456800  0.369200  0.538800  1.0  0.1148
  H  H10  1  0.380600  0.287400  0.500000  1.0  0.1144
  H  H11  1  0.493200  0.924100  0.326500  1.0  0.1059
  H  H12  1  0.493900  0.878200  0.248900  1.0  0.0974
  H  H13  1  0.830400  0.918000  0.461200  1.0  0.1205
  H  H14  1  0.787400  0.880600  0.500000  1.0  0.1116
  H  H15  1  0.506800  0.833300  0.430900  1.0  0.103
  H  H16  1  0.506100  0.755000  0.384300  1.0  0.0982
  H  H17  1  0.169600  0.630800  0.087600  1.0  0.1157
  H  H18  1  0.212600  0.712600  0.093200  1.0  0.1204
  H  H19  1  0.402400  0.075900  0.569100  1.0  0.1097
  H  H20  1  0.370700  0.121800  0.615700  1.0  0.0976
  H  H21  1  0.543200  0.082000  0.912400  1.0  0.1221
  H  H22  1  0.619400  0.119400  0.906800  1.0  0.1177
  H  H23  1  0.430900  0.506800  0.833300  1.0  0.1036
  H  H24  1  0.384300  0.506100  0.755000  1.0  0.0992
  H  H25  1  0.087600  0.169600  0.630800  1.0  0.1198
  H  H26  1  0.093200  0.212600  0.712600  1.0  0.1208
  H  H27  1  0.569100  0.402400  0.075900  1.0  0.1087
  H  H28  1  0.615700  0.370700  0.121800  1.0  0.0987
  H  H29  1  0.912400  0.543200  0.082000  1.0  0.1197
  H  H30  1  0.906800  0.619400  0.119400  1.0  0.117
  H  H31  1  0.673500  0.597600  0.166700  1.0  0.1084
  H  H32  1  0.751100  0.629300  0.245000  1.0  0.0963
  H  H33  1  0.538800  0.456800  0.369200  1.0  0.1182
  H  H34  1  0.500000  0.380600  0.287400  1.0  0.1101
  H  H35  1  0.326500  0.493200  0.924100  1.0  0.0989
  H  H36  1  0.248900  0.493900  0.878200  1.0  0.0985
  H  H37  1  0.461200  0.830400  0.918000  1.0  0.1129
  H  H38  1  0.500000  0.787400  0.880600  1.0  0.1169
  H  H39  1  0.924100  0.326500  0.493200  1.0  0.1075
  H  H40  1  0.878200  0.248900  0.493900  1.0  0.0998
  H  H41  1  0.918000  0.461200  0.830400  1.0  0.1212
  H  H42  1  0.880600  0.500000  0.787400  1.0  0.1134
  H  H43  1  0.166700  0.673500  0.597600  1.0  0.105
  H  H44  1  0.245000  0.751100  0.629300  1.0  0.101
  H  H45  1  0.369200  0.538800  0.456800  1.0  0.1173
  H  H46  1  0.287400  0.500000  0.380600  1.0  0.115
  H  H47  1  0.075900  0.569100  0.402400  1.0  0.1078
  H  H48  1  0.121800  0.615700  0.370700  1.0  0.0961
  H  H49  1  0.082000  0.912400  0.543200  1.0  0.1218
  H  H50  1  0.119400  0.906800  0.619400  1.0  0.1216
  H  H51  1  0.833300  0.430900  0.506800  1.0  0.0959
  H  H52  1  0.755000  0.384300  0.506100  1.0  0.0959
  H  H53  1  0.630800  0.087600  0.169600  1.0  0.1176
  H  H54  1  0.712600  0.093200  0.212600  1.0  0.1197
  H  H55  1  0.924100  0.493200  0.326500  1.0  0.1054
  H  H56  1  0.878200  0.493900  0.248900  1.0  0.0992
  H  H57  1  0.918000  0.830400  0.461200  1.0  0.121
  H  H58  1  0.880600  0.787400  0.500000  1.0  0.1165
  H  H59  1  0.166700  0.597600  0.673500  1.0  0.1076
  H  H60  1  0.245000  0.629300  0.751100  1.0  0.0984
  H  H61  1  0.369200  0.456800  0.538800  1.0  0.1162
  H  H62  1  0.287400  0.380600  0.500000  1.0  0.1105
  H  H63  1  0.075900  0.402400  0.569100  1.0  0.1099
  H  H64  1  0.121800  0.370700  0.615700  1.0  0.0961
  H  H65  1  0.082000  0.543200  0.912400  1.0  0.1218
  H  H66  1  0.119400  0.619400  0.906800  1.0  0.1183
  H  H67  1  0.833300  0.506800  0.430900  1.0  0.0978
  H  H68  1  0.755000  0.506100  0.384300  1.0  0.0982
  H  H69  1  0.630800  0.169600  0.087600  1.0  0.1121
  H  H70  1  0.712600  0.212600  0.093200  1.0  0.1224
  H  H71  1  0.597600  0.673500  0.166700  1.0  0.1094
  H  H72  1  0.629300  0.751100  0.245000  1.0  0.1002
  H  H73  1  0.456800  0.538800  0.369200  1.0  0.117
  H  H74  1  0.380600  0.500000  0.287400  1.0  0.1133
  H  H75  1  0.493200  0.326500  0.924100  1.0  0.1025
  H  H76  1  0.493900  0.248900  0.878200  1.0  0.1003
  H  H77  1  0.830400  0.461200  0.918000  1.0  0.1213
  H  H78  1  0.787400  0.500000  0.880600  1.0  0.115
  H  H79  1  0.506800  0.430900  0.833300  1.0  0.1025
  H  H80  1  0.506100  0.384300  0.755000  1.0  0.0958
  H  H81  1  0.169600  0.087600  0.630800  1.0  0.1203
  H  H82  1  0.212600  0.093200  0.712600  1.0  0.1205
  H  H83  1  0.402400  0.569100  0.075900  1.0  0.1016
  H  H84  1  0.370700  0.615700  0.121800  1.0  0.0965
  H  H85  1  0.543200  0.912400  0.082000  1.0  0.1182
  H  H86  1  0.619400  0.906800  0.119400  1.0  0.1209
  H  H87  1  0.430900  0.833300  0.506800  1.0  0.105
  H  H88  1  0.384300  0.755000  0.506100  1.0  0.0986
  H  H89  1  0.087600  0.630800  0.169600  1.0  0.1162
  H  H90  1  0.093200  0.712600  0.212600  1.0  0.1188
  H  H91  1  0.569100  0.075900  0.402400  1.0  0.1089
  H  H92  1  0.615700  0.121800  0.370700  1.0  0.0981
  H  H93  1  0.912400  0.082000  0.543200  1.0  0.1208
  H  H94  1  0.906800  0.119400  0.619400  1.0  0.1185
  H  H95  1  0.673500  0.166700  0.597600  1.0  0.108
  H  H96  1  0.751100  0.245000  0.629300  1.0  0.0986
  H  H97  1  0.538800  0.369200  0.456800  1.0  0.116
  H  H98  1  0.500000  0.287400  0.380600  1.0  0.1156
  H  H99  1  0.326500  0.924100  0.493200  1.0  0.1066
  H  H100  1  0.248900  0.878200  0.493900  1.0  0.0972
  H  H101  1  0.461200  0.918000  0.830400  1.0  0.1216
  H  H102  1  0.500000  0.880600  0.787400  1.0  0.1091
  H  H103  1  0.737600  0.238800  0.737600  1.0  0.0826
  H  H104  1  0.735200  0.313400  0.735200  1.0  0.1026
  H  H105  1  0.407900  0.318800  0.407900  1.0  0.0872
  H  H106  1  0.396200  0.235800  0.396200  1.0  0.0745
  H  H107  1  0.501200  0.000000  0.262400  1.0  0.0891
  H  H108  1  0.578200  0.000000  0.264800  1.0  0.1003
  H  H109  1  0.910900  0.000000  0.592100  1.0  0.0786
  H  H110  1  0.839600  0.000000  0.603800  1.0  0.0787
  H  H111  1  0.498800  0.761200  0.498800  1.0  0.0829
  H  H112  1  0.421800  0.686600  0.421800  1.0  0.1036
  H  H113  1  0.089100  0.681200  0.089100  1.0  0.089
  H  H114  1  0.160400  0.764200  0.160400  1.0  0.0779
  H  H115  1  0.262400  0.000000  0.501200  1.0  0.0856
  H  H116  1  0.264800  0.000000  0.578200  1.0  0.1027
  H  H117  1  0.592100  0.000000  0.910900  1.0  0.0847
  H  H118  1  0.603800  0.000000  0.839600  1.0  0.073
  H  H119  1  0.498800  0.498800  0.761200  1.0  0.0835
  H  H120  1  0.421800  0.421800  0.686600  1.0  0.0993
  H  H121  1  0.089100  0.089100  0.681200  1.0  0.0846
  H  H122  1  0.160400  0.160400  0.764200  1.0  0.0777
  H  H123  1  0.501200  0.262400  0.000000  1.0  0.0883
  H  H124  1  0.578200  0.264800  0.000000  1.0  0.0948
  H  H125  1  0.910900  0.592100  0.000000  1.0  0.0854
  H  H126  1  0.839600  0.603800  0.000000  1.0  0.077
  H  H127  1  0.737600  0.737600  0.238800  1.0  0.0856
  H  H128  1  0.735200  0.735200  0.313400  1.0  0.1019
  H  H129  1  0.407900  0.407900  0.318800  1.0  0.0858
  H  H130  1  0.396200  0.396200  0.235800  1.0  0.0773
  H  H131  1  0.262400  0.501200  0.000000  1.0  0.0846
  H  H132  1  0.264800  0.578200  0.000000  1.0  0.0945
  H  H133  1  0.592100  0.910900  0.000000  1.0  0.0844
  H  H134  1  0.603800  0.839600  0.000000  1.0  0.0757
  H  H135  1  0.000000  0.262400  0.501200  1.0  0.0864
  H  H136  1  0.000000  0.264800  0.578200  1.0  0.1014
  H  H137  1  0.000000  0.592100  0.910900  1.0  0.0851
  H  H138  1  0.000000  0.603800  0.839600  1.0  0.0776
  H  H139  1  0.238800  0.737600  0.737600  1.0  0.0861
  H  H140  1  0.313400  0.735200  0.735200  1.0  0.0959
  H  H141  1  0.318800  0.407900  0.407900  1.0  0.0855
  H  H142  1  0.235800  0.396200  0.396200  1.0  0.0771
  H  H143  1  0.000000  0.501200  0.262400  1.0  0.0836
  H  H144  1  0.000000  0.578200  0.264800  1.0  0.0984
  H  H145  1  0.000000  0.910900  0.592100  1.0  0.0848
  H  H146  1  0.000000  0.839600  0.603800  1.0  0.0778
  H  H147  1  0.761200  0.498800  0.498800  1.0  0.083
  H  H148  1  0.686600  0.421800  0.421800  1.0  0.0945
  H  H149  1  0.681200  0.089100  0.089100  1.0  0.0855
  H  H150  1  0.764200  0.160400  0.160400  1.0  0.0766
  C  C151  1  0.484000  0.290000  0.561200  1.0  0.2425
  C  C152  1  0.575600  0.247600  0.650600  1.0  0.2327
  C  C153  1  0.624300  0.224200  0.698900  1.0  -0.2781
  C  C154  1  0.434300  0.312200  0.509100  1.0  -0.2961
  C  C155  1  0.728800  0.922800  0.438800  1.0  0.2412
  C  C156  1  0.597000  0.925000  0.349400  1.0  0.2355
  C  C157  1  0.525300  0.925400  0.301100  1.0  -0.2542
  C  C158  1  0.803100  0.925200  0.490900  1.0  -0.2938
  C  C159  1  0.271200  0.710000  0.194000  1.0  0.2415
  C  C160  1  0.403000  0.752400  0.328000  1.0  0.2382
  C  C161  1  0.474700  0.775800  0.400100  1.0  -0.2697
  C  C162  1  0.196900  0.687800  0.122100  1.0  -0.2928
  C  C163  1  0.516000  0.077200  0.806000  1.0  0.2433
  C  C164  1  0.424400  0.075000  0.672000  1.0  0.2372
  C  C165  1  0.375700  0.074600  0.599900  1.0  -0.2765
  C  C166  1  0.565700  0.074800  0.877900  1.0  -0.2713
  C  C167  1  0.194000  0.271200  0.710000  1.0  0.2399
  C  C168  1  0.328000  0.403000  0.752400  1.0  0.2336
  C  C169  1  0.400100  0.474700  0.775800  1.0  -0.2751
  C  C170  1  0.122100  0.196900  0.687800  1.0  -0.2973
  C  C171  1  0.806000  0.516000  0.077200  1.0  0.2414
  C  C172  1  0.672000  0.424400  0.075000  1.0  0.2343
  C  C173  1  0.599900  0.375700  0.074600  1.0  -0.2798
  C  C174  1  0.877900  0.565700  0.074800  1.0  -0.2765
  C  C175  1  0.561200  0.484000  0.290000  1.0  0.2406
  C  C176  1  0.650600  0.575600  0.247600  1.0  0.2343
  C  C177  1  0.698900  0.624300  0.224200  1.0  -0.2769
  C  C178  1  0.509100  0.434300  0.312200  1.0  -0.2953
  C  C179  1  0.438800  0.728800  0.922800  1.0  0.2412
  C  C180  1  0.349400  0.597000  0.925000  1.0  0.2391
  C  C181  1  0.301100  0.525300  0.925400  1.0  -0.2545
  C  C182  1  0.490900  0.803100  0.925200  1.0  -0.2957
  C  C183  1  0.922800  0.438800  0.728800  1.0  0.2425
  C  C184  1  0.925000  0.349400  0.597000  1.0  0.2354
  C  C185  1  0.925400  0.301100  0.525300  1.0  -0.2576
  C  C186  1  0.925200  0.490900  0.803100  1.0  -0.2926
  C  C187  1  0.290000  0.561200  0.484000  1.0  0.2417
  C  C188  1  0.247600  0.650600  0.575600  1.0  0.2387
  C  C189  1  0.224200  0.698900  0.624300  1.0  -0.27
  C  C190  1  0.312200  0.509100  0.434300  1.0  -0.2929
  C  C191  1  0.077200  0.806000  0.516000  1.0  0.2392
  C  C192  1  0.075000  0.672000  0.424400  1.0  0.2333
  C  C193  1  0.074600  0.599900  0.375700  1.0  -0.2702
  C  C194  1  0.074800  0.877900  0.565700  1.0  -0.2704
  C  C195  1  0.710000  0.194000  0.271200  1.0  0.2417
  C  C196  1  0.752400  0.328000  0.403000  1.0  0.2329
  C  C197  1  0.775800  0.400100  0.474700  1.0  -0.2789
  C  C198  1  0.687800  0.122100  0.196900  1.0  -0.2992
  C  C199  1  0.922800  0.728800  0.438800  1.0  0.2396
  C  C200  1  0.925000  0.597000  0.349400  1.0  0.234
  C  C201  1  0.925400  0.525300  0.301100  1.0  -0.2556
  C  C202  1  0.925200  0.803100  0.490900  1.0  -0.2966
  C  C203  1  0.290000  0.484000  0.561200  1.0  0.2414
  C  C204  1  0.247600  0.575600  0.650600  1.0  0.2338
  C  C205  1  0.224200  0.624300  0.698900  1.0  -0.2801
  C  C206  1  0.312200  0.434300  0.509100  1.0  -0.3014
  C  C207  1  0.077200  0.516000  0.806000  1.0  0.241
  C  C208  1  0.075000  0.424400  0.672000  1.0  0.2348
  C  C209  1  0.074600  0.375700  0.599900  1.0  -0.2761
  C  C210  1  0.074800  0.565700  0.877900  1.0  -0.2717
  C  C211  1  0.710000  0.271200  0.194000  1.0  0.2412
  C  C212  1  0.752400  0.403000  0.328000  1.0  0.2384
  C  C213  1  0.775800  0.474700  0.400100  1.0  -0.2745
  C  C214  1  0.687800  0.196900  0.122100  1.0  -0.296
  C  C215  1  0.484000  0.561200  0.290000  1.0  0.243
  C  C216  1  0.575600  0.650600  0.247600  1.0  0.2356
  C  C217  1  0.624300  0.698900  0.224200  1.0  -0.2778
  C  C218  1  0.434300  0.509100  0.312200  1.0  -0.2924
  C  C219  1  0.728800  0.438800  0.922800  1.0  0.2415
  C  C220  1  0.597000  0.349400  0.925000  1.0  0.2392
  C  C221  1  0.525300  0.301100  0.925400  1.0  -0.2502
  C  C222  1  0.803100  0.490900  0.925200  1.0  -0.2932
  C  C223  1  0.271200  0.194000  0.710000  1.0  0.2387
  C  C224  1  0.403000  0.328000  0.752400  1.0  0.2328
  C  C225  1  0.474700  0.400100  0.775800  1.0  -0.2699
  C  C226  1  0.196900  0.122100  0.687800  1.0  -0.2958
  C  C227  1  0.516000  0.806000  0.077200  1.0  0.2418
  C  C228  1  0.424400  0.672000  0.075000  1.0  0.2333
  C  C229  1  0.375700  0.599900  0.074600  1.0  -0.2787
  C  C230  1  0.565700  0.877900  0.074800  1.0  -0.2741
  C  C231  1  0.194000  0.710000  0.271200  1.0  0.242
  C  C232  1  0.328000  0.752400  0.403000  1.0  0.2326
  C  C233  1  0.400100  0.775800  0.474700  1.0  -0.2771
  C  C234  1  0.122100  0.687800  0.196900  1.0  -0.2971
  C  C235  1  0.806000  0.077200  0.516000  1.0  0.2415
  C  C236  1  0.672000  0.075000  0.424400  1.0  0.2356
  C  C237  1  0.599900  0.074600  0.375700  1.0  -0.2728
  C  C238  1  0.877900  0.074800  0.565700  1.0  -0.2696
  C  C239  1  0.561200  0.290000  0.484000  1.0  0.2415
  C  C240  1  0.650600  0.247600  0.575600  1.0  0.2385
  C  C241  1  0.698900  0.224200  0.624300  1.0  -0.2706
  C  C242  1  0.509100  0.312200  0.434300  1.0  -0.2928
  C  C243  1  0.438800  0.922800  0.728800  1.0  0.2429
  C  C244  1  0.349400  0.925000  0.597000  1.0  0.2372
  C  C245  1  0.301100  0.925400  0.525300  1.0  -0.2589
  C  C246  1  0.490900  0.925200  0.803100  1.0  -0.2958
  C  C247  1  0.543500  0.277600  0.543500  1.0  -0.0349
  C  C248  1  0.588100  0.255800  0.588100  1.0  -0.0551
  C  C249  1  0.707200  0.255800  0.707200  1.0  -0.0989
  C  C250  1  0.431300  0.292800  0.431300  1.0  -0.0646
  C  C251  1  0.734100  0.000000  0.456500  1.0  -0.0493
  C  C252  1  0.667700  0.000000  0.411900  1.0  -0.0528
  C  C253  1  0.548600  0.000000  0.292800  1.0  -0.0973
  C  C254  1  0.861500  0.000000  0.568700  1.0  -0.0635
  C  C255  1  0.265900  0.722400  0.265900  1.0  -0.0349
  C  C256  1  0.332300  0.744200  0.332300  1.0  -0.0552
  C  C257  1  0.451400  0.744200  0.451400  1.0  -0.0999
  C  C258  1  0.138500  0.707200  0.138500  1.0  -0.0645
  C  C259  1  0.456500  0.000000  0.734100  1.0  -0.049
  C  C260  1  0.411900  0.000000  0.667700  1.0  -0.0521
  C  C261  1  0.292800  0.000000  0.548600  1.0  -0.0944
  C  C262  1  0.568700  0.000000  0.861500  1.0  -0.0627
  C  C263  1  0.265900  0.265900  0.722400  1.0  -0.0357
  C  C264  1  0.332300  0.332300  0.744200  1.0  -0.0581
  C  C265  1  0.451400  0.451400  0.744200  1.0  -0.1022
  C  C266  1  0.138500  0.138500  0.707200  1.0  -0.0663
  C  C267  1  0.734100  0.456500  0.000000  1.0  -0.0498
  C  C268  1  0.667700  0.411900  0.000000  1.0  -0.0534
  C  C269  1  0.548600  0.292800  0.000000  1.0  -0.0976
  C  C270  1  0.861500  0.568700  0.000000  1.0  -0.0635
  C  C271  1  0.543500  0.543500  0.277600  1.0  -0.0358
  C  C272  1  0.588100  0.588100  0.255800  1.0  -0.0584
  C  C273  1  0.707200  0.707200  0.255800  1.0  -0.0975
  C  C274  1  0.431300  0.431300  0.292800  1.0  -0.0641
  C  C275  1  0.456500  0.734100  0.000000  1.0  -0.0496
  C  C276  1  0.411900  0.667700  0.000000  1.0  -0.0513
  C  C277  1  0.292800  0.548600  0.000000  1.0  -0.0932
  C  C278  1  0.568700  0.861500  0.000000  1.0  -0.0634
  C  C279  1  0.000000  0.456500  0.734100  1.0  -0.0499
  C  C280  1  0.000000  0.411900  0.667700  1.0  -0.0534
  C  C281  1  0.000000  0.292800  0.548600  1.0  -0.0981
  C  C282  1  0.000000  0.568700  0.861500  1.0  -0.0613
  C  C283  1  0.277600  0.543500  0.543500  1.0  -0.0356
  C  C284  1  0.255800  0.588100  0.588100  1.0  -0.0583
  C  C285  1  0.255800  0.707200  0.707200  1.0  -0.1004
  C  C286  1  0.292800  0.431300  0.431300  1.0  -0.0663
  C  C287  1  0.000000  0.734100  0.456500  1.0  -0.0501
  C  C288  1  0.000000  0.667700  0.411900  1.0  -0.0531
  C  C289  1  0.000000  0.548600  0.292800  1.0  -0.0991
  C  C290  1  0.000000  0.861500  0.568700  1.0  -0.0633
  C  C291  1  0.722400  0.265900  0.265900  1.0  -0.0353
  C  C292  1  0.744200  0.332300  0.332300  1.0  -0.0566
  C  C293  1  0.744200  0.451400  0.451400  1.0  -0.0982
  C  C294  1  0.707200  0.138500  0.138500  1.0  -0.0645
  N  N295  1  0.520000  0.258800  0.662600  1.0  -0.2494
  N  N296  1  0.471500  0.278400  0.614700  1.0  -0.2298
  N  N297  1  0.596200  0.857400  0.337400  1.0  -0.2508
  N  N298  1  0.663700  0.856800  0.385300  1.0  -0.2313
  N  N299  1  0.403800  0.741200  0.261200  1.0  -0.2504
  N  N300  1  0.336300  0.721600  0.193100  1.0  -0.2312
  N  N301  1  0.480000  0.142600  0.738800  1.0  -0.2513
  N  N302  1  0.528500  0.143200  0.806900  1.0  -0.2314
  N  N303  1  0.261200  0.403800  0.741200  1.0  -0.249
  N  N304  1  0.193100  0.336300  0.721600  1.0  -0.2293
  N  N305  1  0.738800  0.480000  0.142600  1.0  -0.2506
  N  N306  1  0.806900  0.528500  0.143200  1.0  -0.2302
  N  N307  1  0.662600  0.520000  0.258800  1.0  -0.2501
  N  N308  1  0.614700  0.471500  0.278400  1.0  -0.2301
  N  N309  1  0.337400  0.596200  0.857400  1.0  -0.2497
  N  N310  1  0.385300  0.663700  0.856800  1.0  -0.2309
  N  N311  1  0.857400  0.337400  0.596200  1.0  -0.2494
  N  N312  1  0.856800  0.385300  0.663700  1.0  -0.2289
  N  N313  1  0.258800  0.662600  0.520000  1.0  -0.2508
  N  N314  1  0.278400  0.614700  0.471500  1.0  -0.2303
  N  N315  1  0.142600  0.738800  0.480000  1.0  -0.252
  N  N316  1  0.143200  0.806900  0.528500  1.0  -0.2297
  N  N317  1  0.741200  0.261200  0.403800  1.0  -0.249
  N  N318  1  0.721600  0.193100  0.336300  1.0  -0.2313
  N  N319  1  0.857400  0.596200  0.337400  1.0  -0.2489
  N  N320  1  0.856800  0.663700  0.385300  1.0  -0.2297
  N  N321  1  0.258800  0.520000  0.662600  1.0  -0.25
  N  N322  1  0.278400  0.471500  0.614700  1.0  -0.2307
  N  N323  1  0.142600  0.480000  0.738800  1.0  -0.2508
  N  N324  1  0.143200  0.528500  0.806900  1.0  -0.2301
  N  N325  1  0.741200  0.403800  0.261200  1.0  -0.2496
  N  N326  1  0.721600  0.336300  0.193100  1.0  -0.2311
  N  N327  1  0.520000  0.662600  0.258800  1.0  -0.2492
  N  N328  1  0.471500  0.614700  0.278400  1.0  -0.2289
  N  N329  1  0.596200  0.337400  0.857400  1.0  -0.2509
  N  N330  1  0.663700  0.385300  0.856800  1.0  -0.2298
  N  N331  1  0.403800  0.261200  0.741200  1.0  -0.2511
  N  N332  1  0.336300  0.193100  0.721600  1.0  -0.2294
  N  N333  1  0.480000  0.738800  0.142600  1.0  -0.2496
  N  N334  1  0.528500  0.806900  0.143200  1.0  -0.2306
  N  N335  1  0.261200  0.741200  0.403800  1.0  -0.2496
  N  N336  1  0.193100  0.721600  0.336300  1.0  -0.2296
  N  N337  1  0.738800  0.142600  0.480000  1.0  -0.2515
  N  N338  1  0.806900  0.143200  0.528500  1.0  -0.2319
  N  N339  1  0.662600  0.258800  0.520000  1.0  -0.2503
  N  N340  1  0.614700  0.278400  0.471500  1.0  -0.2314
  N  N341  1  0.337400  0.857400  0.596200  1.0  -0.2507
  N  N342  1  0.385300  0.856800  0.663700  1.0  -0.2311
  N  N343  1  0.547000  0.547000  0.547000  1.0  0.7736
  N  N344  1  0.000000  0.000000  0.453000  1.0  0.8056
  N  N345  1  0.000000  0.453000  0.000000  1.0  0.8033
  N  N346  1  0.453000  0.000000  0.000000  1.0  0.8028
  O  O347  1  0.528100  0.528100  0.591200  1.0  -0.4376
  O  O348  1  0.591200  0.528100  0.528100  1.0  -0.4335
  O  O349  1  0.528100  0.591200  0.528100  1.0  -0.4322
  O  O350  1  0.936900  0.936900  0.408800  1.0  -0.4454
  O  O351  1  0.000000  0.063100  0.471900  1.0  -0.4265
  O  O352  1  0.063100  0.000000  0.471900  1.0  -0.4259
  O  O353  1  0.063100  0.471900  0.000000  1.0  -0.4277
  O  O354  1  0.000000  0.471900  0.063100  1.0  -0.4292
  O  O355  1  0.936900  0.408800  0.936900  1.0  -0.4405
  O  O356  1  0.471900  0.063100  0.000000  1.0  -0.4293
  O  O357  1  0.408800  0.936900  0.936900  1.0  -0.4468
  O  O358  1  0.471900  0.000000  0.063100  1.0  -0.4279
