# generated using pymatgen
data_CuH24(C3N)8
_symmetry_space_group_name_H-M   'P 1'
_cell_length_a   23.70350000
_cell_length_b   23.70350000
_cell_length_c   23.70350000
_cell_angle_alpha   90.00000000
_cell_angle_beta   90.00000000
_cell_angle_gamma   90.00000000
_symmetry_Int_Tables_number   1
_chemical_formula_structural   CuH24(C3N)8
_chemical_formula_sum   'Cu12 H288 C288 N96'
_cell_volume   13317.95161602
_cell_formula_units_Z   12
loop_
 _symmetry_equiv_pos_site_id
 _symmetry_equiv_pos_as_xyz
  1  'x, y, z'
loop_
 _atom_site_type_symbol
 _atom_site_label
 _atom_site_symmetry_multiplicity
 _atom_site_fract_x
 _atom_site_fract_y
 _atom_site_fract_z
 _atom_site_occupancy
 _atom_site_charge
  Cu  Cu1  1  0.750000  0.500000  0.000000  1.0  0.515
  Cu  Cu2  1  0.250000  0.000000  0.500000  1.0  0.515
  Cu  Cu3  1  0.250000  0.500000  0.000000  1.0  0.515
  Cu  Cu4  1  0.000000  0.750000  0.500000  1.0  0.515
  Cu  Cu5  1  0.500000  0.250000  0.000000  1.0  0.515
  Cu  Cu6  1  0.000000  0.250000  0.500000  1.0  0.515
  Cu  Cu7  1  0.500000  0.000000  0.750000  1.0  0.515
  Cu  Cu8  1  0.000000  0.500000  0.250000  1.0  0.515
  Cu  Cu9  1  0.500000  0.000000  0.250000  1.0  0.515
  Cu  Cu10  1  0.500000  0.750000  0.000000  1.0  0.515
  Cu  Cu11  1  0.750000  0.000000  0.500000  1.0  0.515
  Cu  Cu12  1  0.000000  0.500000  0.750000  1.0  0.515
  H  H13  1  0.816100  0.568900  0.062300  1.0  0.1017
  H  H14  1  0.877400  0.554000  0.044500  1.0  0.1146
  H  H15  1  0.794900  0.299900  0.086800  1.0  0.1158
  H  H16  1  0.771000  0.318100  0.144900  1.0  0.1179
  H  H17  1  0.316100  0.068900  0.562300  1.0  0.1017
  H  H18  1  0.377400  0.054000  0.544500  1.0  0.1146
  H  H19  1  0.294900  0.799900  0.586800  1.0  0.1158
  H  H20  1  0.271000  0.818100  0.644900  1.0  0.1179
  H  H21  1  0.183900  0.431100  0.062300  1.0  0.1035
  H  H22  1  0.122600  0.446000  0.044500  1.0  0.1159
  H  H23  1  0.205100  0.700100  0.086800  1.0  0.116
  H  H24  1  0.229000  0.681900  0.144900  1.0  0.113
  H  H25  1  0.683900  0.931100  0.562300  1.0  0.1035
  H  H26  1  0.622600  0.946000  0.544500  1.0  0.1159
  H  H27  1  0.705100  0.200100  0.586800  1.0  0.116
  H  H28  1  0.729000  0.181900  0.644900  1.0  0.113
  H  H29  1  0.183900  0.568900  0.937700  1.0  0.1034
  H  H30  1  0.122600  0.554000  0.955500  1.0  0.1151
  H  H31  1  0.205100  0.299900  0.913200  1.0  0.1171
  H  H32  1  0.229000  0.318100  0.855100  1.0  0.1129
  H  H33  1  0.683900  0.068900  0.437700  1.0  0.1034
  H  H34  1  0.622600  0.054000  0.455500  1.0  0.1151
  H  H35  1  0.705100  0.799900  0.413200  1.0  0.1171
  H  H36  1  0.729000  0.818100  0.355100  1.0  0.1129
  H  H37  1  0.816100  0.431100  0.937700  1.0  0.1016
  H  H38  1  0.877400  0.446000  0.955500  1.0  0.1148
  H  H39  1  0.794900  0.700100  0.913200  1.0  0.1164
  H  H40  1  0.771000  0.681900  0.855100  1.0  0.1188
  H  H41  1  0.316100  0.931100  0.437700  1.0  0.1016
  H  H42  1  0.377400  0.946000  0.455500  1.0  0.1148
  H  H43  1  0.294900  0.200100  0.413200  1.0  0.1164
  H  H44  1  0.271000  0.181900  0.355100  1.0  0.1188
  H  H45  1  0.062300  0.816100  0.568900  1.0  0.1001
  H  H46  1  0.044500  0.877400  0.554000  1.0  0.1104
  H  H47  1  0.086800  0.794900  0.299900  1.0  0.1113
  H  H48  1  0.144900  0.771000  0.318100  1.0  0.1197
  H  H49  1  0.562300  0.316100  0.068900  1.0  0.1001
  H  H50  1  0.544500  0.377400  0.054000  1.0  0.1104
  H  H51  1  0.586800  0.294900  0.799900  1.0  0.1113
  H  H52  1  0.644900  0.271000  0.818100  1.0  0.1197
  H  H53  1  0.062300  0.183900  0.431100  1.0  0.1002
  H  H54  1  0.044500  0.122600  0.446000  1.0  0.1091
  H  H55  1  0.086800  0.205100  0.700100  1.0  0.1119
  H  H56  1  0.144900  0.229000  0.681900  1.0  0.1197
  H  H57  1  0.562300  0.683900  0.931100  1.0  0.1002
  H  H58  1  0.544500  0.622600  0.946000  1.0  0.1091
  H  H59  1  0.586800  0.705100  0.200100  1.0  0.1119
  H  H60  1  0.644900  0.729000  0.181900  1.0  0.1197
  H  H61  1  0.937700  0.183900  0.568900  1.0  0.0996
  H  H62  1  0.955500  0.122600  0.554000  1.0  0.1091
  H  H63  1  0.913200  0.205100  0.299900  1.0  0.1131
  H  H64  1  0.855100  0.229000  0.318100  1.0  0.1206
  H  H65  1  0.437700  0.683900  0.068900  1.0  0.0996
  H  H66  1  0.455500  0.622600  0.054000  1.0  0.1091
  H  H67  1  0.413200  0.705100  0.799900  1.0  0.1131
  H  H68  1  0.355100  0.729000  0.818100  1.0  0.1206
  H  H69  1  0.937700  0.816100  0.431100  1.0  0.1002
  H  H70  1  0.955500  0.877400  0.446000  1.0  0.1112
  H  H71  1  0.913200  0.794900  0.700100  1.0  0.1123
  H  H72  1  0.855100  0.771000  0.681900  1.0  0.1216
  H  H73  1  0.437700  0.316100  0.931100  1.0  0.1002
  H  H74  1  0.455500  0.377400  0.946000  1.0  0.1112
  H  H75  1  0.413200  0.294900  0.200100  1.0  0.1123
  H  H76  1  0.355100  0.271000  0.181900  1.0  0.1216
  H  H77  1  0.568900  0.062300  0.816100  1.0  0.1034
  H  H78  1  0.554000  0.044500  0.877400  1.0  0.1164
  H  H79  1  0.299900  0.086800  0.794900  1.0  0.1102
  H  H80  1  0.318100  0.144900  0.771000  1.0  0.121
  H  H81  1  0.068900  0.562300  0.316100  1.0  0.1034
  H  H82  1  0.054000  0.544500  0.377400  1.0  0.1164
  H  H83  1  0.799900  0.586800  0.294900  1.0  0.1102
  H  H84  1  0.818100  0.644900  0.271000  1.0  0.121
  H  H85  1  0.431100  0.062300  0.183900  1.0  0.1023
  H  H86  1  0.446000  0.044500  0.122600  1.0  0.115
  H  H87  1  0.700100  0.086800  0.205100  1.0  0.111
  H  H88  1  0.681900  0.144900  0.229000  1.0  0.1203
  H  H89  1  0.931100  0.562300  0.683900  1.0  0.1023
  H  H90  1  0.946000  0.544500  0.622600  1.0  0.115
  H  H91  1  0.200100  0.586800  0.705100  1.0  0.111
  H  H92  1  0.181900  0.644900  0.729000  1.0  0.1203
  H  H93  1  0.568900  0.937700  0.183900  1.0  0.1029
  H  H94  1  0.554000  0.955500  0.122600  1.0  0.1156
  H  H95  1  0.299900  0.913200  0.205100  1.0  0.113
  H  H96  1  0.318100  0.855100  0.229000  1.0  0.1214
  H  H97  1  0.068900  0.437700  0.683900  1.0  0.1029
  H  H98  1  0.054000  0.455500  0.622600  1.0  0.1156
  H  H99  1  0.799900  0.413200  0.705100  1.0  0.113
  H  H100  1  0.818100  0.355100  0.729000  1.0  0.1214
  H  H101  1  0.431100  0.937700  0.816100  1.0  0.1028
  H  H102  1  0.446000  0.955500  0.877400  1.0  0.116
  H  H103  1  0.700100  0.913200  0.794900  1.0  0.1124
  H  H104  1  0.681900  0.855100  0.771000  1.0  0.1218
  H  H105  1  0.931100  0.437700  0.316100  1.0  0.1028
  H  H106  1  0.946000  0.455500  0.377400  1.0  0.116
  H  H107  1  0.200100  0.413200  0.294900  1.0  0.1124
  H  H108  1  0.181900  0.355100  0.271000  1.0  0.1218
  H  H109  1  0.568900  0.816100  0.062300  1.0  0.1024
  H  H110  1  0.554000  0.877400  0.044500  1.0  0.1162
  H  H111  1  0.299900  0.794900  0.086800  1.0  0.1163
  H  H112  1  0.318100  0.771000  0.144900  1.0  0.1206
  H  H113  1  0.068900  0.316100  0.562300  1.0  0.1024
  H  H114  1  0.054000  0.377400  0.544500  1.0  0.1162
  H  H115  1  0.799900  0.294900  0.586800  1.0  0.1163
  H  H116  1  0.818100  0.271000  0.644900  1.0  0.1206
  H  H117  1  0.431100  0.183900  0.062300  1.0  0.1022
  H  H118  1  0.446000  0.122600  0.044500  1.0  0.1164
  H  H119  1  0.700100  0.205100  0.086800  1.0  0.1162
  H  H120  1  0.681900  0.229000  0.144900  1.0  0.1195
  H  H121  1  0.931100  0.683900  0.562300  1.0  0.1022
  H  H122  1  0.946000  0.622600  0.544500  1.0  0.1164
  H  H123  1  0.200100  0.705100  0.586800  1.0  0.1162
  H  H124  1  0.181900  0.729000  0.644900  1.0  0.1195
  H  H125  1  0.568900  0.183900  0.937700  1.0  0.1019
  H  H126  1  0.554000  0.122600  0.955500  1.0  0.1164
  H  H127  1  0.299900  0.205100  0.913200  1.0  0.1168
  H  H128  1  0.318100  0.229000  0.855100  1.0  0.1204
  H  H129  1  0.068900  0.683900  0.437700  1.0  0.1019
  H  H130  1  0.054000  0.622600  0.455500  1.0  0.1164
  H  H131  1  0.799900  0.705100  0.413200  1.0  0.1168
  H  H132  1  0.818100  0.729000  0.355100  1.0  0.1204
  H  H133  1  0.431100  0.816100  0.937700  1.0  0.102
  H  H134  1  0.446000  0.877400  0.955500  1.0  0.116
  H  H135  1  0.700100  0.794900  0.913200  1.0  0.1161
  H  H136  1  0.681900  0.771000  0.855100  1.0  0.1204
  H  H137  1  0.931100  0.316100  0.437700  1.0  0.102
  H  H138  1  0.946000  0.377400  0.455500  1.0  0.116
  H  H139  1  0.200100  0.294900  0.413200  1.0  0.1161
  H  H140  1  0.181900  0.271000  0.355100  1.0  0.1204
  H  H141  1  0.816100  0.062300  0.568900  1.0  0.0994
  H  H142  1  0.877400  0.044500  0.554000  1.0  0.114
  H  H143  1  0.794900  0.086800  0.299900  1.0  0.1096
  H  H144  1  0.771000  0.144900  0.318100  1.0  0.1178
  H  H145  1  0.316100  0.562300  0.068900  1.0  0.0994
  H  H146  1  0.377400  0.544500  0.054000  1.0  0.114
  H  H147  1  0.294900  0.586800  0.799900  1.0  0.1096
  H  H148  1  0.271000  0.644900  0.818100  1.0  0.1178
  H  H149  1  0.183900  0.062300  0.431100  1.0  0.102
  H  H150  1  0.122600  0.044500  0.446000  1.0  0.1145
  H  H151  1  0.205100  0.086800  0.700100  1.0  0.1109
  H  H152  1  0.229000  0.144900  0.681900  1.0  0.1128
  H  H153  1  0.683900  0.562300  0.931100  1.0  0.102
  H  H154  1  0.622600  0.544500  0.946000  1.0  0.1145
  H  H155  1  0.705100  0.586800  0.200100  1.0  0.1109
  H  H156  1  0.729000  0.644900  0.181900  1.0  0.1128
  H  H157  1  0.183900  0.937700  0.568900  1.0  0.1014
  H  H158  1  0.122600  0.955500  0.554000  1.0  0.1148
  H  H159  1  0.205100  0.913200  0.299900  1.0  0.1132
  H  H160  1  0.229000  0.855100  0.318100  1.0  0.1126
  H  H161  1  0.683900  0.437700  0.068900  1.0  0.1014
  H  H162  1  0.622600  0.455500  0.054000  1.0  0.1148
  H  H163  1  0.705100  0.413200  0.799900  1.0  0.1132
  H  H164  1  0.729000  0.355100  0.818100  1.0  0.1126
  H  H165  1  0.816100  0.937700  0.431100  1.0  0.1001
  H  H166  1  0.877400  0.955500  0.446000  1.0  0.1143
  H  H167  1  0.794900  0.913200  0.700100  1.0  0.1125
  H  H168  1  0.771000  0.855100  0.681900  1.0  0.1188
  H  H169  1  0.316100  0.437700  0.931100  1.0  0.1001
  H  H170  1  0.377400  0.455500  0.946000  1.0  0.1143
  H  H171  1  0.294900  0.413200  0.200100  1.0  0.1125
  H  H172  1  0.271000  0.355100  0.181900  1.0  0.1188
  H  H173  1  0.062300  0.568900  0.816100  1.0  0.1029
  H  H174  1  0.044500  0.554000  0.877400  1.0  0.1117
  H  H175  1  0.086800  0.299900  0.794900  1.0  0.1125
  H  H176  1  0.144900  0.318100  0.771000  1.0  0.1216
  H  H177  1  0.562300  0.068900  0.316100  1.0  0.1029
  H  H178  1  0.544500  0.054000  0.377400  1.0  0.1117
  H  H179  1  0.586800  0.799900  0.294900  1.0  0.1125
  H  H180  1  0.644900  0.818100  0.271000  1.0  0.1216
  H  H181  1  0.062300  0.431100  0.183900  1.0  0.1023
  H  H182  1  0.044500  0.446000  0.122600  1.0  0.1102
  H  H183  1  0.086800  0.700100  0.205100  1.0  0.113
  H  H184  1  0.144900  0.681900  0.229000  1.0  0.1211
  H  H185  1  0.562300  0.931100  0.683900  1.0  0.1023
  H  H186  1  0.544500  0.946000  0.622600  1.0  0.1102
  H  H187  1  0.586800  0.200100  0.705100  1.0  0.113
  H  H188  1  0.644900  0.181900  0.729000  1.0  0.1211
  H  H189  1  0.937700  0.568900  0.183900  1.0  0.102
  H  H190  1  0.955500  0.554000  0.122600  1.0  0.1105
  H  H191  1  0.913200  0.299900  0.205100  1.0  0.1127
  H  H192  1  0.855100  0.318100  0.229000  1.0  0.1217
  H  H193  1  0.437700  0.068900  0.683900  1.0  0.102
  H  H194  1  0.455500  0.054000  0.622600  1.0  0.1105
  H  H195  1  0.413200  0.799900  0.705100  1.0  0.1127
  H  H196  1  0.355100  0.818100  0.729000  1.0  0.1217
  H  H197  1  0.937700  0.431100  0.816100  1.0  0.1026
  H  H198  1  0.955500  0.446000  0.877400  1.0  0.111
  H  H199  1  0.913200  0.700100  0.794900  1.0  0.1141
  H  H200  1  0.855100  0.681900  0.771000  1.0  0.122
  H  H201  1  0.437700  0.931100  0.316100  1.0  0.1026
  H  H202  1  0.455500  0.946000  0.377400  1.0  0.111
  H  H203  1  0.413200  0.200100  0.294900  1.0  0.1141
  H  H204  1  0.355100  0.181900  0.271000  1.0  0.122
  H  H205  1  0.845000  0.580800  0.155000  1.0  0.1053
  H  H206  1  0.882350  0.619500  0.117650  1.0  0.092
  H  H207  1  0.878150  0.278600  0.121850  1.0  0.0887
  H  H208  1  0.835600  0.253500  0.164400  1.0  0.0826
  H  H209  1  0.345000  0.080800  0.655000  1.0  0.1053
  H  H210  1  0.382350  0.119500  0.617650  1.0  0.092
  H  H211  1  0.378150  0.778600  0.621850  1.0  0.0887
  H  H212  1  0.335600  0.753500  0.664400  1.0  0.0826
  H  H213  1  0.155000  0.419200  0.155000  1.0  0.1064
  H  H214  1  0.117650  0.380500  0.117650  1.0  0.0889
  H  H215  1  0.121850  0.721400  0.121850  1.0  0.0895
  H  H216  1  0.164400  0.746500  0.164400  1.0  0.0828
  H  H217  1  0.655000  0.919200  0.655000  1.0  0.1064
  H  H218  1  0.617650  0.880500  0.617650  1.0  0.0889
  H  H219  1  0.621850  0.221400  0.621850  1.0  0.0895
  H  H220  1  0.664400  0.246500  0.664400  1.0  0.0828
  H  H221  1  0.155000  0.580800  0.845000  1.0  0.1047
  H  H222  1  0.117650  0.619500  0.882350  1.0  0.0924
  H  H223  1  0.121850  0.278600  0.878150  1.0  0.0902
  H  H224  1  0.164400  0.253500  0.835600  1.0  0.0818
  H  H225  1  0.655000  0.080800  0.345000  1.0  0.1047
  H  H226  1  0.617650  0.119500  0.382350  1.0  0.0924
  H  H227  1  0.621850  0.778600  0.378150  1.0  0.0902
  H  H228  1  0.664400  0.753500  0.335600  1.0  0.0818
  H  H229  1  0.845000  0.419200  0.845000  1.0  0.1026
  H  H230  1  0.882350  0.380500  0.882350  1.0  0.09
  H  H231  1  0.878150  0.721400  0.878150  1.0  0.0901
  H  H232  1  0.835600  0.746500  0.835600  1.0  0.0837
  H  H233  1  0.345000  0.919200  0.345000  1.0  0.1026
  H  H234  1  0.382350  0.880500  0.382350  1.0  0.09
  H  H235  1  0.378150  0.221400  0.378150  1.0  0.0901
  H  H236  1  0.335600  0.246500  0.335600  1.0  0.0837
  H  H237  1  0.155000  0.845000  0.580800  1.0  0.1072
  H  H238  1  0.117650  0.882350  0.619500  1.0  0.0931
  H  H239  1  0.121850  0.878150  0.278600  1.0  0.0883
  H  H240  1  0.164400  0.835600  0.253500  1.0  0.0857
  H  H241  1  0.655000  0.345000  0.080800  1.0  0.1072
  H  H242  1  0.617650  0.382350  0.119500  1.0  0.0931
  H  H243  1  0.621850  0.378150  0.778600  1.0  0.0883
  H  H244  1  0.664400  0.335600  0.753500  1.0  0.0857
  H  H245  1  0.155000  0.155000  0.419200  1.0  0.1073
  H  H246  1  0.117650  0.117650  0.380500  1.0  0.0908
  H  H247  1  0.121850  0.121850  0.721400  1.0  0.0901
  H  H248  1  0.164400  0.164400  0.746500  1.0  0.0864
  H  H249  1  0.655000  0.655000  0.919200  1.0  0.1073
  H  H250  1  0.617650  0.617650  0.880500  1.0  0.0908
  H  H251  1  0.621850  0.621850  0.221400  1.0  0.0901
  H  H252  1  0.664400  0.664400  0.246500  1.0  0.0864
  H  H253  1  0.845000  0.155000  0.580800  1.0  0.1063
  H  H254  1  0.882350  0.117650  0.619500  1.0  0.0916
  H  H255  1  0.878150  0.121850  0.278600  1.0  0.0892
  H  H256  1  0.835600  0.164400  0.253500  1.0  0.0852
  H  H257  1  0.345000  0.655000  0.080800  1.0  0.1063
  H  H258  1  0.382350  0.617650  0.119500  1.0  0.0916
  H  H259  1  0.378150  0.621850  0.778600  1.0  0.0892
  H  H260  1  0.335600  0.664400  0.753500  1.0  0.0852
  H  H261  1  0.845000  0.845000  0.419200  1.0  0.1067
  H  H262  1  0.882350  0.882350  0.380500  1.0  0.0913
  H  H263  1  0.878150  0.878150  0.721400  1.0  0.0891
  H  H264  1  0.835600  0.835600  0.746500  1.0  0.0862
  H  H265  1  0.345000  0.345000  0.919200  1.0  0.1067
  H  H266  1  0.382350  0.382350  0.880500  1.0  0.0913
  H  H267  1  0.378150  0.378150  0.221400  1.0  0.0891
  H  H268  1  0.335600  0.335600  0.246500  1.0  0.0862
  H  H269  1  0.580800  0.155000  0.845000  1.0  0.1036
  H  H270  1  0.619500  0.117650  0.882350  1.0  0.0883
  H  H271  1  0.278600  0.121850  0.878150  1.0  0.0915
  H  H272  1  0.253500  0.164400  0.835600  1.0  0.0879
  H  H273  1  0.080800  0.655000  0.345000  1.0  0.1036
  H  H274  1  0.119500  0.617650  0.382350  1.0  0.0883
  H  H275  1  0.778600  0.621850  0.378150  1.0  0.0915
  H  H276  1  0.753500  0.664400  0.335600  1.0  0.0879
  H  H277  1  0.419200  0.155000  0.155000  1.0  0.1052
  H  H278  1  0.380500  0.117650  0.117650  1.0  0.0912
  H  H279  1  0.721400  0.121850  0.121850  1.0  0.09
  H  H280  1  0.746500  0.164400  0.164400  1.0  0.0874
  H  H281  1  0.919200  0.655000  0.655000  1.0  0.1052
  H  H282  1  0.880500  0.617650  0.617650  1.0  0.0912
  H  H283  1  0.221400  0.621850  0.621850  1.0  0.09
  H  H284  1  0.246500  0.664400  0.664400  1.0  0.0874
  H  H285  1  0.580800  0.845000  0.155000  1.0  0.1062
  H  H286  1  0.619500  0.882350  0.117650  1.0  0.0897
  H  H287  1  0.278600  0.878150  0.121850  1.0  0.0903
  H  H288  1  0.253500  0.835600  0.164400  1.0  0.0876
  H  H289  1  0.080800  0.345000  0.655000  1.0  0.1062
  H  H290  1  0.119500  0.382350  0.617650  1.0  0.0897
  H  H291  1  0.778600  0.378150  0.621850  1.0  0.0903
  H  H292  1  0.753500  0.335600  0.664400  1.0  0.0876
  H  H293  1  0.419200  0.845000  0.845000  1.0  0.1039
  H  H294  1  0.380500  0.882350  0.882350  1.0  0.0912
  H  H295  1  0.721400  0.878150  0.878150  1.0  0.0903
  H  H296  1  0.746500  0.835600  0.835600  1.0  0.0877
  H  H297  1  0.919200  0.345000  0.345000  1.0  0.1039
  H  H298  1  0.880500  0.382350  0.382350  1.0  0.0912
  H  H299  1  0.221400  0.378150  0.378150  1.0  0.0903
  H  H300  1  0.246500  0.335600  0.335600  1.0  0.0877
  C  C301  1  0.817400  0.380300  0.108300  1.0  0.2151
  C  C302  1  0.839100  0.490400  0.086800  1.0  0.2412
  C  C303  1  0.850300  0.550900  0.074400  1.0  -0.3209
  C  C304  1  0.803900  0.319200  0.121200  1.0  -0.2844
  C  C305  1  0.317400  0.880300  0.608300  1.0  0.2151
  C  C306  1  0.339100  0.990400  0.586800  1.0  0.2412
  C  C307  1  0.350300  0.050900  0.574400  1.0  -0.3209
  C  C308  1  0.303900  0.819200  0.621200  1.0  -0.2844
  C  C309  1  0.182600  0.619700  0.108300  1.0  0.2151
  C  C310  1  0.160900  0.509600  0.086800  1.0  0.2412
  C  C311  1  0.149700  0.449100  0.074400  1.0  -0.3194
  C  C312  1  0.196100  0.680800  0.121200  1.0  -0.2818
  C  C313  1  0.682600  0.119700  0.608300  1.0  0.2151
  C  C314  1  0.660900  0.009600  0.586800  1.0  0.2412
  C  C315  1  0.649700  0.949100  0.574400  1.0  -0.3194
  C  C316  1  0.696100  0.180800  0.621200  1.0  -0.2818
  C  C317  1  0.182600  0.380300  0.891700  1.0  0.2127
  C  C318  1  0.160900  0.490400  0.913200  1.0  0.2406
  C  C319  1  0.149700  0.550900  0.925600  1.0  -0.321
  C  C320  1  0.196100  0.319200  0.878800  1.0  -0.2813
  C  C321  1  0.682600  0.880300  0.391700  1.0  0.2127
  C  C322  1  0.660900  0.990400  0.413200  1.0  0.2406
  C  C323  1  0.649700  0.050900  0.425600  1.0  -0.321
  C  C324  1  0.696100  0.819200  0.378800  1.0  -0.2813
  C  C325  1  0.817400  0.619700  0.891700  1.0  0.2122
  C  C326  1  0.839100  0.509600  0.913200  1.0  0.2415
  C  C327  1  0.850300  0.449100  0.925600  1.0  -0.3216
  C  C328  1  0.803900  0.680800  0.878800  1.0  -0.2845
  C  C329  1  0.317400  0.119700  0.391700  1.0  0.2122
  C  C330  1  0.339100  0.009600  0.413200  1.0  0.2415
  C  C331  1  0.350300  0.949100  0.425600  1.0  -0.3216
  C  C332  1  0.303900  0.180800  0.378800  1.0  -0.2845
  C  C333  1  0.108300  0.817400  0.380300  1.0  0.214
  C  C334  1  0.086800  0.839100  0.490400  1.0  0.2454
  C  C335  1  0.074400  0.850300  0.550900  1.0  -0.3199
  C  C336  1  0.121200  0.803900  0.319200  1.0  -0.2842
  C  C337  1  0.608300  0.317400  0.880300  1.0  0.214
  C  C338  1  0.586800  0.339100  0.990400  1.0  0.2454
  C  C339  1  0.574400  0.350300  0.050900  1.0  -0.3199
  C  C340  1  0.621200  0.303900  0.819200  1.0  -0.2842
  C  C341  1  0.108300  0.182600  0.619700  1.0  0.2138
  C  C342  1  0.086800  0.160900  0.509600  1.0  0.2421
  C  C343  1  0.074400  0.149700  0.449100  1.0  -0.3178
  C  C344  1  0.121200  0.196100  0.680800  1.0  -0.2827
  C  C345  1  0.608300  0.682600  0.119700  1.0  0.2138
  C  C346  1  0.586800  0.660900  0.009600  1.0  0.2421
  C  C347  1  0.574400  0.649700  0.949100  1.0  -0.3178
  C  C348  1  0.621200  0.696100  0.180800  1.0  -0.2827
  C  C349  1  0.891700  0.182600  0.380300  1.0  0.2141
  C  C350  1  0.913200  0.160900  0.490400  1.0  0.2447
  C  C351  1  0.925600  0.149700  0.550900  1.0  -0.3197
  C  C352  1  0.878800  0.196100  0.319200  1.0  -0.2835
  C  C353  1  0.391700  0.682600  0.880300  1.0  0.2141
  C  C354  1  0.413200  0.660900  0.990400  1.0  0.2447
  C  C355  1  0.425600  0.649700  0.050900  1.0  -0.3197
  C  C356  1  0.378800  0.696100  0.819200  1.0  -0.2835
  C  C357  1  0.891700  0.817400  0.619700  1.0  0.2138
  C  C358  1  0.913200  0.839100  0.509600  1.0  0.2418
  C  C359  1  0.925600  0.850300  0.449100  1.0  -0.3184
  C  C360  1  0.878800  0.803900  0.680800  1.0  -0.2831
  C  C361  1  0.391700  0.317400  0.119700  1.0  0.2138
  C  C362  1  0.413200  0.339100  0.009600  1.0  0.2418
  C  C363  1  0.425600  0.350300  0.949100  1.0  -0.3184
  C  C364  1  0.378800  0.303900  0.180800  1.0  -0.2831
  C  C365  1  0.380300  0.108300  0.817400  1.0  0.2141
  C  C366  1  0.490400  0.086800  0.839100  1.0  0.2411
  C  C367  1  0.550900  0.074400  0.850300  1.0  -0.3171
  C  C368  1  0.319200  0.121200  0.803900  1.0  -0.2821
  C  C369  1  0.880300  0.608300  0.317400  1.0  0.2141
  C  C370  1  0.990400  0.586800  0.339100  1.0  0.2411
  C  C371  1  0.050900  0.574400  0.350300  1.0  -0.3171
  C  C372  1  0.819200  0.621200  0.303900  1.0  -0.2821
  C  C373  1  0.619700  0.108300  0.182600  1.0  0.214
  C  C374  1  0.509600  0.086800  0.160900  1.0  0.2415
  C  C375  1  0.449100  0.074400  0.149700  1.0  -0.3196
  C  C376  1  0.680800  0.121200  0.196100  1.0  -0.282
  C  C377  1  0.119700  0.608300  0.682600  1.0  0.214
  C  C378  1  0.009600  0.586800  0.660900  1.0  0.2415
  C  C379  1  0.949100  0.574400  0.649700  1.0  -0.3196
  C  C380  1  0.180800  0.621200  0.696100  1.0  -0.282
  C  C381  1  0.380300  0.891700  0.182600  1.0  0.2133
  C  C382  1  0.490400  0.913200  0.160900  1.0  0.2409
  C  C383  1  0.550900  0.925600  0.149700  1.0  -0.3169
  C  C384  1  0.319200  0.878800  0.196100  1.0  -0.2833
  C  C385  1  0.880300  0.391700  0.682600  1.0  0.2133
  C  C386  1  0.990400  0.413200  0.660900  1.0  0.2409
  C  C387  1  0.050900  0.425600  0.649700  1.0  -0.3169
  C  C388  1  0.819200  0.378800  0.696100  1.0  -0.2833
  C  C389  1  0.619700  0.891700  0.817400  1.0  0.2153
  C  C390  1  0.509600  0.913200  0.839100  1.0  0.2418
  C  C391  1  0.449100  0.925600  0.850300  1.0  -0.3168
  C  C392  1  0.680800  0.878800  0.803900  1.0  -0.2819
  C  C393  1  0.119700  0.391700  0.317400  1.0  0.2153
  C  C394  1  0.009600  0.413200  0.339100  1.0  0.2418
  C  C395  1  0.949100  0.425600  0.350300  1.0  -0.3168
  C  C396  1  0.180800  0.378800  0.303900  1.0  -0.2819
  C  C397  1  0.380300  0.817400  0.108300  1.0  0.2157
  C  C398  1  0.490400  0.839100  0.086800  1.0  0.2414
  C  C399  1  0.550900  0.850300  0.074400  1.0  -0.3189
  C  C400  1  0.319200  0.803900  0.121200  1.0  -0.2873
  C  C401  1  0.880300  0.317400  0.608300  1.0  0.2157
  C  C402  1  0.990400  0.339100  0.586800  1.0  0.2414
  C  C403  1  0.050900  0.350300  0.574400  1.0  -0.3189
  C  C404  1  0.819200  0.303900  0.621200  1.0  -0.2873
  C  C405  1  0.619700  0.182600  0.108300  1.0  0.2165
  C  C406  1  0.509600  0.160900  0.086800  1.0  0.2419
  C  C407  1  0.449100  0.149700  0.074400  1.0  -0.319
  C  C408  1  0.680800  0.196100  0.121200  1.0  -0.2855
  C  C409  1  0.119700  0.682600  0.608300  1.0  0.2165
  C  C410  1  0.009600  0.660900  0.586800  1.0  0.2419
  C  C411  1  0.949100  0.649700  0.574400  1.0  -0.319
  C  C412  1  0.180800  0.696100  0.621200  1.0  -0.2855
  C  C413  1  0.380300  0.182600  0.891700  1.0  0.2133
  C  C414  1  0.490400  0.160900  0.913200  1.0  0.2412
  C  C415  1  0.550900  0.149700  0.925600  1.0  -0.3196
  C  C416  1  0.319200  0.196100  0.878800  1.0  -0.2874
  C  C417  1  0.880300  0.682600  0.391700  1.0  0.2133
  C  C418  1  0.990400  0.660900  0.413200  1.0  0.2412
  C  C419  1  0.050900  0.649700  0.425600  1.0  -0.3196
  C  C420  1  0.819200  0.696100  0.378800  1.0  -0.2874
  C  C421  1  0.619700  0.817400  0.891700  1.0  0.2137
  C  C422  1  0.509600  0.839100  0.913200  1.0  0.2419
  C  C423  1  0.449100  0.850300  0.925600  1.0  -0.321
  C  C424  1  0.680800  0.803900  0.878800  1.0  -0.2863
  C  C425  1  0.119700  0.317400  0.391700  1.0  0.2137
  C  C426  1  0.009600  0.339100  0.413200  1.0  0.2419
  C  C427  1  0.949100  0.350300  0.425600  1.0  -0.321
  C  C428  1  0.180800  0.303900  0.378800  1.0  -0.2863
  C  C429  1  0.817400  0.108300  0.380300  1.0  0.2151
  C  C430  1  0.839100  0.086800  0.490400  1.0  0.2451
  C  C431  1  0.850300  0.074400  0.550900  1.0  -0.3216
  C  C432  1  0.803900  0.121200  0.319200  1.0  -0.2808
  C  C433  1  0.317400  0.608300  0.880300  1.0  0.2151
  C  C434  1  0.339100  0.586800  0.990400  1.0  0.2451
  C  C435  1  0.350300  0.574400  0.050900  1.0  -0.3216
  C  C436  1  0.303900  0.621200  0.819200  1.0  -0.2808
  C  C437  1  0.182600  0.108300  0.619700  1.0  0.2147
  C  C438  1  0.160900  0.086800  0.509600  1.0  0.2415
  C  C439  1  0.149700  0.074400  0.449100  1.0  -0.322
  C  C440  1  0.196100  0.121200  0.680800  1.0  -0.2778
  C  C441  1  0.682600  0.608300  0.119700  1.0  0.2147
  C  C442  1  0.660900  0.586800  0.009600  1.0  0.2415
  C  C443  1  0.649700  0.574400  0.949100  1.0  -0.322
  C  C444  1  0.696100  0.621200  0.180800  1.0  -0.2778
  C  C445  1  0.182600  0.891700  0.380300  1.0  0.2155
  C  C446  1  0.160900  0.913200  0.490400  1.0  0.2445
  C  C447  1  0.149700  0.925600  0.550900  1.0  -0.3218
  C  C448  1  0.196100  0.878800  0.319200  1.0  -0.2789
  C  C449  1  0.682600  0.391700  0.880300  1.0  0.2155
  C  C450  1  0.660900  0.413200  0.990400  1.0  0.2445
  C  C451  1  0.649700  0.425600  0.050900  1.0  -0.3218
  C  C452  1  0.696100  0.378800  0.819200  1.0  -0.2789
  C  C453  1  0.817400  0.891700  0.619700  1.0  0.2145
  C  C454  1  0.839100  0.913200  0.509600  1.0  0.242
  C  C455  1  0.850300  0.925600  0.449100  1.0  -0.3191
  C  C456  1  0.803900  0.878800  0.680800  1.0  -0.2814
  C  C457  1  0.317400  0.391700  0.119700  1.0  0.2145
  C  C458  1  0.339100  0.413200  0.009600  1.0  0.242
  C  C459  1  0.350300  0.425600  0.949100  1.0  -0.3191
  C  C460  1  0.303900  0.378800  0.180800  1.0  -0.2814
  C  C461  1  0.108300  0.380300  0.817400  1.0  0.2132
  C  C462  1  0.086800  0.490400  0.839100  1.0  0.2412
  C  C463  1  0.074400  0.550900  0.850300  1.0  -0.3155
  C  C464  1  0.121200  0.319200  0.803900  1.0  -0.2819
  C  C465  1  0.608300  0.880300  0.317400  1.0  0.2132
  C  C466  1  0.586800  0.990400  0.339100  1.0  0.2412
  C  C467  1  0.574400  0.050900  0.350300  1.0  -0.3155
  C  C468  1  0.621200  0.819200  0.303900  1.0  -0.2819
  C  C469  1  0.108300  0.619700  0.182600  1.0  0.2116
  C  C470  1  0.086800  0.509600  0.160900  1.0  0.241
  C  C471  1  0.074400  0.449100  0.149700  1.0  -0.3164
  C  C472  1  0.121200  0.680800  0.196100  1.0  -0.2816
  C  C473  1  0.608300  0.119700  0.682600  1.0  0.2116
  C  C474  1  0.586800  0.009600  0.660900  1.0  0.241
  C  C475  1  0.574400  0.949100  0.649700  1.0  -0.3164
  C  C476  1  0.621200  0.180800  0.696100  1.0  -0.2816
  C  C477  1  0.891700  0.380300  0.182600  1.0  0.2119
  C  C478  1  0.913200  0.490400  0.160900  1.0  0.2405
  C  C479  1  0.925600  0.550900  0.149700  1.0  -0.3167
  C  C480  1  0.878800  0.319200  0.196100  1.0  -0.2825
  C  C481  1  0.391700  0.880300  0.682600  1.0  0.2119
  C  C482  1  0.413200  0.990400  0.660900  1.0  0.2405
  C  C483  1  0.425600  0.050900  0.649700  1.0  -0.3167
  C  C484  1  0.378800  0.819200  0.696100  1.0  -0.2825
  C  C485  1  0.891700  0.619700  0.817400  1.0  0.2126
  C  C486  1  0.913200  0.509600  0.839100  1.0  0.2414
  C  C487  1  0.925600  0.449100  0.850300  1.0  -0.3157
  C  C488  1  0.878800  0.680800  0.803900  1.0  -0.2834
  C  C489  1  0.391700  0.119700  0.317400  1.0  0.2126
  C  C490  1  0.413200  0.009600  0.339100  1.0  0.2414
  C  C491  1  0.425600  0.949100  0.350300  1.0  -0.3157
  C  C492  1  0.378800  0.180800  0.303900  1.0  -0.2834
  C  C493  1  0.859400  0.407100  0.140600  1.0  -0.0176
  C  C494  1  0.871000  0.462900  0.129000  1.0  -0.0331
  C  C495  1  0.873600  0.581000  0.126400  1.0  -0.0916
  C  C496  1  0.850300  0.288200  0.149700  1.0  -0.0637
  C  C497  1  0.359400  0.907100  0.640600  1.0  -0.0176
  C  C498  1  0.371000  0.962900  0.629000  1.0  -0.0331
  C  C499  1  0.373600  0.081000  0.626400  1.0  -0.0916
  C  C500  1  0.350300  0.788200  0.649700  1.0  -0.0637
  C  C501  1  0.140600  0.592900  0.140600  1.0  -0.018
  C  C502  1  0.129000  0.537100  0.129000  1.0  -0.0332
  C  C503  1  0.126400  0.419000  0.126400  1.0  -0.0903
  C  C504  1  0.149700  0.711800  0.149700  1.0  -0.0621
  C  C505  1  0.640600  0.092900  0.640600  1.0  -0.018
  C  C506  1  0.629000  0.037100  0.629000  1.0  -0.0332
  C  C507  1  0.626400  0.919000  0.626400  1.0  -0.0903
  C  C508  1  0.649700  0.211800  0.649700  1.0  -0.0621
  C  C509  1  0.140600  0.407100  0.859400  1.0  -0.0175
  C  C510  1  0.129000  0.462900  0.871000  1.0  -0.0328
  C  C511  1  0.126400  0.581000  0.873600  1.0  -0.0908
  C  C512  1  0.149700  0.288200  0.850300  1.0  -0.0623
  C  C513  1  0.640600  0.907100  0.359400  1.0  -0.0175
  C  C514  1  0.629000  0.962900  0.371000  1.0  -0.0328
  C  C515  1  0.626400  0.081000  0.373600  1.0  -0.0908
  C  C516  1  0.649700  0.788200  0.350300  1.0  -0.0623
  C  C517  1  0.859400  0.592900  0.859400  1.0  -0.018
  C  C518  1  0.871000  0.537100  0.871000  1.0  -0.0325
  C  C519  1  0.873600  0.419000  0.873600  1.0  -0.0889
  C  C520  1  0.850300  0.711800  0.850300  1.0  -0.0647
  C  C521  1  0.359400  0.092900  0.359400  1.0  -0.018
  C  C522  1  0.371000  0.037100  0.371000  1.0  -0.0325
  C  C523  1  0.373600  0.919000  0.373600  1.0  -0.0889
  C  C524  1  0.350300  0.211800  0.350300  1.0  -0.0647
  C  C525  1  0.140600  0.859400  0.407100  1.0  -0.017
  C  C526  1  0.129000  0.871000  0.462900  1.0  -0.0334
  C  C527  1  0.126400  0.873600  0.581000  1.0  -0.0894
  C  C528  1  0.149700  0.850300  0.288200  1.0  -0.0617
  C  C529  1  0.640600  0.359400  0.907100  1.0  -0.017
  C  C530  1  0.629000  0.371000  0.962900  1.0  -0.0334
  C  C531  1  0.626400  0.373600  0.081000  1.0  -0.0894
  C  C532  1  0.649700  0.350300  0.788200  1.0  -0.0617
  C  C533  1  0.140600  0.140600  0.592900  1.0  -0.0163
  C  C534  1  0.129000  0.129000  0.537100  1.0  -0.0333
  C  C535  1  0.126400  0.126400  0.419000  1.0  -0.0863
  C  C536  1  0.149700  0.149700  0.711800  1.0  -0.0664
  C  C537  1  0.640600  0.640600  0.092900  1.0  -0.0163
  C  C538  1  0.629000  0.629000  0.037100  1.0  -0.0333
  C  C539  1  0.626400  0.626400  0.919000  1.0  -0.0863
  C  C540  1  0.649700  0.649700  0.211800  1.0  -0.0664
  C  C541  1  0.859400  0.140600  0.407100  1.0  -0.0171
  C  C542  1  0.871000  0.129000  0.462900  1.0  -0.0333
  C  C543  1  0.873600  0.126400  0.581000  1.0  -0.0892
  C  C544  1  0.850300  0.149700  0.288200  1.0  -0.0645
  C  C545  1  0.359400  0.640600  0.907100  1.0  -0.0171
  C  C546  1  0.371000  0.629000  0.962900  1.0  -0.0333
  C  C547  1  0.373600  0.626400  0.081000  1.0  -0.0892
  C  C548  1  0.350300  0.649700  0.788200  1.0  -0.0645
  C  C549  1  0.859400  0.859400  0.592900  1.0  -0.0165
  C  C550  1  0.871000  0.871000  0.537100  1.0  -0.0331
  C  C551  1  0.873600  0.873600  0.419000  1.0  -0.0859
  C  C552  1  0.850300  0.850300  0.711800  1.0  -0.0664
  C  C553  1  0.359400  0.359400  0.092900  1.0  -0.0165
  C  C554  1  0.371000  0.371000  0.037100  1.0  -0.0331
  C  C555  1  0.373600  0.373600  0.919000  1.0  -0.0859
  C  C556  1  0.350300  0.350300  0.211800  1.0  -0.0664
  C  C557  1  0.407100  0.140600  0.859400  1.0  -0.0172
  C  C558  1  0.462900  0.129000  0.871000  1.0  -0.0322
  C  C559  1  0.581000  0.126400  0.873600  1.0  -0.0851
  C  C560  1  0.288200  0.149700  0.850300  1.0  -0.0595
  C  C561  1  0.907100  0.640600  0.359400  1.0  -0.0172
  C  C562  1  0.962900  0.629000  0.371000  1.0  -0.0322
  C  C563  1  0.081000  0.626400  0.373600  1.0  -0.0851
  C  C564  1  0.788200  0.649700  0.350300  1.0  -0.0595
  C  C565  1  0.592900  0.140600  0.140600  1.0  -0.018
  C  C566  1  0.537100  0.129000  0.129000  1.0  -0.034
  C  C567  1  0.419000  0.126400  0.126400  1.0  -0.0843
  C  C568  1  0.711800  0.149700  0.149700  1.0  -0.0612
  C  C569  1  0.092900  0.640600  0.640600  1.0  -0.018
  C  C570  1  0.037100  0.629000  0.629000  1.0  -0.034
  C  C571  1  0.919000  0.626400  0.626400  1.0  -0.0843
  C  C572  1  0.211800  0.649700  0.649700  1.0  -0.0612
  C  C573  1  0.407100  0.859400  0.140600  1.0  -0.0172
  C  C574  1  0.462900  0.871000  0.129000  1.0  -0.0325
  C  C575  1  0.581000  0.873600  0.126400  1.0  -0.0857
  C  C576  1  0.288200  0.850300  0.149700  1.0  -0.059
  C  C577  1  0.907100  0.359400  0.640600  1.0  -0.0172
  C  C578  1  0.962900  0.371000  0.629000  1.0  -0.0325
  C  C579  1  0.081000  0.373600  0.626400  1.0  -0.0857
  C  C580  1  0.788200  0.350300  0.649700  1.0  -0.059
  C  C581  1  0.592900  0.859400  0.859400  1.0  -0.018
  C  C582  1  0.537100  0.871000  0.871000  1.0  -0.0335
  C  C583  1  0.419000  0.873600  0.873600  1.0  -0.0831
  C  C584  1  0.711800  0.850300  0.850300  1.0  -0.0608
  C  C585  1  0.092900  0.359400  0.359400  1.0  -0.018
  C  C586  1  0.037100  0.371000  0.371000  1.0  -0.0335
  C  C587  1  0.919000  0.373600  0.373600  1.0  -0.0831
  C  C588  1  0.211800  0.350300  0.350300  1.0  -0.0608
  N  N589  1  0.800300  0.463500  0.058800  1.0  -0.2462
  N  N590  1  0.788900  0.406300  0.068700  1.0  -0.2693
  N  N591  1  0.300300  0.963500  0.558800  1.0  -0.2462
  N  N592  1  0.288900  0.906300  0.568700  1.0  -0.2693
  N  N593  1  0.199700  0.536500  0.058800  1.0  -0.2466
  N  N594  1  0.211100  0.593700  0.068700  1.0  -0.2684
  N  N595  1  0.699700  0.036500  0.558800  1.0  -0.2466
  N  N596  1  0.711100  0.093700  0.568700  1.0  -0.2684
  N  N597  1  0.199700  0.463500  0.941200  1.0  -0.246
  N  N598  1  0.211100  0.406300  0.931300  1.0  -0.2693
  N  N599  1  0.699700  0.963500  0.441200  1.0  -0.246
  N  N600  1  0.711100  0.906300  0.431300  1.0  -0.2693
  N  N601  1  0.800300  0.536500  0.941200  1.0  -0.2466
  N  N602  1  0.788900  0.593700  0.931300  1.0  -0.2689
  N  N603  1  0.300300  0.036500  0.441200  1.0  -0.2466
  N  N604  1  0.288900  0.093700  0.431300  1.0  -0.2689
  N  N605  1  0.058800  0.800300  0.463500  1.0  -0.2478
  N  N606  1  0.068700  0.788900  0.406300  1.0  -0.2694
  N  N607  1  0.558800  0.300300  0.963500  1.0  -0.2478
  N  N608  1  0.568700  0.288900  0.906300  1.0  -0.2694
  N  N609  1  0.058800  0.199700  0.536500  1.0  -0.2483
  N  N610  1  0.068700  0.211100  0.593700  1.0  -0.2689
  N  N611  1  0.558800  0.699700  0.036500  1.0  -0.2483
  N  N612  1  0.568700  0.711100  0.093700  1.0  -0.2689
  N  N613  1  0.941200  0.199700  0.463500  1.0  -0.2478
  N  N614  1  0.931300  0.211100  0.406300  1.0  -0.2692
  N  N615  1  0.441200  0.699700  0.963500  1.0  -0.2478
  N  N616  1  0.431300  0.711100  0.906300  1.0  -0.2692
  N  N617  1  0.941200  0.800300  0.536500  1.0  -0.2477
  N  N618  1  0.931300  0.788900  0.593700  1.0  -0.2688
  N  N619  1  0.441200  0.300300  0.036500  1.0  -0.2477
  N  N620  1  0.431300  0.288900  0.093700  1.0  -0.2688
  N  N621  1  0.463500  0.058800  0.800300  1.0  -0.2479
  N  N622  1  0.406300  0.068700  0.788900  1.0  -0.2691
  N  N623  1  0.963500  0.558800  0.300300  1.0  -0.2479
  N  N624  1  0.906300  0.568700  0.288900  1.0  -0.2691
  N  N625  1  0.536500  0.058800  0.199700  1.0  -0.2472
  N  N626  1  0.593700  0.068700  0.211100  1.0  -0.2693
  N  N627  1  0.036500  0.558800  0.699700  1.0  -0.2472
  N  N628  1  0.093700  0.568700  0.711100  1.0  -0.2693
  N  N629  1  0.463500  0.941200  0.199700  1.0  -0.2477
  N  N630  1  0.406300  0.931300  0.211100  1.0  -0.2695
  N  N631  1  0.963500  0.441200  0.699700  1.0  -0.2477
  N  N632  1  0.906300  0.431300  0.711100  1.0  -0.2695
  N  N633  1  0.536500  0.941200  0.800300  1.0  -0.2468
  N  N634  1  0.593700  0.931300  0.788900  1.0  -0.2692
  N  N635  1  0.036500  0.441200  0.300300  1.0  -0.2468
  N  N636  1  0.093700  0.431300  0.288900  1.0  -0.2692
  N  N637  1  0.463500  0.800300  0.058800  1.0  -0.2482
  N  N638  1  0.406300  0.788900  0.068700  1.0  -0.2697
  N  N639  1  0.963500  0.300300  0.558800  1.0  -0.2482
  N  N640  1  0.906300  0.288900  0.568700  1.0  -0.2697
  N  N641  1  0.536500  0.199700  0.058800  1.0  -0.2474
  N  N642  1  0.593700  0.211100  0.068700  1.0  -0.2692
  N  N643  1  0.036500  0.699700  0.558800  1.0  -0.2474
  N  N644  1  0.093700  0.711100  0.568700  1.0  -0.2692
  N  N645  1  0.463500  0.199700  0.941200  1.0  -0.2483
  N  N646  1  0.406300  0.211100  0.931300  1.0  -0.27
  N  N647  1  0.963500  0.699700  0.441200  1.0  -0.2483
  N  N648  1  0.906300  0.711100  0.431300  1.0  -0.27
  N  N649  1  0.536500  0.800300  0.941200  1.0  -0.2473
  N  N650  1  0.593700  0.788900  0.931300  1.0  -0.2697
  N  N651  1  0.036500  0.300300  0.441200  1.0  -0.2473
  N  N652  1  0.093700  0.288900  0.431300  1.0  -0.2697
  N  N653  1  0.800300  0.058800  0.463500  1.0  -0.2474
  N  N654  1  0.788900  0.068700  0.406300  1.0  -0.2691
  N  N655  1  0.300300  0.558800  0.963500  1.0  -0.2474
  N  N656  1  0.288900  0.568700  0.906300  1.0  -0.2691
  N  N657  1  0.199700  0.058800  0.536500  1.0  -0.2475
  N  N658  1  0.211100  0.068700  0.593700  1.0  -0.2684
  N  N659  1  0.699700  0.558800  0.036500  1.0  -0.2475
  N  N660  1  0.711100  0.568700  0.093700  1.0  -0.2684
  N  N661  1  0.199700  0.941200  0.463500  1.0  -0.247
  N  N662  1  0.211100  0.931300  0.406300  1.0  -0.2691
  N  N663  1  0.699700  0.441200  0.963500  1.0  -0.247
  N  N664  1  0.711100  0.431300  0.906300  1.0  -0.2691
  N  N665  1  0.800300  0.941200  0.536500  1.0  -0.2475
  N  N666  1  0.788900  0.931300  0.593700  1.0  -0.2686
  N  N667  1  0.300300  0.441200  0.036500  1.0  -0.2475
  N  N668  1  0.288900  0.431300  0.093700  1.0  -0.2686
  N  N669  1  0.058800  0.463500  0.800300  1.0  -0.2466
  N  N670  1  0.068700  0.406300  0.788900  1.0  -0.2689
  N  N671  1  0.558800  0.963500  0.300300  1.0  -0.2466
  N  N672  1  0.568700  0.906300  0.288900  1.0  -0.2689
  N  N673  1  0.058800  0.536500  0.199700  1.0  -0.2466
  N  N674  1  0.068700  0.593700  0.211100  1.0  -0.2685
  N  N675  1  0.558800  0.036500  0.699700  1.0  -0.2466
  N  N676  1  0.568700  0.093700  0.711100  1.0  -0.2685
  N  N677  1  0.941200  0.463500  0.199700  1.0  -0.246
  N  N678  1  0.931300  0.406300  0.211100  1.0  -0.2692
  N  N679  1  0.441200  0.963500  0.699700  1.0  -0.246
  N  N680  1  0.431300  0.906300  0.711100  1.0  -0.2692
  N  N681  1  0.941200  0.536500  0.800300  1.0  -0.2469
  N  N682  1  0.931300  0.593700  0.788900  1.0  -0.2683
  N  N683  1  0.441200  0.036500  0.300300  1.0  -0.2469
  N  N684  1  0.431300  0.093700  0.288900  1.0  -0.2683
