# generated using pymatgen
data_CuC8(N2O)2
_symmetry_space_group_name_H-M   'P 1'
_cell_length_a   15.67020000
_cell_length_b   15.67020000
_cell_length_c   15.67020000
_cell_angle_alpha   90.00000000
_cell_angle_beta   90.00000000
_cell_angle_gamma   90.00000000
_symmetry_Int_Tables_number   1
_chemical_formula_structural   CuC8(N2O)2
_chemical_formula_sum   'Cu12 C96 N48 O24'
_cell_volume   3847.89859422
_cell_formula_units_Z   12
loop_
 _symmetry_equiv_pos_site_id
 _symmetry_equiv_pos_as_xyz
  1  'x, y, z'
loop_
 _atom_site_type_symbol
 _atom_site_label
 _atom_site_symmetry_multiplicity
 _atom_site_fract_x
 _atom_site_fract_y
 _atom_site_fract_z
 _atom_site_occupancy
 _atom_site_charge
  Cu  Cu1  1  0.500000  0.750000  0.250000  1.0  0.8191
  Cu  Cu2  1  0.000000  0.750000  0.250000  1.0  0.8191
  Cu  Cu3  1  0.250000  0.500000  0.750000  1.0  0.8191
  Cu  Cu4  1  0.250000  0.000000  0.750000  1.0  0.8191
  Cu  Cu5  1  0.750000  0.250000  0.500000  1.0  0.8191
  Cu  Cu6  1  0.750000  0.250000  0.000000  1.0  0.8191
  Cu  Cu7  1  0.500000  0.250000  0.750000  1.0  0.8191
  Cu  Cu8  1  0.000000  0.250000  0.750000  1.0  0.8191
  Cu  Cu9  1  0.750000  0.500000  0.250000  1.0  0.8191
  Cu  Cu10  1  0.750000  0.000000  0.250000  1.0  0.8191
  Cu  Cu11  1  0.250000  0.750000  0.500000  1.0  0.8191
  Cu  Cu12  1  0.250000  0.750000  0.000000  1.0  0.8191
  C  C13  1  0.391500  0.902000  0.217600  1.0  0.0424
  C  C14  1  0.108500  0.598000  0.217600  1.0  0.042
  C  C15  1  0.108500  0.902000  0.282400  1.0  0.0423
  C  C16  1  0.391500  0.598000  0.282400  1.0  0.043
  C  C17  1  0.217600  0.391500  0.902000  1.0  0.0457
  C  C18  1  0.217600  0.108500  0.598000  1.0  0.047
  C  C19  1  0.282400  0.108500  0.902000  1.0  0.0453
  C  C20  1  0.282400  0.391500  0.598000  1.0  0.0493
  C  C21  1  0.902000  0.217600  0.391500  1.0  0.0439
  C  C22  1  0.598000  0.217600  0.108500  1.0  0.0461
  C  C23  1  0.902000  0.282400  0.108500  1.0  0.0451
  C  C24  1  0.598000  0.282400  0.391500  1.0  0.0454
  C  C25  1  0.402000  0.891500  0.782400  1.0  0.0426
  C  C26  1  0.098000  0.608500  0.782400  1.0  0.0426
  C  C27  1  0.402000  0.608500  0.717600  1.0  0.0416
  C  C28  1  0.098000  0.891500  0.717600  1.0  0.0417
  C  C29  1  0.891500  0.717600  0.098000  1.0  0.049
  C  C30  1  0.608500  0.717600  0.402000  1.0  0.047
  C  C31  1  0.608500  0.782400  0.098000  1.0  0.0494
  C  C32  1  0.891500  0.782400  0.402000  1.0  0.0453
  C  C33  1  0.717600  0.402000  0.608500  1.0  0.0437
  C  C34  1  0.717600  0.098000  0.891500  1.0  0.0442
  C  C35  1  0.782400  0.402000  0.891500  1.0  0.0448
  C  C36  1  0.782400  0.098000  0.608500  1.0  0.0451
  C  C37  1  0.608500  0.098000  0.782400  1.0  0.0431
  C  C38  1  0.891500  0.402000  0.782400  1.0  0.0421
  C  C39  1  0.891500  0.098000  0.717600  1.0  0.0416
  C  C40  1  0.608500  0.402000  0.717600  1.0  0.0422
  C  C41  1  0.782400  0.608500  0.098000  1.0  0.0491
  C  C42  1  0.782400  0.891500  0.402000  1.0  0.0456
  C  C43  1  0.717600  0.891500  0.098000  1.0  0.0472
  C  C44  1  0.717600  0.608500  0.402000  1.0  0.0451
  C  C45  1  0.098000  0.782400  0.608500  1.0  0.0453
  C  C46  1  0.402000  0.782400  0.891500  1.0  0.0444
  C  C47  1  0.098000  0.717600  0.891500  1.0  0.0454
  C  C48  1  0.402000  0.717600  0.608500  1.0  0.0452
  C  C49  1  0.598000  0.108500  0.217600  1.0  0.0419
  C  C50  1  0.902000  0.391500  0.217600  1.0  0.0409
  C  C51  1  0.598000  0.391500  0.282400  1.0  0.0431
  C  C52  1  0.902000  0.108500  0.282400  1.0  0.043
  C  C53  1  0.108500  0.282400  0.902000  1.0  0.0453
  C  C54  1  0.391500  0.282400  0.598000  1.0  0.0482
  C  C55  1  0.391500  0.217600  0.902000  1.0  0.0475
  C  C56  1  0.108500  0.217600  0.598000  1.0  0.0497
  C  C57  1  0.282400  0.598000  0.391500  1.0  0.0449
  C  C58  1  0.282400  0.902000  0.108500  1.0  0.0453
  C  C59  1  0.217600  0.598000  0.108500  1.0  0.0442
  C  C60  1  0.217600  0.902000  0.391500  1.0  0.0435
  C  C61  1  0.373900  0.778300  0.126100  1.0  0.4848
  C  C62  1  0.327000  0.947100  0.173000  1.0  -0.0129
  C  C63  1  0.126100  0.721700  0.126100  1.0  0.4839
  C  C64  1  0.173000  0.552900  0.173000  1.0  -0.0162
  C  C65  1  0.126100  0.778300  0.373900  1.0  0.4835
  C  C66  1  0.173000  0.947100  0.327000  1.0  -0.0134
  C  C67  1  0.373900  0.721700  0.373900  1.0  0.4839
  C  C68  1  0.327000  0.552900  0.327000  1.0  -0.0147
  C  C69  1  0.126100  0.373900  0.778300  1.0  0.4868
  C  C70  1  0.173000  0.327000  0.947100  1.0  -0.027
  C  C71  1  0.126100  0.126100  0.721700  1.0  0.486
  C  C72  1  0.173000  0.173000  0.552900  1.0  -0.0267
  C  C73  1  0.373900  0.126100  0.778300  1.0  0.4869
  C  C74  1  0.327000  0.173000  0.947100  1.0  -0.0249
  C  C75  1  0.373900  0.373900  0.721700  1.0  0.4861
  C  C76  1  0.327000  0.327000  0.552900  1.0  -0.0265
  C  C77  1  0.778300  0.126100  0.373900  1.0  0.4841
  C  C78  1  0.947100  0.173000  0.327000  1.0  -0.0213
  C  C79  1  0.721700  0.126100  0.126100  1.0  0.4851
  C  C80  1  0.552900  0.173000  0.173000  1.0  -0.019
  C  C81  1  0.778300  0.373900  0.126100  1.0  0.4846
  C  C82  1  0.947100  0.327000  0.173000  1.0  -0.022
  C  C83  1  0.721700  0.373900  0.373900  1.0  0.4848
  C  C84  1  0.552900  0.327000  0.327000  1.0  -0.0191
  C  C85  1  0.278300  0.873900  0.873900  1.0  0.4837
  C  C86  1  0.447100  0.827000  0.827000  1.0  -0.0216
  C  C87  1  0.221700  0.626100  0.873900  1.0  0.485
  C  C88  1  0.052900  0.673000  0.827000  1.0  -0.018
  C  C89  1  0.278300  0.626100  0.626100  1.0  0.4847
  C  C90  1  0.447100  0.673000  0.673000  1.0  -0.022
  C  C91  1  0.221700  0.873900  0.626100  1.0  0.4852
  C  C92  1  0.052900  0.827000  0.673000  1.0  -0.02
  C  C93  1  0.873900  0.626100  0.221700  1.0  0.4866
  C  C94  1  0.827000  0.673000  0.052900  1.0  -0.0257
  C  C95  1  0.626100  0.626100  0.278300  1.0  0.4864
  C  C96  1  0.673000  0.673000  0.447100  1.0  -0.0258
  C  C97  1  0.626100  0.873900  0.221700  1.0  0.4857
  C  C98  1  0.673000  0.827000  0.052900  1.0  -0.0276
  C  C99  1  0.873900  0.873900  0.278300  1.0  0.487
  C  C100  1  0.827000  0.827000  0.447100  1.0  -0.0259
  C  C101  1  0.626100  0.278300  0.626100  1.0  0.4841
  C  C102  1  0.673000  0.447100  0.673000  1.0  -0.0146
  C  C103  1  0.626100  0.221700  0.873900  1.0  0.4833
  C  C104  1  0.673000  0.052900  0.827000  1.0  -0.0151
  C  C105  1  0.873900  0.278300  0.873900  1.0  0.4842
  C  C106  1  0.827000  0.447100  0.827000  1.0  -0.012
  C  C107  1  0.873900  0.221700  0.626100  1.0  0.4843
  C  C108  1  0.827000  0.052900  0.673000  1.0  -0.0156
  N  N109  1  0.412200  0.821000  0.194500  1.0  -0.2349
  N  N110  1  0.087800  0.679000  0.194500  1.0  -0.2366
  N  N111  1  0.087800  0.821000  0.305500  1.0  -0.2346
  N  N112  1  0.412200  0.679000  0.305500  1.0  -0.2345
  N  N113  1  0.194500  0.412200  0.821000  1.0  -0.2354
  N  N114  1  0.194500  0.087800  0.679000  1.0  -0.2369
  N  N115  1  0.305500  0.087800  0.821000  1.0  -0.2357
  N  N116  1  0.305500  0.412200  0.679000  1.0  -0.236
  N  N117  1  0.821000  0.194500  0.412200  1.0  -0.2358
  N  N118  1  0.679000  0.194500  0.087800  1.0  -0.2371
  N  N119  1  0.821000  0.305500  0.087800  1.0  -0.2368
  N  N120  1  0.679000  0.305500  0.412200  1.0  -0.2368
  N  N121  1  0.321000  0.912200  0.805500  1.0  -0.2353
  N  N122  1  0.179000  0.587800  0.805500  1.0  -0.2368
  N  N123  1  0.321000  0.587800  0.694500  1.0  -0.2366
  N  N124  1  0.179000  0.912200  0.694500  1.0  -0.2365
  N  N125  1  0.912200  0.694500  0.179000  1.0  -0.2356
  N  N126  1  0.587800  0.694500  0.321000  1.0  -0.2359
  N  N127  1  0.587800  0.805500  0.179000  1.0  -0.2372
  N  N128  1  0.912200  0.805500  0.321000  1.0  -0.2347
  N  N129  1  0.694500  0.321000  0.587800  1.0  -0.2357
  N  N130  1  0.694500  0.179000  0.912200  1.0  -0.2357
  N  N131  1  0.805500  0.321000  0.912200  1.0  -0.2347
  N  N132  1  0.805500  0.179000  0.587800  1.0  -0.2368
  N  N133  1  0.587800  0.179000  0.805500  1.0  -0.236
  N  N134  1  0.912200  0.321000  0.805500  1.0  -0.2337
  N  N135  1  0.912200  0.179000  0.694500  1.0  -0.2355
  N  N136  1  0.587800  0.321000  0.694500  1.0  -0.2354
  N  N137  1  0.805500  0.587800  0.179000  1.0  -0.2371
  N  N138  1  0.805500  0.912200  0.321000  1.0  -0.2354
  N  N139  1  0.694500  0.912200  0.179000  1.0  -0.2359
  N  N140  1  0.694500  0.587800  0.321000  1.0  -0.2357
  N  N141  1  0.179000  0.805500  0.587800  1.0  -0.2379
  N  N142  1  0.321000  0.805500  0.912200  1.0  -0.236
  N  N143  1  0.179000  0.694500  0.912200  1.0  -0.2364
  N  N144  1  0.321000  0.694500  0.587800  1.0  -0.2362
  N  N145  1  0.679000  0.087800  0.194500  1.0  -0.2374
  N  N146  1  0.821000  0.412200  0.194500  1.0  -0.236
  N  N147  1  0.679000  0.412200  0.305500  1.0  -0.236
  N  N148  1  0.821000  0.087800  0.305500  1.0  -0.2359
  N  N149  1  0.087800  0.305500  0.821000  1.0  -0.2361
  N  N150  1  0.412200  0.305500  0.679000  1.0  -0.2362
  N  N151  1  0.412200  0.194500  0.821000  1.0  -0.2345
  N  N152  1  0.087800  0.194500  0.679000  1.0  -0.2365
  N  N153  1  0.305500  0.679000  0.412200  1.0  -0.2362
  N  N154  1  0.305500  0.821000  0.087800  1.0  -0.2355
  N  N155  1  0.194500  0.679000  0.087800  1.0  -0.2362
  N  N156  1  0.194500  0.821000  0.412200  1.0  -0.2349
  O  O157  1  0.395200  0.707900  0.104800  1.0  -0.4887
  O  O158  1  0.104800  0.792100  0.104800  1.0  -0.4897
  O  O159  1  0.104800  0.707900  0.395200  1.0  -0.4886
  O  O160  1  0.395200  0.792100  0.395200  1.0  -0.4876
  O  O161  1  0.104800  0.395200  0.707900  1.0  -0.4911
  O  O162  1  0.104800  0.104800  0.792100  1.0  -0.4932
  O  O163  1  0.395200  0.104800  0.707900  1.0  -0.4907
  O  O164  1  0.395200  0.395200  0.792100  1.0  -0.492
  O  O165  1  0.707900  0.104800  0.395200  1.0  -0.4944
  O  O166  1  0.792100  0.104800  0.104800  1.0  -0.4962
  O  O167  1  0.707900  0.395200  0.104800  1.0  -0.4953
  O  O168  1  0.792100  0.395200  0.395200  1.0  -0.4948
  O  O169  1  0.207900  0.895200  0.895200  1.0  -0.4945
  O  O170  1  0.292100  0.604800  0.895200  1.0  -0.4958
  O  O171  1  0.207900  0.604800  0.604800  1.0  -0.4956
  O  O172  1  0.292100  0.895200  0.604800  1.0  -0.495
  O  O173  1  0.895200  0.604800  0.292100  1.0  -0.4917
  O  O174  1  0.604800  0.604800  0.207900  1.0  -0.4915
  O  O175  1  0.604800  0.895200  0.292100  1.0  -0.4939
  O  O176  1  0.895200  0.895200  0.207900  1.0  -0.4902
  O  O177  1  0.604800  0.207900  0.604800  1.0  -0.49
  O  O178  1  0.604800  0.292100  0.895200  1.0  -0.4888
  O  O179  1  0.895200  0.207900  0.895200  1.0  -0.4876
  O  O180  1  0.895200  0.292100  0.604800  1.0  -0.4886
