# generated using pymatgen
data_Yb2Mn3H18C42(NO4)6
_symmetry_space_group_name_H-M   'P 1'
_cell_length_a   15.44000000
_cell_length_b   15.44000000
_cell_length_c   16.25400000
_cell_angle_alpha   90.00000000
_cell_angle_beta   90.00000000
_cell_angle_gamma   120.00000000
_symmetry_Int_Tables_number   1
_chemical_formula_structural   Yb2Mn3H18C42(NO4)6
_chemical_formula_sum   'Yb4 Mn6 H36 C84 N12 O48'
_cell_volume   3355.71816727
_cell_formula_units_Z   2
loop_
 _symmetry_equiv_pos_site_id
 _symmetry_equiv_pos_as_xyz
  1  'x, y, z'
loop_
 _atom_site_type_symbol
 _atom_site_label
 _atom_site_symmetry_multiplicity
 _atom_site_fract_x
 _atom_site_fract_y
 _atom_site_fract_z
 _atom_site_occupancy
 _atom_site_charge
  Yb  Yb1  1  0.666667  0.333333  0.750000  1.0  1.1963
  Yb  Yb2  1  0.333333  0.666667  0.750000  1.0  1.1963
  Yb  Yb3  1  0.333333  0.666667  0.250000  1.0  1.1963
  Yb  Yb4  1  0.666667  0.333333  0.250000  1.0  1.1963
  Mn  Mn5  1  0.500000  0.000000  0.000000  1.0  1.351
  Mn  Mn6  1  0.500000  0.500000  0.000000  1.0  1.351
  Mn  Mn7  1  0.000000  0.500000  0.000000  1.0  1.351
  Mn  Mn8  1  0.500000  0.000000  0.500000  1.0  1.351
  Mn  Mn9  1  0.000000  0.500000  0.500000  1.0  1.351
  Mn  Mn10  1  0.500000  0.500000  0.500000  1.0  1.351
  H  H11  1  0.291500  0.059500  0.843700  1.0  0.1347
  H  H12  1  0.768000  0.708500  0.843700  1.0  0.1349
  H  H13  1  0.940500  0.232000  0.843700  1.0  0.1348
  H  H14  1  0.708500  0.940500  0.843700  1.0  0.1342
  H  H15  1  0.232000  0.291500  0.843700  1.0  0.1349
  H  H16  1  0.059500  0.768000  0.843700  1.0  0.1349
  H  H17  1  0.232000  0.940500  0.656300  1.0  0.1343
  H  H18  1  0.059500  0.291500  0.656300  1.0  0.1348
  H  H19  1  0.708500  0.768000  0.656300  1.0  0.1349
  H  H20  1  0.768000  0.059500  0.656300  1.0  0.1343
  H  H21  1  0.940500  0.708500  0.656300  1.0  0.135
  H  H22  1  0.291500  0.232000  0.656300  1.0  0.1349
  H  H23  1  0.708500  0.940500  0.156300  1.0  0.1343
  H  H24  1  0.232000  0.291500  0.156300  1.0  0.1349
  H  H25  1  0.059500  0.768000  0.156300  1.0  0.135
  H  H26  1  0.291500  0.059500  0.156300  1.0  0.1343
  H  H27  1  0.768000  0.708500  0.156300  1.0  0.1351
  H  H28  1  0.940500  0.232000  0.156300  1.0  0.1346
  H  H29  1  0.768000  0.059500  0.343700  1.0  0.1343
  H  H30  1  0.940500  0.708500  0.343700  1.0  0.135
  H  H31  1  0.291500  0.232000  0.343700  1.0  0.1349
  H  H32  1  0.232000  0.940500  0.343700  1.0  0.1346
  H  H33  1  0.059500  0.291500  0.343700  1.0  0.1348
  H  H34  1  0.708500  0.768000  0.343700  1.0  0.1348
  H  H35  1  0.202800  0.101400  0.750000  1.0  0.1163
  H  H36  1  0.898600  0.797200  0.750000  1.0  0.1156
  H  H37  1  0.898600  0.101400  0.750000  1.0  0.116
  H  H38  1  0.797200  0.898600  0.750000  1.0  0.1159
  H  H39  1  0.101400  0.202800  0.750000  1.0  0.1139
  H  H40  1  0.101400  0.898600  0.750000  1.0  0.1161
  H  H41  1  0.797200  0.898600  0.250000  1.0  0.1159
  H  H42  1  0.101400  0.202800  0.250000  1.0  0.1139
  H  H43  1  0.101400  0.898600  0.250000  1.0  0.1161
  H  H44  1  0.202800  0.101400  0.250000  1.0  0.1163
  H  H45  1  0.898600  0.797200  0.250000  1.0  0.1156
  H  H46  1  0.898600  0.101400  0.250000  1.0  0.116
  C  C47  1  0.325200  0.110600  0.805700  1.0  -0.0725
  C  C48  1  0.428700  0.163100  0.802800  1.0  0.0975
  C  C49  1  0.495800  0.142600  0.860400  1.0  0.6618
  C  C50  1  0.785400  0.674800  0.805700  1.0  -0.0721
  C  C51  1  0.734400  0.571300  0.802800  1.0  0.0964
  C  C52  1  0.646800  0.504200  0.860400  1.0  0.6614
  C  C53  1  0.889400  0.214600  0.805700  1.0  -0.072
  C  C54  1  0.836900  0.265600  0.802800  1.0  0.0958
  C  C55  1  0.857400  0.353200  0.860400  1.0  0.6609
  C  C56  1  0.674800  0.889400  0.805700  1.0  -0.071
  C  C57  1  0.571300  0.836900  0.802800  1.0  0.097
  C  C58  1  0.504200  0.857400  0.860400  1.0  0.6615
  C  C59  1  0.214600  0.325200  0.805700  1.0  -0.0708
  C  C60  1  0.265600  0.428700  0.802800  1.0  0.0957
  C  C61  1  0.353200  0.495800  0.860400  1.0  0.6606
  C  C62  1  0.110600  0.785400  0.805700  1.0  -0.0731
  C  C63  1  0.163100  0.734400  0.802800  1.0  0.0964
  C  C64  1  0.142600  0.646800  0.860400  1.0  0.6616
  C  C65  1  0.214600  0.889400  0.694300  1.0  -0.0648
  C  C66  1  0.265600  0.836900  0.697200  1.0  0.0966
  C  C67  1  0.353200  0.857400  0.639600  1.0  0.6623
  C  C68  1  0.110600  0.325200  0.694300  1.0  -0.0638
  C  C69  1  0.163100  0.428700  0.697200  1.0  0.096
  C  C70  1  0.142600  0.495800  0.639600  1.0  0.6626
  C  C71  1  0.674800  0.785400  0.694300  1.0  -0.0659
  C  C72  1  0.571300  0.734400  0.697200  1.0  0.0951
  C  C73  1  0.504200  0.646800  0.639600  1.0  0.6629
  C  C74  1  0.785400  0.110600  0.694300  1.0  -0.0649
  C  C75  1  0.734400  0.163100  0.697200  1.0  0.0964
  C  C76  1  0.646800  0.142600  0.639600  1.0  0.6637
  C  C77  1  0.889400  0.674800  0.694300  1.0  -0.065
  C  C78  1  0.836900  0.571300  0.697200  1.0  0.095
  C  C79  1  0.857400  0.504200  0.639600  1.0  0.6616
  C  C80  1  0.325200  0.214600  0.694300  1.0  -0.0659
  C  C81  1  0.428700  0.265600  0.697200  1.0  0.096
  C  C82  1  0.495800  0.353200  0.639600  1.0  0.6626
  C  C83  1  0.674800  0.889400  0.194300  1.0  -0.0711
  C  C84  1  0.571300  0.836900  0.197200  1.0  0.0967
  C  C85  1  0.504200  0.857400  0.139600  1.0  0.6633
  C  C86  1  0.214600  0.325200  0.194300  1.0  -0.0705
  C  C87  1  0.265600  0.428700  0.197200  1.0  0.0958
  C  C88  1  0.353200  0.495800  0.139600  1.0  0.6617
  C  C89  1  0.110600  0.785400  0.194300  1.0  -0.0716
  C  C90  1  0.163100  0.734400  0.197200  1.0  0.096
  C  C91  1  0.142600  0.646800  0.139600  1.0  0.6627
  C  C92  1  0.325200  0.110600  0.194300  1.0  -0.0708
  C  C93  1  0.428700  0.163100  0.197200  1.0  0.0973
  C  C94  1  0.495800  0.142600  0.139600  1.0  0.6626
  C  C95  1  0.785400  0.674800  0.194300  1.0  -0.0707
  C  C96  1  0.734400  0.571300  0.197200  1.0  0.0957
  C  C97  1  0.646800  0.504200  0.139600  1.0  0.6627
  C  C98  1  0.889400  0.214600  0.194300  1.0  -0.0724
  C  C99  1  0.836900  0.265600  0.197200  1.0  0.0959
  C  C100  1  0.857400  0.353200  0.139600  1.0  0.6628
  C  C101  1  0.785400  0.110600  0.305700  1.0  -0.0653
  C  C102  1  0.734400  0.163100  0.302800  1.0  0.0966
  C  C103  1  0.646800  0.142600  0.360400  1.0  0.6617
  C  C104  1  0.889400  0.674800  0.305700  1.0  -0.0652
  C  C105  1  0.836900  0.571300  0.302800  1.0  0.0955
  C  C106  1  0.857400  0.504200  0.360400  1.0  0.661
  C  C107  1  0.325200  0.214600  0.305700  1.0  -0.0674
  C  C108  1  0.428700  0.265600  0.302800  1.0  0.0957
  C  C109  1  0.495800  0.353200  0.360400  1.0  0.6607
  C  C110  1  0.214600  0.889400  0.305700  1.0  -0.0661
  C  C111  1  0.265600  0.836900  0.302800  1.0  0.0969
  C  C112  1  0.353200  0.857400  0.360400  1.0  0.6616
  C  C113  1  0.110600  0.325200  0.305700  1.0  -0.0652
  C  C114  1  0.163100  0.428700  0.302800  1.0  0.0958
  C  C115  1  0.142600  0.495800  0.360400  1.0  0.6608
  C  C116  1  0.674800  0.785400  0.305700  1.0  -0.0658
  C  C117  1  0.571300  0.734400  0.302800  1.0  0.0957
  C  C118  1  0.504200  0.646800  0.360400  1.0  0.6617
  C  C119  1  0.272300  0.136150  0.750000  1.0  -0.065
  C  C120  1  0.863850  0.727700  0.750000  1.0  -0.0608
  C  C121  1  0.863850  0.136150  0.750000  1.0  -0.0656
  C  C122  1  0.727700  0.863850  0.750000  1.0  -0.0658
  C  C123  1  0.136150  0.272300  0.750000  1.0  -0.0594
  C  C124  1  0.136150  0.863850  0.750000  1.0  -0.0651
  C  C125  1  0.727700  0.863850  0.250000  1.0  -0.0658
  C  C126  1  0.136150  0.272300  0.250000  1.0  -0.0594
  C  C127  1  0.136150  0.863850  0.250000  1.0  -0.0651
  C  C128  1  0.272300  0.136150  0.250000  1.0  -0.065
  C  C129  1  0.863850  0.727700  0.250000  1.0  -0.0608
  C  C130  1  0.863850  0.136150  0.250000  1.0  -0.0656
  N  N131  1  0.481000  0.240500  0.750000  1.0  -0.3527
  N  N132  1  0.759500  0.519000  0.750000  1.0  -0.353
  N  N133  1  0.759500  0.240500  0.750000  1.0  -0.3519
  N  N134  1  0.519000  0.759500  0.750000  1.0  -0.352
  N  N135  1  0.240500  0.481000  0.750000  1.0  -0.3539
  N  N136  1  0.240500  0.759500  0.750000  1.0  -0.3527
  N  N137  1  0.519000  0.759500  0.250000  1.0  -0.352
  N  N138  1  0.240500  0.481000  0.250000  1.0  -0.3539
  N  N139  1  0.240500  0.759500  0.250000  1.0  -0.3527
  N  N140  1  0.481000  0.240500  0.250000  1.0  -0.3527
  N  N141  1  0.759500  0.519000  0.250000  1.0  -0.353
  N  N142  1  0.759500  0.240500  0.250000  1.0  -0.3519
  O  O143  1  0.591300  0.201700  0.854100  1.0  -0.5941
  O  O144  1  0.451000  0.067500  0.907300  1.0  -0.6167
  O  O145  1  0.610400  0.408700  0.854100  1.0  -0.5922
  O  O146  1  0.616500  0.549000  0.907300  1.0  -0.6179
  O  O147  1  0.798300  0.389600  0.854100  1.0  -0.5925
  O  O148  1  0.932500  0.383500  0.907300  1.0  -0.6184
  O  O149  1  0.408700  0.798300  0.854100  1.0  -0.5934
  O  O150  1  0.549000  0.932500  0.907300  1.0  -0.6159
  O  O151  1  0.389600  0.591300  0.854100  1.0  -0.5926
  O  O152  1  0.383500  0.451000  0.907300  1.0  -0.6183
  O  O153  1  0.201700  0.610400  0.854100  1.0  -0.5925
  O  O154  1  0.067500  0.616500  0.907300  1.0  -0.6184
  O  O155  1  0.389600  0.798300  0.645900  1.0  -0.5941
  O  O156  1  0.383500  0.932500  0.592700  1.0  -0.6175
  O  O157  1  0.201700  0.591300  0.645900  1.0  -0.5914
  O  O158  1  0.067500  0.451000  0.592700  1.0  -0.6189
  O  O159  1  0.408700  0.610400  0.645900  1.0  -0.5923
  O  O160  1  0.549000  0.616500  0.592700  1.0  -0.6197
  O  O161  1  0.610400  0.201700  0.645900  1.0  -0.5924
  O  O162  1  0.616500  0.067500  0.592700  1.0  -0.6177
  O  O163  1  0.798300  0.408700  0.645900  1.0  -0.5922
  O  O164  1  0.932500  0.549000  0.592700  1.0  -0.6195
  O  O165  1  0.591300  0.389600  0.645900  1.0  -0.5918
  O  O166  1  0.451000  0.383500  0.592700  1.0  -0.6194
  O  O167  1  0.408700  0.798300  0.145900  1.0  -0.5929
  O  O168  1  0.549000  0.932500  0.092700  1.0  -0.6179
  O  O169  1  0.389600  0.591300  0.145900  1.0  -0.5919
  O  O170  1  0.383500  0.451000  0.092700  1.0  -0.6198
  O  O171  1  0.201700  0.610400  0.145900  1.0  -0.5924
  O  O172  1  0.067500  0.616500  0.092700  1.0  -0.6196
  O  O173  1  0.591300  0.201700  0.145900  1.0  -0.5936
  O  O174  1  0.451000  0.067500  0.092700  1.0  -0.6182
  O  O175  1  0.610400  0.408700  0.145900  1.0  -0.5918
  O  O176  1  0.616500  0.549000  0.092700  1.0  -0.62
  O  O177  1  0.798300  0.389600  0.145900  1.0  -0.5917
  O  O178  1  0.932500  0.383500  0.092700  1.0  -0.6202
  O  O179  1  0.610400  0.201700  0.354100  1.0  -0.5933
  O  O180  1  0.616500  0.067500  0.407300  1.0  -0.6173
  O  O181  1  0.798300  0.408700  0.354100  1.0  -0.5923
  O  O182  1  0.932500  0.549000  0.407300  1.0  -0.6186
  O  O183  1  0.591300  0.389600  0.354100  1.0  -0.5927
  O  O184  1  0.451000  0.383500  0.407300  1.0  -0.6186
  O  O185  1  0.389600  0.798300  0.354100  1.0  -0.5945
  O  O186  1  0.383500  0.932500  0.407300  1.0  -0.6163
  O  O187  1  0.201700  0.591300  0.354100  1.0  -0.5926
  O  O188  1  0.067500  0.451000  0.407300  1.0  -0.6183
  O  O189  1  0.408700  0.610400  0.354100  1.0  -0.5923
  O  O190  1  0.549000  0.616500  0.407300  1.0  -0.6194
