# generated using pymatgen
data_CuC8(N2O)2
_symmetry_space_group_name_H-M   'P 1'
_cell_length_a   15.64750000
_cell_length_b   15.64750000
_cell_length_c   15.64750000
_cell_angle_alpha   90.00000000
_cell_angle_beta   90.00000000
_cell_angle_gamma   90.00000000
_symmetry_Int_Tables_number   1
_chemical_formula_structural   CuC8(N2O)2
_chemical_formula_sum   'Cu12 C96 N48 O24'
_cell_volume   3831.20049967
_cell_formula_units_Z   12
loop_
 _symmetry_equiv_pos_site_id
 _symmetry_equiv_pos_as_xyz
  1  'x, y, z'
loop_
 _atom_site_type_symbol
 _atom_site_label
 _atom_site_symmetry_multiplicity
 _atom_site_fract_x
 _atom_site_fract_y
 _atom_site_fract_z
 _atom_site_occupancy
 _atom_site_charge
  Cu  Cu1  1  0.500000  0.750000  0.250000  1.0  0.7755
  Cu  Cu2  1  0.000000  0.750000  0.250000  1.0  0.7755
  Cu  Cu3  1  0.250000  0.500000  0.750000  1.0  0.7755
  Cu  Cu4  1  0.250000  0.000000  0.750000  1.0  0.7755
  Cu  Cu5  1  0.750000  0.250000  0.500000  1.0  0.7755
  Cu  Cu6  1  0.750000  0.250000  0.000000  1.0  0.7755
  Cu  Cu7  1  0.500000  0.250000  0.750000  1.0  0.7755
  Cu  Cu8  1  0.000000  0.250000  0.750000  1.0  0.7755
  Cu  Cu9  1  0.750000  0.500000  0.250000  1.0  0.7755
  Cu  Cu10  1  0.750000  0.000000  0.250000  1.0  0.7755
  Cu  Cu11  1  0.250000  0.750000  0.500000  1.0  0.7755
  Cu  Cu12  1  0.250000  0.750000  0.000000  1.0  0.7755
  C  C13  1  0.389900  0.902600  0.215900  1.0  0.11
  C  C14  1  0.110100  0.597400  0.215900  1.0  0.1075
  C  C15  1  0.110100  0.902600  0.284100  1.0  0.1093
  C  C16  1  0.389900  0.597400  0.284100  1.0  0.1106
  C  C17  1  0.215900  0.389900  0.902600  1.0  0.112
  C  C18  1  0.215900  0.110100  0.597400  1.0  0.1103
  C  C19  1  0.284100  0.110100  0.902600  1.0  0.1119
  C  C20  1  0.284100  0.389900  0.597400  1.0  0.1138
  C  C21  1  0.902600  0.215900  0.389900  1.0  0.1103
  C  C22  1  0.597400  0.215900  0.110100  1.0  0.1114
  C  C23  1  0.902600  0.284100  0.110100  1.0  0.1119
  C  C24  1  0.597400  0.284100  0.389900  1.0  0.111
  C  C25  1  0.402600  0.889900  0.784100  1.0  0.1101
  C  C26  1  0.097400  0.610100  0.784100  1.0  0.1099
  C  C27  1  0.402600  0.610100  0.715900  1.0  0.1083
  C  C28  1  0.097400  0.889900  0.715900  1.0  0.1094
  C  C29  1  0.889900  0.715900  0.097400  1.0  0.1119
  C  C30  1  0.610100  0.715900  0.402600  1.0  0.1139
  C  C31  1  0.610100  0.784100  0.097400  1.0  0.1137
  C  C32  1  0.889900  0.784100  0.402600  1.0  0.1127
  C  C33  1  0.715900  0.402600  0.610100  1.0  0.1092
  C  C34  1  0.715900  0.097400  0.889900  1.0  0.1091
  C  C35  1  0.784100  0.402600  0.889900  1.0  0.1105
  C  C36  1  0.784100  0.097400  0.610100  1.0  0.1104
  C  C37  1  0.610100  0.097400  0.784100  1.0  0.1101
  C  C38  1  0.889900  0.402600  0.784100  1.0  0.1092
  C  C39  1  0.889900  0.097400  0.715900  1.0  0.1084
  C  C40  1  0.610100  0.402600  0.715900  1.0  0.1094
  C  C41  1  0.784100  0.610100  0.097400  1.0  0.113
  C  C42  1  0.784100  0.889900  0.402600  1.0  0.1132
  C  C43  1  0.715900  0.889900  0.097400  1.0  0.1102
  C  C44  1  0.715900  0.610100  0.402600  1.0  0.1109
  C  C45  1  0.097400  0.784100  0.610100  1.0  0.1115
  C  C46  1  0.402600  0.784100  0.889900  1.0  0.1108
  C  C47  1  0.097400  0.715900  0.889900  1.0  0.111
  C  C48  1  0.402600  0.715900  0.610100  1.0  0.1113
  C  C49  1  0.597400  0.110100  0.215900  1.0  0.1089
  C  C50  1  0.902600  0.389900  0.215900  1.0  0.1082
  C  C51  1  0.597400  0.389900  0.284100  1.0  0.111
  C  C52  1  0.902600  0.110100  0.284100  1.0  0.11
  C  C53  1  0.110100  0.284100  0.902600  1.0  0.1116
  C  C54  1  0.389900  0.284100  0.597400  1.0  0.1138
  C  C55  1  0.389900  0.215900  0.902600  1.0  0.1144
  C  C56  1  0.110100  0.215900  0.597400  1.0  0.1119
  C  C57  1  0.284100  0.597400  0.389900  1.0  0.1094
  C  C58  1  0.284100  0.902600  0.110100  1.0  0.1107
  C  C59  1  0.215900  0.597400  0.110100  1.0  0.1098
  C  C60  1  0.215900  0.902600  0.389900  1.0  0.1089
  C  C61  1  0.372100  0.782900  0.127900  1.0  0.5938
  C  C62  1  0.326900  0.947100  0.173100  1.0  -0.0238
  C  C63  1  0.127900  0.717100  0.127900  1.0  0.5932
  C  C64  1  0.173100  0.552900  0.173100  1.0  -0.0254
  C  C65  1  0.127900  0.782900  0.372100  1.0  0.5935
  C  C66  1  0.173100  0.947100  0.326900  1.0  -0.0248
  C  C67  1  0.372100  0.717100  0.372100  1.0  0.5946
  C  C68  1  0.326900  0.552900  0.326900  1.0  -0.024
  C  C69  1  0.127900  0.372100  0.782900  1.0  0.597
  C  C70  1  0.173100  0.326900  0.947100  1.0  -0.0357
  C  C71  1  0.127900  0.127900  0.717100  1.0  0.5968
  C  C72  1  0.173100  0.173100  0.552900  1.0  -0.0366
  C  C73  1  0.372100  0.127900  0.782900  1.0  0.5974
  C  C74  1  0.326900  0.173100  0.947100  1.0  -0.0346
  C  C75  1  0.372100  0.372100  0.717100  1.0  0.5976
  C  C76  1  0.326900  0.326900  0.552900  1.0  -0.0355
  C  C77  1  0.782900  0.127900  0.372100  1.0  0.5953
  C  C78  1  0.947100  0.173100  0.326900  1.0  -0.0264
  C  C79  1  0.717100  0.127900  0.127900  1.0  0.5952
  C  C80  1  0.552900  0.173100  0.173100  1.0  -0.0308
  C  C81  1  0.782900  0.372100  0.127900  1.0  0.5951
  C  C82  1  0.947100  0.326900  0.173100  1.0  -0.0271
  C  C83  1  0.717100  0.372100  0.372100  1.0  0.596
  C  C84  1  0.552900  0.326900  0.326900  1.0  -0.0316
  C  C85  1  0.282900  0.872100  0.872100  1.0  0.5953
  C  C86  1  0.447100  0.826900  0.826900  1.0  -0.0268
  C  C87  1  0.217100  0.627900  0.872100  1.0  0.596
  C  C88  1  0.052900  0.673100  0.826900  1.0  -0.0304
  C  C89  1  0.282900  0.627900  0.627900  1.0  0.5949
  C  C90  1  0.447100  0.673100  0.673100  1.0  -0.027
  C  C91  1  0.217100  0.872100  0.627900  1.0  0.5954
  C  C92  1  0.052900  0.826900  0.673100  1.0  -0.0319
  C  C93  1  0.872100  0.627900  0.217100  1.0  0.598
  C  C94  1  0.826900  0.673100  0.052900  1.0  -0.0355
  C  C95  1  0.627900  0.627900  0.282900  1.0  0.5965
  C  C96  1  0.673100  0.673100  0.447100  1.0  -0.0351
  C  C97  1  0.627900  0.872100  0.217100  1.0  0.5967
  C  C98  1  0.673100  0.826900  0.052900  1.0  -0.0363
  C  C99  1  0.872100  0.872100  0.282900  1.0  0.5975
  C  C100  1  0.826900  0.826900  0.447100  1.0  -0.0352
  C  C101  1  0.627900  0.282900  0.627900  1.0  0.5929
  C  C102  1  0.673100  0.447100  0.673100  1.0  -0.0255
  C  C103  1  0.627900  0.217100  0.872100  1.0  0.5937
  C  C104  1  0.673100  0.052900  0.826900  1.0  -0.0246
  C  C105  1  0.872100  0.282900  0.872100  1.0  0.5944
  C  C106  1  0.826900  0.447100  0.826900  1.0  -0.0232
  C  C107  1  0.872100  0.217100  0.627900  1.0  0.594
  C  C108  1  0.826900  0.052900  0.673100  1.0  -0.0249
  N  N109  1  0.411590  0.822470  0.195200  1.0  -0.3055
  N  N110  1  0.088410  0.677530  0.195200  1.0  -0.3049
  N  N111  1  0.088410  0.822470  0.304800  1.0  -0.3049
  N  N112  1  0.411590  0.677530  0.304800  1.0  -0.3054
  N  N113  1  0.195200  0.411590  0.822470  1.0  -0.3048
  N  N114  1  0.195200  0.088410  0.677530  1.0  -0.3043
  N  N115  1  0.304800  0.088410  0.822470  1.0  -0.3043
  N  N116  1  0.304800  0.411590  0.677530  1.0  -0.3038
  N  N117  1  0.822470  0.195200  0.411590  1.0  -0.3054
  N  N118  1  0.677530  0.195200  0.088410  1.0  -0.3061
  N  N119  1  0.822470  0.304800  0.088410  1.0  -0.3061
  N  N120  1  0.677530  0.304800  0.411590  1.0  -0.3058
  N  N121  1  0.322470  0.911590  0.804800  1.0  -0.3052
  N  N122  1  0.177530  0.588410  0.804800  1.0  -0.3061
  N  N123  1  0.322470  0.588410  0.695200  1.0  -0.3053
  N  N124  1  0.177530  0.911590  0.695200  1.0  -0.3057
  N  N125  1  0.911590  0.695200  0.177530  1.0  -0.3061
  N  N126  1  0.588410  0.695200  0.322470  1.0  -0.306
  N  N127  1  0.588410  0.804800  0.177530  1.0  -0.3059
  N  N128  1  0.911590  0.804800  0.322470  1.0  -0.3062
  N  N129  1  0.695200  0.322470  0.588410  1.0  -0.3046
  N  N130  1  0.695200  0.177530  0.911590  1.0  -0.3036
  N  N131  1  0.804800  0.322470  0.911590  1.0  -0.3032
  N  N132  1  0.804800  0.177530  0.588410  1.0  -0.3042
  N  N133  1  0.588410  0.177530  0.804800  1.0  -0.305
  N  N134  1  0.911590  0.322470  0.804800  1.0  -0.3056
  N  N135  1  0.911590  0.177530  0.695200  1.0  -0.3052
  N  N136  1  0.588410  0.322470  0.695200  1.0  -0.3049
  N  N137  1  0.804800  0.588410  0.177530  1.0  -0.3038
  N  N138  1  0.804800  0.911590  0.322470  1.0  -0.3044
  N  N139  1  0.695200  0.911590  0.177530  1.0  -0.3043
  N  N140  1  0.695200  0.588410  0.322470  1.0  -0.3046
  N  N141  1  0.177530  0.804800  0.588410  1.0  -0.3067
  N  N142  1  0.322470  0.804800  0.911590  1.0  -0.3053
  N  N143  1  0.177530  0.695200  0.911590  1.0  -0.3058
  N  N144  1  0.322470  0.695200  0.588410  1.0  -0.3059
  N  N145  1  0.677530  0.088410  0.195200  1.0  -0.3057
  N  N146  1  0.822470  0.411590  0.195200  1.0  -0.3054
  N  N147  1  0.677530  0.411590  0.304800  1.0  -0.3054
  N  N148  1  0.822470  0.088410  0.304800  1.0  -0.3057
  N  N149  1  0.088410  0.304800  0.822470  1.0  -0.3062
  N  N150  1  0.411590  0.304800  0.677530  1.0  -0.3061
  N  N151  1  0.411590  0.195200  0.822470  1.0  -0.3062
  N  N152  1  0.088410  0.195200  0.677530  1.0  -0.3055
  N  N153  1  0.304800  0.677530  0.411590  1.0  -0.3033
  N  N154  1  0.304800  0.822470  0.088410  1.0  -0.304
  N  N155  1  0.195200  0.677530  0.088410  1.0  -0.3046
  N  N156  1  0.195200  0.822470  0.411590  1.0  -0.3039
  O  O157  1  0.396200  0.712300  0.103800  1.0  -0.5622
  O  O158  1  0.103800  0.787700  0.103800  1.0  -0.5623
  O  O159  1  0.103800  0.712300  0.396200  1.0  -0.5607
  O  O160  1  0.396200  0.787700  0.396200  1.0  -0.5603
  O  O161  1  0.103800  0.396200  0.712300  1.0  -0.5671
  O  O162  1  0.103800  0.103800  0.787700  1.0  -0.5661
  O  O163  1  0.396200  0.103800  0.712300  1.0  -0.5671
  O  O164  1  0.396200  0.396200  0.787700  1.0  -0.5656
  O  O165  1  0.712300  0.103800  0.396200  1.0  -0.5655
  O  O166  1  0.787700  0.103800  0.103800  1.0  -0.5673
  O  O167  1  0.712300  0.396200  0.103800  1.0  -0.5659
  O  O168  1  0.787700  0.396200  0.396200  1.0  -0.5663
  O  O169  1  0.212300  0.896200  0.896200  1.0  -0.5651
  O  O170  1  0.287700  0.603800  0.896200  1.0  -0.5671
  O  O171  1  0.212300  0.603800  0.603800  1.0  -0.5665
  O  O172  1  0.287700  0.896200  0.603800  1.0  -0.5664
  O  O173  1  0.896200  0.603800  0.287700  1.0  -0.5656
  O  O174  1  0.603800  0.603800  0.212300  1.0  -0.5674
  O  O175  1  0.603800  0.896200  0.287700  1.0  -0.5668
  O  O176  1  0.896200  0.896200  0.212300  1.0  -0.5666
  O  O177  1  0.603800  0.212300  0.603800  1.0  -0.5624
  O  O178  1  0.603800  0.287700  0.896200  1.0  -0.5608
  O  O179  1  0.896200  0.212300  0.896200  1.0  -0.561
  O  O180  1  0.896200  0.287700  0.603800  1.0  -0.5616
