# generated using pymatgen
data_NaPH9C4SNCl
_symmetry_space_group_name_H-M   'P 1'
_cell_length_a   12.72100000
_cell_length_b   12.85500000
_cell_length_c   17.45400000
_cell_angle_alpha   106.42600000
_cell_angle_beta   102.72400000
_cell_angle_gamma   99.86200000
_symmetry_Int_Tables_number   1
_chemical_formula_structural   NaPH9C4SNCl
_chemical_formula_sum   'Na8 P8 H72 C32 S8 N8 Cl8'
_cell_volume   2585.95781123
_cell_formula_units_Z   8
loop_
 _symmetry_equiv_pos_site_id
 _symmetry_equiv_pos_as_xyz
  1  'x, y, z'
loop_
 _atom_site_type_symbol
 _atom_site_label
 _atom_site_symmetry_multiplicity
 _atom_site_fract_x
 _atom_site_fract_y
 _atom_site_fract_z
 _atom_site_occupancy
 _atom_site_charge
  Na  Na1  1  0.152590  0.318540  0.778700  1.0  0.8559
  Na  Na2  1  0.254760  0.019600  0.506340  1.0  0.8599
  Na  Na3  1  0.533770  0.251300  0.990400  1.0  0.8656
  Na  Na4  1  0.526860  0.842300  0.717200  1.0  0.882
  Na  Na5  1  0.847410  0.681460  0.221300  1.0  0.8566
  Na  Na6  1  0.745240  0.980400  0.493660  1.0  0.8605
  Na  Na7  1  0.466230  0.748700  0.009600  1.0  0.8669
  Na  Na8  1  0.473140  0.157700  0.282800  1.0  0.8799
  P  P9  1  0.410970  0.454320  0.940060  1.0  1.1397
  P  P10  1  0.028710  0.070910  0.573870  1.0  1.1592
  P  P11  1  0.514290  0.964290  0.927860  1.0  1.1532
  P  P12  1  0.501660  0.064270  0.456370  1.0  1.1435
  P  P13  1  0.589030  0.545680  0.059940  1.0  1.132
  P  P14  1  0.971290  0.929090  0.426130  1.0  1.1442
  P  P15  1  0.485710  0.035710  0.072140  1.0  1.1488
  P  P16  1  0.498340  0.935730  0.543630  1.0  1.1435
  H  H17  1  0.896000  0.737100  0.593100  1.0  0.0544
  H  H18  1  0.843800  0.761500  0.509800  1.0  0.0599
  H  H19  1  0.871200  0.856500  0.598600  1.0  0.0612
  H  H20  1  0.073900  0.942500  0.683100  1.0  0.0514
  H  H21  1  0.169900  0.909100  0.642800  1.0  0.0559
  H  H22  1  0.095900  0.820800  0.670700  1.0  0.047
  H  H23  1  0.416500  0.494200  0.228500  1.0  0.0491
  H  H24  1  0.522600  0.558600  0.210300  1.0  0.0601
  H  H25  1  0.488400  0.424600  0.179400  1.0  0.0576
  H  H26  1  0.043300  0.679500  0.524900  1.0  0.0481
  H  H27  1  0.123400  0.769700  0.502600  1.0  0.0515
  H  H28  1  0.996600  0.717900  0.447200  1.0  0.0614
  H  H29  1  0.317800  0.319000  0.063300  1.0  0.0644
  H  H30  1  0.243900  0.384600  0.017300  1.0  0.0591
  H  H31  1  0.243800  0.388700  0.109800  1.0  0.0483
  H  H32  1  0.296100  0.597000  0.159000  1.0  0.0405
  H  H33  1  0.294900  0.594300  0.066600  1.0  0.058
  H  H34  1  0.403400  0.662400  0.142900  1.0  0.055
  H  H35  1  0.743900  0.163900  0.018600  1.0  0.0666
  H  H36  1  0.734500  0.208600  0.111600  1.0  0.0635
  H  H37  1  0.844600  0.173500  0.095700  1.0  0.0503
  H  H38  1  0.843600  0.975600  0.034000  1.0  0.0538
  H  H39  1  0.734200  0.877700  0.012000  1.0  0.0618
  H  H40  1  0.740700  0.955500  0.955200  1.0  0.0648
  H  H41  1  0.700300  0.076200  0.187600  1.0  0.0379
  H  H42  1  0.705600  0.949000  0.149700  1.0  0.0545
  H  H43  1  0.816200  0.048100  0.180000  1.0  0.0463
  H  H44  1  0.400400  0.709500  0.426100  1.0  0.0603
  H  H45  1  0.289300  0.750800  0.404300  1.0  0.0611
  H  H46  1  0.320600  0.663500  0.332600  1.0  0.0525
  H  H47  1  0.490000  0.730600  0.286100  1.0  0.0458
  H  H48  1  0.558500  0.859000  0.327900  1.0  0.0576
  H  H49  1  0.563700  0.776500  0.381400  1.0  0.0519
  H  H50  1  0.278500  0.876900  0.315500  1.0  0.057
  H  H51  1  0.382900  0.913000  0.283200  1.0  0.0574
  H  H52  1  0.310600  0.785800  0.246800  1.0  0.0548
  H  H53  1  0.104000  0.262900  0.406900  1.0  0.0533
  H  H54  1  0.156200  0.238500  0.490200  1.0  0.062
  H  H55  1  0.128800  0.143500  0.401400  1.0  0.0613
  H  H56  1  0.926100  0.057500  0.316900  1.0  0.051
  H  H57  1  0.830100  0.090900  0.357200  1.0  0.0584
  H  H58  1  0.904100  0.179200  0.329300  1.0  0.0469
  H  H59  1  0.583500  0.505800  0.771500  1.0  0.049
  H  H60  1  0.477400  0.441400  0.789700  1.0  0.0598
  H  H61  1  0.511600  0.575400  0.820600  1.0  0.0583
  H  H62  1  0.956700  0.320500  0.475100  1.0  0.0469
  H  H63  1  0.876600  0.230300  0.497400  1.0  0.0557
  H  H64  1  0.003400  0.282100  0.552800  1.0  0.063
  H  H65  1  0.682200  0.681000  0.936700  1.0  0.0657
  H  H66  1  0.756100  0.615400  0.982700  1.0  0.0588
  H  H67  1  0.756200  0.611300  0.890200  1.0  0.0482
  H  H68  1  0.703900  0.403000  0.841000  1.0  0.0414
  H  H69  1  0.705100  0.405700  0.933400  1.0  0.0586
  H  H70  1  0.596600  0.337600  0.857100  1.0  0.0568
  H  H71  1  0.256100  0.836100  0.981400  1.0  0.0663
  H  H72  1  0.265500  0.791400  0.888400  1.0  0.0624
  H  H73  1  0.155400  0.826500  0.904300  1.0  0.0507
  H  H74  1  0.156400  0.024400  0.966000  1.0  0.0524
  H  H75  1  0.265800  0.122300  0.988000  1.0  0.0615
  H  H76  1  0.259300  0.044500  0.044800  1.0  0.0644
  H  H77  1  0.299700  0.923800  0.812400  1.0  0.0378
  H  H78  1  0.294400  0.051000  0.850300  1.0  0.0545
  H  H79  1  0.183800  0.951900  0.820000  1.0  0.0447
  H  H80  1  0.599600  0.290500  0.573900  1.0  0.0601
  H  H81  1  0.710700  0.249200  0.595700  1.0  0.0619
  H  H82  1  0.679400  0.336500  0.667400  1.0  0.0534
  H  H83  1  0.510000  0.269400  0.713900  1.0  0.0437
  H  H84  1  0.441500  0.141000  0.672100  1.0  0.058
  H  H85  1  0.436300  0.223500  0.618600  1.0  0.0519
  H  H86  1  0.721500  0.123100  0.684500  1.0  0.0602
  H  H87  1  0.617100  0.087000  0.716800  1.0  0.0577
  H  H88  1  0.689400  0.214200  0.753200  1.0  0.0551
  C  C89  1  0.386400  0.489700  0.106500  1.0  0.1354
  C  C90  1  0.895300  0.794300  0.566100  1.0  -0.4124
  C  C91  1  0.095400  0.881400  0.647000  1.0  -0.4339
  C  C92  1  0.460000  0.492000  0.188400  1.0  -0.4335
  C  C93  1  0.047100  0.742600  0.503700  1.0  -0.4115
  C  C94  1  0.012600  0.837600  0.560900  1.0  0.1349
  C  C95  1  0.289400  0.386300  0.071100  1.0  -0.4282
  C  C96  1  0.341100  0.595600  0.120000  1.0  -0.4325
  C  C97  1  0.763500  0.156400  0.074000  1.0  -0.4153
  C  C98  1  0.712400  0.035700  0.067700  1.0  0.1365
  C  C99  1  0.762300  0.953700  0.012200  1.0  -0.4146
  C  C100  1  0.735700  0.026400  0.153800  1.0  -0.4429
  C  C101  1  0.415600  0.826100  0.365000  1.0  0.1497
  C  C102  1  0.350600  0.728600  0.383700  1.0  -0.4432
  C  C103  1  0.516000  0.795300  0.337600  1.0  -0.4429
  C  C104  1  0.340200  0.852800  0.296600  1.0  -0.431
  C  C105  1  0.613600  0.510300  0.893500  1.0  0.1367
  C  C106  1  0.104700  0.205700  0.433900  1.0  -0.4137
  C  C107  1  0.904600  0.118600  0.353000  1.0  -0.4331
  C  C108  1  0.540000  0.508000  0.811600  1.0  -0.4336
  C  C109  1  0.952900  0.257400  0.496300  1.0  -0.4128
  C  C110  1  0.987400  0.162400  0.439100  1.0  0.1333
  C  C111  1  0.710600  0.613700  0.928900  1.0  -0.4278
  C  C112  1  0.658900  0.404400  0.880000  1.0  -0.4328
  C  C113  1  0.236500  0.843600  0.926000  1.0  -0.4152
  C  C114  1  0.287600  0.964300  0.932300  1.0  0.1352
  C  C115  1  0.237700  0.046300  0.987800  1.0  -0.4153
  C  C116  1  0.264300  0.973600  0.846200  1.0  -0.4458
  C  C117  1  0.584400  0.173900  0.635000  1.0  0.1508
  C  C118  1  0.649400  0.271400  0.616300  1.0  -0.4432
  C  C119  1  0.484000  0.204700  0.662400  1.0  -0.4443
  C  C120  1  0.659800  0.147200  0.703400  1.0  -0.4302
  S  S121  1  0.364260  0.291590  0.875260  1.0  -0.3421
  S  S122  1  0.923150  0.101550  0.640600  1.0  -0.4332
  S  S123  1  0.488060  0.802070  0.866460  1.0  -0.3734
  S  S124  1  0.384210  0.143560  0.432770  1.0  -0.4253
  S  S125  1  0.635740  0.708410  0.124740  1.0  -0.3434
  S  S126  1  0.076850  0.898450  0.359400  1.0  -0.4305
  S  S127  1  0.511940  0.197930  0.133540  1.0  -0.3754
  S  S128  1  0.615790  0.856440  0.567230  1.0  -0.4243
  N  N129  1  0.018800  0.932900  0.526600  1.0  -0.5393
  N  N130  1  0.453100  0.484700  0.045100  1.0  -0.5305
  N  N131  1  0.588800  0.003500  0.029700  1.0  -0.535
  N  N132  1  0.452300  0.925700  0.442400  1.0  -0.5335
  N  N133  1  0.981200  0.067100  0.473400  1.0  -0.5396
  N  N134  1  0.546900  0.515300  0.954900  1.0  -0.5287
  N  N135  1  0.411200  0.996500  0.970300  1.0  -0.5356
  N  N136  1  0.547700  0.074300  0.557600  1.0  -0.5327
  Cl  Cl137  1  0.306250  0.539380  0.901780  1.0  -0.4082
  Cl  Cl138  1  0.183880  0.160490  0.632810  1.0  -0.4671
  Cl  Cl139  1  0.563500  0.062530  0.866740  1.0  -0.4256
  Cl  Cl140  1  0.623260  0.096010  0.405170  1.0  -0.431
  Cl  Cl141  1  0.693750  0.460620  0.098220  1.0  -0.4022
  Cl  Cl142  1  0.816120  0.839510  0.367190  1.0  -0.4724
  Cl  Cl143  1  0.436500  0.937470  0.133260  1.0  -0.4251
  Cl  Cl144  1  0.376740  0.903990  0.594830  1.0  -0.4323
