# generated using pymatgen
data_Ba2Zr(CO2)8
_symmetry_space_group_name_H-M   'P 1'
_cell_length_a   9.20100000
_cell_length_b   9.20790000
_cell_length_c   15.32550000
_cell_angle_alpha   99.87000000
_cell_angle_beta   99.85130000
_cell_angle_gamma   115.45000000
_symmetry_Int_Tables_number   1
_chemical_formula_structural   Ba2Zr(CO2)8
_chemical_formula_sum   'Ba4 Zr2 C16 O32'
_cell_volume   1110.48020076
_cell_formula_units_Z   2
loop_
 _symmetry_equiv_pos_site_id
 _symmetry_equiv_pos_as_xyz
  1  'x, y, z'
loop_
 _atom_site_type_symbol
 _atom_site_label
 _atom_site_symmetry_multiplicity
 _atom_site_fract_x
 _atom_site_fract_y
 _atom_site_fract_z
 _atom_site_occupancy
 _atom_site_charge
  Ba  Ba1  1  0.221330  0.971330  0.942660  1.0  1.6401
  Ba  Ba2  1  0.778670  0.028670  0.057340  1.0  1.6393
  Ba  Ba3  1  0.520900  0.770900  0.541800  1.0  1.6226
  Ba  Ba4  1  0.479100  0.229100  0.458200  1.0  1.6238
  Zr  Zr5  1  0.865480  0.615480  0.230960  1.0  1.9835
  Zr  Zr6  1  0.134520  0.384520  0.769040  1.0  1.985
  C  C7  1  0.101800  0.732400  0.109000  1.0  0.572
  C  C8  1  0.013600  0.843400  0.113600  1.0  0.6201
  C  C9  1  0.150000  0.595400  0.354600  1.0  0.5552
  C  C10  1  0.200900  0.782800  0.375200  1.0  0.5825
  C  C11  1  0.507200  0.376600  0.109000  1.0  0.573
  C  C12  1  0.600000  0.270200  0.113600  1.0  0.6193
  C  C13  1  0.704600  0.759200  0.354600  1.0  0.5526
  C  C14  1  0.674300  0.592400  0.375200  1.0  0.5829
  C  C15  1  0.898200  0.267600  0.891000  1.0  0.5707
  C  C16  1  0.986400  0.156600  0.886400  1.0  0.6196
  C  C17  1  0.850000  0.404600  0.645400  1.0  0.5528
  C  C18  1  0.799100  0.217200  0.624800  1.0  0.5827
  C  C19  1  0.492800  0.623400  0.891000  1.0  0.5741
  C  C20  1  0.400000  0.729800  0.886400  1.0  0.6196
  C  C21  1  0.295400  0.240800  0.645400  1.0  0.5566
  C  C22  1  0.325700  0.407600  0.624800  1.0  0.5841
  O  O23  1  0.209900  0.759700  0.069800  1.0  -0.579
  O  O24  1  0.058200  0.963100  0.081400  1.0  -0.6707
  O  O25  1  0.898200  0.798200  0.153200  1.0  -0.6158
  O  O26  1  0.044500  0.618400  0.150600  1.0  -0.5814
  O  O27  1  0.003500  0.502900  0.300600  1.0  -0.5601
  O  O28  1  0.094800  0.815100  0.329000  1.0  -0.5905
  O  O29  1  0.334500  0.886800  0.431400  1.0  -0.7076
  O  O30  1  0.245100  0.550800  0.392200  1.0  -0.6481
  O  O31  1  0.359900  0.310100  0.069800  1.0  -0.5764
  O  O32  1  0.523200  0.118300  0.081400  1.0  -0.6675
  O  O33  1  0.755000  0.355000  0.153200  1.0  -0.6168
  O  O34  1  0.606100  0.532200  0.150600  1.0  -0.5817
  O  O35  1  0.797100  0.797700  0.300600  1.0  -0.5618
  O  O36  1  0.734200  0.513900  0.329000  1.0  -0.5915
  O  O37  1  0.596900  0.544600  0.431400  1.0  -0.7073
  O  O38  1  0.647100  0.841400  0.392200  1.0  -0.6475
  O  O39  1  0.790100  0.240300  0.930200  1.0  -0.5783
  O  O40  1  0.941800  0.036900  0.918600  1.0  -0.669
  O  O41  1  0.101800  0.201800  0.846800  1.0  -0.616
  O  O42  1  0.955500  0.381600  0.849400  1.0  -0.5806
  O  O43  1  0.996500  0.497100  0.699400  1.0  -0.5589
  O  O44  1  0.905200  0.184900  0.671000  1.0  -0.5915
  O  O45  1  0.665500  0.113200  0.568600  1.0  -0.7092
  O  O46  1  0.754900  0.449200  0.607800  1.0  -0.6492
  O  O47  1  0.640100  0.689900  0.930200  1.0  -0.5783
  O  O48  1  0.476800  0.881700  0.918600  1.0  -0.6693
  O  O49  1  0.245000  0.645000  0.846800  1.0  -0.6165
  O  O50  1  0.393900  0.467800  0.849400  1.0  -0.5818
  O  O51  1  0.202900  0.202300  0.699400  1.0  -0.5629
  O  O52  1  0.265800  0.486100  0.671000  1.0  -0.5912
  O  O53  1  0.403100  0.455400  0.568600  1.0  -0.7099
  O  O54  1  0.352900  0.158600  0.607800  1.0  -0.6456
