# generated using pymatgen
data_MnH12C14(NO2)2
_symmetry_space_group_name_H-M   'P 1'
_cell_length_a   8.85200000
_cell_length_b   11.68600000
_cell_length_c   17.84700000
_cell_angle_alpha   90.00000000
_cell_angle_beta   90.00000000
_cell_angle_gamma   99.67000000
_symmetry_Int_Tables_number   1
_chemical_formula_structural   MnH12C14(NO2)2
_chemical_formula_sum   'Mn4 H48 C56 N8 O16'
_cell_volume   1819.94223690
_cell_formula_units_Z   4
loop_
 _symmetry_equiv_pos_site_id
 _symmetry_equiv_pos_as_xyz
  1  'x, y, z'
loop_
 _atom_site_type_symbol
 _atom_site_label
 _atom_site_symmetry_multiplicity
 _atom_site_fract_x
 _atom_site_fract_y
 _atom_site_fract_z
 _atom_site_occupancy
 _atom_site_charge
  Mn  Mn1  1  0.794120  0.381270  0.170150  1.0  1.019
  Mn  Mn2  1  0.705880  0.618730  0.670150  1.0  1.0186
  Mn  Mn3  1  0.205880  0.618730  0.829850  1.0  1.0187
  Mn  Mn4  1  0.294120  0.381270  0.329850  1.0  1.0191
  H  H5  1  0.980900  0.187000  0.235700  1.0  0.0725
  H  H6  1  0.983700  0.992700  0.237100  1.0  0.1093
  H  H7  1  0.616100  0.948400  0.106200  1.0  0.1288
  H  H8  1  0.623800  0.144100  0.108200  1.0  0.0779
  H  H9  1  0.951000  0.615200  0.246900  1.0  0.0711
  H  H10  1  0.958300  0.810800  0.250200  1.0  0.1104
  H  H11  1  0.635800  0.774700  0.091700  1.0  0.1292
  H  H12  1  0.637900  0.578900  0.093100  1.0  0.0739
  H  H13  1  0.719000  0.386200  0.881700  1.0  0.0942
  H  H14  1  0.885700  0.401400  0.914400  1.0  0.0964
  H  H15  1  0.883800  0.591900  0.943900  1.0  0.115
  H  H16  1  0.707100  0.578800  0.928400  1.0  0.1171
  H  H17  1  0.519100  0.813000  0.735700  1.0  0.0723
  H  H18  1  0.516300  0.007300  0.737100  1.0  0.1092
  H  H19  1  0.883900  0.051600  0.606200  1.0  0.1291
  H  H20  1  0.876200  0.855900  0.608200  1.0  0.0779
  H  H21  1  0.549000  0.384800  0.746900  1.0  0.0708
  H  H22  1  0.541700  0.189200  0.750200  1.0  0.1106
  H  H23  1  0.864200  0.225300  0.591700  1.0  0.1293
  H  H24  1  0.862100  0.421100  0.593100  1.0  0.0731
  H  H25  1  0.781000  0.613800  0.381700  1.0  0.0942
  H  H26  1  0.614300  0.598600  0.414400  1.0  0.0994
  H  H27  1  0.616200  0.408100  0.443900  1.0  0.1153
  H  H28  1  0.792900  0.421200  0.428400  1.0  0.1172
  H  H29  1  0.019100  0.813000  0.764300  1.0  0.0724
  H  H30  1  0.016300  0.007300  0.762900  1.0  0.1095
  H  H31  1  0.383900  0.051600  0.893800  1.0  0.1289
  H  H32  1  0.376200  0.855900  0.891800  1.0  0.0785
  H  H33  1  0.049000  0.384800  0.753100  1.0  0.0705
  H  H34  1  0.041700  0.189200  0.749800  1.0  0.1101
  H  H35  1  0.364200  0.225300  0.908300  1.0  0.1296
  H  H36  1  0.362100  0.421100  0.906900  1.0  0.0739
  H  H37  1  0.281000  0.613800  0.118300  1.0  0.0954
  H  H38  1  0.114300  0.598600  0.085600  1.0  0.099
  H  H39  1  0.116200  0.408100  0.056100  1.0  0.1149
  H  H40  1  0.292900  0.421200  0.071600  1.0  0.117
  H  H41  1  0.480900  0.187000  0.264300  1.0  0.0726
  H  H42  1  0.483700  0.992700  0.262900  1.0  0.1094
  H  H43  1  0.116100  0.948400  0.393800  1.0  0.1279
  H  H44  1  0.123800  0.144100  0.391800  1.0  0.0777
  H  H45  1  0.451000  0.615200  0.253100  1.0  0.0705
  H  H46  1  0.458300  0.810800  0.249800  1.0  0.1104
  H  H47  1  0.135800  0.774700  0.408300  1.0  0.1292
  H  H48  1  0.137900  0.578900  0.406900  1.0  0.0745
  H  H49  1  0.219000  0.386200  0.618300  1.0  0.0954
  H  H50  1  0.385700  0.401400  0.585600  1.0  0.0962
  H  H51  1  0.383800  0.591900  0.556100  1.0  0.1149
  H  H52  1  0.207100  0.578800  0.571600  1.0  0.1176
  C  C53  1  0.905500  0.138400  0.209200  1.0  0.1921
  C  C54  1  0.907900  0.021100  0.210300  1.0  -0.2031
  C  C55  1  0.799600  0.945700  0.172160  1.0  0.1041
  C  C56  1  0.692300  0.995100  0.133400  1.0  -0.2105
  C  C57  1  0.697700  0.113300  0.135000  1.0  0.1759
  C  C58  1  0.886600  0.647700  0.215100  1.0  0.1844
  C  C59  1  0.891400  0.765800  0.217400  1.0  -0.1988
  C  C60  1  0.797100  0.818100  0.171150  1.0  0.0807
  C  C61  1  0.701500  0.744600  0.124100  1.0  -0.1886
  C  C62  1  0.703500  0.626500  0.125100  1.0  0.1864
  C  C63  1  0.721200  0.382700  0.997070  1.0  0.7277
  C  C64  1  0.785900  0.423900  0.920700  1.0  -0.2619
  C  C65  1  0.801100  0.554000  0.912280  1.0  -0.3023
  C  C66  1  0.833600  0.589000  0.831670  1.0  0.743
  C  C67  1  0.594500  0.861600  0.709200  1.0  0.1925
  C  C68  1  0.592100  0.978900  0.710300  1.0  -0.2032
  C  C69  1  0.700400  0.054300  0.672160  1.0  0.1045
  C  C70  1  0.807700  0.004900  0.633400  1.0  -0.2114
  C  C71  1  0.802300  0.886700  0.635000  1.0  0.175
  C  C72  1  0.613400  0.352300  0.715100  1.0  0.1846
  C  C73  1  0.608600  0.234200  0.717400  1.0  -0.1985
  C  C74  1  0.702900  0.181900  0.671150  1.0  0.081
  C  C75  1  0.798500  0.255400  0.624100  1.0  -0.1888
  C  C76  1  0.796500  0.373500  0.625100  1.0  0.1871
  C  C77  1  0.778800  0.617300  0.497070  1.0  0.7299
  C  C78  1  0.714100  0.576100  0.420700  1.0  -0.2594
  C  C79  1  0.698900  0.446000  0.412280  1.0  -0.3014
  C  C80  1  0.666400  0.411000  0.331670  1.0  0.7423
  C  C81  1  0.094500  0.861600  0.790800  1.0  0.1918
  C  C82  1  0.092100  0.978900  0.789700  1.0  -0.2025
  C  C83  1  0.200400  0.054300  0.827840  1.0  0.1039
  C  C84  1  0.307700  0.004900  0.866600  1.0  -0.2102
  C  C85  1  0.302300  0.886700  0.865000  1.0  0.1762
  C  C86  1  0.113400  0.352300  0.784900  1.0  0.1843
  C  C87  1  0.108600  0.234200  0.782600  1.0  -0.1988
  C  C88  1  0.202900  0.181900  0.828850  1.0  0.081
  C  C89  1  0.298500  0.255400  0.875900  1.0  -0.1885
  C  C90  1  0.296500  0.373500  0.874900  1.0  0.1876
  C  C91  1  0.278800  0.617300  0.002930  1.0  0.7309
  C  C92  1  0.214100  0.576100  0.079300  1.0  -0.258
  C  C93  1  0.198900  0.446000  0.087720  1.0  -0.3013
  C  C94  1  0.166400  0.411000  0.168330  1.0  0.742
  C  C95  1  0.405500  0.138400  0.290800  1.0  0.1919
  C  C96  1  0.407900  0.021100  0.289700  1.0  -0.203
  C  C97  1  0.299600  0.945700  0.327840  1.0  0.1034
  C  C98  1  0.192300  0.995100  0.366600  1.0  -0.2098
  C  C99  1  0.197700  0.113300  0.365000  1.0  0.1759
  C  C100  1  0.386600  0.647700  0.284900  1.0  0.1841
  C  C101  1  0.391400  0.765800  0.282600  1.0  -0.1991
  C  C102  1  0.297100  0.818100  0.328850  1.0  0.0803
  C  C103  1  0.201500  0.744600  0.375900  1.0  -0.1887
  C  C104  1  0.203500  0.626500  0.374900  1.0  0.1868
  C  C105  1  0.221200  0.382700  0.502930  1.0  0.7285
  C  C106  1  0.285900  0.423900  0.579300  1.0  -0.2605
  C  C107  1  0.301100  0.554000  0.587720  1.0  -0.3013
  C  C108  1  0.333600  0.589000  0.668330  1.0  0.7424
  N  N109  1  0.801700  0.185900  0.172370  1.0  -0.3471
  N  N110  1  0.794800  0.577800  0.169870  1.0  -0.3517
  N  N111  1  0.698300  0.814100  0.672370  1.0  -0.3469
  N  N112  1  0.705200  0.422200  0.669870  1.0  -0.351
  N  N113  1  0.198300  0.814100  0.827630  1.0  -0.3466
  N  N114  1  0.205200  0.422200  0.830130  1.0  -0.351
  N  N115  1  0.301700  0.185900  0.327630  1.0  -0.3466
  N  N116  1  0.294800  0.577800  0.330130  1.0  -0.3515
  O  O117  1  0.816200  0.385800  0.049560  1.0  -0.6477
  O  O118  1  0.581700  0.350900  0.002550  1.0  -0.6441
  O  O119  1  0.725700  0.612100  0.792310  1.0  -0.6209
  O  O120  1  0.965400  0.588000  0.806340  1.0  -0.6402
  O  O121  1  0.683800  0.614200  0.549560  1.0  -0.6464
  O  O122  1  0.918300  0.649100  0.502550  1.0  -0.6431
  O  O123  1  0.774300  0.387900  0.292310  1.0  -0.622
  O  O124  1  0.534600  0.412000  0.306340  1.0  -0.6402
  O  O125  1  0.183800  0.614200  0.950440  1.0  -0.6462
  O  O126  1  0.418300  0.649100  0.997450  1.0  -0.6418
  O  O127  1  0.274300  0.387900  0.207690  1.0  -0.6212
  O  O128  1  0.034600  0.412000  0.193660  1.0  -0.6395
  O  O129  1  0.316200  0.385800  0.450440  1.0  -0.6476
  O  O130  1  0.081700  0.350900  0.497450  1.0  -0.6443
  O  O131  1  0.225700  0.612100  0.707690  1.0  -0.6205
  O  O132  1  0.465400  0.588000  0.693660  1.0  -0.6402
