# generated using pymatgen
data_MnH12C14(NO2)2
_symmetry_space_group_name_H-M   'P 1'
_cell_length_a   8.86470000
_cell_length_b   11.70700000
_cell_length_c   17.88240000
_cell_angle_alpha   90.00000000
_cell_angle_beta   90.00000000
_cell_angle_gamma   99.71300000
_symmetry_Int_Tables_number   1
_chemical_formula_structural   MnH12C14(NO2)2
_chemical_formula_sum   'Mn4 H48 C56 N8 O16'
_cell_volume   1829.21559904
_cell_formula_units_Z   4
loop_
 _symmetry_equiv_pos_site_id
 _symmetry_equiv_pos_as_xyz
  1  'x, y, z'
loop_
 _atom_site_type_symbol
 _atom_site_label
 _atom_site_symmetry_multiplicity
 _atom_site_fract_x
 _atom_site_fract_y
 _atom_site_fract_z
 _atom_site_occupancy
 _atom_site_charge
  Mn  Mn1  1  0.794010  0.381200  0.170080  1.0  1.0261
  Mn  Mn2  1  0.705990  0.618800  0.670080  1.0  1.0263
  Mn  Mn3  1  0.205990  0.618800  0.829920  1.0  1.0264
  Mn  Mn4  1  0.294010  0.381200  0.329920  1.0  1.0262
  H  H5  1  0.981700  0.186100  0.235400  1.0  0.073
  H  H6  1  0.983400  0.992400  0.236800  1.0  0.1077
  H  H7  1  0.616300  0.948100  0.107100  1.0  0.1222
  H  H8  1  0.624400  0.143500  0.107700  1.0  0.0794
  H  H9  1  0.957600  0.811500  0.250400  1.0  0.1131
  H  H10  1  0.951300  0.615500  0.246600  1.0  0.0707
  H  H11  1  0.637800  0.579500  0.092500  1.0  0.0726
  H  H12  1  0.635800  0.774300  0.091800  1.0  0.1283
  H  H13  1  0.716900  0.385900  0.882100  1.0  0.0984
  H  H14  1  0.884000  0.400300  0.913800  1.0  0.1007
  H  H15  1  0.884400  0.591000  0.943300  1.0  0.1114
  H  H16  1  0.707900  0.578700  0.928100  1.0  0.1134
  H  H17  1  0.518300  0.813900  0.735400  1.0  0.0727
  H  H18  1  0.516600  0.007600  0.736800  1.0  0.1078
  H  H19  1  0.883700  0.051900  0.607100  1.0  0.1227
  H  H20  1  0.875600  0.856500  0.607700  1.0  0.0789
  H  H21  1  0.542400  0.188500  0.750400  1.0  0.1133
  H  H22  1  0.548700  0.384500  0.746600  1.0  0.0705
  H  H23  1  0.862200  0.420500  0.592500  1.0  0.0718
  H  H24  1  0.864200  0.225700  0.591800  1.0  0.1283
  H  H25  1  0.783100  0.614100  0.382100  1.0  0.0982
  H  H26  1  0.616000  0.599700  0.413800  1.0  0.104
  H  H27  1  0.615600  0.409000  0.443300  1.0  0.1115
  H  H28  1  0.792100  0.421300  0.428100  1.0  0.113
  H  H29  1  0.018300  0.813900  0.764600  1.0  0.0727
  H  H30  1  0.016600  0.007600  0.763200  1.0  0.1082
  H  H31  1  0.383700  0.051900  0.892900  1.0  0.1226
  H  H32  1  0.375600  0.856500  0.892300  1.0  0.0795
  H  H33  1  0.042400  0.188500  0.749600  1.0  0.1129
  H  H34  1  0.048700  0.384500  0.753400  1.0  0.0702
  H  H35  1  0.362200  0.420500  0.907500  1.0  0.0725
  H  H36  1  0.364200  0.225700  0.908200  1.0  0.1281
  H  H37  1  0.283100  0.614100  0.117900  1.0  0.0997
  H  H38  1  0.116000  0.599700  0.086200  1.0  0.1037
  H  H39  1  0.115600  0.409000  0.056700  1.0  0.1109
  H  H40  1  0.292100  0.421300  0.071900  1.0  0.1126
  H  H41  1  0.481700  0.186100  0.264600  1.0  0.0731
  H  H42  1  0.483400  0.992400  0.263200  1.0  0.108
  H  H43  1  0.116300  0.948100  0.392900  1.0  0.1217
  H  H44  1  0.124400  0.143500  0.392300  1.0  0.079
  H  H45  1  0.457600  0.811500  0.249600  1.0  0.1132
  H  H46  1  0.451300  0.615500  0.253400  1.0  0.0702
  H  H47  1  0.137800  0.579500  0.407500  1.0  0.0732
  H  H48  1  0.135800  0.774300  0.408200  1.0  0.1277
  H  H49  1  0.216900  0.385900  0.617900  1.0  0.0999
  H  H50  1  0.384000  0.400300  0.586200  1.0  0.1006
  H  H51  1  0.384400  0.591000  0.556700  1.0  0.111
  H  H52  1  0.207900  0.578700  0.571900  1.0  0.1138
  C  C53  1  0.906100  0.137600  0.209100  1.0  0.1829
  C  C54  1  0.907800  0.020900  0.210000  1.0  -0.1966
  C  C55  1  0.799300  0.945200  0.171900  1.0  0.0953
  C  C56  1  0.692900  0.994900  0.133900  1.0  -0.2034
  C  C57  1  0.697700  0.113000  0.134900  1.0  0.1676
  C  C58  1  0.797400  0.818000  0.171100  1.0  0.0861
  C  C59  1  0.891400  0.766400  0.217500  1.0  -0.19
  C  C60  1  0.886800  0.647900  0.214900  1.0  0.1756
  C  C61  1  0.703300  0.626700  0.124700  1.0  0.176
  C  C62  1  0.701500  0.744200  0.124000  1.0  -0.1851
  C  C63  1  0.721700  0.383000  0.996900  1.0  0.7553
  C  C64  1  0.784800  0.423400  0.920600  1.0  -0.2756
  C  C65  1  0.801400  0.553400  0.911900  1.0  -0.3132
  C  C66  1  0.833500  0.588200  0.831800  1.0  0.749
  C  C67  1  0.593900  0.862400  0.709100  1.0  0.183
  C  C68  1  0.592200  0.979100  0.710000  1.0  -0.1962
  C  C69  1  0.700700  0.054800  0.671900  1.0  0.0958
  C  C70  1  0.807100  0.005100  0.633900  1.0  -0.2052
  C  C71  1  0.802300  0.887000  0.634900  1.0  0.1666
  C  C72  1  0.702600  0.182000  0.671100  1.0  0.0863
  C  C73  1  0.608600  0.233600  0.717500  1.0  -0.19
  C  C74  1  0.613200  0.352100  0.714900  1.0  0.176
  C  C75  1  0.796700  0.373300  0.624700  1.0  0.1758
  C  C76  1  0.798500  0.255800  0.624000  1.0  -0.1854
  C  C77  1  0.778300  0.617000  0.496900  1.0  0.7573
  C  C78  1  0.715200  0.576600  0.420600  1.0  -0.2741
  C  C79  1  0.698600  0.446600  0.411900  1.0  -0.3123
  C  C80  1  0.666500  0.411800  0.331800  1.0  0.7485
  C  C81  1  0.093900  0.862400  0.790900  1.0  0.1825
  C  C82  1  0.092200  0.979100  0.790000  1.0  -0.1959
  C  C83  1  0.200700  0.054800  0.828100  1.0  0.0954
  C  C84  1  0.307100  0.005100  0.866100  1.0  -0.2038
  C  C85  1  0.302300  0.887000  0.865100  1.0  0.1674
  C  C86  1  0.202600  0.182000  0.828900  1.0  0.0865
  C  C87  1  0.108600  0.233600  0.782500  1.0  -0.1908
  C  C88  1  0.113200  0.352100  0.785100  1.0  0.1758
  C  C89  1  0.296700  0.373300  0.875300  1.0  0.1758
  C  C90  1  0.298500  0.255800  0.876000  1.0  -0.1854
  C  C91  1  0.278300  0.617000  0.003100  1.0  0.7595
  C  C92  1  0.215200  0.576600  0.079400  1.0  -0.2728
  C  C93  1  0.198600  0.446600  0.088100  1.0  -0.312
  C  C94  1  0.166500  0.411800  0.168200  1.0  0.7472
  C  C95  1  0.406100  0.137600  0.290900  1.0  0.1829
  C  C96  1  0.407800  0.020900  0.290000  1.0  -0.1969
  C  C97  1  0.299300  0.945200  0.328100  1.0  0.0949
  C  C98  1  0.192900  0.994900  0.366100  1.0  -0.2034
  C  C99  1  0.197700  0.113000  0.365100  1.0  0.1671
  C  C100  1  0.297400  0.818000  0.328900  1.0  0.0861
  C  C101  1  0.391400  0.766400  0.282500  1.0  -0.1909
  C  C102  1  0.386800  0.647900  0.285100  1.0  0.1752
  C  C103  1  0.203300  0.626700  0.375300  1.0  0.1762
  C  C104  1  0.201500  0.744200  0.376000  1.0  -0.1854
  C  C105  1  0.221700  0.383000  0.503100  1.0  0.7569
  C  C106  1  0.284800  0.423400  0.579400  1.0  -0.2741
  C  C107  1  0.301400  0.553400  0.588100  1.0  -0.3121
  C  C108  1  0.333500  0.588200  0.668200  1.0  0.748
  N  N109  1  0.801200  0.185300  0.172400  1.0  -0.3433
  N  N110  1  0.794700  0.577300  0.169400  1.0  -0.3576
  N  N111  1  0.698800  0.814700  0.672400  1.0  -0.3438
  N  N112  1  0.705300  0.422700  0.669400  1.0  -0.3569
  N  N113  1  0.198800  0.814700  0.827600  1.0  -0.3432
  N  N114  1  0.205300  0.422700  0.830600  1.0  -0.3568
  N  N115  1  0.301200  0.185300  0.327600  1.0  -0.3428
  N  N116  1  0.294700  0.577300  0.330600  1.0  -0.3573
  O  O117  1  0.815400  0.385400  0.049490  1.0  -0.6434
  O  O118  1  0.581900  0.351100  0.002600  1.0  -0.6354
  O  O119  1  0.965400  0.588000  0.805970  1.0  -0.6481
  O  O120  1  0.725400  0.612400  0.792330  1.0  -0.6184
  O  O121  1  0.684600  0.614600  0.549490  1.0  -0.6422
  O  O122  1  0.918100  0.648900  0.502600  1.0  -0.6337
  O  O123  1  0.534600  0.412000  0.305970  1.0  -0.6479
  O  O124  1  0.774600  0.387600  0.292330  1.0  -0.62
  O  O125  1  0.184600  0.614600  0.950510  1.0  -0.6412
  O  O126  1  0.418100  0.648900  0.997400  1.0  -0.6327
  O  O127  1  0.034600  0.412000  0.194030  1.0  -0.6473
  O  O128  1  0.274600  0.387600  0.207670  1.0  -0.6195
  O  O129  1  0.315400  0.385400  0.450510  1.0  -0.6427
  O  O130  1  0.081900  0.351100  0.497400  1.0  -0.6361
  O  O131  1  0.465400  0.588000  0.694030  1.0  -0.6486
  O  O132  1  0.225400  0.612400  0.707670  1.0  -0.6186
