# generated using pymatgen
data_Zn3P2H12(C8O5)2
_symmetry_space_group_name_H-M   'P 1'
_cell_length_a   9.33220000
_cell_length_b   10.79500000
_cell_length_c   21.61810000
_cell_angle_alpha   91.58400000
_cell_angle_beta   90.00000000
_cell_angle_gamma   90.00000000
_symmetry_Int_Tables_number   1
_chemical_formula_structural   Zn3P2H12(C8O5)2
_chemical_formula_sum   'Zn12 P8 H48 C64 O40'
_cell_volume   2176.99894477
_cell_formula_units_Z   4
loop_
 _symmetry_equiv_pos_site_id
 _symmetry_equiv_pos_as_xyz
  1  'x, y, z'
loop_
 _atom_site_type_symbol
 _atom_site_label
 _atom_site_symmetry_multiplicity
 _atom_site_fract_x
 _atom_site_fract_y
 _atom_site_fract_z
 _atom_site_occupancy
 _atom_site_charge
  Zn  Zn1  1  0.633720  0.253930  0.750070  1.0  1.0164
  Zn  Zn2  1  0.109620  0.925850  0.812130  1.0  1.0445
  Zn  Zn3  1  0.395280  0.068060  0.689540  1.0  1.0665
  Zn  Zn4  1  0.133720  0.246070  0.249930  1.0  1.0164
  Zn  Zn5  1  0.609620  0.574150  0.187870  1.0  1.0457
  Zn  Zn6  1  0.895280  0.431940  0.310460  1.0  1.0657
  Zn  Zn7  1  0.366280  0.746070  0.249930  1.0  1.0179
  Zn  Zn8  1  0.890380  0.074150  0.187870  1.0  1.0459
  Zn  Zn9  1  0.604720  0.931940  0.310460  1.0  1.0652
  Zn  Zn10  1  0.866280  0.753930  0.750070  1.0  1.0178
  Zn  Zn11  1  0.390380  0.425850  0.812130  1.0  1.0449
  Zn  Zn12  1  0.104720  0.568060  0.689540  1.0  1.0662
  P  P13  1  0.363860  0.136690  0.826930  1.0  1.6144
  P  P14  1  0.358230  0.358040  0.673000  1.0  1.6319
  P  P15  1  0.863860  0.363310  0.173070  1.0  1.6158
  P  P16  1  0.858230  0.141960  0.327000  1.0  1.6303
  P  P17  1  0.636140  0.863310  0.173070  1.0  1.6182
  P  P18  1  0.641770  0.641960  0.327000  1.0  1.6329
  P  P19  1  0.136140  0.636690  0.826930  1.0  1.6166
  P  P20  1  0.141770  0.858040  0.673000  1.0  1.6346
  H  H21  1  0.460600  0.973500  0.879200  1.0  0.1551
  H  H22  1  0.544600  0.095400  0.895900  1.0  0.1565
  H  H23  1  0.471800  0.226700  0.983500  1.0  0.112
  H  H24  1  0.351500  0.243700  0.076700  1.0  0.1083
  H  H25  1  0.115400  0.945400  0.029800  1.0  0.0996
  H  H26  1  0.241500  0.924100  0.938100  1.0  0.1048
  H  H27  1  0.455400  0.521200  0.621800  1.0  0.1528
  H  H28  1  0.540400  0.399600  0.605500  1.0  0.162
  H  H29  1  0.475600  0.271700  0.516300  1.0  0.1052
  H  H30  1  0.357500  0.255100  0.422100  1.0  0.1073
  H  H31  1  0.116600  0.549500  0.468900  1.0  0.1032
  H  H32  1  0.238600  0.570800  0.561900  1.0  0.0976
  H  H33  1  0.960600  0.526500  0.120800  1.0  0.1553
  H  H34  1  0.044600  0.404600  0.104100  1.0  0.1563
  H  H35  1  0.971800  0.273300  0.016500  1.0  0.1123
  H  H36  1  0.851500  0.256300  0.923300  1.0  0.108
  H  H37  1  0.615400  0.554600  0.970200  1.0  0.0999
  H  H38  1  0.741500  0.575900  0.061900  1.0  0.1051
  H  H39  1  0.955400  0.978800  0.378200  1.0  0.1534
  H  H40  1  0.040400  0.100400  0.394500  1.0  0.1623
  H  H41  1  0.975600  0.228300  0.483700  1.0  0.1053
  H  H42  1  0.857500  0.244900  0.577900  1.0  0.1072
  H  H43  1  0.616600  0.950500  0.531100  1.0  0.103
  H  H44  1  0.738600  0.929200  0.438100  1.0  0.098
  H  H45  1  0.539400  0.026500  0.120800  1.0  0.1554
  H  H46  1  0.455400  0.904600  0.104100  1.0  0.1578
  H  H47  1  0.528200  0.773300  0.016500  1.0  0.1121
  H  H48  1  0.648500  0.756300  0.923300  1.0  0.1079
  H  H49  1  0.884600  0.054600  0.970200  1.0  0.0995
  H  H50  1  0.758500  0.075900  0.061900  1.0  0.1054
  H  H51  1  0.544600  0.478800  0.378200  1.0  0.1533
  H  H52  1  0.459600  0.600400  0.394500  1.0  0.1631
  H  H53  1  0.524400  0.728300  0.483700  1.0  0.1053
  H  H54  1  0.642500  0.744900  0.577900  1.0  0.1072
  H  H55  1  0.883400  0.450500  0.531100  1.0  0.103
  H  H56  1  0.761400  0.429200  0.438100  1.0  0.0983
  H  H57  1  0.039400  0.473500  0.879200  1.0  0.1552
  H  H58  1  0.955400  0.595400  0.895900  1.0  0.1571
  H  H59  1  0.028200  0.726700  0.983500  1.0  0.1121
  H  H60  1  0.148500  0.743700  0.076700  1.0  0.1081
  H  H61  1  0.384600  0.445400  0.029800  1.0  0.0997
  H  H62  1  0.258500  0.424100  0.938100  1.0  0.1052
  H  H63  1  0.044600  0.021200  0.621800  1.0  0.1525
  H  H64  1  0.959600  0.899600  0.605500  1.0  0.1632
  H  H65  1  0.024400  0.771700  0.516300  1.0  0.1052
  H  H66  1  0.142500  0.755100  0.422100  1.0  0.1073
  H  H67  1  0.383400  0.049500  0.468900  1.0  0.1028
  H  H68  1  0.261400  0.070800  0.561900  1.0  0.0976
  C  C69  1  0.449500  0.060700  0.890140  1.0  -0.4948
  C  C70  1  0.368800  0.072300  0.950750  1.0  0.0739
  C  C71  1  0.401200  0.169500  0.992930  1.0  -0.0988
  C  C72  1  0.328200  0.180200  0.048550  1.0  -0.0227
  C  C73  1  0.220900  0.097100  0.062610  1.0  -0.1429
  C  C74  1  0.187800  0.001400  0.020790  1.0  -0.058
  C  C75  1  0.263000  0.989300  0.965590  1.0  -0.055
  C  C76  1  0.141200  0.109700  0.122440  1.0  0.6721
  C  C77  1  0.445000  0.434000  0.610590  1.0  -0.4826
  C  C78  1  0.367700  0.423100  0.549420  1.0  0.0821
  C  C79  1  0.403900  0.328100  0.506850  1.0  -0.0713
  C  C80  1  0.332800  0.317900  0.450430  1.0  -0.0124
  C  C81  1  0.225100  0.400800  0.436100  1.0  -0.1561
  C  C82  1  0.189500  0.494200  0.478140  1.0  -0.0389
  C  C83  1  0.261800  0.506200  0.534320  1.0  -0.0643
  C  C84  1  0.147500  0.389600  0.375260  1.0  0.6799
  C  C85  1  0.949500  0.439300  0.109860  1.0  -0.4942
  C  C86  1  0.868800  0.427700  0.049250  1.0  0.0745
  C  C87  1  0.901200  0.330500  0.007070  1.0  -0.0983
  C  C88  1  0.828200  0.319800  0.951450  1.0  -0.0227
  C  C89  1  0.720900  0.402900  0.937390  1.0  -0.1427
  C  C90  1  0.687800  0.498600  0.979210  1.0  -0.057
  C  C91  1  0.763000  0.510700  0.034410  1.0  -0.0546
  C  C92  1  0.641200  0.390300  0.877560  1.0  0.6695
  C  C93  1  0.945000  0.066000  0.389410  1.0  -0.4833
  C  C94  1  0.867700  0.076900  0.450580  1.0  0.0824
  C  C95  1  0.903900  0.171900  0.493150  1.0  -0.0708
  C  C96  1  0.832800  0.182100  0.549570  1.0  -0.0126
  C  C97  1  0.725100  0.099200  0.563900  1.0  -0.1557
  C  C98  1  0.689500  0.005800  0.521860  1.0  -0.0388
  C  C99  1  0.761800  0.993800  0.465680  1.0  -0.0631
  C  C100  1  0.647500  0.110400  0.624740  1.0  0.6824
  C  C101  1  0.550500  0.939300  0.109860  1.0  -0.4961
  C  C102  1  0.631200  0.927700  0.049250  1.0  0.0741
  C  C103  1  0.598800  0.830500  0.007070  1.0  -0.0968
  C  C104  1  0.671800  0.819800  0.951450  1.0  -0.0225
  C  C105  1  0.779100  0.902900  0.937390  1.0  -0.1427
  C  C106  1  0.812200  0.998600  0.979210  1.0  -0.0579
  C  C107  1  0.737000  0.010700  0.034410  1.0  -0.054
  C  C108  1  0.858800  0.890300  0.877560  1.0  0.6701
  C  C109  1  0.555000  0.566000  0.389410  1.0  -0.484
  C  C110  1  0.632300  0.576900  0.450580  1.0  0.0824
  C  C111  1  0.596100  0.671900  0.493150  1.0  -0.0704
  C  C112  1  0.667200  0.682100  0.549570  1.0  -0.0124
  C  C113  1  0.774900  0.599200  0.563900  1.0  -0.1563
  C  C114  1  0.810500  0.505800  0.521860  1.0  -0.0396
  C  C115  1  0.738200  0.493800  0.465680  1.0  -0.0635
  C  C116  1  0.852500  0.610400  0.624740  1.0  0.6814
  C  C117  1  0.050500  0.560700  0.890140  1.0  -0.4954
  C  C118  1  0.131200  0.572300  0.950750  1.0  0.0738
  C  C119  1  0.098800  0.669500  0.992930  1.0  -0.0975
  C  C120  1  0.171800  0.680200  0.048550  1.0  -0.0231
  C  C121  1  0.279100  0.597100  0.062610  1.0  -0.1436
  C  C122  1  0.312200  0.501400  0.020790  1.0  -0.0588
  C  C123  1  0.237000  0.489300  0.965590  1.0  -0.0546
  C  C124  1  0.358800  0.609700  0.122440  1.0  0.6722
  C  C125  1  0.055000  0.934000  0.610590  1.0  -0.4847
  C  C126  1  0.132300  0.923100  0.549420  1.0  0.082
  C  C127  1  0.096100  0.828100  0.506850  1.0  -0.0708
  C  C128  1  0.167200  0.817900  0.450430  1.0  -0.0118
  C  C129  1  0.274900  0.900800  0.436100  1.0  -0.1561
  C  C130  1  0.310500  0.994200  0.478140  1.0  -0.04
  C  C131  1  0.238200  0.006200  0.534320  1.0  -0.0644
  C  C132  1  0.352500  0.889600  0.375260  1.0  0.6801
  O  O133  1  0.470900  0.124500  0.771720  1.0  -0.9117
  O  O134  1  0.226600  0.069400  0.808730  1.0  -0.862
  O  O135  1  0.331800  0.269700  0.845670  1.0  -0.8099
  O  O136  1  0.161200  0.204700  0.155870  1.0  -0.6155
  O  O137  1  0.056000  0.021600  0.136140  1.0  -0.6075
  O  O138  1  0.214800  0.420000  0.688020  1.0  -0.8889
  O  O139  1  0.461500  0.374800  0.728720  1.0  -0.9208
  O  O140  1  0.333700  0.222800  0.655300  1.0  -0.8111
  O  O141  1  0.064400  0.478100  0.361380  1.0  -0.5948
  O  O142  1  0.168900  0.295200  0.341600  1.0  -0.6345
  O  O143  1  0.970900  0.375500  0.228280  1.0  -0.9137
  O  O144  1  0.726600  0.430600  0.191270  1.0  -0.8623
  O  O145  1  0.831800  0.230300  0.154330  1.0  -0.8106
  O  O146  1  0.661200  0.295300  0.844130  1.0  -0.6157
  O  O147  1  0.556000  0.478400  0.863860  1.0  -0.609
  O  O148  1  0.714800  0.080000  0.311980  1.0  -0.8872
  O  O149  1  0.961500  0.125200  0.271280  1.0  -0.9189
  O  O150  1  0.833700  0.277200  0.344700  1.0  -0.8107
  O  O151  1  0.564400  0.021900  0.638620  1.0  -0.5925
  O  O152  1  0.668900  0.204800  0.658400  1.0  -0.6343
  O  O153  1  0.529100  0.875500  0.228280  1.0  -0.9139
  O  O154  1  0.773400  0.930600  0.191270  1.0  -0.861
  O  O155  1  0.668200  0.730300  0.154330  1.0  -0.8086
  O  O156  1  0.838800  0.795300  0.844130  1.0  -0.6163
  O  O157  1  0.944000  0.978400  0.863860  1.0  -0.6096
  O  O158  1  0.785200  0.580000  0.311980  1.0  -0.8859
  O  O159  1  0.538500  0.625200  0.271280  1.0  -0.9192
  O  O160  1  0.666300  0.777200  0.344700  1.0  -0.8097
  O  O161  1  0.935600  0.521900  0.638620  1.0  -0.5926
  O  O162  1  0.831100  0.704800  0.658400  1.0  -0.6354
  O  O163  1  0.029100  0.624500  0.771720  1.0  -0.912
  O  O164  1  0.273400  0.569400  0.808730  1.0  -0.861
  O  O165  1  0.168200  0.769700  0.845670  1.0  -0.8081
  O  O166  1  0.338800  0.704700  0.155870  1.0  -0.6166
  O  O167  1  0.444000  0.521600  0.136140  1.0  -0.6074
  O  O168  1  0.285200  0.920000  0.688020  1.0  -0.8872
  O  O169  1  0.038500  0.874800  0.728720  1.0  -0.9209
  O  O170  1  0.166300  0.722800  0.655300  1.0  -0.8101
  O  O171  1  0.435600  0.978100  0.361380  1.0  -0.5953
  O  O172  1  0.331100  0.795200  0.341600  1.0  -0.6348
