# generated using pymatgen
data_Cd2H16C29O8
_symmetry_space_group_name_H-M   'P 1'
_cell_length_a   13.48010000
_cell_length_b   13.48010000
_cell_length_c   24.58200000
_cell_angle_alpha   90.00000000
_cell_angle_beta   90.00000000
_cell_angle_gamma   90.00000000
_symmetry_Int_Tables_number   1
_chemical_formula_structural   Cd2H16C29O8
_chemical_formula_sum   'Cd8 H64 C116 O32'
_cell_volume   4466.87132612
_cell_formula_units_Z   4
loop_
 _symmetry_equiv_pos_site_id
 _symmetry_equiv_pos_as_xyz
  1  'x, y, z'
loop_
 _atom_site_type_symbol
 _atom_site_label
 _atom_site_symmetry_multiplicity
 _atom_site_fract_x
 _atom_site_fract_y
 _atom_site_fract_z
 _atom_site_occupancy
 _atom_site_charge
  Cd  Cd1  1  0.091220  0.178130  0.000000  1.0  1.1109
  Cd  Cd2  1  0.591220  0.678130  0.500000  1.0  1.1109
  Cd  Cd3  1  0.908780  0.821870  0.000000  1.0  1.1116
  Cd  Cd4  1  0.408780  0.321870  0.500000  1.0  1.1116
  Cd  Cd5  1  0.821870  0.091220  0.000000  1.0  1.1117
  Cd  Cd6  1  0.321870  0.591220  0.500000  1.0  1.1117
  Cd  Cd7  1  0.178130  0.908780  0.000000  1.0  1.1117
  Cd  Cd8  1  0.678130  0.408780  0.500000  1.0  1.1117
  H  H9  1  0.264600  0.929000  0.122400  1.0  0.1065
  H  H10  1  0.378800  0.888800  0.189800  1.0  0.111
  H  H11  1  0.429900  0.178200  0.215600  1.0  0.1095
  H  H12  1  0.317100  0.217900  0.148200  1.0  0.1151
  H  H13  1  0.764600  0.429000  0.622400  1.0  0.1065
  H  H14  1  0.878800  0.388800  0.689800  1.0  0.111
  H  H15  1  0.929900  0.678200  0.715600  1.0  0.1095
  H  H16  1  0.817100  0.717900  0.648200  1.0  0.1151
  H  H17  1  0.735400  0.071000  0.122400  1.0  0.1066
  H  H18  1  0.621200  0.111200  0.189800  1.0  0.11
  H  H19  1  0.570100  0.821800  0.215600  1.0  0.1086
  H  H20  1  0.682900  0.782100  0.148200  1.0  0.1153
  H  H21  1  0.235400  0.571000  0.622400  1.0  0.1066
  H  H22  1  0.121200  0.611200  0.689800  1.0  0.11
  H  H23  1  0.070100  0.321800  0.715600  1.0  0.1086
  H  H24  1  0.182900  0.282100  0.648200  1.0  0.1153
  H  H25  1  0.071000  0.264600  0.122400  1.0  0.1067
  H  H26  1  0.111200  0.378800  0.189800  1.0  0.1098
  H  H27  1  0.821800  0.429900  0.215600  1.0  0.1077
  H  H28  1  0.782100  0.317100  0.148200  1.0  0.1152
  H  H29  1  0.571000  0.764600  0.622400  1.0  0.1067
  H  H30  1  0.611200  0.878800  0.689800  1.0  0.1098
  H  H31  1  0.321800  0.929900  0.715600  1.0  0.1077
  H  H32  1  0.282100  0.817100  0.648200  1.0  0.1152
  H  H33  1  0.929000  0.735400  0.122400  1.0  0.1066
  H  H34  1  0.888800  0.621200  0.189800  1.0  0.1089
  H  H35  1  0.178200  0.570100  0.215600  1.0  0.1076
  H  H36  1  0.217900  0.682900  0.148200  1.0  0.1151
  H  H37  1  0.429000  0.235400  0.622400  1.0  0.1066
  H  H38  1  0.388800  0.121200  0.689800  1.0  0.1089
  H  H39  1  0.678200  0.070100  0.715600  1.0  0.1076
  H  H40  1  0.717900  0.182900  0.648200  1.0  0.1151
  H  H41  1  0.735400  0.071000  0.877600  1.0  0.1064
  H  H42  1  0.621200  0.111200  0.810200  1.0  0.1098
  H  H43  1  0.570100  0.821800  0.784400  1.0  0.1088
  H  H44  1  0.682900  0.782100  0.851800  1.0  0.1155
  H  H45  1  0.235400  0.571000  0.377600  1.0  0.1064
  H  H46  1  0.121200  0.611200  0.310200  1.0  0.1098
  H  H47  1  0.070100  0.321800  0.284400  1.0  0.1088
  H  H48  1  0.182900  0.282100  0.351800  1.0  0.1155
  H  H49  1  0.264600  0.929000  0.877600  1.0  0.1066
  H  H50  1  0.378800  0.888800  0.810200  1.0  0.1105
  H  H51  1  0.429900  0.178200  0.784400  1.0  0.1098
  H  H52  1  0.317100  0.217900  0.851800  1.0  0.1154
  H  H53  1  0.764600  0.429000  0.377600  1.0  0.1066
  H  H54  1  0.878800  0.388800  0.310200  1.0  0.1105
  H  H55  1  0.929900  0.678200  0.284400  1.0  0.1098
  H  H56  1  0.817100  0.717900  0.351800  1.0  0.1154
  H  H57  1  0.929000  0.735400  0.877600  1.0  0.1062
  H  H58  1  0.888800  0.621200  0.810200  1.0  0.1082
  H  H59  1  0.178200  0.570100  0.784400  1.0  0.1076
  H  H60  1  0.217900  0.682900  0.851800  1.0  0.1153
  H  H61  1  0.429000  0.235400  0.377600  1.0  0.1062
  H  H62  1  0.388800  0.121200  0.310200  1.0  0.1082
  H  H63  1  0.678200  0.070100  0.284400  1.0  0.1076
  H  H64  1  0.717900  0.182900  0.351800  1.0  0.1153
  H  H65  1  0.071000  0.264600  0.877600  1.0  0.1067
  H  H66  1  0.111200  0.378800  0.810200  1.0  0.1097
  H  H67  1  0.821800  0.429900  0.784400  1.0  0.1078
  H  H68  1  0.782100  0.317100  0.851800  1.0  0.1153
  H  H69  1  0.571000  0.764600  0.377600  1.0  0.1067
  H  H70  1  0.611200  0.878800  0.310200  1.0  0.1097
  H  H71  1  0.321800  0.929900  0.284400  1.0  0.1078
  H  H72  1  0.282100  0.817100  0.351800  1.0  0.1153
  C  C73  1  0.211900  0.105600  0.082120  1.0  0.7189
  C  C74  1  0.280700  0.077800  0.127900  1.0  -0.1424
  C  C75  1  0.298400  0.979700  0.141000  1.0  -0.0367
  C  C76  1  0.366300  0.955800  0.181700  1.0  -0.1526
  C  C77  1  0.416100  0.029700  0.210540  1.0  0.0666
  C  C78  1  0.396800  0.127100  0.197000  1.0  -0.1391
  C  C79  1  0.329600  0.151000  0.156400  1.0  -0.0514
  C  C80  1  0.711900  0.605600  0.582120  1.0  0.7189
  C  C81  1  0.780700  0.577800  0.627900  1.0  -0.1424
  C  C82  1  0.798400  0.479700  0.641000  1.0  -0.0367
  C  C83  1  0.866300  0.455800  0.681700  1.0  -0.1526
  C  C84  1  0.916100  0.529700  0.710540  1.0  0.0666
  C  C85  1  0.896800  0.627100  0.697000  1.0  -0.1391
  C  C86  1  0.829600  0.651000  0.656400  1.0  -0.0514
  C  C87  1  0.788100  0.894400  0.082120  1.0  0.7168
  C  C88  1  0.719300  0.922200  0.127900  1.0  -0.1438
  C  C89  1  0.701600  0.020300  0.141000  1.0  -0.0382
  C  C90  1  0.633700  0.044200  0.181700  1.0  -0.1509
  C  C91  1  0.583900  0.970300  0.210540  1.0  0.0674
  C  C92  1  0.603200  0.872900  0.197000  1.0  -0.1386
  C  C93  1  0.670400  0.849000  0.156400  1.0  -0.0508
  C  C94  1  0.288100  0.394400  0.582120  1.0  0.7168
  C  C95  1  0.219300  0.422200  0.627900  1.0  -0.1438
  C  C96  1  0.201600  0.520300  0.641000  1.0  -0.0382
  C  C97  1  0.133700  0.544200  0.681700  1.0  -0.1509
  C  C98  1  0.083900  0.470300  0.710540  1.0  0.0674
  C  C99  1  0.103200  0.372900  0.697000  1.0  -0.1386
  C  C100  1  0.170400  0.349000  0.656400  1.0  -0.0508
  C  C101  1  0.894400  0.211900  0.082120  1.0  0.7191
  C  C102  1  0.922200  0.280700  0.127900  1.0  -0.1448
  C  C103  1  0.020300  0.298400  0.141000  1.0  -0.0371
  C  C104  1  0.044200  0.366300  0.181700  1.0  -0.1503
  C  C105  1  0.970300  0.416100  0.210540  1.0  0.0672
  C  C106  1  0.872900  0.396800  0.197000  1.0  -0.1346
  C  C107  1  0.849000  0.329600  0.156400  1.0  -0.0469
  C  C108  1  0.394400  0.711900  0.582120  1.0  0.7191
  C  C109  1  0.422200  0.780700  0.627900  1.0  -0.1448
  C  C110  1  0.520300  0.798400  0.641000  1.0  -0.0371
  C  C111  1  0.544200  0.866300  0.681700  1.0  -0.1503
  C  C112  1  0.470300  0.916100  0.710540  1.0  0.0672
  C  C113  1  0.372900  0.896800  0.697000  1.0  -0.1346
  C  C114  1  0.349000  0.829600  0.656400  1.0  -0.0469
  C  C115  1  0.105600  0.788100  0.082120  1.0  0.7192
  C  C116  1  0.077800  0.719300  0.127900  1.0  -0.1427
  C  C117  1  0.979700  0.701600  0.141000  1.0  -0.0364
  C  C118  1  0.955800  0.633700  0.181700  1.0  -0.1507
  C  C119  1  0.029700  0.583900  0.210540  1.0  0.0684
  C  C120  1  0.127100  0.603200  0.197000  1.0  -0.1315
  C  C121  1  0.151000  0.670400  0.156400  1.0  -0.0449
  C  C122  1  0.605600  0.288100  0.582120  1.0  0.7192
  C  C123  1  0.577800  0.219300  0.627900  1.0  -0.1427
  C  C124  1  0.479700  0.201600  0.641000  1.0  -0.0364
  C  C125  1  0.455800  0.133700  0.681700  1.0  -0.1507
  C  C126  1  0.529700  0.083900  0.710540  1.0  0.0684
  C  C127  1  0.627100  0.103200  0.697000  1.0  -0.1315
  C  C128  1  0.651000  0.170400  0.656400  1.0  -0.0449
  C  C129  1  0.788100  0.894400  0.917880  1.0  0.7163
  C  C130  1  0.719300  0.922200  0.872100  1.0  -0.1434
  C  C131  1  0.701600  0.020300  0.859000  1.0  -0.0375
  C  C132  1  0.633700  0.044200  0.818300  1.0  -0.1512
  C  C133  1  0.583900  0.970300  0.789460  1.0  0.0683
  C  C134  1  0.603200  0.872900  0.803000  1.0  -0.1393
  C  C135  1  0.670400  0.849000  0.843600  1.0  -0.0507
  C  C136  1  0.288100  0.394400  0.417880  1.0  0.7163
  C  C137  1  0.219300  0.422200  0.372100  1.0  -0.1434
  C  C138  1  0.201600  0.520300  0.359000  1.0  -0.0375
  C  C139  1  0.133700  0.544200  0.318300  1.0  -0.1512
  C  C140  1  0.083900  0.470300  0.289460  1.0  0.0683
  C  C141  1  0.103200  0.372900  0.303000  1.0  -0.1393
  C  C142  1  0.170400  0.349000  0.343600  1.0  -0.0507
  C  C143  1  0.211900  0.105600  0.917880  1.0  0.7178
  C  C144  1  0.280700  0.077800  0.872100  1.0  -0.1415
  C  C145  1  0.298400  0.979700  0.859000  1.0  -0.0364
  C  C146  1  0.366300  0.955800  0.818300  1.0  -0.1518
  C  C147  1  0.416100  0.029700  0.789460  1.0  0.0674
  C  C148  1  0.396800  0.127100  0.803000  1.0  -0.1396
  C  C149  1  0.329600  0.151000  0.843600  1.0  -0.051
  C  C150  1  0.711900  0.605600  0.417880  1.0  0.7178
  C  C151  1  0.780700  0.577800  0.372100  1.0  -0.1415
  C  C152  1  0.798400  0.479700  0.359000  1.0  -0.0364
  C  C153  1  0.866300  0.455800  0.318300  1.0  -0.1518
  C  C154  1  0.916100  0.529700  0.289460  1.0  0.0674
  C  C155  1  0.896800  0.627100  0.303000  1.0  -0.1396
  C  C156  1  0.829600  0.651000  0.343600  1.0  -0.051
  C  C157  1  0.105600  0.788100  0.917880  1.0  0.7188
  C  C158  1  0.077800  0.719300  0.872100  1.0  -0.1428
  C  C159  1  0.979700  0.701600  0.859000  1.0  -0.0359
  C  C160  1  0.955800  0.633700  0.818300  1.0  -0.1501
  C  C161  1  0.029700  0.583900  0.789460  1.0  0.0683
  C  C162  1  0.127100  0.603200  0.803000  1.0  -0.1328
  C  C163  1  0.151000  0.670400  0.843600  1.0  -0.0449
  C  C164  1  0.605600  0.288100  0.417880  1.0  0.7188
  C  C165  1  0.577800  0.219300  0.372100  1.0  -0.1428
  C  C166  1  0.479700  0.201600  0.359000  1.0  -0.0359
  C  C167  1  0.455800  0.133700  0.318300  1.0  -0.1501
  C  C168  1  0.529700  0.083900  0.289460  1.0  0.0683
  C  C169  1  0.627100  0.103200  0.303000  1.0  -0.1328
  C  C170  1  0.651000  0.170400  0.343600  1.0  -0.0449
  C  C171  1  0.894400  0.211900  0.917880  1.0  0.718
  C  C172  1  0.922200  0.280700  0.872100  1.0  -0.1425
  C  C173  1  0.020300  0.298400  0.859000  1.0  -0.0364
  C  C174  1  0.044200  0.366300  0.818300  1.0  -0.1505
  C  C175  1  0.970300  0.416100  0.789460  1.0  0.068
  C  C176  1  0.872900  0.396800  0.803000  1.0  -0.1352
  C  C177  1  0.849000  0.329600  0.843600  1.0  -0.0469
  C  C178  1  0.394400  0.711900  0.417880  1.0  0.718
  C  C179  1  0.422200  0.780700  0.372100  1.0  -0.1425
  C  C180  1  0.520300  0.798400  0.359000  1.0  -0.0364
  C  C181  1  0.544200  0.866300  0.318300  1.0  -0.1505
  C  C182  1  0.470300  0.916100  0.289460  1.0  0.068
  C  C183  1  0.372900  0.896800  0.303000  1.0  -0.1352
  C  C184  1  0.349000  0.829600  0.343600  1.0  -0.0469
  C  C185  1  0.500000  0.000000  0.250000  1.0  -0.0166
  C  C186  1  0.000000  0.500000  0.250000  1.0  -0.0166
  C  C187  1  0.500000  0.000000  0.750000  1.0  -0.0166
  C  C188  1  0.000000  0.500000  0.750000  1.0  -0.0166
  O  O189  1  0.161300  0.038800  0.058930  1.0  -0.6916
  O  O190  1  0.206500  0.194500  0.068330  1.0  -0.57
  O  O191  1  0.661300  0.538800  0.558930  1.0  -0.6916
  O  O192  1  0.706500  0.694500  0.568330  1.0  -0.57
  O  O193  1  0.838700  0.961200  0.058930  1.0  -0.691
  O  O194  1  0.793500  0.805500  0.068330  1.0  -0.5711
  O  O195  1  0.338700  0.461200  0.558930  1.0  -0.691
  O  O196  1  0.293500  0.305500  0.568330  1.0  -0.5711
  O  O197  1  0.961200  0.161300  0.058930  1.0  -0.6904
  O  O198  1  0.805500  0.206500  0.068330  1.0  -0.5706
  O  O199  1  0.461200  0.661300  0.558930  1.0  -0.6904
  O  O200  1  0.305500  0.706500  0.568330  1.0  -0.5706
  O  O201  1  0.038800  0.838700  0.058930  1.0  -0.6898
  O  O202  1  0.194500  0.793500  0.068330  1.0  -0.572
  O  O203  1  0.538800  0.338700  0.558930  1.0  -0.6898
  O  O204  1  0.694500  0.293500  0.568330  1.0  -0.572
  O  O205  1  0.838700  0.961200  0.941070  1.0  -0.6915
  O  O206  1  0.793500  0.805500  0.931670  1.0  -0.571
  O  O207  1  0.338700  0.461200  0.441070  1.0  -0.6915
  O  O208  1  0.293500  0.305500  0.431670  1.0  -0.571
  O  O209  1  0.161300  0.038800  0.941070  1.0  -0.6921
  O  O210  1  0.206500  0.194500  0.931670  1.0  -0.5698
  O  O211  1  0.661300  0.538800  0.441070  1.0  -0.6921
  O  O212  1  0.706500  0.694500  0.431670  1.0  -0.5698
  O  O213  1  0.038800  0.838700  0.941070  1.0  -0.69
  O  O214  1  0.194500  0.793500  0.931670  1.0  -0.5716
  O  O215  1  0.538800  0.338700  0.441070  1.0  -0.69
  O  O216  1  0.694500  0.293500  0.431670  1.0  -0.5716
  O  O217  1  0.961200  0.161300  0.941070  1.0  -0.6911
  O  O218  1  0.805500  0.206500  0.931670  1.0  -0.5706
  O  O219  1  0.461200  0.661300  0.441070  1.0  -0.6911
  O  O220  1  0.305500  0.706500  0.431670  1.0  -0.5706
