# generated using pymatgen
data_LaZn2H2C11(N2O5)2
_symmetry_space_group_name_H-M   'P 1'
_cell_length_a   9.80780000
_cell_length_b   13.18670000
_cell_length_c   16.79230000
_cell_angle_alpha   81.52160000
_cell_angle_beta   73.02040000
_cell_angle_gamma   68.16830000
_symmetry_Int_Tables_number   1
_chemical_formula_structural   LaZn2H2C11(N2O5)2
_chemical_formula_sum   'La4 Zn8 H8 C44 N16 O40'
_cell_volume   1926.30331780
_cell_formula_units_Z   4
loop_
 _symmetry_equiv_pos_site_id
 _symmetry_equiv_pos_as_xyz
  1  'x, y, z'
loop_
 _atom_site_type_symbol
 _atom_site_label
 _atom_site_symmetry_multiplicity
 _atom_site_fract_x
 _atom_site_fract_y
 _atom_site_fract_z
 _atom_site_occupancy
 _atom_site_charge
  La  La1  1  0.632090  0.388010  0.573970  1.0  2.1673
  La  La2  1  0.594070  0.111990  0.926030  1.0  2.1666
  La  La3  1  0.367910  0.611990  0.426030  1.0  2.1659
  La  La4  1  0.405930  0.888010  0.073970  1.0  2.1654
  Zn  Zn5  1  0.254930  0.108730  0.315750  1.0  0.8907
  Zn  Zn6  1  0.181930  0.161260  0.542900  1.0  1.0323
  Zn  Zn7  1  0.679410  0.391270  0.184250  1.0  0.8905
  Zn  Zn8  1  0.886090  0.338740  0.957100  1.0  1.0411
  Zn  Zn9  1  0.745070  0.891270  0.684250  1.0  0.8904
  Zn  Zn10  1  0.818070  0.838740  0.457100  1.0  1.0348
  Zn  Zn11  1  0.320590  0.608730  0.815750  1.0  0.8905
  Zn  Zn12  1  0.113910  0.661260  0.042900  1.0  1.0368
  H  H13  1  0.030700  0.188300  0.183300  1.0  0.0854
  H  H14  1  0.412000  0.934900  0.630300  1.0  0.0836
  H  H15  1  0.402300  0.311700  0.316700  1.0  0.0834
  H  H16  1  0.977200  0.565100  0.869700  1.0  0.085
  H  H17  1  0.969300  0.811700  0.816700  1.0  0.0862
  H  H18  1  0.588000  0.065100  0.369700  1.0  0.084
  H  H19  1  0.597700  0.688300  0.683300  1.0  0.0842
  H  H20  1  0.022800  0.434900  0.130300  1.0  0.086
  C  C21  1  0.986800  0.268500  0.434700  1.0  0.6914
  C  C22  1  0.945700  0.273100  0.355700  1.0  0.0218
  C  C23  1  0.817600  0.332800  0.326800  1.0  -0.025
  C  C24  1  0.673400  0.421500  0.357100  1.0  0.6935
  C  C25  1  0.983500  0.224000  0.233200  1.0  0.2887
  C  C26  1  0.733300  0.104100  0.594300  1.0  0.6781
  C  C27  1  0.598500  0.085100  0.588700  1.0  -0.0
  C  C28  1  0.473400  0.145200  0.558800  1.0  0.0079
  C  C29  1  0.420400  0.254400  0.519000  1.0  0.7131
  C  C30  1  0.450900  0.991100  0.612500  1.0  0.3393
  C  C31  1  0.690000  0.231500  0.065300  1.0  0.6873
  C  C32  1  0.574500  0.226900  0.144300  1.0  0.02
  C  C33  1  0.477200  0.167200  0.173200  1.0  -0.0256
  C  C34  1  0.452000  0.078500  0.142900  1.0  0.6934
  C  C35  1  0.440700  0.276000  0.266800  1.0  0.288
  C  C36  1  0.431700  0.395900  0.905700  1.0  0.6789
  C  C37  1  0.272300  0.414900  0.911300  1.0  -0.0002
  C  C38  1  0.177400  0.354800  0.941200  1.0  0.0069
  C  C39  1  0.193800  0.245600  0.981000  1.0  0.7123
  C  C40  1  0.054500  0.508900  0.887500  1.0  0.3418
  C  C41  1  0.013200  0.731500  0.565300  1.0  0.6905
  C  C42  1  0.054300  0.726900  0.644300  1.0  0.0207
  C  C43  1  0.182400  0.667200  0.673200  1.0  -0.0246
  C  C44  1  0.326600  0.578500  0.642900  1.0  0.6937
  C  C45  1  0.016500  0.776000  0.766800  1.0  0.2885
  C  C46  1  0.266700  0.895900  0.405700  1.0  0.678
  C  C47  1  0.401500  0.914900  0.411300  1.0  0.0004
  C  C48  1  0.526600  0.854800  0.441200  1.0  0.0064
  C  C49  1  0.579600  0.745600  0.481000  1.0  0.7129
  C  C50  1  0.549100  0.008900  0.387500  1.0  0.3378
  C  C51  1  0.310000  0.768500  0.934700  1.0  0.6887
  C  C52  1  0.425500  0.773100  0.855700  1.0  0.0204
  C  C53  1  0.522800  0.832800  0.826800  1.0  -0.0258
  C  C54  1  0.548000  0.921500  0.857100  1.0  0.693
  C  C55  1  0.559300  0.724000  0.733200  1.0  0.2881
  C  C56  1  0.568300  0.604100  0.094300  1.0  0.6793
  C  C57  1  0.727700  0.585100  0.088700  1.0  0.0006
  C  C58  1  0.822600  0.645200  0.058800  1.0  0.0071
  C  C59  1  0.806200  0.754400  0.019000  1.0  0.7132
  C  C60  1  0.945500  0.491100  0.112500  1.0  0.3411
  C  C61  1  0.534600  0.250000  0.750000  1.0  0.6376
  C  C62  1  0.693400  0.250000  0.750000  1.0  0.5864
  C  C63  1  0.465400  0.750000  0.250000  1.0  0.6365
  C  C64  1  0.306600  0.750000  0.250000  1.0  0.5856
  N  N65  1  0.845700  0.299900  0.247700  1.0  -0.4193
  N  N66  1  0.048600  0.203600  0.296000  1.0  -0.4124
  N  N67  1  0.381400  0.083500  0.573900  1.0  -0.3841
  N  N68  1  0.582300  0.988000  0.622800  1.0  -0.4366
  N  N69  1  0.393300  0.200100  0.252300  1.0  -0.4196
  N  N70  1  0.548200  0.296400  0.204000  1.0  -0.4113
  N  N71  1  0.038800  0.416500  0.926100  1.0  -0.3841
  N  N72  1  0.193100  0.512000  0.877200  1.0  -0.4388
  N  N73  1  0.154300  0.700100  0.752300  1.0  -0.4205
  N  N74  1  0.951400  0.796400  0.704000  1.0  -0.4104
  N  N75  1  0.618600  0.916500  0.426100  1.0  -0.3831
  N  N76  1  0.417700  0.012000  0.377200  1.0  -0.4374
  N  N77  1  0.606700  0.799900  0.747700  1.0  -0.4194
  N  N78  1  0.451800  0.703600  0.796000  1.0  -0.4119
  N  N79  1  0.961200  0.583500  0.073900  1.0  -0.3849
  N  N80  1  0.806900  0.488000  0.122800  1.0  -0.44
  O  O81  1  0.904700  0.333500  0.490900  1.0  -0.7124
  O  O82  1  0.114500  0.195000  0.439200  1.0  -0.6251
  O  O83  1  0.639100  0.464000  0.427200  1.0  -0.7973
  O  O84  1  0.582600  0.458100  0.311100  1.0  -0.6533
  O  O85  1  0.817800  0.030500  0.634300  1.0  -0.5879
  O  O86  1  0.761200  0.188200  0.561400  1.0  -0.7059
  O  O87  1  0.491300  0.319000  0.507400  1.0  -0.6938
  O  O88  1  0.298900  0.278800  0.496800  1.0  -0.6027
  O  O89  1  0.478200  0.304000  0.692600  1.0  -0.6419
  O  O90  1  0.751140  0.314120  0.696200  1.0  -0.6085
  O  O91  1  0.729100  0.166500  0.009100  1.0  -0.7137
  O  O92  1  0.748700  0.305000  0.060800  1.0  -0.6224
  O  O93  1  0.530300  0.036000  0.072800  1.0  -0.7964
  O  O94  1  0.351800  0.041900  0.188900  1.0  -0.652
  O  O95  1  0.482600  0.469500  0.865700  1.0  -0.5868
  O  O96  1  0.510800  0.311800  0.938600  1.0  -0.7031
  O  O97  1  0.317700  0.181000  0.992600  1.0  -0.6917
  O  O98  1  0.074500  0.221200  0.003200  1.0  -0.6035
  O  O99  1  0.474800  0.196000  0.807400  1.0  -0.6384
  O  O100  1  0.761460  0.185880  0.803800  1.0  -0.6122
  O  O101  1  0.095300  0.666500  0.509100  1.0  -0.7138
  O  O102  1  0.885500  0.805000  0.560800  1.0  -0.6238
  O  O103  1  0.360900  0.536000  0.572800  1.0  -0.7984
  O  O104  1  0.417400  0.541900  0.688900  1.0  -0.652
  O  O105  1  0.182200  0.969500  0.365700  1.0  -0.5909
  O  O106  1  0.238800  0.811800  0.438600  1.0  -0.7049
  O  O107  1  0.508700  0.681000  0.492600  1.0  -0.6923
  O  O108  1  0.701100  0.721200  0.503200  1.0  -0.6021
  O  O109  1  0.521800  0.696000  0.307400  1.0  -0.641
  O  O110  1  0.248860  0.685880  0.303800  1.0  -0.6052
  O  O111  1  0.270900  0.833500  0.990900  1.0  -0.7127
  O  O112  1  0.251300  0.695000  0.939200  1.0  -0.6247
  O  O113  1  0.469700  0.964000  0.927200  1.0  -0.7994
  O  O114  1  0.648200  0.958100  0.811100  1.0  -0.6523
  O  O115  1  0.517400  0.530500  0.134300  1.0  -0.5888
  O  O116  1  0.489200  0.688200  0.061400  1.0  -0.7039
  O  O117  1  0.682300  0.819000  0.007400  1.0  -0.6917
  O  O118  1  0.925500  0.778800  0.996800  1.0  -0.6056
  O  O119  1  0.525200  0.804000  0.192600  1.0  -0.6402
  O  O120  1  0.238540  0.814120  0.196200  1.0  -0.6114
