# generated using pymatgen
data_Cd3H12(C7N5)2
_symmetry_space_group_name_H-M   'P 1'
_cell_length_a   13.23700000
_cell_length_b   14.69800000
_cell_length_c   14.87000000
_cell_angle_alpha   90.00000000
_cell_angle_beta   90.00000000
_cell_angle_gamma   90.00000000
_symmetry_Int_Tables_number   1
_chemical_formula_structural   Cd3H12(C7N5)2
_chemical_formula_sum   'Cd12 H48 C56 N40'
_cell_volume   2893.06892462
_cell_formula_units_Z   4
loop_
 _symmetry_equiv_pos_site_id
 _symmetry_equiv_pos_as_xyz
  1  'x, y, z'
loop_
 _atom_site_type_symbol
 _atom_site_label
 _atom_site_symmetry_multiplicity
 _atom_site_fract_x
 _atom_site_fract_y
 _atom_site_fract_z
 _atom_site_occupancy
 _atom_site_charge
  Cd  Cd1  1  0.238310  0.063210  0.610100  1.0  0.8411
  Cd  Cd2  1  0.261690  0.563210  0.889900  1.0  0.8406
  Cd  Cd3  1  0.761690  0.436790  0.610100  1.0  0.8421
  Cd  Cd4  1  0.738310  0.936790  0.889900  1.0  0.839
  Cd  Cd5  1  0.761690  0.936790  0.389900  1.0  0.8407
  Cd  Cd6  1  0.738310  0.436790  0.110100  1.0  0.8411
  Cd  Cd7  1  0.238310  0.563210  0.389900  1.0  0.839
  Cd  Cd8  1  0.261690  0.063210  0.110100  1.0  0.8422
  Cd  Cd9  1  0.000000  0.750000  0.648850  1.0  0.9376
  Cd  Cd10  1  0.500000  0.250000  0.851150  1.0  0.9365
  Cd  Cd11  1  0.000000  0.250000  0.351150  1.0  0.9365
  Cd  Cd12  1  0.500000  0.750000  0.148850  1.0  0.9376
  H  H13  1  0.456000  0.000900  0.333333  1.0  0.2598
  H  H14  1  0.328000  0.861400  0.519100  1.0  0.0853
  H  H15  1  0.420800  0.849400  0.377200  1.0  0.1026
  H  H16  1  0.353500  0.175900  0.476900  1.0  0.136
  H  H17  1  0.353900  0.163600  0.372200  1.0  0.1277
  H  H18  1  0.456200  0.166500  0.425200  1.0  0.1253
  H  H19  1  0.044000  0.500900  0.166700  1.0  0.2611
  H  H20  1  0.172000  0.361400  0.980900  1.0  0.0848
  H  H21  1  0.079200  0.349400  0.122800  1.0  0.1022
  H  H22  1  0.146500  0.675900  0.023100  1.0  0.1359
  H  H23  1  0.146100  0.663600  0.127800  1.0  0.1291
  H  H24  1  0.043800  0.666500  0.074800  1.0  0.1249
  H  H25  1  0.544000  0.499100  0.333333  1.0  0.2593
  H  H26  1  0.672000  0.638600  0.519100  1.0  0.0846
  H  H27  1  0.579200  0.650600  0.377200  1.0  0.1022
  H  H28  1  0.646500  0.324100  0.476900  1.0  0.1372
  H  H29  1  0.646100  0.336400  0.372200  1.0  0.1279
  H  H30  1  0.543800  0.333500  0.425200  1.0  0.1252
  H  H31  1  0.956000  0.999100  0.166700  1.0  0.2598
  H  H32  1  0.828000  0.138600  0.980900  1.0  0.0852
  H  H33  1  0.920800  0.150600  0.122800  1.0  0.1022
  H  H34  1  0.853500  0.824100  0.023100  1.0  0.135
  H  H35  1  0.853900  0.836400  0.127800  1.0  0.1302
  H  H36  1  0.956200  0.833500  0.074800  1.0  0.1252
  H  H37  1  0.544000  0.999100  0.666667  1.0  0.2594
  H  H38  1  0.672000  0.138600  0.480900  1.0  0.0849
  H  H39  1  0.579200  0.150600  0.622800  1.0  0.102
  H  H40  1  0.646500  0.824100  0.523100  1.0  0.1341
  H  H41  1  0.646100  0.836400  0.627800  1.0  0.1294
  H  H42  1  0.543800  0.833500  0.574800  1.0  0.123
  H  H43  1  0.956000  0.499100  0.833300  1.0  0.2615
  H  H44  1  0.828000  0.638600  0.019100  1.0  0.0854
  H  H45  1  0.920800  0.650600  0.877200  1.0  0.1023
  H  H46  1  0.853500  0.324100  0.976900  1.0  0.1352
  H  H47  1  0.853900  0.336400  0.872200  1.0  0.1276
  H  H48  1  0.956200  0.333500  0.925200  1.0  0.1235
  H  H49  1  0.456000  0.500900  0.666667  1.0  0.258
  H  H50  1  0.328000  0.361400  0.480900  1.0  0.0845
  H  H51  1  0.420800  0.349400  0.622800  1.0  0.1024
  H  H52  1  0.353500  0.675900  0.523100  1.0  0.1335
  H  H53  1  0.353900  0.663600  0.627800  1.0  0.1301
  H  H54  1  0.456200  0.666500  0.574800  1.0  0.1234
  H  H55  1  0.044000  0.000900  0.833300  1.0  0.2611
  H  H56  1  0.172000  0.861400  0.019100  1.0  0.085
  H  H57  1  0.079200  0.849400  0.877200  1.0  0.1025
  H  H58  1  0.146500  0.175900  0.976900  1.0  0.1353
  H  H59  1  0.146100  0.163600  0.872200  1.0  0.128
  H  H60  1  0.043800  0.166500  0.925200  1.0  0.1239
  C  C61  1  0.150400  0.940700  0.647100  1.0  -0.0694
  C  C62  1  0.162200  0.641800  0.799900  1.0  -0.0198
  C  C63  1  0.145600  0.650700  0.482400  1.0  -0.1262
  C  C64  1  0.383000  0.046400  0.438700  1.0  0.3084
  C  C65  1  0.351400  0.909600  0.484300  1.0  -0.0454
  C  C66  1  0.402800  0.902800  0.406700  1.0  -0.0612
  C  C67  1  0.387000  0.147000  0.427200  1.0  -0.4289
  C  C68  1  0.349600  0.440700  0.852900  1.0  -0.0698
  C  C69  1  0.337800  0.141800  0.700100  1.0  -0.0196
  C  C70  1  0.354400  0.150700  0.017600  1.0  -0.125
  C  C71  1  0.117000  0.546400  0.061300  1.0  0.307
  C  C72  1  0.148600  0.409600  0.015700  1.0  -0.0453
  C  C73  1  0.097200  0.402800  0.093300  1.0  -0.0606
  C  C74  1  0.113000  0.647000  0.072800  1.0  -0.4305
  C  C75  1  0.849600  0.559300  0.647100  1.0  -0.0689
  C  C76  1  0.837800  0.858200  0.799900  1.0  -0.0211
  C  C77  1  0.854400  0.849300  0.482400  1.0  -0.1265
  C  C78  1  0.617000  0.453600  0.438700  1.0  0.3078
  C  C79  1  0.648600  0.590400  0.484300  1.0  -0.0445
  C  C80  1  0.597200  0.597200  0.406700  1.0  -0.0612
  C  C81  1  0.613000  0.353000  0.427200  1.0  -0.4323
  C  C82  1  0.650400  0.059300  0.852900  1.0  -0.0688
  C  C83  1  0.662200  0.358200  0.700100  1.0  -0.0206
  C  C84  1  0.645600  0.349300  0.017600  1.0  -0.1246
  C  C85  1  0.883000  0.953600  0.061300  1.0  0.3096
  C  C86  1  0.851400  0.090400  0.015700  1.0  -0.0457
  C  C87  1  0.902800  0.097200  0.093300  1.0  -0.0603
  C  C88  1  0.887000  0.853000  0.072800  1.0  -0.4316
  C  C89  1  0.849600  0.059300  0.352900  1.0  -0.0691
  C  C90  1  0.837800  0.358200  0.200100  1.0  -0.0206
  C  C91  1  0.854400  0.349300  0.517600  1.0  -0.1243
  C  C92  1  0.617000  0.953600  0.561300  1.0  0.3078
  C  C93  1  0.648600  0.090400  0.515700  1.0  -0.038
  C  C94  1  0.597200  0.097200  0.593300  1.0  -0.0613
  C  C95  1  0.613000  0.853000  0.572800  1.0  -0.4309
  C  C96  1  0.650400  0.559300  0.147100  1.0  -0.0686
  C  C97  1  0.662200  0.858200  0.299900  1.0  -0.0205
  C  C98  1  0.645600  0.849300  0.982400  1.0  -0.1248
  C  C99  1  0.883000  0.453600  0.938700  1.0  0.3094
  C  C100  1  0.851400  0.590400  0.984300  1.0  -0.0387
  C  C101  1  0.902800  0.597200  0.906700  1.0  -0.0605
  C  C102  1  0.887000  0.353000  0.927200  1.0  -0.4305
  C  C103  1  0.150400  0.440700  0.352900  1.0  -0.0697
  C  C104  1  0.162200  0.141800  0.200100  1.0  -0.0195
  C  C105  1  0.145600  0.150700  0.517600  1.0  -0.1235
  C  C106  1  0.383000  0.546400  0.561300  1.0  0.3083
  C  C107  1  0.351400  0.409600  0.515700  1.0  -0.0388
  C  C108  1  0.402800  0.402800  0.593300  1.0  -0.0604
  C  C109  1  0.387000  0.647000  0.572800  1.0  -0.4288
  C  C110  1  0.349600  0.940700  0.147100  1.0  -0.0695
  C  C111  1  0.337800  0.641800  0.299900  1.0  -0.0203
  C  C112  1  0.354400  0.650700  0.982400  1.0  -0.1259
  C  C113  1  0.117000  0.046400  0.938700  1.0  0.3075
  C  C114  1  0.148600  0.909600  0.984300  1.0  -0.038
  C  C115  1  0.097200  0.902800  0.906700  1.0  -0.0612
  C  C116  1  0.113000  0.147000  0.927200  1.0  -0.4291
  N  N117  1  0.102900  0.878700  0.655100  1.0  -0.3748
  N  N118  1  0.105300  0.680400  0.757200  1.0  -0.3684
  N  N119  1  0.101500  0.687400  0.535500  1.0  -0.3921
  N  N120  1  0.422500  0.986600  0.380800  1.0  -0.2488
  N  N121  1  0.339600  0.000200  0.503200  1.0  -0.3248
  N  N122  1  0.397100  0.378700  0.844900  1.0  -0.3738
  N  N123  1  0.394700  0.180400  0.742800  1.0  -0.3682
  N  N124  1  0.398500  0.187400  0.964500  1.0  -0.3899
  N  N125  1  0.077500  0.486600  0.119200  1.0  -0.2466
  N  N126  1  0.160400  0.500200  0.996800  1.0  -0.3257
  N  N127  1  0.897100  0.621300  0.655100  1.0  -0.3748
  N  N128  1  0.894700  0.819600  0.757200  1.0  -0.368
  N  N129  1  0.898500  0.812600  0.535500  1.0  -0.3905
  N  N130  1  0.577500  0.513400  0.380800  1.0  -0.2479
  N  N131  1  0.660400  0.499800  0.503200  1.0  -0.3249
  N  N132  1  0.602900  0.121300  0.844900  1.0  -0.3757
  N  N133  1  0.605300  0.319600  0.742800  1.0  -0.3673
  N  N134  1  0.601500  0.312600  0.964500  1.0  -0.3908
  N  N135  1  0.922500  0.013400  0.119200  1.0  -0.2467
  N  N136  1  0.839600  0.999800  0.996800  1.0  -0.3229
  N  N137  1  0.897100  0.121300  0.344900  1.0  -0.3747
  N  N138  1  0.894700  0.319600  0.242800  1.0  -0.3679
  N  N139  1  0.898500  0.312600  0.464500  1.0  -0.3896
  N  N140  1  0.577500  0.013400  0.619200  1.0  -0.2441
  N  N141  1  0.660400  0.999800  0.496800  1.0  -0.3251
  N  N142  1  0.602900  0.621300  0.155100  1.0  -0.3757
  N  N143  1  0.605300  0.819600  0.257200  1.0  -0.3687
  N  N144  1  0.601500  0.812600  0.035500  1.0  -0.3915
  N  N145  1  0.922500  0.513400  0.880800  1.0  -0.2504
  N  N146  1  0.839600  0.499800  0.003200  1.0  -0.325
  N  N147  1  0.102900  0.378700  0.344900  1.0  -0.3748
  N  N148  1  0.105300  0.180400  0.242800  1.0  -0.3674
  N  N149  1  0.101500  0.187400  0.464500  1.0  -0.3911
  N  N150  1  0.422500  0.486600  0.619200  1.0  -0.2448
  N  N151  1  0.339600  0.500200  0.496800  1.0  -0.3218
  N  N152  1  0.397100  0.878700  0.155100  1.0  -0.3739
  N  N153  1  0.394700  0.680400  0.257200  1.0  -0.3682
  N  N154  1  0.398500  0.687400  0.035500  1.0  -0.3908
  N  N155  1  0.077500  0.986600  0.880800  1.0  -0.2505
  N  N156  1  0.160400  0.000200  0.003200  1.0  -0.3258
