# generated using pymatgen
data_NdZn2H2C11(N2O5)2
_symmetry_space_group_name_H-M   'P 1'
_cell_length_a   9.82140000
_cell_length_b   13.19940000
_cell_length_c   16.61150000
_cell_angle_alpha   81.35270000
_cell_angle_beta   72.80530000
_cell_angle_gamma   68.15860000
_symmetry_Int_Tables_number   1
_chemical_formula_structural   NdZn2H2C11(N2O5)2
_chemical_formula_sum   'Nd4 Zn8 H8 C44 N16 O40'
_cell_volume   1907.55870083
_cell_formula_units_Z   4
loop_
 _symmetry_equiv_pos_site_id
 _symmetry_equiv_pos_as_xyz
  1  'x, y, z'
loop_
 _atom_site_type_symbol
 _atom_site_label
 _atom_site_symmetry_multiplicity
 _atom_site_fract_x
 _atom_site_fract_y
 _atom_site_fract_z
 _atom_site_occupancy
 _atom_site_charge
  Nd  Nd1  1  0.628440  0.384000  0.573500  1.0  2.2941
  Nd  Nd2  1  0.585940  0.116000  0.926500  1.0  2.2935
  Nd  Nd3  1  0.371560  0.616000  0.426500  1.0  2.2923
  Nd  Nd4  1  0.414060  0.884000  0.073500  1.0  2.2927
  Zn  Zn5  1  0.250100  0.109610  0.316690  1.0  0.8843
  Zn  Zn6  1  0.180800  0.160400  0.544520  1.0  1.0287
  Zn  Zn7  1  0.676400  0.390390  0.183310  1.0  0.884
  Zn  Zn8  1  0.885720  0.339600  0.955480  1.0  1.0343
  Zn  Zn9  1  0.749900  0.890390  0.683310  1.0  0.8831
  Zn  Zn10  1  0.819200  0.839600  0.455480  1.0  1.03
  Zn  Zn11  1  0.323600  0.609610  0.816690  1.0  0.8836
  Zn  Zn12  1  0.114280  0.660400  0.044520  1.0  1.0315
  H  H13  1  0.024800  0.186400  0.183800  1.0  0.076
  H  H14  1  0.413000  0.932300  0.630500  1.0  0.0903
  H  H15  1  0.395000  0.313600  0.316200  1.0  0.0744
  H  H16  1  0.975800  0.567700  0.869500  1.0  0.0907
  H  H17  1  0.975200  0.813600  0.816200  1.0  0.0767
  H  H18  1  0.587000  0.067700  0.369500  1.0  0.0866
  H  H19  1  0.605000  0.686400  0.683800  1.0  0.0751
  H  H20  1  0.024200  0.432300  0.130500  1.0  0.088
  C  C21  1  0.979900  0.270000  0.437000  1.0  0.6954
  C  C22  1  0.938200  0.273000  0.358000  1.0  -0.0059
  C  C23  1  0.812000  0.332700  0.327700  1.0  -0.0272
  C  C24  1  0.668100  0.423500  0.357900  1.0  0.6917
  C  C25  1  0.977600  0.222900  0.233900  1.0  0.3057
  C  C26  1  0.734000  0.102700  0.592900  1.0  0.6729
  C  C27  1  0.598100  0.083500  0.588900  1.0  -0.0135
  C  C28  1  0.472200  0.143800  0.559800  1.0  0.0065
  C  C29  1  0.419500  0.253800  0.519200  1.0  0.7046
  C  C30  1  0.451400  0.988900  0.612700  1.0  0.3303
  C  C31  1  0.686900  0.230000  0.063000  1.0  0.694
  C  C32  1  0.569200  0.227000  0.142000  1.0  -0.0074
  C  C33  1  0.472400  0.167300  0.172300  1.0  -0.0276
  C  C34  1  0.449500  0.076500  0.142100  1.0  0.6917
  C  C35  1  0.434400  0.277100  0.266100  1.0  0.3061
  C  C36  1  0.429600  0.397300  0.907100  1.0  0.6762
  C  C37  1  0.270500  0.416500  0.911100  1.0  -0.0133
  C  C38  1  0.175800  0.356200  0.940200  1.0  0.006
  C  C39  1  0.192500  0.246200  0.980800  1.0  0.7044
  C  C40  1  0.053000  0.511100  0.887300  1.0  0.333
  C  C41  1  0.020100  0.730000  0.563000  1.0  0.6952
  C  C42  1  0.061800  0.727000  0.642000  1.0  -0.0071
  C  C43  1  0.188000  0.667300  0.672300  1.0  -0.0268
  C  C44  1  0.331900  0.576500  0.642100  1.0  0.6926
  C  C45  1  0.022400  0.777100  0.766100  1.0  0.306
  C  C46  1  0.266000  0.897300  0.407100  1.0  0.6733
  C  C47  1  0.401900  0.916500  0.411100  1.0  -0.0125
  C  C48  1  0.527800  0.856200  0.440200  1.0  0.006
  C  C49  1  0.580500  0.746200  0.480800  1.0  0.7046
  C  C50  1  0.548600  0.011100  0.387300  1.0  0.3291
  C  C51  1  0.313100  0.770000  0.937000  1.0  0.6944
  C  C52  1  0.430800  0.773000  0.858000  1.0  -0.008
  C  C53  1  0.527600  0.832700  0.827700  1.0  -0.0284
  C  C54  1  0.550500  0.923500  0.857900  1.0  0.6916
  C  C55  1  0.565600  0.722900  0.733900  1.0  0.3052
  C  C56  1  0.570400  0.602700  0.092900  1.0  0.6763
  C  C57  1  0.729500  0.583500  0.088900  1.0  -0.0129
  C  C58  1  0.824200  0.643800  0.059800  1.0  0.007
  C  C59  1  0.807500  0.753800  0.019200  1.0  0.7043
  C  C60  1  0.947000  0.488900  0.112700  1.0  0.3323
  C  C61  1  0.530100  0.250000  0.750000  1.0  0.6302
  C  C62  1  0.687700  0.250000  0.750000  1.0  0.5522
  C  C63  1  0.469900  0.750000  0.250000  1.0  0.6293
  C  C64  1  0.312300  0.750000  0.250000  1.0  0.5514
  N  N65  1  0.839310  0.298680  0.248500  1.0  -0.4153
  N  N66  1  0.042510  0.203980  0.296800  1.0  -0.3982
  N  N67  1  0.380190  0.082620  0.574800  1.0  -0.4424
  N  N68  1  0.583870  0.985360  0.622100  1.0  -0.4285
  N  N69  1  0.386490  0.201320  0.251500  1.0  -0.4164
  N  N70  1  0.543290  0.296020  0.203200  1.0  -0.3978
  N  N71  1  0.037610  0.417380  0.925200  1.0  -0.4421
  N  N72  1  0.191330  0.514640  0.877900  1.0  -0.4307
  N  N73  1  0.160690  0.701320  0.751500  1.0  -0.4157
  N  N74  1  0.957490  0.796020  0.703200  1.0  -0.3976
  N  N75  1  0.619810  0.917380  0.425200  1.0  -0.4415
  N  N76  1  0.416130  0.014640  0.377900  1.0  -0.429
  N  N77  1  0.613510  0.798680  0.748500  1.0  -0.4141
  N  N78  1  0.456710  0.703980  0.796800  1.0  -0.3979
  N  N79  1  0.962390  0.582620  0.074800  1.0  -0.4429
  N  N80  1  0.808670  0.485360  0.122100  1.0  -0.4314
  O  O81  1  0.896940  0.333400  0.493920  1.0  -0.703
  O  O82  1  0.108550  0.197700  0.440600  1.0  -0.6211
  O  O83  1  0.633820  0.464360  0.428800  1.0  -0.7749
  O  O84  1  0.580820  0.461610  0.309950  1.0  -0.6407
  O  O85  1  0.820470  0.028660  0.630800  1.0  -0.5908
  O  O86  1  0.758090  0.188520  0.561300  1.0  -0.7199
  O  O87  1  0.490270  0.318060  0.508200  1.0  -0.7063
  O  O88  1  0.297150  0.278500  0.497800  1.0  -0.6108
  O  O89  1  0.474080  0.304080  0.691760  1.0  -0.6334
  O  O90  1  0.741970  0.311560  0.695500  1.0  -0.6408
  O  O91  1  0.724260  0.166600  0.006080  1.0  -0.7019
  O  O92  1  0.746850  0.302300  0.059400  1.0  -0.6196
  O  O93  1  0.526980  0.035640  0.071200  1.0  -0.774
  O  O94  1  0.352380  0.038390  0.190050  1.0  -0.64
  O  O95  1  0.479930  0.471340  0.869200  1.0  -0.5904
  O  O96  1  0.507910  0.311480  0.938700  1.0  -0.7171
  O  O97  1  0.316530  0.181940  0.991800  1.0  -0.7056
  O  O98  1  0.073450  0.221500  0.002200  1.0  -0.6119
  O  O99  1  0.469920  0.195920  0.808240  1.0  -0.6298
  O  O100  1  0.749030  0.188440  0.804500  1.0  -0.6428
  O  O101  1  0.103060  0.666667  0.506080  1.0  -0.7052
  O  O102  1  0.891450  0.802300  0.559400  1.0  -0.6204
  O  O103  1  0.366180  0.535640  0.571200  1.0  -0.7744
  O  O104  1  0.419180  0.538390  0.690050  1.0  -0.6402
  O  O105  1  0.179530  0.971340  0.369200  1.0  -0.5924
  O  O106  1  0.241910  0.811480  0.438700  1.0  -0.7202
  O  O107  1  0.509730  0.681940  0.491800  1.0  -0.7056
  O  O108  1  0.702850  0.721500  0.502200  1.0  -0.6109
  O  O109  1  0.525920  0.695920  0.308240  1.0  -0.6324
  O  O110  1  0.258030  0.688440  0.304500  1.0  -0.6376
  O  O111  1  0.275740  0.833400  0.993920  1.0  -0.7042
  O  O112  1  0.253150  0.697700  0.940600  1.0  -0.6216
  O  O113  1  0.473020  0.964360  0.928800  1.0  -0.7748
  O  O114  1  0.647620  0.961610  0.809950  1.0  -0.6407
  O  O115  1  0.520070  0.528660  0.130800  1.0  -0.5908
  O  O116  1  0.492090  0.688520  0.061300  1.0  -0.7196
  O  O117  1  0.683470  0.818060  0.008200  1.0  -0.7054
  O  O118  1  0.926550  0.778500  0.997800  1.0  -0.6128
  O  O119  1  0.530080  0.804080  0.191760  1.0  -0.6312
  O  O120  1  0.250970  0.811560  0.195500  1.0  -0.6417
