# generated using pymatgen
data_SmZn2H2C11(N2O5)2
_symmetry_space_group_name_H-M   'P 1'
_cell_length_a   9.84380000
_cell_length_b   13.20670000
_cell_length_c   16.49190000
_cell_angle_alpha   81.12080000
_cell_angle_beta   72.63580000
_cell_angle_gamma   68.11880000
_symmetry_Int_Tables_number   1
_chemical_formula_structural   SmZn2H2C11(N2O5)2
_chemical_formula_sum   'Sm4 Zn8 H8 C44 N16 O40'
_cell_volume   1896.63435429
_cell_formula_units_Z   4
loop_
 _symmetry_equiv_pos_site_id
 _symmetry_equiv_pos_as_xyz
  1  'x, y, z'
loop_
 _atom_site_type_symbol
 _atom_site_label
 _atom_site_symmetry_multiplicity
 _atom_site_fract_x
 _atom_site_fract_y
 _atom_site_fract_z
 _atom_site_occupancy
 _atom_site_charge
  Sm  Sm1  1  0.626690  0.381900  0.572860  1.0  2.322
  Sm  Sm2  1  0.581450  0.118100  0.927140  1.0  2.3215
  Sm  Sm3  1  0.373310  0.618100  0.427140  1.0  2.3185
  Sm  Sm4  1  0.418550  0.881900  0.072860  1.0  2.3194
  Zn  Zn5  1  0.247190  0.110400  0.317800  1.0  0.8822
  Zn  Zn6  1  0.179700  0.160510  0.545710  1.0  1.0586
  Zn  Zn7  1  0.675390  0.389600  0.182200  1.0  0.882
  Zn  Zn8  1  0.885920  0.339490  0.954290  1.0  1.0652
  Zn  Zn9  1  0.752810  0.889600  0.682200  1.0  0.8814
  Zn  Zn10  1  0.820300  0.839490  0.454290  1.0  1.0601
  Zn  Zn11  1  0.324610  0.610400  0.817800  1.0  0.8816
  Zn  Zn12  1  0.114080  0.660510  0.045710  1.0  1.0634
  H  H13  1  0.022500  0.185300  0.183300  1.0  0.0766
  H  H14  1  0.415800  0.930100  0.629900  1.0  0.0782
  H  H15  1  0.391100  0.314700  0.316700  1.0  0.0751
  H  H16  1  0.975800  0.569900  0.870100  1.0  0.0799
  H  H17  1  0.977500  0.814700  0.816700  1.0  0.0773
  H  H18  1  0.584200  0.069900  0.370100  1.0  0.0783
  H  H19  1  0.608900  0.685300  0.683300  1.0  0.0754
  H  H20  1  0.024200  0.430100  0.129900  1.0  0.0805
  C  C21  1  0.977600  0.270400  0.437800  1.0  0.7259
  C  C22  1  0.935600  0.272800  0.358400  1.0  -0.0078
  C  C23  1  0.809700  0.332500  0.328100  1.0  -0.0144
  C  C24  1  0.666400  0.424200  0.357400  1.0  0.71
  C  C25  1  0.975100  0.221900  0.233700  1.0  0.3029
  C  C26  1  0.733300  0.102600  0.591400  1.0  0.6829
  C  C27  1  0.597500  0.082800  0.588200  1.0  0.0036
  C  C28  1  0.470600  0.143400  0.560200  1.0  0.0021
  C  C29  1  0.417500  0.254200  0.519600  1.0  0.7094
  C  C30  1  0.452900  0.987400  0.612400  1.0  0.3162
  C  C31  1  0.685800  0.229600  0.062200  1.0  0.7256
  C  C32  1  0.566800  0.227200  0.141600  1.0  -0.0091
  C  C33  1  0.470300  0.167500  0.171900  1.0  -0.0142
  C  C34  1  0.448000  0.075800  0.142600  1.0  0.7105
  C  C35  1  0.430700  0.278100  0.266300  1.0  0.3044
  C  C36  1  0.427300  0.397400  0.908600  1.0  0.6843
  C  C37  1  0.268500  0.417200  0.911800  1.0  0.0034
  C  C38  1  0.174200  0.356600  0.939800  1.0  0.0022
  C  C39  1  0.191300  0.245800  0.980400  1.0  0.7084
  C  C40  1  0.052700  0.512600  0.887600  1.0  0.3187
  C  C41  1  0.022400  0.729600  0.562200  1.0  0.7263
  C  C42  1  0.064400  0.727200  0.641600  1.0  -0.0103
  C  C43  1  0.190300  0.667500  0.671900  1.0  -0.014
  C  C44  1  0.333600  0.575800  0.642600  1.0  0.7105
  C  C45  1  0.024900  0.778100  0.766300  1.0  0.3042
  C  C46  1  0.266700  0.897400  0.408600  1.0  0.6822
  C  C47  1  0.402500  0.917200  0.411800  1.0  0.003
  C  C48  1  0.529400  0.856600  0.439800  1.0  0.0022
  C  C49  1  0.582500  0.745800  0.480400  1.0  0.7092
  C  C50  1  0.547100  0.012600  0.387600  1.0  0.3158
  C  C51  1  0.314200  0.770400  0.937800  1.0  0.7255
  C  C52  1  0.433200  0.772800  0.858400  1.0  -0.0097
  C  C53  1  0.529700  0.832500  0.828100  1.0  -0.0148
  C  C54  1  0.552000  0.924200  0.857400  1.0  0.7104
  C  C55  1  0.569300  0.721900  0.733700  1.0  0.3024
  C  C56  1  0.572700  0.602600  0.091400  1.0  0.6848
  C  C57  1  0.731500  0.582800  0.088200  1.0  0.0026
  C  C58  1  0.825800  0.643400  0.060200  1.0  0.0029
  C  C59  1  0.808700  0.754200  0.019600  1.0  0.7089
  C  C60  1  0.947300  0.487400  0.112400  1.0  0.318
  C  C61  1  0.527000  0.250000  0.750000  1.0  0.559
  C  C62  1  0.685200  0.250000  0.750000  1.0  0.6106
  C  C63  1  0.473000  0.750000  0.250000  1.0  0.5588
  C  C64  1  0.314800  0.750000  0.250000  1.0  0.6098
  N  N65  1  0.836630  0.297740  0.248400  1.0  -0.4102
  N  N66  1  0.039360  0.203380  0.297500  1.0  -0.384
  N  N67  1  0.378940  0.081720  0.575800  1.0  -0.5035
  N  N68  1  0.585280  0.984240  0.621200  1.0  -0.4213
  N  N69  1  0.382770  0.202260  0.251600  1.0  -0.411
  N  N70  1  0.540240  0.296620  0.202500  1.0  -0.3819
  N  N71  1  0.036460  0.418280  0.924200  1.0  -0.5023
  N  N72  1  0.190720  0.515760  0.878800  1.0  -0.4228
  N  N73  1  0.163370  0.702260  0.751600  1.0  -0.4103
  N  N74  1  0.960640  0.796620  0.702500  1.0  -0.3813
  N  N75  1  0.621060  0.918280  0.424200  1.0  -0.505
  N  N76  1  0.414720  0.015760  0.378800  1.0  -0.4213
  N  N77  1  0.617230  0.797740  0.748400  1.0  -0.409
  N  N78  1  0.459760  0.703380  0.797500  1.0  -0.3819
  N  N79  1  0.963540  0.581720  0.075800  1.0  -0.5053
  N  N80  1  0.809280  0.484240  0.121200  1.0  -0.4236
  O  O81  1  0.892900  0.333850  0.495150  1.0  -0.7031
  O  O82  1  0.106000  0.199200  0.441400  1.0  -0.6037
  O  O83  1  0.630130  0.464960  0.429580  1.0  -0.8242
  O  O84  1  0.581180  0.463440  0.308600  1.0  -0.634
  O  O85  1  0.822340  0.027720  0.628000  1.0  -0.5773
  O  O86  1  0.755670  0.189560  0.560500  1.0  -0.729
  O  O87  1  0.488730  0.318140  0.508800  1.0  -0.7195
  O  O88  1  0.295530  0.278940  0.498200  1.0  -0.6102
  O  O89  1  0.472510  0.304080  0.691100  1.0  -0.6428
  O  O90  1  0.737500  0.310120  0.694880  1.0  -0.6705
  O  O91  1  0.721900  0.166150  0.004850  1.0  -0.703
  O  O92  1  0.746600  0.300800  0.058600  1.0  -0.6028
  O  O93  1  0.524670  0.035040  0.070420  1.0  -0.823
  O  O94  1  0.353220  0.036560  0.191400  1.0  -0.6327
  O  O95  1  0.478060  0.472280  0.872000  1.0  -0.5782
  O  O96  1  0.505730  0.310440  0.939500  1.0  -0.7265
  O  O97  1  0.315670  0.181860  0.991200  1.0  -0.7195
  O  O98  1  0.072670  0.221060  0.001800  1.0  -0.6113
  O  O99  1  0.467690  0.195920  0.808900  1.0  -0.6405
  O  O100  1  0.742500  0.189880  0.805120  1.0  -0.6753
  O  O101  1  0.107100  0.666150  0.504850  1.0  -0.7036
  O  O102  1  0.894000  0.800800  0.558600  1.0  -0.6037
  O  O103  1  0.369870  0.535040  0.570420  1.0  -0.8243
  O  O104  1  0.418820  0.536560  0.691400  1.0  -0.6324
  O  O105  1  0.177660  0.972280  0.372000  1.0  -0.5807
  O  O106  1  0.244330  0.810440  0.439500  1.0  -0.7287
  O  O107  1  0.511270  0.681860  0.491200  1.0  -0.7225
  O  O108  1  0.704470  0.721060  0.501800  1.0  -0.6104
  O  O109  1  0.527490  0.695920  0.308900  1.0  -0.6436
  O  O110  1  0.262500  0.689880  0.305120  1.0  -0.6695
  O  O111  1  0.278100  0.833850  0.995150  1.0  -0.7037
  O  O112  1  0.253400  0.699200  0.941400  1.0  -0.6043
  O  O113  1  0.475330  0.964960  0.929580  1.0  -0.8224
  O  O114  1  0.646780  0.963440  0.808600  1.0  -0.6321
  O  O115  1  0.521940  0.527720  0.128000  1.0  -0.5786
  O  O116  1  0.494270  0.689560  0.060500  1.0  -0.7288
  O  O117  1  0.684330  0.818140  0.008800  1.0  -0.7218
  O  O118  1  0.927330  0.778940  0.998200  1.0  -0.6123
  O  O119  1  0.532310  0.804080  0.191100  1.0  -0.6425
  O  O120  1  0.257500  0.810120  0.194880  1.0  -0.6727
