# generated using pymatgen
data_Eu4Zn8H7C44(N2O5)8
_symmetry_space_group_name_H-M   'P 1'
_cell_length_a   9.84380000
_cell_length_b   13.20670000
_cell_length_c   16.49190000
_cell_angle_alpha   81.12080000
_cell_angle_beta   72.63580000
_cell_angle_gamma   68.11880000
_symmetry_Int_Tables_number   1
_chemical_formula_structural   Eu4Zn8H7C44(N2O5)8
_chemical_formula_sum   'Eu4 Zn8 H7 C44 N16 O40'
_cell_volume   1896.63435429
_cell_formula_units_Z   1
loop_
 _symmetry_equiv_pos_site_id
 _symmetry_equiv_pos_as_xyz
  1  'x, y, z'
loop_
 _atom_site_type_symbol
 _atom_site_label
 _atom_site_symmetry_multiplicity
 _atom_site_fract_x
 _atom_site_fract_y
 _atom_site_fract_z
 _atom_site_occupancy
 _atom_site_charge
  Eu  Eu1  1  0.581450  0.618090  0.427150  1.0  2.1655
  Eu  Eu2  1  0.626690  0.881910  0.072850  1.0  2.167
  Eu  Eu3  1  0.418550  0.381910  0.572850  1.0  2.165
  Eu  Eu4  1  0.373310  0.118090  0.927150  1.0  2.1646
  Zn  Zn5  1  0.324620  0.110400  0.317780  1.0  0.8757
  Zn  Zn6  1  0.114110  0.160500  0.545720  1.0  0.9634
  Zn  Zn7  1  0.752800  0.389600  0.182220  1.0  0.877
  Zn  Zn8  1  0.820330  0.339500  0.954280  1.0  1.067
  Zn  Zn9  1  0.675380  0.889600  0.682220  1.0  0.8829
  Zn  Zn10  1  0.885890  0.839500  0.454280  1.0  1.0713
  Zn  Zn11  1  0.247200  0.610400  0.817780  1.0  0.8754
  Zn  Zn12  1  0.179670  0.660500  0.045720  1.0  1.0644
  H  H13  1  0.962760  0.087160  0.364560  1.0  0.1209
  H  H14  1  0.622730  0.179380  0.170020  1.0  0.0949
  H  H15  1  0.414480  0.412840  0.135440  1.0  0.1204
  H  H16  1  0.972120  0.320620  0.329980  1.0  0.0942
  H  H17  1  0.377270  0.820620  0.829980  1.0  0.0964
  H  H18  1  0.585520  0.587160  0.864560  1.0  0.12
  H  H19  1  0.027880  0.679380  0.670020  1.0  0.1014
  C  C20  1  0.427300  0.897400  0.408600  1.0  0.6746
  C  C21  1  0.268700  0.917200  0.411800  1.0  0.0091
  C  C22  1  0.174300  0.856700  0.439900  1.0  -0.0064
  C  C23  1  0.191300  0.745700  0.480300  1.0  0.6955
  C  C24  1  0.051500  0.013600  0.387400  1.0  0.3869
  C  C25  1  0.551900  0.424200  0.357400  1.0  0.7013
  C  C26  1  0.529850  0.332400  0.328100  1.0  -0.0192
  C  C27  1  0.433240  0.272820  0.358300  1.0  -0.0041
  C  C28  1  0.314500  0.270300  0.437700  1.0  0.7071
  C  C29  1  0.569500  0.221300  0.233100  1.0  0.4158
  C  C30  1  0.733300  0.602600  0.091400  1.0  0.6839
  C  C31  1  0.597700  0.582800  0.088200  1.0  0.0096
  C  C32  1  0.470900  0.643300  0.060100  1.0  -0.0178
  C  C33  1  0.417300  0.754300  0.019700  1.0  0.7016
  C  C34  1  0.452500  0.486400  0.112600  1.0  0.3865
  C  C35  1  0.333500  0.075800  0.142600  1.0  0.702
  C  C36  1  0.190350  0.167600  0.171900  1.0  -0.0185
  C  C37  1  0.064360  0.227180  0.141700  1.0  -0.0027
  C  C38  1  0.022500  0.229700  0.062300  1.0  0.7087
  C  C39  1  0.023900  0.278700  0.266900  1.0  0.4172
  C  C40  1  0.572700  0.102600  0.591400  1.0  0.684
  C  C41  1  0.731300  0.082800  0.588200  1.0  0.0042
  C  C42  1  0.825700  0.143300  0.560100  1.0  -0.0171
  C  C43  1  0.808700  0.254300  0.519700  1.0  0.7034
  C  C44  1  0.948500  0.986400  0.612600  1.0  0.1159
  C  C45  1  0.448100  0.575800  0.642600  1.0  0.6963
  C  C46  1  0.470150  0.667600  0.671900  1.0  -0.0263
  C  C47  1  0.566760  0.727180  0.641700  1.0  0.0005
  C  C48  1  0.685500  0.729700  0.562300  1.0  0.7065
  C  C49  1  0.430500  0.778700  0.766900  1.0  0.4005
  C  C50  1  0.266700  0.397400  0.908600  1.0  0.6833
  C  C51  1  0.402300  0.417200  0.911800  1.0  0.0096
  C  C52  1  0.529100  0.356700  0.939900  1.0  -0.0174
  C  C53  1  0.582700  0.245700  0.980300  1.0  0.7007
  C  C54  1  0.547500  0.513600  0.887400  1.0  0.387
  C  C55  1  0.666500  0.924200  0.857400  1.0  0.6989
  C  C56  1  0.809650  0.832400  0.828100  1.0  -0.0205
  C  C57  1  0.935640  0.772820  0.858300  1.0  0.0014
  C  C58  1  0.977500  0.770300  0.937700  1.0  0.7074
  C  C59  1  0.976100  0.721300  0.733100  1.0  0.4265
  C  C60  1  0.685300  0.750000  0.250000  1.0  0.5457
  C  C61  1  0.527100  0.750000  0.250000  1.0  0.563
  C  C62  1  0.314700  0.250000  0.750000  1.0  0.5461
  C  C63  1  0.472900  0.250000  0.750000  1.0  0.5651
  N  N64  1  0.190430  0.015940  0.378800  1.0  -0.4215
  N  N65  1  0.036540  0.918320  0.424200  1.0  -0.419
  N  N66  1  0.617300  0.297700  0.248500  1.0  -0.4141
  N  N67  1  0.459640  0.203520  0.297400  1.0  -0.3993
  N  N68  1  0.585170  0.484060  0.121200  1.0  -0.4218
  N  N69  1  0.379060  0.581680  0.075800  1.0  -0.4423
  N  N70  1  0.163500  0.202300  0.251500  1.0  -0.4157
  N  N71  1  0.960560  0.296480  0.202600  1.0  -0.3999
  N  N72  1  0.809570  0.984060  0.621200  1.0  -0.3511
  N  N73  1  0.963460  0.081680  0.575800  1.0  -0.3015
  N  N74  1  0.382700  0.702300  0.751500  1.0  -0.4244
  N  N75  1  0.540360  0.796480  0.702600  1.0  -0.4033
  N  N76  1  0.414830  0.515940  0.878800  1.0  -0.4228
  N  N77  1  0.620940  0.418320  0.924200  1.0  -0.4413
  N  N78  1  0.836500  0.797700  0.748500  1.0  -0.4375
  N  N79  1  0.039440  0.703520  0.797400  1.0  -0.401
  O  O80  1  0.478060  0.972280  0.372000  1.0  -0.5822
  O  O81  1  0.505650  0.810400  0.439500  1.0  -0.725
  O  O82  1  0.315860  0.681780  0.491300  1.0  -0.715
  O  O83  1  0.072690  0.721120  0.501900  1.0  -0.6106
  O  O84  1  0.646920  0.463440  0.308520  1.0  -0.6322
  O  O85  1  0.475280  0.464820  0.429620  1.0  -0.8137
  O  O86  1  0.277940  0.333880  0.495240  1.0  -0.7025
  O  O87  1  0.253510  0.199100  0.441280  1.0  -0.6142
  O  O88  1  0.744990  0.688940  0.305480  1.0  -0.6552
  O  O89  1  0.467780  0.695930  0.308910  1.0  -0.6367
  O  O90  1  0.822340  0.527720  0.128000  1.0  -0.5782
  O  O91  1  0.755550  0.689600  0.060500  1.0  -0.7355
  O  O92  1  0.488940  0.818220  0.008700  1.0  -0.7173
  O  O93  1  0.295710  0.778880  0.998100  1.0  -0.6106
  O  O94  1  0.418880  0.036560  0.191480  1.0  -0.6325
  O  O95  1  0.369720  0.035180  0.070380  1.0  -0.8152
  O  O96  1  0.107060  0.166120  0.004760  1.0  -0.7009
  O  O97  1  0.893890  0.300900  0.058720  1.0  -0.6144
  O  O98  1  0.739410  0.811060  0.194520  1.0  -0.6537
  O  O99  1  0.472620  0.804070  0.191090  1.0  -0.639
  O  O100  1  0.521940  0.027720  0.628000  1.0  -0.5881
  O  O101  1  0.494350  0.189600  0.560500  1.0  -0.7341
  O  O102  1  0.684140  0.318220  0.508700  1.0  -0.7168
  O  O103  1  0.927310  0.278880  0.498100  1.0  -0.6127
  O  O104  1  0.353080  0.536560  0.691480  1.0  -0.6325
  O  O105  1  0.524720  0.535180  0.570380  1.0  -0.8113
  O  O106  1  0.722060  0.666120  0.504760  1.0  -0.7007
  O  O107  1  0.746490  0.800900  0.558720  1.0  -0.613
  O  O108  1  0.255010  0.311060  0.694520  1.0  -0.6529
  O  O109  1  0.532220  0.304070  0.691090  1.0  -0.639
  O  O110  1  0.177660  0.472280  0.872000  1.0  -0.5817
  O  O111  1  0.244450  0.310400  0.939500  1.0  -0.7351
  O  O112  1  0.511060  0.181780  0.991300  1.0  -0.7171
  O  O113  1  0.704290  0.221120  0.001900  1.0  -0.6119
  O  O114  1  0.581120  0.963440  0.808520  1.0  -0.6325
  O  O115  1  0.630280  0.964820  0.929620  1.0  -0.8165
  O  O116  1  0.892940  0.833880  0.995240  1.0  -0.7016
  O  O117  1  0.106110  0.699100  0.941280  1.0  -0.6136
  O  O118  1  0.260590  0.188940  0.805480  1.0  -0.637
  O  O119  1  0.527380  0.195930  0.808910  1.0  -0.6338
