# generated using pymatgen
data_Nd2H9C24(NO4)3
_symmetry_space_group_name_H-M   'P 1'
_cell_length_a   11.09000000
_cell_length_b   11.32000000
_cell_length_c   16.24300000
_cell_angle_alpha   74.94000000
_cell_angle_beta   82.76000000
_cell_angle_gamma   75.06000000
_symmetry_Int_Tables_number   1
_chemical_formula_structural   Nd2H9C24(NO4)3
_chemical_formula_sum   'Nd4 H18 C48 N6 O24'
_cell_volume   1898.71605146
_cell_formula_units_Z   2
loop_
 _symmetry_equiv_pos_site_id
 _symmetry_equiv_pos_as_xyz
  1  'x, y, z'
loop_
 _atom_site_type_symbol
 _atom_site_label
 _atom_site_symmetry_multiplicity
 _atom_site_fract_x
 _atom_site_fract_y
 _atom_site_fract_z
 _atom_site_occupancy
 _atom_site_charge
  Nd  Nd1  1  0.087070  0.340910  0.372960  1.0  2.2251
  Nd  Nd2  1  0.708670  0.493710  0.865330  1.0  2.2924
  Nd  Nd3  1  0.912930  0.659090  0.627040  1.0  2.226
  Nd  Nd4  1  0.291330  0.506290  0.134670  1.0  2.2875
  H  H5  1  0.831200  0.015500  0.722800  1.0  0.1084
  H  H6  1  0.625100  0.846200  0.917000  1.0  0.1034
  H  H7  1  0.162500  0.455200  0.933200  1.0  0.1078
  H  H8  1  0.643800  0.345500  0.320100  1.0  0.1098
  H  H9  1  0.355900  0.345300  0.495400  1.0  0.108
  H  H10  1  0.632400  0.209200  0.888200  1.0  0.0984
  H  H11  1  0.475300  0.374200  0.783900  1.0  0.1159
  H  H12  1  0.696400  0.340100  0.563900  1.0  0.1191
  H  H13  1  0.141600  0.398700  0.698400  1.0  0.1149
  H  H14  1  0.168800  0.984500  0.277200  1.0  0.1087
  H  H15  1  0.374900  0.153800  0.083000  1.0  0.1034
  H  H16  1  0.837500  0.544800  0.066800  1.0  0.1086
  H  H17  1  0.356200  0.654500  0.679900  1.0  0.1098
  H  H18  1  0.644100  0.654700  0.504600  1.0  0.109
  H  H19  1  0.367600  0.790800  0.111800  1.0  0.0984
  H  H20  1  0.524700  0.625800  0.216100  1.0  0.1157
  H  H21  1  0.303600  0.659900  0.436100  1.0  0.1188
  H  H22  1  0.858400  0.601300  0.301600  1.0  0.1151
  C  C23  1  0.123900  0.436500  0.816400  1.0  -0.1115
  C  C24  1  0.778100  0.790700  0.787400  1.0  0.7478
  C  C25  1  0.734100  0.912800  0.817400  1.0  -0.1219
  C  C26  1  0.777100  0.019500  0.771100  1.0  0.0208
  C  C27  1  0.653900  0.917000  0.888000  1.0  0.0107
  C  C28  1  0.403600  0.361000  0.327900  1.0  0.7137
  C  C29  1  0.407400  0.424300  0.934800  1.0  0.7202
  C  C30  1  0.785700  0.246400  0.754800  1.0  0.7386
  C  C31  1  0.825300  0.345500  0.414300  1.0  0.6563
  C  C32  1  0.487200  0.345100  0.398000  1.0  -0.1355
  C  C33  1  0.199400  0.439000  0.881300  1.0  0.0157
  C  C34  1  0.612800  0.343600  0.376300  1.0  -0.0188
  C  C35  1  0.440000  0.344100  0.480700  1.0  0.0134
  C  C36  1  0.658300  0.134700  0.870000  1.0  -0.0761
  C  C37  1  0.519200  0.341100  0.543400  1.0  0.1386
  C  C38  1  0.614600  0.028400  0.917100  1.0  0.1247
  C  C39  1  0.694200  0.339400  0.437500  1.0  -0.1368
  C  C40  1  0.315800  0.380200  0.728400  1.0  0.141
  C  C41  1  0.388700  0.388200  0.792200  1.0  -0.0303
  C  C42  1  0.645200  0.340200  0.522700  1.0  -0.1
  C  C43  1  0.328900  0.416500  0.865500  1.0  -0.1198
  C  C44  1  0.737500  0.131500  0.798600  1.0  -0.1517
  C  C45  1  0.187900  0.404000  0.740700  1.0  -0.1126
  C  C46  1  0.987400  0.477000  0.828800  1.0  0.6624
  C  C47  1  0.876100  0.563500  0.183600  1.0  -0.111
  C  C48  1  0.221900  0.209300  0.212600  1.0  0.7483
  C  C49  1  0.265900  0.087200  0.182600  1.0  -0.1216
  C  C50  1  0.222900  0.980500  0.228900  1.0  0.0221
  C  C51  1  0.346100  0.083000  0.112000  1.0  0.0121
  C  C52  1  0.596400  0.639000  0.672100  1.0  0.7138
  C  C53  1  0.592600  0.575700  0.065200  1.0  0.7207
  C  C54  1  0.214300  0.753600  0.245200  1.0  0.7382
  C  C55  1  0.174700  0.654500  0.585700  1.0  0.6561
  C  C56  1  0.512800  0.654900  0.602000  1.0  -0.1371
  C  C57  1  0.800600  0.561000  0.118700  1.0  0.0146
  C  C58  1  0.387200  0.656400  0.623700  1.0  -0.022
  C  C59  1  0.560000  0.655900  0.519300  1.0  0.012
  C  C60  1  0.341700  0.865300  0.130000  1.0  -0.0747
  C  C61  1  0.480800  0.658900  0.456600  1.0  0.139
  C  C62  1  0.385400  0.971600  0.082900  1.0  0.1249
  C  C63  1  0.305800  0.660600  0.562500  1.0  -0.1348
  C  C64  1  0.684200  0.619800  0.271600  1.0  0.1412
  C  C65  1  0.611300  0.611800  0.207800  1.0  -0.0293
  C  C66  1  0.354800  0.659800  0.477300  1.0  -0.1014
  C  C67  1  0.671100  0.583500  0.134500  1.0  -0.1194
  C  C68  1  0.262500  0.868500  0.201400  1.0  -0.1522
  C  C69  1  0.812100  0.596000  0.259300  1.0  -0.1132
  C  C70  1  0.012600  0.523000  0.171200  1.0  0.6623
  N  N71  1  0.361100  0.360300  0.646000  1.0  -0.2193
  N  N72  1  0.477400  0.350100  0.629600  1.0  -0.2364
  N  N73  1  0.524400  0.045800  0.984600  1.0  -0.1847
  N  N74  1  0.638900  0.639700  0.354000  1.0  -0.2192
  N  N75  1  0.522600  0.649900  0.370400  1.0  -0.2396
  N  N76  1  0.475600  0.954200  0.015400  1.0  -0.1838
  O  O77  1  0.352100  0.433800  0.007300  1.0  -0.766
  O  O78  1  0.521200  0.422300  0.916400  1.0  -0.7409
  O  O79  1  0.925100  0.501400  0.761700  1.0  -0.8231
  O  O80  1  0.930900  0.480000  0.899100  1.0  -0.6721
  O  O81  1  0.859200  0.788400  0.727300  1.0  -0.7137
  O  O82  1  0.723600  0.704500  0.824300  1.0  -0.7681
  O  O83  1  0.297600  0.334200  0.354300  1.0  -0.7564
  O  O84  1  0.436000  0.403400  0.250800  1.0  -0.7161
  O  O85  1  0.886700  0.382900  0.457500  1.0  -0.6529
  O  O86  1  0.876700  0.317500  0.346600  1.0  -0.6251
  O  O87  1  0.742300  0.345700  0.783500  1.0  -0.6898
  O  O88  1  0.857600  0.241700  0.690100  1.0  -0.5245
  O  O89  1  0.647900  0.566200  0.992700  1.0  -0.7657
  O  O90  1  0.478800  0.577700  0.083600  1.0  -0.7407
  O  O91  1  0.074900  0.498600  0.238300  1.0  -0.8232
  O  O92  1  0.069100  0.520000  0.100900  1.0  -0.6719
  O  O93  1  0.140800  0.211600  0.272700  1.0  -0.7123
  O  O94  1  0.276400  0.295500  0.175700  1.0  -0.7693
  O  O95  1  0.702400  0.665800  0.645700  1.0  -0.7576
  O  O96  1  0.564000  0.596600  0.749200  1.0  -0.7173
  O  O97  1  0.113300  0.617100  0.542500  1.0  -0.6493
  O  O98  1  0.123300  0.682500  0.653400  1.0  -0.6236
  O  O99  1  0.257700  0.654300  0.216500  1.0  -0.691
  O  O100  1  0.142400  0.758300  0.309900  1.0  -0.5281
