# generated using pymatgen
data_NdH8C15NO7
_symmetry_space_group_name_H-M   'P 1'
_cell_length_a   9.52110000
_cell_length_b   9.98350000
_cell_length_c   11.48430000
_cell_angle_alpha   96.34200000
_cell_angle_beta   97.06300000
_cell_angle_gamma   111.76300000
_symmetry_Int_Tables_number   1
_chemical_formula_structural   NdH8C15NO7
_chemical_formula_sum   'Nd2 H16 C30 N2 O14'
_cell_volume   991.60263181
_cell_formula_units_Z   2
loop_
 _symmetry_equiv_pos_site_id
 _symmetry_equiv_pos_as_xyz
  1  'x, y, z'
loop_
 _atom_site_type_symbol
 _atom_site_label
 _atom_site_symmetry_multiplicity
 _atom_site_fract_x
 _atom_site_fract_y
 _atom_site_fract_z
 _atom_site_occupancy
 _atom_site_charge
  Nd  Nd1  1  0.713710  0.954880  0.009210  1.0  2.2585
  Nd  Nd2  1  0.286290  0.045120  0.990790  1.0  2.2593
  H  H3  1  0.319100  0.496100  0.028700  1.0  0.1043
  H  H4  1  0.194300  0.793300  0.213400  1.0  0.1207
  H  H5  1  0.920400  0.362200  0.157100  1.0  0.1177
  H  H6  1  0.171200  0.591300  0.419500  1.0  0.1156
  H  H7  1  0.256900  0.706900  0.618600  1.0  0.1009
  H  H8  1  0.946700  0.894900  0.586200  1.0  0.1066
  H  H9  1  0.832200  0.847300  0.318500  1.0  0.302
  H  H10  1  0.737900  0.696200  0.315400  1.0  0.3222
  H  H11  1  0.680900  0.503900  0.971300  1.0  0.104
  H  H12  1  0.805700  0.206700  0.786600  1.0  0.1202
  H  H13  1  0.079600  0.637800  0.842900  1.0  0.1167
  H  H14  1  0.828800  0.408700  0.580500  1.0  0.1151
  H  H15  1  0.743100  0.293100  0.381400  1.0  0.1012
  H  H16  1  0.053300  0.105100  0.413800  1.0  0.1065
  H  H17  1  0.167800  0.152700  0.681500  1.0  0.3004
  H  H18  1  0.262100  0.303800  0.684600  1.0  0.3219
  C  C19  1  0.077600  0.252400  0.025300  1.0  0.7684
  C  C20  1  0.111700  0.407200  0.081700  1.0  -0.1412
  C  C21  1  0.247600  0.518400  0.069800  1.0  -0.0396
  C  C22  1  0.278200  0.663000  0.118500  1.0  -0.1002
  C  C23  1  0.422400  0.782700  0.101200  1.0  0.7316
  C  C24  1  0.176200  0.695000  0.182400  1.0  -0.1526
  C  C25  1  0.048400  0.581000  0.199900  1.0  0.2391
  C  C26  1  0.012400  0.438200  0.147700  1.0  -0.1512
  C  C27  1  0.007400  0.675900  0.385500  1.0  0.1704
  C  C28  1  0.125900  0.653000  0.453400  1.0  -0.2049
  C  C29  1  0.176500  0.722000  0.571400  1.0  -0.018
  C  C30  1  0.111100  0.812700  0.621100  1.0  -0.1492
  C  C31  1  0.171800  0.894200  0.744600  1.0  0.6701
  C  C32  1  0.991800  0.833200  0.552200  1.0  -0.1198
  C  C33  1  0.938300  0.764200  0.434300  1.0  0.2028
  C  C34  1  0.922400  0.747600  0.974700  1.0  0.7714
  C  C35  1  0.888300  0.592800  0.918300  1.0  -0.1411
  C  C36  1  0.752400  0.481600  0.930200  1.0  -0.041
  C  C37  1  0.721800  0.337000  0.881500  1.0  -0.1005
  C  C38  1  0.577600  0.217300  0.898800  1.0  0.7325
  C  C39  1  0.823800  0.305000  0.817600  1.0  -0.152
  C  C40  1  0.951600  0.419000  0.800100  1.0  0.2393
  C  C41  1  0.987600  0.561800  0.852300  1.0  -0.1517
  C  C42  1  0.992600  0.324100  0.614500  1.0  0.17
  C  C43  1  0.874100  0.347000  0.546600  1.0  -0.2068
  C  C44  1  0.823500  0.278000  0.428600  1.0  -0.0194
  C  C45  1  0.888900  0.187300  0.378900  1.0  -0.1498
  C  C46  1  0.828200  0.105800  0.255400  1.0  0.6699
  C  C47  1  0.008200  0.166800  0.447800  1.0  -0.1184
  C  C48  1  0.061700  0.235800  0.565700  1.0  0.2023
  N  N49  1  0.811700  0.776000  0.364700  1.0  -0.5997
  N  N50  1  0.188300  0.224000  0.635300  1.0  -0.6004
  O  O51  1  0.544600  0.760900  0.110400  1.0  -0.6463
  O  O52  1  0.119600  0.987300  0.785000  1.0  -0.6672
  O  O53  1  0.185200  0.227700  0.987700  1.0  -0.7581
  O  O54  1  0.945600  0.158800  0.018800  1.0  -0.7843
  O  O55  1  0.416500  0.902300  0.076800  1.0  -0.8442
  O  O56  1  0.946700  0.609700  0.267900  1.0  -0.2545
  O  O57  1  0.277400  0.873700  0.809700  1.0  -0.7004
  O  O58  1  0.455400  0.239100  0.889600  1.0  -0.6458
  O  O59  1  0.880400  0.012700  0.215000  1.0  -0.668
  O  O60  1  0.814800  0.772300  0.012300  1.0  -0.756
  O  O61  1  0.054400  0.841200  0.981200  1.0  -0.7879
  O  O62  1  0.583500  0.097700  0.923200  1.0  -0.8407
  O  O63  1  0.053300  0.390300  0.732100  1.0  -0.2523
  O  O64  1  0.722600  0.126300  0.190300  1.0  -0.6985
