# generated using pymatgen
data_LaH8C15NO7
_symmetry_space_group_name_H-M   'P 1'
_cell_length_a   10.13400000
_cell_length_b   10.35520000
_cell_length_c   10.74360000
_cell_angle_alpha   78.16250000
_cell_angle_beta   89.43000000
_cell_angle_gamma   65.23900000
_symmetry_Int_Tables_number   1
_chemical_formula_structural   LaH8C15NO7
_chemical_formula_sum   'La2 H16 C30 N2 O14'
_cell_volume   998.33664701
_cell_formula_units_Z   2
loop_
 _symmetry_equiv_pos_site_id
 _symmetry_equiv_pos_as_xyz
  1  'x, y, z'
loop_
 _atom_site_type_symbol
 _atom_site_label
 _atom_site_symmetry_multiplicity
 _atom_site_fract_x
 _atom_site_fract_y
 _atom_site_fract_z
 _atom_site_occupancy
 _atom_site_charge
  La  La1  1  0.033390  0.206300  0.000510  1.0  2.157
  La  La2  1  0.966610  0.793700  0.999490  1.0  2.1588
  H  H3  1  0.521700  0.830800  0.969600  1.0  0.1178
  H  H4  1  0.656900  0.445900  0.859900  1.0  0.1186
  H  H5  1  0.232200  0.734400  0.793000  1.0  0.1185
  H  H6  1  0.433800  0.684600  0.565200  1.0  0.1295
  H  H7  1  0.312100  0.767900  0.360200  1.0  0.1154
  H  H8  1  0.109300  0.502500  0.458400  1.0  0.1077
  H  H9  1  0.250000  0.385600  0.781000  1.0  0.2385
  H  H10  1  0.144200  0.364700  0.680800  1.0  0.2981
  H  H11  1  0.478300  0.169200  0.030400  1.0  0.1182
  H  H12  1  0.343100  0.554100  0.140100  1.0  0.1167
  H  H13  1  0.767800  0.265600  0.207000  1.0  0.1183
  H  H14  1  0.566200  0.315400  0.434800  1.0  0.1298
  H  H15  1  0.687900  0.232100  0.639800  1.0  0.1147
  H  H16  1  0.890700  0.497500  0.541600  1.0  0.1085
  H  H17  1  0.750000  0.614400  0.219000  1.0  0.242
  H  H18  1  0.855800  0.635300  0.319200  1.0  0.2977
  C  C19  1  0.234800  0.942700  0.895900  1.0  0.7297
  C  C20  1  0.358400  0.803700  0.884100  1.0  -0.0947
  C  C21  1  0.500500  0.765600  0.931800  1.0  -0.0376
  C  C22  1  0.610400  0.632300  0.923600  1.0  -0.139
  C  C23  1  0.765300  0.585200  0.977200  1.0  0.7573
  C  C24  1  0.581700  0.537900  0.864600  1.0  -0.1339
  C  C25  1  0.441000  0.580800  0.812900  1.0  0.2613
  C  C26  1  0.328800  0.709600  0.824800  1.0  -0.1527
  C  C27  1  0.343300  0.544200  0.631600  1.0  0.185
  C  C28  1  0.367900  0.647700  0.543100  1.0  -0.2028
  C  C29  1  0.295500  0.697200  0.421600  1.0  -0.0302
  C  C30  1  0.199000  0.643100  0.390300  1.0  -0.1345
  C  C31  1  0.118700  0.696000  0.260500  1.0  0.6784
  C  C32  1  0.175800  0.538700  0.480400  1.0  -0.146
  C  C33  1  0.248400  0.486300  0.602300  1.0  0.2074
  C  C34  1  0.765200  0.057300  0.104100  1.0  0.7291
  C  C35  1  0.641600  0.196300  0.115900  1.0  -0.0951
  C  C36  1  0.499500  0.234400  0.068200  1.0  -0.0431
  C  C37  1  0.389600  0.367700  0.076400  1.0  -0.1395
  C  C38  1  0.234700  0.414800  0.022800  1.0  0.7595
  C  C39  1  0.418300  0.462100  0.135400  1.0  -0.134
  C  C40  1  0.559000  0.419200  0.187100  1.0  0.2612
  C  C41  1  0.671200  0.290400  0.175200  1.0  -0.1526
  C  C42  1  0.656700  0.455800  0.368400  1.0  0.1844
  C  C43  1  0.632100  0.352300  0.456900  1.0  -0.2032
  C  C44  1  0.704500  0.302800  0.578400  1.0  -0.0292
  C  C45  1  0.801000  0.356900  0.609700  1.0  -0.1347
  C  C46  1  0.881300  0.304000  0.739500  1.0  0.6775
  C  C47  1  0.824200  0.461300  0.519600  1.0  -0.1454
  C  C48  1  0.751600  0.513700  0.397700  1.0  0.2071
  N  N49  1  0.236900  0.374800  0.692200  1.0  -0.6415
  N  N50  1  0.763100  0.625200  0.307800  1.0  -0.6439
  O  O51  1  0.108400  0.946600  0.911500  1.0  -0.8005
  O  O52  1  0.258300  0.053800  0.892500  1.0  -0.6758
  O  O53  1  0.852000  0.452800  0.990900  1.0  -0.7464
  O  O54  1  0.796800  0.681900  0.006000  1.0  -0.7206
  O  O55  1  0.415500  0.485000  0.753400  1.0  -0.2464
  O  O56  1  0.158500  0.769100  0.171700  1.0  -0.6706
  O  O57  1  0.015200  0.664100  0.240800  1.0  -0.6496
  O  O58  1  0.891600  0.053400  0.088500  1.0  -0.7995
  O  O59  1  0.741700  0.946200  0.107500  1.0  -0.6692
  O  O60  1  0.148000  0.547200  0.009100  1.0  -0.7478
  O  O61  1  0.203200  0.318100  0.994000  1.0  -0.7207
  O  O62  1  0.584500  0.515000  0.246600  1.0  -0.245
  O  O63  1  0.841500  0.230900  0.828300  1.0  -0.6695
  O  O64  1  0.984800  0.335900  0.759200  1.0  -0.6486
