# generated using pymatgen
data_CeH8C15NO7
_symmetry_space_group_name_H-M   'P 1'
_cell_length_a   9.60470000
_cell_length_b   10.04270000
_cell_length_c   11.45890000
_cell_angle_alpha   96.12600000
_cell_angle_beta   97.20650000
_cell_angle_gamma   111.85900000
_symmetry_Int_Tables_number   1
_chemical_formula_structural   CeH8C15NO7
_chemical_formula_sum   'Ce2 H16 C30 N2 O14'
_cell_volume   1003.49460098
_cell_formula_units_Z   2
loop_
 _symmetry_equiv_pos_site_id
 _symmetry_equiv_pos_as_xyz
  1  'x, y, z'
loop_
 _atom_site_type_symbol
 _atom_site_label
 _atom_site_symmetry_multiplicity
 _atom_site_fract_x
 _atom_site_fract_y
 _atom_site_fract_z
 _atom_site_occupancy
 _atom_site_charge
  Ce  Ce1  1  0.713240  0.954920  0.008220  1.0  2.2162
  Ce  Ce2  1  0.286760  0.045080  0.991780  1.0  2.2161
  H  H3  1  0.682300  0.505100  0.973700  1.0  0.109
  H  H4  1  0.804000  0.210400  0.788100  1.0  0.1222
  H  H5  1  0.077700  0.638400  0.844600  1.0  0.116
  H  H6  1  0.829000  0.409600  0.581400  1.0  0.1166
  H  H7  1  0.745800  0.296800  0.382200  1.0  0.1083
  H  H8  1  0.050200  0.107200  0.418300  1.0  0.1097
  H  H9  1  0.167800  0.152700  0.681500  1.0  0.3189
  H  H10  1  0.262100  0.303800  0.684600  1.0  0.3316
  H  H11  1  0.317700  0.494900  0.026300  1.0  0.1094
  H  H12  1  0.196000  0.789600  0.211900  1.0  0.1231
  H  H13  1  0.922300  0.361600  0.155400  1.0  0.1165
  H  H14  1  0.171000  0.590400  0.418600  1.0  0.1166
  H  H15  1  0.254200  0.703200  0.617800  1.0  0.107
  H  H16  1  0.949800  0.892800  0.581700  1.0  0.1097
  H  H17  1  0.832200  0.847300  0.318500  1.0  0.3196
  H  H18  1  0.737900  0.696200  0.315400  1.0  0.3319
  C  C19  1  0.921800  0.747000  0.977400  1.0  0.7807
  C  C20  1  0.886900  0.593200  0.920500  1.0  -0.1368
  C  C21  1  0.752500  0.483000  0.932000  1.0  -0.055
  C  C22  1  0.720500  0.339700  0.882600  1.0  -0.0997
  C  C23  1  0.422000  0.778900  0.101200  1.0  0.7317
  C  C24  1  0.822300  0.308200  0.819100  1.0  -0.1597
  C  C25  1  0.949800  0.421100  0.802000  1.0  0.2499
  C  C26  1  0.986300  0.562900  0.854000  1.0  -0.1383
  C  C27  1  0.991000  0.326300  0.617400  1.0  0.1778
  C  C28  1  0.874300  0.348500  0.548000  1.0  -0.1092
  C  C29  1  0.824600  0.281100  0.430100  1.0  -0.0069
  C  C30  1  0.889600  0.190800  0.381800  1.0  -0.1439
  C  C31  1  0.829600  0.109500  0.257300  1.0  0.6683
  C  C32  1  0.006300  0.169500  0.451700  1.0  -0.1184
  C  C33  1  0.059300  0.238100  0.569300  1.0  0.2044
  C  C34  1  0.078200  0.253000  0.022600  1.0  0.779
  C  C35  1  0.113100  0.406800  0.079500  1.0  -0.137
  C  C36  1  0.247500  0.517000  0.068000  1.0  -0.0556
  C  C37  1  0.279500  0.660300  0.117400  1.0  -0.0982
  C  C38  1  0.578000  0.221100  0.898800  1.0  0.7326
  C  C39  1  0.177700  0.691800  0.180900  1.0  -0.161
  C  C40  1  0.050200  0.578900  0.198000  1.0  0.2495
  C  C41  1  0.013700  0.437100  0.146000  1.0  -0.1386
  C  C42  1  0.009000  0.673700  0.382600  1.0  0.1777
  C  C43  1  0.125700  0.651500  0.452000  1.0  -0.1101
  C  C44  1  0.175400  0.718900  0.569900  1.0  -0.0069
  C  C45  1  0.110400  0.809200  0.618200  1.0  -0.1419
  C  C46  1  0.170400  0.890500  0.742700  1.0  0.669
  C  C47  1  0.993700  0.830500  0.548300  1.0  -0.1182
  C  C48  1  0.940700  0.761900  0.430700  1.0  0.2052
  N  N49  1  0.182100  0.225100  0.640300  1.0  -0.7822
  N  N50  1  0.817900  0.774900  0.359700  1.0  -0.7819
  O  O51  1  0.543700  0.757300  0.109900  1.0  -0.6481
  O  O52  1  0.881800  0.017600  0.217700  1.0  -0.6528
  O  O53  1  0.817000  0.773500  0.016900  1.0  -0.7495
  O  O54  1  0.946100  0.159400  0.016100  1.0  -0.7718
  O  O55  1  0.419200  0.899700  0.077700  1.0  -0.8434
  O  O56  1  0.050600  0.392200  0.734600  1.0  -0.247
  O  O57  1  0.724400  0.129700  0.192100  1.0  -0.6996
  O  O58  1  0.456300  0.242700  0.890100  1.0  -0.6461
  O  O59  1  0.118200  0.982400  0.782300  1.0  -0.6538
  O  O60  1  0.183000  0.226500  0.983100  1.0  -0.7462
  O  O61  1  0.053900  0.840600  0.983900  1.0  -0.7739
  O  O62  1  0.580800  0.100300  0.922300  1.0  -0.8418
  O  O63  1  0.949400  0.607800  0.265400  1.0  -0.2489
  O  O64  1  0.275600  0.870300  0.807900  1.0  -0.7014
