# generated using pymatgen
data_EuH7(C2O)8
_symmetry_space_group_name_H-M   'P 1'
_cell_length_a   10.46400000
_cell_length_b   12.01620000
_cell_length_c   13.18460000
_cell_angle_alpha   83.78000000
_cell_angle_beta   86.01400000
_cell_angle_gamma   75.65900000
_symmetry_Int_Tables_number   1
_chemical_formula_structural   EuH7(C2O)8
_chemical_formula_sum   'Eu2 H14 C32 O16'
_cell_volume   1595.11654854
_cell_formula_units_Z   2
loop_
 _symmetry_equiv_pos_site_id
 _symmetry_equiv_pos_as_xyz
  1  'x, y, z'
loop_
 _atom_site_type_symbol
 _atom_site_label
 _atom_site_symmetry_multiplicity
 _atom_site_fract_x
 _atom_site_fract_y
 _atom_site_fract_z
 _atom_site_occupancy
 _atom_site_charge
  Eu  Eu1  1  0.392680  0.382140  0.952420  1.0  2.1411
  Eu  Eu2  1  0.607320  0.617860  0.047580  1.0  2.1413
  H  H3  1  0.330200  0.054600  0.462100  1.0  0.4145
  H  H4  1  0.492200  0.558500  0.331500  1.0  0.1016
  H  H5  1  0.371700  0.269300  0.298400  1.0  0.1091
  H  H6  1  0.450700  0.337200  0.579000  1.0  0.1384
  H  H7  1  0.913700  0.382700  0.030100  1.0  0.1088
  H  H8  1  0.176100  0.074400  0.009700  1.0  0.102
  H  H9  1  0.784400  0.094500  0.010600  1.0  0.1027
  H  H10  1  0.669800  0.945400  0.537900  1.0  0.4132
  H  H11  1  0.507800  0.441500  0.668500  1.0  0.101
  H  H12  1  0.628300  0.730700  0.701600  1.0  0.1087
  H  H13  1  0.549300  0.662800  0.421000  1.0  0.1378
  H  H14  1  0.086300  0.617300  0.969900  1.0  0.1085
  H  H15  1  0.823900  0.925600  0.990300  1.0  0.1009
  H  H16  1  0.215600  0.905500  0.989400  1.0  0.1035
  C  C17  1  0.479600  0.461400  0.467100  1.0  0.0594
  C  C18  1  0.470900  0.489400  0.361500  1.0  -0.0736
  C  C19  1  0.174800  0.291800  0.018800  1.0  0.686
  C  C20  1  0.425100  0.455000  0.187000  1.0  0.7541
  C  C21  1  0.060600  0.236000  0.020700  1.0  -0.1342
  C  C22  1  0.398800  0.317500  0.340900  1.0  -0.0174
  C  C23  1  0.446000  0.358900  0.507600  1.0  -0.0616
  C  C24  1  0.931800  0.301900  0.025100  1.0  0.0064
  C  C25  1  0.087100  0.118200  0.011900  1.0  -0.0789
  C  C26  1  0.688400  0.316200  0.025300  1.0  0.7452
  C  C27  1  0.855800  0.129900  0.012700  1.0  -0.0668
  C  C28  1  0.432000  0.418800  0.299700  1.0  -0.1308
  C  C29  1  0.985600  0.062600  0.006200  1.0  0.0705
  C  C30  1  0.829700  0.247600  0.022100  1.0  -0.1492
  C  C31  1  0.406300  0.288500  0.445800  1.0  -0.1666
  C  C32  1  0.366600  0.183000  0.495700  1.0  0.595
  C  C33  1  0.520400  0.538600  0.532900  1.0  0.0593
  C  C34  1  0.529100  0.510600  0.638500  1.0  -0.0733
  C  C35  1  0.825200  0.708200  0.981200  1.0  0.6863
  C  C36  1  0.574900  0.545000  0.813000  1.0  0.7551
  C  C37  1  0.939400  0.764000  0.979300  1.0  -0.1347
  C  C38  1  0.601200  0.682500  0.659100  1.0  -0.0179
  C  C39  1  0.554000  0.641100  0.492400  1.0  -0.0631
  C  C40  1  0.068200  0.698100  0.974900  1.0  0.008
  C  C41  1  0.912900  0.881800  0.988100  1.0  -0.0784
  C  C42  1  0.311600  0.683800  0.974700  1.0  0.7443
  C  C43  1  0.144200  0.870100  0.987300  1.0  -0.0684
  C  C44  1  0.568000  0.581200  0.700300  1.0  -0.1304
  C  C45  1  0.014400  0.937400  0.993800  1.0  0.0703
  C  C46  1  0.170300  0.752400  0.977900  1.0  -0.1485
  C  C47  1  0.593700  0.711500  0.554200  1.0  -0.1658
  C  C48  1  0.633400  0.817000  0.504300  1.0  0.5934
  O  O49  1  0.154100  0.398700  0.022460  1.0  -0.688
  O  O50  1  0.289900  0.227300  0.007970  1.0  -0.7025
  O  O51  1  0.389500  0.390900  0.131650  1.0  -0.7105
  O  O52  1  0.454700  0.549600  0.157310  1.0  -0.7123
  O  O53  1  0.666667  0.420100  0.042890  1.0  -0.7861
  O  O54  1  0.600700  0.265600  0.008390  1.0  -0.7206
  O  O55  1  0.352200  0.111900  0.430200  1.0  -0.4796
  O  O56  1  0.348300  0.166900  0.587000  1.0  -0.4533
  O  O57  1  0.845900  0.601300  0.977540  1.0  -0.689
  O  O58  1  0.710100  0.772700  0.992030  1.0  -0.7012
  O  O59  1  0.610500  0.609100  0.868350  1.0  -0.7111
  O  O60  1  0.545300  0.450400  0.842690  1.0  -0.713
  O  O61  1  0.333333  0.579900  0.957110  1.0  -0.7857
  O  O62  1  0.399300  0.734400  0.991610  1.0  -0.7219
  O  O63  1  0.647800  0.888100  0.569800  1.0  -0.4799
  O  O64  1  0.651700  0.833100  0.413000  1.0  -0.4526
