# generated using pymatgen
data_EuH6(C2O)8
_symmetry_space_group_name_H-M   'P 1'
_cell_length_a   10.47020000
_cell_length_b   12.01310000
_cell_length_c   13.17650000
_cell_angle_alpha   83.82700000
_cell_angle_beta   85.92000000
_cell_angle_gamma   75.68600000
_symmetry_Int_Tables_number   1
_chemical_formula_structural   EuH6(C2O)8
_chemical_formula_sum   'Eu2 H12 C32 O16'
_cell_volume   1594.86246224
_cell_formula_units_Z   2
loop_
 _symmetry_equiv_pos_site_id
 _symmetry_equiv_pos_as_xyz
  1  'x, y, z'
loop_
 _atom_site_type_symbol
 _atom_site_label
 _atom_site_symmetry_multiplicity
 _atom_site_fract_x
 _atom_site_fract_y
 _atom_site_fract_z
 _atom_site_occupancy
 _atom_site_charge
  Eu  Eu1  1  0.392780  0.882200  0.452220  1.0  2.1541
  Eu  Eu2  1  0.607220  0.117800  0.547780  1.0  2.1543
  H  H3  1  0.628000  0.230000  0.201900  1.0  0.1232
  H  H4  1  0.549800  0.162700  0.921000  1.0  0.151
  H  H5  1  0.506500  0.942000  0.168300  1.0  0.1113
  H  H6  1  0.913100  0.883200  0.530000  1.0  0.1209
  H  H7  1  0.175100  0.575000  0.508500  1.0  0.1122
  H  H8  1  0.785100  0.593800  0.510900  1.0  0.1142
  H  H9  1  0.372000  0.770000  0.798100  1.0  0.1228
  H  H10  1  0.450200  0.837300  0.079000  1.0  0.1516
  H  H11  1  0.493500  0.058000  0.831700  1.0  0.1127
  H  H12  1  0.086900  0.116800  0.470000  1.0  0.1206
  H  H13  1  0.824900  0.425000  0.491500  1.0  0.1123
  H  H14  1  0.214900  0.406200  0.489100  1.0  0.1143
  C  C15  1  0.174700  0.791200  0.518300  1.0  0.69
  C  C16  1  0.568700  0.080600  0.200500  1.0  -0.1398
  C  C17  1  0.575900  0.044100  0.313400  1.0  0.7668
  C  C18  1  0.520500  0.038000  0.033200  1.0  0.0615
  C  C19  1  0.601200  0.181900  0.159200  1.0  0.0269
  C  C20  1  0.060500  0.736100  0.520600  1.0  -0.1341
  C  C21  1  0.554200  0.141200  0.992400  1.0  -0.0438
  C  C22  1  0.528800  0.010700  0.138300  1.0  -0.0663
  C  C23  1  0.593800  0.212100  0.054300  1.0  -0.1415
  C  C24  1  0.633700  0.317200  0.004100  1.0  0.6099
  C  C25  1  0.828700  0.747300  0.522200  1.0  -0.1305
  C  C26  1  0.931300  0.802500  0.525100  1.0  0.0072
  C  C27  1  0.687900  0.815600  0.525000  1.0  0.7449
  C  C28  1  0.086100  0.618600  0.511400  1.0  -0.0642
  C  C29  1  0.985900  0.563000  0.506400  1.0  0.0591
  C  C30  1  0.856000  0.629800  0.512900  1.0  -0.0526
  C  C31  1  0.825300  0.208800  0.481700  1.0  0.6881
  C  C32  1  0.431300  0.919400  0.799500  1.0  -0.1402
  C  C33  1  0.424100  0.955900  0.686600  1.0  0.7652
  C  C34  1  0.479500  0.962000  0.966800  1.0  0.0616
  C  C35  1  0.398800  0.818100  0.840800  1.0  0.027
  C  C36  1  0.939500  0.263900  0.479400  1.0  -0.1351
  C  C37  1  0.445800  0.858800  0.007600  1.0  -0.0441
  C  C38  1  0.471200  0.989300  0.861700  1.0  -0.0669
  C  C39  1  0.406200  0.787900  0.945700  1.0  -0.1424
  C  C40  1  0.366300  0.682800  0.995900  1.0  0.6082
  C  C41  1  0.171300  0.252700  0.477800  1.0  -0.1293
  C  C42  1  0.068700  0.197500  0.474900  1.0  0.0093
  C  C43  1  0.312100  0.184400  0.475000  1.0  0.7441
  C  C44  1  0.913900  0.381400  0.488600  1.0  -0.0655
  C  C45  1  0.014100  0.437000  0.493600  1.0  0.0587
  C  C46  1  0.144000  0.370200  0.487100  1.0  -0.0527
  O  O47  1  0.546200  0.950020  0.342850  1.0  -0.6863
  O  O48  1  0.610600  0.109370  0.368390  1.0  -0.6994
  O  O49  1  0.154000  0.899270  0.522220  1.0  -0.6742
  O  O50  1  0.666800  0.920100  0.543210  1.0  -0.7742
  O  O51  1  0.289900  0.727220  0.507230  1.0  -0.6923
  O  O52  1  0.648000  0.389100  0.069730  1.0  -0.4562
  O  O53  1  0.651700  0.333400  0.912700  1.0  -0.4661
  O  O54  1  0.601300  0.764830  0.508280  1.0  -0.6244
  O  O55  1  0.453800  0.049980  0.657150  1.0  -0.6853
  O  O56  1  0.389400  0.890630  0.631610  1.0  -0.6992
  O  O57  1  0.846000  0.100730  0.477780  1.0  -0.6752
  O  O58  1  0.333200  0.079900  0.456790  1.0  -0.7755
  O  O59  1  0.710100  0.272780  0.492770  1.0  -0.6921
  O  O60  1  0.352000  0.610900  0.930270  1.0  -0.4623
  O  O61  1  0.348300  0.666667  0.087300  1.0  -0.469
  O  O62  1  0.398700  0.235170  0.491720  1.0  -0.6235
