# generated using pymatgen
data_Cd3(C11O7)2
_symmetry_space_group_name_H-M   'P 1'
_cell_length_a   15.75000000
_cell_length_b   14.50100000
_cell_length_c   19.36300000
_cell_angle_alpha   90.00000000
_cell_angle_beta   113.67000000
_cell_angle_gamma   90.00000000
_symmetry_Int_Tables_number   1
_chemical_formula_structural   Cd3(C11O7)2
_chemical_formula_sum   'Cd12 C88 O56'
_cell_volume   4050.29240653
_cell_formula_units_Z   4
loop_
 _symmetry_equiv_pos_site_id
 _symmetry_equiv_pos_as_xyz
  1  'x, y, z'
loop_
 _atom_site_type_symbol
 _atom_site_label
 _atom_site_symmetry_multiplicity
 _atom_site_fract_x
 _atom_site_fract_y
 _atom_site_fract_z
 _atom_site_occupancy
 _atom_site_charge
  Cd  Cd1  1  0.206240  0.856870  0.463260  1.0  1.1288
  Cd  Cd2  1  0.655090  0.300500  0.348240  1.0  1.1319
  Cd  Cd3  1  0.766990  0.419760  0.215200  1.0  1.0686
  Cd  Cd4  1  0.793760  0.356870  0.036740  1.0  1.1292
  Cd  Cd5  1  0.344910  0.800500  0.151760  1.0  1.1325
  Cd  Cd6  1  0.233010  0.919760  0.284800  1.0  1.0684
  Cd  Cd7  1  0.793760  0.143130  0.536740  1.0  1.129
  Cd  Cd8  1  0.344910  0.699500  0.651760  1.0  1.1308
  Cd  Cd9  1  0.233010  0.580240  0.784800  1.0  1.0695
  Cd  Cd10  1  0.206240  0.643130  0.963260  1.0  1.1286
  Cd  Cd11  1  0.655090  0.199500  0.848240  1.0  1.1309
  Cd  Cd12  1  0.766990  0.080240  0.715200  1.0  1.0702
  C  C13  1  0.068300  0.996500  0.325100  1.0  0.7467
  C  C14  1  0.987300  0.062300  0.305400  1.0  -0.076
  C  C15  1  0.850800  0.235800  0.154600  1.0  0.7339
  C  C16  1  0.881400  0.174900  0.222900  1.0  -0.0525
  C  C17  1  0.956500  0.114600  0.239600  1.0  0.0709
  C  C18  1  0.585000  0.218100  0.443200  1.0  0.6838
  C  C19  1  0.536200  0.176400  0.487900  1.0  -0.0249
  C  C20  1  0.570900  0.192500  0.565500  1.0  0.072
  C  C21  1  0.525300  0.154700  0.607400  1.0  -0.0407
  C  C22  1  0.338200  0.011400  0.460200  1.0  0.7116
  C  C23  1  0.415200  0.080100  0.495800  1.0  -0.0888
  C  C24  1  0.458300  0.120200  0.453400  1.0  0.1126
  C  C25  1  0.821000  0.143200  0.391600  1.0  0.6957
  C  C26  1  0.868300  0.130300  0.338400  1.0  -0.0341
  C  C27  1  0.944500  0.072300  0.355700  1.0  0.0753
  C  C28  1  0.834400  0.180400  0.270300  1.0  0.0607
  C  C29  1  0.844300  0.397300  0.395400  1.0  0.6968
  C  C30  1  0.925200  0.450300  0.449600  1.0  -0.0067
  C  C31  1  0.985600  0.494400  0.423900  1.0  0.012
  C  C32  1  0.939200  0.456400  0.526000  1.0  0.0264
  C  C33  1  0.562200  0.174300  0.690300  1.0  0.6938
  C  C34  1  0.447500  0.099400  0.573100  1.0  0.0855
  C  C35  1  0.931700  0.496500  0.174900  1.0  0.7467
  C  C36  1  0.012700  0.562300  0.194600  1.0  -0.0764
  C  C37  1  0.149200  0.735800  0.345400  1.0  0.7342
  C  C38  1  0.118600  0.674900  0.277100  1.0  -0.0526
  C  C39  1  0.043500  0.614600  0.260400  1.0  0.0715
  C  C40  1  0.415000  0.718100  0.056800  1.0  0.6864
  C  C41  1  0.463800  0.676400  0.012100  1.0  -0.0244
  C  C42  1  0.429100  0.692500  0.934500  1.0  0.0741
  C  C43  1  0.474700  0.654700  0.892600  1.0  -0.0403
  C  C44  1  0.661800  0.511400  0.039800  1.0  0.7107
  C  C45  1  0.584800  0.580100  0.004200  1.0  -0.0893
  C  C46  1  0.541700  0.620200  0.046600  1.0  0.1118
  C  C47  1  0.179000  0.643200  0.108400  1.0  0.6967
  C  C48  1  0.131700  0.630300  0.161600  1.0  -0.0342
  C  C49  1  0.055500  0.572300  0.144300  1.0  0.0743
  C  C50  1  0.165600  0.680400  0.229700  1.0  0.0591
  C  C51  1  0.155700  0.897300  0.104600  1.0  0.6978
  C  C52  1  0.074800  0.950300  0.050400  1.0  -0.0064
  C  C53  1  0.014400  0.994400  0.076100  1.0  0.0094
  C  C54  1  0.060800  0.956400  0.974000  1.0  0.0283
  C  C55  1  0.437800  0.674300  0.809700  1.0  0.6917
  C  C56  1  0.552500  0.599400  0.926900  1.0  0.0818
  C  C57  1  0.931700  0.003500  0.674900  1.0  0.7471
  C  C58  1  0.012700  0.937700  0.694600  1.0  -0.0764
  C  C59  1  0.149200  0.764200  0.845400  1.0  0.7342
  C  C60  1  0.118600  0.825100  0.777100  1.0  -0.0528
  C  C61  1  0.043500  0.885400  0.760400  1.0  0.0718
  C  C62  1  0.415000  0.781900  0.556800  1.0  0.6861
  C  C63  1  0.463800  0.823600  0.512100  1.0  -0.0235
  C  C64  1  0.429100  0.807500  0.434500  1.0  0.0739
  C  C65  1  0.474700  0.845300  0.392600  1.0  -0.0401
  C  C66  1  0.661800  0.988600  0.539800  1.0  0.7106
  C  C67  1  0.584800  0.919900  0.504200  1.0  -0.0899
  C  C68  1  0.541700  0.879800  0.546600  1.0  0.1106
  C  C69  1  0.179000  0.856800  0.608400  1.0  0.6978
  C  C70  1  0.131700  0.869700  0.661600  1.0  -0.0337
  C  C71  1  0.055500  0.927700  0.644300  1.0  0.0746
  C  C72  1  0.165600  0.819600  0.729700  1.0  0.0595
  C  C73  1  0.155700  0.602700  0.604600  1.0  0.6989
  C  C74  1  0.074800  0.549700  0.550400  1.0  -0.008
  C  C75  1  0.014400  0.505600  0.576100  1.0  0.0095
  C  C76  1  0.060800  0.543600  0.474000  1.0  0.0295
  C  C77  1  0.437800  0.825700  0.309700  1.0  0.6915
  C  C78  1  0.552500  0.900600  0.426900  1.0  0.0824
  C  C79  1  0.068300  0.503500  0.825100  1.0  0.747
  C  C80  1  0.987300  0.437700  0.805400  1.0  -0.0761
  C  C81  1  0.850800  0.264200  0.654600  1.0  0.734
  C  C82  1  0.881400  0.325100  0.722900  1.0  -0.0523
  C  C83  1  0.956500  0.385400  0.739600  1.0  0.071
  C  C84  1  0.585000  0.281900  0.943200  1.0  0.6825
  C  C85  1  0.536200  0.323600  0.987900  1.0  -0.0244
  C  C86  1  0.570900  0.307500  0.065500  1.0  0.0736
  C  C87  1  0.525300  0.345300  0.107400  1.0  -0.0403
  C  C88  1  0.338200  0.488600  0.960200  1.0  0.7114
  C  C89  1  0.415200  0.419900  0.995800  1.0  -0.0898
  C  C90  1  0.458300  0.379800  0.953400  1.0  0.112
  C  C91  1  0.821000  0.356800  0.891600  1.0  0.6966
  C  C92  1  0.868300  0.369700  0.838400  1.0  -0.0338
  C  C93  1  0.944500  0.427700  0.855700  1.0  0.0756
  C  C94  1  0.834400  0.319600  0.770300  1.0  0.0611
  C  C95  1  0.844300  0.102700  0.895400  1.0  0.6978
  C  C96  1  0.925200  0.049700  0.949600  1.0  -0.0081
  C  C97  1  0.985600  0.005600  0.923900  1.0  0.0121
  C  C98  1  0.939200  0.043600  0.026000  1.0  0.0271
  C  C99  1  0.562200  0.325700  0.190300  1.0  0.694
  C  C100  1  0.447500  0.400600  0.073100  1.0  0.0844
  O  O101  1  0.090900  0.953300  0.385170  1.0  -0.6852
  O  O102  1  0.883400  0.226500  0.106320  1.0  -0.5528
  O  O103  1  0.789900  0.298300  0.148220  1.0  -0.6311
  O  O104  1  0.304700  0.973200  0.501860  1.0  -0.5468
  O  O105  1  0.667500  0.246600  0.476980  1.0  -0.6276
  O  O106  1  0.868400  0.127400  0.460740  1.0  -0.5704
  O  O107  1  0.737100  0.166700  0.364400  1.0  -0.6226
  O  O108  1  0.777800  0.382800  0.414880  1.0  -0.5687
  O  O109  1  0.650100  0.171500  0.728330  1.0  -0.6138
  O  O110  1  0.507900  0.193400  0.720320  1.0  -0.5893
  O  O111  1  0.541700  0.226300  0.372770  1.0  -0.5645
  O  O112  1  0.847500  0.371400  0.334930  1.0  -0.5869
  O  O113  1  0.103900  0.991000  0.277380  1.0  -0.6178
  O  O114  1  0.314900  0.996100  0.390920  1.0  -0.7075
  O  O115  1  0.909100  0.453300  0.114830  1.0  -0.6857
  O  O116  1  0.116600  0.726500  0.393680  1.0  -0.5546
  O  O117  1  0.210100  0.798300  0.351780  1.0  -0.6323
  O  O118  1  0.695300  0.473200  0.998140  1.0  -0.549
  O  O119  1  0.332500  0.746600  0.023020  1.0  -0.6274
  O  O120  1  0.131600  0.627400  0.039260  1.0  -0.5713
  O  O121  1  0.262900  0.666667  0.135600  1.0  -0.6247
  O  O122  1  0.222200  0.882800  0.085120  1.0  -0.5699
  O  O123  1  0.349900  0.671500  0.771670  1.0  -0.6093
  O  O124  1  0.492100  0.693400  0.779680  1.0  -0.589
  O  O125  1  0.458300  0.726300  0.127230  1.0  -0.5631
  O  O126  1  0.152500  0.871400  0.165070  1.0  -0.5868
  O  O127  1  0.896100  0.491000  0.222620  1.0  -0.6177
  O  O128  1  0.685100  0.496100  0.109080  1.0  -0.706
  O  O129  1  0.909100  0.046700  0.614830  1.0  -0.6841
  O  O130  1  0.116600  0.773500  0.893680  1.0  -0.5555
  O  O131  1  0.210100  0.701700  0.851780  1.0  -0.6322
  O  O132  1  0.695300  0.026800  0.498140  1.0  -0.5483
  O  O133  1  0.332500  0.753400  0.523020  1.0  -0.6258
  O  O134  1  0.131600  0.872600  0.539260  1.0  -0.5708
  O  O135  1  0.262900  0.833300  0.635600  1.0  -0.6243
  O  O136  1  0.222200  0.617200  0.585120  1.0  -0.5691
  O  O137  1  0.349900  0.828500  0.271670  1.0  -0.6094
  O  O138  1  0.492100  0.806600  0.279680  1.0  -0.589
  O  O139  1  0.458300  0.773700  0.627230  1.0  -0.5648
  O  O140  1  0.152500  0.628600  0.665070  1.0  -0.5865
  O  O141  1  0.896100  0.009000  0.722620  1.0  -0.616
  O  O142  1  0.685100  0.003900  0.609080  1.0  -0.705
  O  O143  1  0.090900  0.546700  0.885170  1.0  -0.6831
  O  O144  1  0.883400  0.273500  0.606320  1.0  -0.5525
  O  O145  1  0.789900  0.201700  0.648220  1.0  -0.6316
  O  O146  1  0.304700  0.526800  0.001860  1.0  -0.5466
  O  O147  1  0.667500  0.253400  0.976980  1.0  -0.6248
  O  O148  1  0.868400  0.372600  0.960740  1.0  -0.5708
  O  O149  1  0.737100  0.333333  0.864400  1.0  -0.6232
  O  O150  1  0.777800  0.117200  0.914880  1.0  -0.5678
  O  O151  1  0.650100  0.328500  0.228330  1.0  -0.6138
  O  O152  1  0.507900  0.306600  0.220320  1.0  -0.5884
  O  O153  1  0.541700  0.273700  0.872770  1.0  -0.5654
  O  O154  1  0.847500  0.128600  0.834930  1.0  -0.5872
  O  O155  1  0.103900  0.509000  0.777380  1.0  -0.6188
  O  O156  1  0.314900  0.503900  0.890920  1.0  -0.7059
