# generated using pymatgen
data_TbH12C21NO6
_symmetry_space_group_name_H-M   'P 1'
_cell_length_a   8.25700000
_cell_length_b   13.16300000
_cell_length_c   14.23800000
_cell_angle_alpha   114.26100000
_cell_angle_beta   96.49300000
_cell_angle_gamma   101.69900000
_symmetry_Int_Tables_number   1
_chemical_formula_structural   TbH12C21NO6
_chemical_formula_sum   'Tb2 H24 C42 N2 O12'
_cell_volume   1347.66189380
_cell_formula_units_Z   2
loop_
 _symmetry_equiv_pos_site_id
 _symmetry_equiv_pos_as_xyz
  1  'x, y, z'
loop_
 _atom_site_type_symbol
 _atom_site_label
 _atom_site_symmetry_multiplicity
 _atom_site_fract_x
 _atom_site_fract_y
 _atom_site_fract_z
 _atom_site_occupancy
 _atom_site_charge
  Tb  Tb1  1  0.269330  0.549780  0.499180  1.0  2.2735
  Tb  Tb2  1  0.730670  0.450220  0.500820  1.0  2.2753
  H  H3  1  0.344800  0.437100  0.755200  1.0  0.0878
  H  H4  1  0.373600  0.330600  0.847500  1.0  0.1106
  H  H5  1  0.872400  0.227000  0.803200  1.0  0.0953
  H  H6  1  0.844800  0.334800  0.712600  1.0  0.098
  H  H7  1  0.385300  0.170000  0.164700  1.0  0.097
  H  H8  1  0.257500  0.094900  0.990300  1.0  0.0944
  H  H9  1  0.198100  0.403800  0.035100  1.0  0.1033
  H  H10  1  0.308900  0.474800  0.211800  1.0  0.0876
  H  H11  1  0.280600  0.879500  0.677900  1.0  0.1061
  H  H12  1  0.341400  0.073000  0.791300  1.0  0.1089
  H  H13  1  0.857800  0.035600  0.818300  1.0  0.1204
  H  H14  1  0.798900  0.840800  0.701000  1.0  0.0877
  H  H15  1  0.655200  0.562900  0.244800  1.0  0.0878
  H  H16  1  0.626400  0.669400  0.152500  1.0  0.1117
  H  H17  1  0.127600  0.773000  0.196800  1.0  0.0938
  H  H18  1  0.155200  0.665200  0.287400  1.0  0.097
  H  H19  1  0.614700  0.830000  0.835300  1.0  0.0978
  H  H20  1  0.742500  0.905100  0.009700  1.0  0.0947
  H  H21  1  0.801900  0.596200  0.964900  1.0  0.1031
  H  H22  1  0.691100  0.525200  0.788200  1.0  0.0877
  H  H23  1  0.719400  0.120500  0.322100  1.0  0.1059
  H  H24  1  0.658600  0.927000  0.208700  1.0  0.109
  H  H25  1  0.142200  0.964400  0.181700  1.0  0.1213
  H  H26  1  0.201100  0.159200  0.299000  1.0  0.0874
  C  C27  1  0.071800  0.461300  0.659200  1.0  0.7207
  C  C28  1  0.091000  0.394800  0.722800  1.0  -0.1668
  C  C29  1  0.248800  0.394400  0.764400  1.0  -0.0518
  C  C30  1  0.266100  0.330700  0.820000  1.0  -0.1675
  C  C31  1  0.126200  0.268000  0.834900  1.0  0.1871
  C  C32  1  0.968600  0.269400  0.793900  1.0  -0.1905
  C  C33  1  0.952200  0.333500  0.739000  1.0  -0.0322
  C  C34  1  0.448500  0.379200  0.322000  1.0  0.6735
  C  C35  1  0.364100  0.332000  0.207500  1.0  -0.1586
  C  C36  1  0.346300  0.217300  0.139200  1.0  -0.054
  C  C37  1  0.271600  0.172800  0.034300  1.0  -0.1085
  C  C38  1  0.216800  0.241200  0.992500  1.0  0.1793
  C  C39  1  0.233800  0.355700  0.060900  1.0  -0.1299
  C  C40  1  0.303100  0.398600  0.166600  1.0  -0.0538
  C  C41  1  0.993700  0.712400  0.609100  1.0  0.7133
  C  C42  1  0.034900  0.840300  0.680100  1.0  -0.1578
  C  C43  1  0.195400  0.910200  0.706100  1.0  -0.0553
  C  C44  1  0.231400  0.025900  0.773900  1.0  -0.1483
  C  C45  1  0.106400  0.073500  0.816600  1.0  0.1707
  C  C46  1  0.943200  0.004900  0.790400  1.0  -0.2444
  C  C47  1  0.909300  0.888000  0.720700  1.0  -0.0376
  C  C48  1  0.928200  0.538700  0.340800  1.0  0.7195
  C  C49  1  0.909000  0.605200  0.277200  1.0  -0.1669
  C  C50  1  0.751200  0.605600  0.235600  1.0  -0.0499
  C  C51  1  0.733900  0.669300  0.180000  1.0  -0.1695
  C  C52  1  0.873800  0.732000  0.165100  1.0  0.1881
  C  C53  1  0.031400  0.730600  0.206100  1.0  -0.1893
  C  C54  1  0.047800  0.666500  0.261000  1.0  -0.0313
  C  C55  1  0.551500  0.620800  0.678000  1.0  0.6724
  C  C56  1  0.635900  0.668000  0.792500  1.0  -0.1608
  C  C57  1  0.653700  0.782700  0.860800  1.0  -0.0534
  C  C58  1  0.728400  0.827200  0.965700  1.0  -0.1104
  C  C59  1  0.783200  0.758800  0.007500  1.0  0.1791
  C  C60  1  0.766200  0.644300  0.939100  1.0  -0.1298
  C  C61  1  0.696900  0.601400  0.833400  1.0  -0.0514
  C  C62  1  0.006300  0.287600  0.390900  1.0  0.7149
  C  C63  1  0.965100  0.159700  0.319900  1.0  -0.1578
  C  C64  1  0.804600  0.089800  0.293900  1.0  -0.0561
  C  C65  1  0.768600  0.974100  0.226100  1.0  -0.1489
  C  C66  1  0.893600  0.926500  0.183400  1.0  0.1704
  C  C67  1  0.056800  0.995100  0.209600  1.0  -0.2448
  C  C68  1  0.090700  0.112000  0.279300  1.0  -0.039
  N  N69  1  0.141100  0.195100  0.884800  1.0  -0.1724
  N  N70  1  0.858900  0.804900  0.115200  1.0  -0.172
  O  O71  1  0.196700  0.495400  0.628100  1.0  -0.6842
  O  O72  1  0.929600  0.475900  0.641600  1.0  -0.7167
  O  O73  1  0.448000  0.478400  0.386800  1.0  -0.7052
  O  O74  1  0.519600  0.315400  0.347400  1.0  -0.6401
  O  O75  1  0.113200  0.672700  0.575400  1.0  -0.7258
  O  O76  1  0.840600  0.654100  0.586700  1.0  -0.7137
  O  O77  1  0.803300  0.504600  0.371900  1.0  -0.6838
  O  O78  1  0.070400  0.524100  0.358400  1.0  -0.7176
  O  O79  1  0.552000  0.521600  0.613200  1.0  -0.704
  O  O80  1  0.480400  0.684600  0.652600  1.0  -0.6394
  O  O81  1  0.886800  0.327300  0.424600  1.0  -0.7285
  O  O82  1  0.159400  0.345900  0.413300  1.0  -0.7122
