# generated using pymatgen
data_Fe2Ag2H22C27N10(ClO10)2
_symmetry_space_group_name_H-M   'P 1'
_cell_length_a   8.05060000
_cell_length_b   18.68680000
_cell_length_c   18.82590000
_cell_angle_alpha   119.17800000
_cell_angle_beta   102.34600000
_cell_angle_gamma   90.00000000
_symmetry_Int_Tables_number   1
_chemical_formula_structural   Fe2Ag2H22C27N10(ClO10)2
_chemical_formula_sum   'Fe4 Ag4 H44 C54 N20 Cl4 O40'
_cell_volume   2397.49824027
_cell_formula_units_Z   2
loop_
 _symmetry_equiv_pos_site_id
 _symmetry_equiv_pos_as_xyz
  1  'x, y, z'
loop_
 _atom_site_type_symbol
 _atom_site_label
 _atom_site_symmetry_multiplicity
 _atom_site_fract_x
 _atom_site_fract_y
 _atom_site_fract_z
 _atom_site_occupancy
 _atom_site_charge
  Fe  Fe1  1  0.952100  0.188200  0.786800  1.0  1.0347
  Fe  Fe2  1  0.565700  0.379300  0.011600  1.0  1.0058
  Fe  Fe3  1  0.834700  0.688200  0.786800  1.0  1.0351
  Fe  Fe4  1  0.445900  0.879300  0.011600  1.0  1.0078
  Ag  Ag5  1  0.204200  0.169400  0.168600  1.0  0.4157
  Ag  Ag6  1  0.437200  0.394500  0.630400  1.0  0.3568
  Ag  Ag7  1  0.964400  0.669400  0.168600  1.0  0.4195
  Ag  Ag8  1  0.193200  0.894500  0.630400  1.0  0.3565
  H  H9  1  0.175600  0.381900  0.478600  1.0  0.105
  H  H10  1  0.573700  0.262400  0.468600  1.0  0.1085
  H  H11  1  0.498300  0.200000  0.325800  1.0  0.113
  H  H12  1  0.314800  0.295000  0.711000  1.0  0.1067
  H  H13  1  0.723700  0.454000  0.795600  1.0  0.1084
  H  H14  1  0.763300  0.466300  0.923400  1.0  0.1048
  H  H15  1  0.592500  0.915700  0.614600  1.0  0.1022
  H  H16  1  0.301100  0.086500  0.716600  1.0  0.1113
  H  H17  1  0.530900  0.185000  0.781200  1.0  0.1051
  H  H18  1  0.992600  0.263000  0.082600  1.0  0.1135
  H  H19  1  0.324200  0.110100  0.991400  1.0  0.1057
  H  H20  1  0.238100  0.107100  0.866200  1.0  0.1169
  H  H21  1  0.370600  0.651900  0.189200  1.0  0.1142
  H  H22  1  0.981700  0.474100  0.068800  1.0  0.1285
  H  H23  1  0.160100  0.381800  0.005600  1.0  0.0966
  H  H24  1  0.633000  0.223700  0.056400  1.0  0.1298
  H  H25  1  0.538400  0.246500  0.130200  1.0  0.1333
  H  H26  1  0.722900  0.293800  0.150400  1.0  0.1262
  H  H27  1  0.979500  0.329800  0.747400  1.0  0.1467
  H  H28  1  0.813100  0.314000  0.675200  1.0  0.1658
  H  H29  1  0.980200  0.271500  0.650800  1.0  0.1403
  H  H30  1  0.512600  0.366900  0.139200  1.0  0.3832
  H  H31  1  0.303000  0.881900  0.478600  1.0  0.106
  H  H32  1  0.894900  0.762400  0.468600  1.0  0.1111
  H  H33  1  0.827500  0.700000  0.325800  1.0  0.1135
  H  H34  1  0.396200  0.795000  0.711000  1.0  0.1065
  H  H35  1  0.071900  0.954000  0.795600  1.0  0.1093
  H  H36  1  0.160100  0.966300  0.923400  1.0  0.1046
  H  H37  1  0.022100  0.415700  0.614600  1.0  0.1025
  H  H38  1  0.415500  0.586500  0.716600  1.0  0.112
  H  H39  1  0.250300  0.685000  0.781200  1.0  0.1048
  H  H40  1  0.090000  0.763000  0.082600  1.0  0.1131
  H  H41  1  0.667200  0.610100  0.991400  1.0  0.1055
  H  H42  1  0.628100  0.607100  0.866200  1.0  0.1174
  H  H43  1  0.818600  0.151900  0.189200  1.0  0.1137
  H  H44  1  0.087100  0.974100  0.068800  1.0  0.1294
  H  H45  1  0.845500  0.881800  0.005600  1.0  0.0956
  H  H46  1  0.423400  0.723700  0.056400  1.0  0.1321
  H  H47  1  0.591800  0.746500  0.130200  1.0  0.1342
  H  H48  1  0.427500  0.793800  0.150400  1.0  0.1287
  H  H49  1  0.767900  0.829800  0.747400  1.0  0.1456
  H  H50  1  0.862100  0.814000  0.675200  1.0  0.1628
  H  H51  1  0.670600  0.771500  0.650800  1.0  0.1404
  H  H52  1  0.626600  0.866900  0.139200  1.0  0.3818
  C  C53  1  0.206500  0.311700  0.360600  1.0  0.1441
  C  C54  1  0.246300  0.344100  0.447800  1.0  0.1849
  C  C55  1  0.472100  0.274600  0.442200  1.0  0.1302
  C  C56  1  0.430400  0.239900  0.356800  1.0  0.1571
  C  C57  1  0.054800  0.330700  0.313600  1.0  0.5868
  C  C58  1  0.432800  0.338300  0.833600  1.0  0.189
  C  C59  1  0.409200  0.331200  0.754400  1.0  0.1901
  C  C60  1  0.644700  0.422500  0.803400  1.0  0.159
  C  C61  1  0.668100  0.430000  0.880200  1.0  0.1653
  C  C62  1  0.311500  0.290800  0.851000  1.0  0.5477
  C  C63  1  0.718100  0.031100  0.688200  1.0  0.1176
  C  C64  1  0.576600  0.971600  0.649200  1.0  0.1783
  C  C65  1  0.410000  0.070200  0.708000  1.0  0.1735
  C  C66  1  0.547400  0.129200  0.746800  1.0  0.1648
  C  C67  1  0.891800  0.014500  0.669600  1.0  0.6451
  C  C68  1  0.991300  0.229200  0.962600  1.0  0.124
  C  C69  1  0.045200  0.230200  0.038400  1.0  0.2028
  C  C70  1  0.236600  0.141900  0.985200  1.0  0.1689
  C  C71  1  0.185300  0.139900  0.910600  1.0  0.1588
  C  C72  1  0.865300  0.283900  0.948600  1.0  0.6617
  C  C73  1  0.435100  0.539100  0.112200  1.0  0.1213
  C  C74  1  0.325500  0.595700  0.151000  1.0  0.175
  C  C75  1  0.099600  0.492600  0.081200  1.0  0.1551
  C  C76  1  0.205800  0.437800  0.043600  1.0  0.1739
  C  C77  1  0.621400  0.561600  0.122800  1.0  0.6781
  C  C78  1  0.613400  0.269000  0.108800  1.0  0.0086
  C  C79  1  0.909900  0.289100  0.691800  1.0  -0.0557
  C  C80  1  0.154100  0.811700  0.360600  1.0  0.1422
  C  C81  1  0.201500  0.844100  0.447800  1.0  0.1834
  C  C82  1  0.970100  0.774600  0.442200  1.0  0.132
  C  C83  1  0.926400  0.739900  0.356800  1.0  0.1561
  C  C84  1  0.258800  0.830700  0.313600  1.0  0.5872
  C  C85  1  0.400800  0.838300  0.833600  1.0  0.1874
  C  C86  1  0.345200  0.831200  0.754400  1.0  0.19
  C  C87  1  0.158700  0.922500  0.803400  1.0  0.1587
  C  C88  1  0.212100  0.930000  0.880200  1.0  0.1671
  C  C89  1  0.539500  0.790800  0.851000  1.0  0.548
  C  C90  1  0.970100  0.531100  0.688200  1.0  0.1175
  C  C91  1  0.072600  0.471600  0.649200  1.0  0.1769
  C  C92  1  0.298000  0.570200  0.708000  1.0  0.1762
  C  C93  1  0.199400  0.629200  0.746800  1.0  0.1651
  C  C94  1  0.777800  0.514500  0.669600  1.0  0.6454
  C  C95  1  0.971300  0.729200  0.962600  1.0  0.1261
  C  C96  1  0.993200  0.730200  0.038400  1.0  0.203
  C  C97  1  0.748600  0.641900  0.985200  1.0  0.1693
  C  C98  1  0.725300  0.639900  0.910600  1.0  0.1575
  C  C99  1  0.083300  0.783900  0.948600  1.0  0.6614
  C  C100  1  0.677100  0.039100  0.112200  1.0  0.121
  C  C101  1  0.825500  0.095700  0.151000  1.0  0.1745
  C  C102  1  0.981600  0.992600  0.081200  1.0  0.1558
  C  C103  1  0.837800  0.937800  0.043600  1.0  0.1723
  C  C104  1  0.501400  0.061600  0.122800  1.0  0.6785
  C  C105  1  0.495400  0.769000  0.108800  1.0  0.0086
  C  C106  1  0.781900  0.789100  0.691800  1.0  -0.0562
  N  N107  1  0.296500  0.259500  0.313600  1.0  -0.3815
  N  N108  1  0.374800  0.325500  0.489600  1.0  -0.3111
  N  N109  1  0.563100  0.387800  0.898200  1.0  -0.3603
  N  N110  1  0.514600  0.372900  0.737200  1.0  -0.3251
  N  N111  1  0.706990  0.111400  0.737980  1.0  -0.2934
  N  N112  1  0.421100  0.989700  0.658200  1.0  -0.3053
  N  N113  1  0.060300  0.184400  0.898600  1.0  -0.3516
  N  N114  1  0.167400  0.187000  0.050800  1.0  -0.3424
  N  N115  1  0.377070  0.459500  0.058140  1.0  -0.3052
  N  N116  1  0.157800  0.572500  0.135600  1.0  -0.3391
  N  N117  1  0.017100  0.759500  0.313600  1.0  -0.3823
  N  N118  1  0.114800  0.825500  0.489600  1.0  -0.3099
  N  N119  1  0.335100  0.887800  0.898200  1.0  -0.3602
  N  N120  1  0.222600  0.872900  0.737200  1.0  -0.3248
  N  N121  1  0.030990  0.611400  0.737980  1.0  -0.2922
  N  N122  1  0.237100  0.489700  0.658200  1.0  -0.3048
  N  N123  1  0.838300  0.684400  0.898600  1.0  -0.35
  N  N124  1  0.883400  0.687000  0.050800  1.0  -0.341
  N  N125  1  0.681070  0.959500  0.058140  1.0  -0.306
  N  N126  1  0.977800  0.072500  0.135600  1.0  -0.3378
  Cl  Cl127  1  0.196700  0.533900  0.895400  1.0  1.2823
  Cl  Cl128  1  0.494300  0.689300  0.400000  1.0  1.5069
  Cl  Cl129  1  0.698700  0.033900  0.895400  1.0  1.2848
  Cl  Cl130  1  0.905700  0.189300  0.400000  1.0  1.5094
  O  O131  1  0.020100  0.403300  0.374200  1.0  -0.4845
  O  O132  1  0.015400  0.294600  0.238800  1.0  -0.5723
  O  O133  1  0.357800  0.292500  0.923600  1.0  -0.536
  O  O134  1  0.191100  0.238000  0.786200  1.0  -0.5775
  O  O135  1  0.912100  0.936600  0.638200  1.0  -0.6292
  O  O136  1  0.005200  0.075000  0.712400  1.0  -0.5557
  O  O137  1  0.840700  0.277000  0.879400  1.0  -0.5412
  O  O138  1  0.783300  0.317400  0.000600  1.0  -0.5708
  O  O139  1  0.704900  0.501500  0.087800  1.0  -0.6139
  O  O140  1  0.686200  0.632500  0.174400  1.0  -0.6578
  O  O141  1  0.531400  0.331100  0.092800  1.0  -0.6432
  O  O142  1  0.845300  0.217500  0.694600  1.0  -0.6217
  O  O143  1  0.354100  0.903300  0.374200  1.0  -0.4841
  O  O144  1  0.223400  0.794600  0.238800  1.0  -0.5724
  O  O145  1  0.565800  0.792500  0.923600  1.0  -0.5361
  O  O146  1  0.595100  0.738000  0.786200  1.0  -0.5779
  O  O147  1  0.726100  0.436600  0.638200  1.0  -0.6277
  O  O148  1  0.707200  0.575000  0.712400  1.0  -0.5565
  O  O149  1  0.038700  0.777000  0.879400  1.0  -0.5407
  O  O150  1  0.217300  0.817400  0.000600  1.0  -0.5697
  O  O151  1  0.382900  0.001500  0.087800  1.0  -0.6145
  O  O152  1  0.488200  0.132500  0.174400  1.0  -0.6574
  O  O153  1  0.561400  0.831100  0.092800  1.0  -0.6431
  O  O154  1  0.849300  0.717500  0.694600  1.0  -0.621
  O  O155  1  0.245600  0.626200  0.906400  1.0  -0.5287
  O  O156  1  0.078800  0.545800  0.937600  1.0  -0.5059
  O  O157  1  0.362200  0.530200  0.945400  1.0  -0.6242
  O  O158  1  0.175800  0.485800  0.817600  1.0  -0.5462
  O  O159  1  0.494300  0.738200  0.354600  1.0  -0.6019
  O  O160  1  0.562800  0.733400  0.479600  1.0  -0.5379
  O  O161  1  0.599000  0.628000  0.372000  1.0  -0.5209
  O  O162  1  0.308900  0.650200  0.371800  1.0  -0.6009
  O  O163  1  0.660800  0.126200  0.906400  1.0  -0.5284
  O  O164  1  0.858800  0.045800  0.937600  1.0  -0.5058
  O  O165  1  0.583200  0.030200  0.945400  1.0  -0.6238
  O  O166  1  0.641800  0.985800  0.817600  1.0  -0.5464
  O  O167  1  0.860300  0.238200  0.354600  1.0  -0.6011
  O  O168  1  0.916800  0.233400  0.479600  1.0  -0.5366
  O  O169  1  0.773000  0.128000  0.372000  1.0  -0.5262
  O  O170  1  0.062900  0.150200  0.371800  1.0  -0.5989
