# generated using pymatgen
data_ZnH10(C2N)4
_symmetry_space_group_name_H-M   'P 1'
_cell_length_a   14.75330000
_cell_length_b   14.75330000
_cell_length_c   14.75330000
_cell_angle_alpha   109.47100000
_cell_angle_beta   109.47100000
_cell_angle_gamma   109.47100000
_symmetry_Int_Tables_number   1
_chemical_formula_structural   ZnH10(C2N)4
_chemical_formula_sum   'Zn6 H60 C48 N24'
_cell_volume   2472.00404896
_cell_formula_units_Z   6
loop_
 _symmetry_equiv_pos_site_id
 _symmetry_equiv_pos_as_xyz
  1  'x, y, z'
loop_
 _atom_site_type_symbol
 _atom_site_label
 _atom_site_symmetry_multiplicity
 _atom_site_fract_x
 _atom_site_fract_y
 _atom_site_fract_z
 _atom_site_occupancy
 _atom_site_charge
  Zn  Zn1  1  0.750000  0.250000  0.500000  1.0  0.7844
  Zn  Zn2  1  0.250000  0.750000  0.500000  1.0  0.7546
  Zn  Zn3  1  0.500000  0.250000  0.750000  1.0  0.7646
  Zn  Zn4  1  0.500000  0.750000  0.250000  1.0  0.7646
  Zn  Zn5  1  0.250000  0.500000  0.750000  1.0  0.8065
  Zn  Zn6  1  0.750000  0.500000  0.250000  1.0  0.7736
  H  H7  1  0.639210  0.118840  0.222570  1.0  0.0941
  H  H8  1  0.896260  0.416640  0.777430  1.0  0.1059
  H  H9  1  0.360790  0.583360  0.479620  1.0  0.0996
  H  H10  1  0.520380  0.103740  0.881160  1.0  0.1055
  H  H11  1  0.479620  0.360790  0.583360  1.0  0.1055
  H  H12  1  0.222570  0.639210  0.118840  1.0  0.1006
  H  H13  1  0.777430  0.896260  0.416640  1.0  0.1009
  H  H14  1  0.416640  0.777430  0.896260  1.0  0.0972
  H  H15  1  0.118840  0.222570  0.639210  1.0  0.0993
  H  H16  1  0.583360  0.479620  0.360790  1.0  0.0995
  H  H17  1  0.881160  0.520380  0.103740  1.0  0.1125
  H  H18  1  0.118840  0.639210  0.222570  1.0  0.0994
  H  H19  1  0.583360  0.360790  0.479620  1.0  0.0997
  H  H20  1  0.881160  0.103740  0.520380  1.0  0.1101
  H  H21  1  0.639210  0.222570  0.118840  1.0  0.1002
  H  H22  1  0.896260  0.777430  0.416640  1.0  0.1041
  H  H23  1  0.103740  0.520380  0.881160  1.0  0.1051
  H  H24  1  0.360790  0.479620  0.583360  1.0  0.0955
  H  H25  1  0.520380  0.881160  0.103740  1.0  0.1066
  H  H26  1  0.479620  0.583360  0.360790  1.0  0.1071
  H  H27  1  0.222570  0.118840  0.639210  1.0  0.1008
  H  H28  1  0.777430  0.416640  0.896260  1.0  0.0988
  H  H29  1  0.862040  0.565110  0.484540  1.0  0.1347
  H  H30  1  0.872900  0.489490  0.562980  1.0  0.1398
  H  H31  1  0.749250  0.506620  0.513690  1.0  0.1292
  H  H32  1  0.051800  0.389550  0.497120  1.0  0.132
  H  H33  1  0.911190  0.269830  0.434200  1.0  0.1366
  H  H34  1  0.037010  0.263580  0.507460  1.0  0.1318
  H  H35  1  0.023480  0.501260  0.253040  1.0  0.1264
  H  H36  1  0.913710  0.433830  0.282020  1.0  0.1373
  H  H37  1  0.062810  0.503690  0.387910  1.0  0.1366
  H  H38  1  0.127100  0.616600  0.690090  1.0  0.1401
  H  H39  1  0.137960  0.703070  0.622510  1.0  0.1356
  H  H40  1  0.250750  0.757360  0.764440  1.0  0.1293
  H  H41  1  0.302380  0.922180  0.435650  1.0  0.1399
  H  H42  1  0.381140  0.076700  0.512690  1.0  0.1385
  H  H43  1  0.239450  0.001120  0.490440  1.0  0.1288
  H  H44  1  0.737520  0.172590  0.648300  1.0  0.1383
  H  H45  1  0.610520  0.103150  0.654490  1.0  0.1412
  H  H46  1  0.729000  0.240080  0.774240  1.0  0.1325
  H  H47  1  0.562330  0.875280  0.490770  1.0  0.1434
  H  H48  1  0.515380  0.749540  0.505000  1.0  0.127
  H  H49  1  0.483510  0.859360  0.565450  1.0  0.1349
  H  H50  1  0.433920  0.914620  0.284920  1.0  0.1383
  H  H51  1  0.499750  0.020270  0.250810  1.0  0.1255
  H  H52  1  0.505120  0.065120  0.387230  1.0  0.1389
  H  H53  1  0.389480  0.492630  0.043980  1.0  0.1403
  H  H54  1  0.262480  0.435070  0.910780  1.0  0.1369
  H  H55  1  0.271000  0.511080  0.045240  1.0  0.131
  H  H56  1  0.500260  0.520520  0.751070  1.0  0.1274
  H  H57  1  0.566080  0.480700  0.851010  1.0  0.1375
  H  H58  1  0.494880  0.560000  0.882110  1.0  0.1404
  H  H59  1  0.618860  0.695570  0.131550  1.0  0.1368
  H  H60  1  0.697620  0.619800  0.133270  1.0  0.1351
  H  H61  1  0.760550  0.761670  0.250990  1.0  0.1306
  H  H62  1  0.484620  0.234160  0.989630  1.0  0.1281
  H  H63  1  0.437670  0.312950  0.928440  1.0  0.1447
  H  H64  1  0.516490  0.375850  0.081930  1.0  0.1346
  H  H65  1  0.416640  0.896260  0.777430  1.0  0.1001
  H  H66  1  0.103740  0.881160  0.520380  1.0  0.1048
  C  C67  1  0.677200  0.212840  0.269260  1.0  -0.0596
  C  C68  1  0.943580  0.407940  0.730740  1.0  -0.0757
  C  C69  1  0.056420  0.787160  0.464360  1.0  -0.0745
  C  C70  1  0.322800  0.592060  0.535640  1.0  -0.0647
  C  C71  1  0.464360  0.056420  0.787160  1.0  -0.065
  C  C72  1  0.535640  0.322800  0.592060  1.0  -0.0668
  C  C73  1  0.269260  0.677200  0.212840  1.0  -0.0675
  C  C74  1  0.730740  0.943580  0.407940  1.0  -0.0779
  C  C75  1  0.407940  0.730740  0.943580  1.0  -0.0719
  C  C76  1  0.212840  0.269260  0.677200  1.0  -0.0704
  C  C77  1  0.592060  0.535640  0.322800  1.0  -0.0606
  C  C78  1  0.787160  0.464360  0.056420  1.0  -0.0643
  C  C79  1  0.407940  0.943580  0.730740  1.0  -0.0688
  C  C80  1  0.212840  0.677200  0.269260  1.0  -0.0626
  C  C81  1  0.592060  0.322800  0.535640  1.0  -0.0632
  C  C82  1  0.787160  0.056420  0.464360  1.0  -0.0673
  C  C83  1  0.677200  0.269260  0.212840  1.0  -0.0699
  C  C84  1  0.943580  0.730740  0.407940  1.0  -0.0747
  C  C85  1  0.056420  0.464360  0.787160  1.0  -0.0625
  C  C86  1  0.322800  0.535640  0.592060  1.0  -0.0586
  C  C87  1  0.464360  0.787160  0.056420  1.0  -0.0593
  C  C88  1  0.535640  0.592060  0.322800  1.0  -0.0679
  C  C89  1  0.269260  0.212840  0.677200  1.0  -0.069
  C  C90  1  0.730740  0.407940  0.943580  1.0  -0.0759
  C  C91  1  0.813440  0.493330  0.493330  1.0  -0.472
  C  C92  1  0.755960  0.386890  0.386890  1.0  0.4374
  C  C93  1  0.000000  0.320110  0.506670  1.0  -0.4772
  C  C94  1  0.000000  0.369070  0.613110  1.0  0.451
  C  C95  1  0.000000  0.506670  0.320110  1.0  -0.4736
  C  C96  1  0.000000  0.613110  0.369070  1.0  0.4532
  C  C97  1  0.186560  0.679890  0.679890  1.0  -0.4724
  C  C98  1  0.244040  0.630930  0.630930  1.0  0.4437
  C  C99  1  0.320110  0.000000  0.506670  1.0  -0.4824
  C  C100  1  0.369070  0.000000  0.613110  1.0  0.4464
  C  C101  1  0.679890  0.186560  0.679890  1.0  -0.4766
  C  C102  1  0.630930  0.244040  0.630930  1.0  0.4509
  C  C103  1  0.493330  0.813440  0.493330  1.0  -0.4683
  C  C104  1  0.386890  0.755960  0.386890  1.0  0.4456
  C  C105  1  0.506670  0.000000  0.320110  1.0  -0.4785
  C  C106  1  0.613110  0.000000  0.369070  1.0  0.4392
  C  C107  1  0.320110  0.506670  0.000000  1.0  -0.475
  C  C108  1  0.369070  0.613110  0.000000  1.0  0.4525
  C  C109  1  0.493330  0.493330  0.813440  1.0  -0.4759
  C  C110  1  0.386890  0.386890  0.755960  1.0  0.4424
  C  C111  1  0.679890  0.679890  0.186560  1.0  -0.4809
  C  C112  1  0.630930  0.630930  0.244040  1.0  0.4434
  C  C113  1  0.506670  0.320110  0.000000  1.0  -0.4686
  C  C114  1  0.613110  0.369070  0.000000  1.0  0.4426
  N  N115  1  0.727170  0.287380  0.379790  1.0  -0.4174
  N  N116  1  0.907590  0.347380  0.620210  1.0  -0.4131
  N  N117  1  0.092410  0.712620  0.439790  1.0  -0.4168
  N  N118  1  0.272830  0.652620  0.560210  1.0  -0.4105
  N  N119  1  0.439790  0.092410  0.712620  1.0  -0.4254
  N  N120  1  0.560210  0.272830  0.652620  1.0  -0.4141
  N  N121  1  0.379790  0.727170  0.287380  1.0  -0.4192
  N  N122  1  0.620210  0.907590  0.347380  1.0  -0.413
  N  N123  1  0.347380  0.620210  0.907590  1.0  -0.4056
  N  N124  1  0.287380  0.379790  0.727170  1.0  -0.4292
  N  N125  1  0.652620  0.560210  0.272830  1.0  -0.4161
  N  N126  1  0.712620  0.439790  0.092410  1.0  -0.4104
  N  N127  1  0.347380  0.907590  0.620210  1.0  -0.4159
  N  N128  1  0.287380  0.727170  0.379790  1.0  -0.4113
  N  N129  1  0.652620  0.272830  0.560210  1.0  -0.407
  N  N130  1  0.712620  0.092410  0.439790  1.0  -0.4243
  N  N131  1  0.727170  0.379790  0.287380  1.0  -0.4215
  N  N132  1  0.907590  0.620210  0.347380  1.0  -0.4235
  N  N133  1  0.092410  0.439790  0.712620  1.0  -0.4154
  N  N134  1  0.272830  0.560210  0.652620  1.0  -0.4054
  N  N135  1  0.439790  0.712620  0.092410  1.0  -0.4147
  N  N136  1  0.560210  0.652620  0.272830  1.0  -0.426
  N  N137  1  0.379790  0.287380  0.727170  1.0  -0.413
  N  N138  1  0.620210  0.347380  0.907590  1.0  -0.4202
