# generated using pymatgen
data_Zr3C24(N3O4)4
_symmetry_space_group_name_H-M   'P 1'
_cell_length_a   20.78200000
_cell_length_b   20.78200000
_cell_length_c   20.78200000
_cell_angle_alpha   90.00000000
_cell_angle_beta   90.00000000
_cell_angle_gamma   90.00000000
_symmetry_Int_Tables_number   1
_chemical_formula_structural   Zr3C24(N3O4)4
_chemical_formula_sum   'Zr24 C192 N96 O128'
_cell_volume   8975.56965177
_cell_formula_units_Z   8
loop_
 _symmetry_equiv_pos_site_id
 _symmetry_equiv_pos_as_xyz
  1  'x, y, z'
loop_
 _atom_site_type_symbol
 _atom_site_label
 _atom_site_symmetry_multiplicity
 _atom_site_fract_x
 _atom_site_fract_y
 _atom_site_fract_z
 _atom_site_occupancy
 _atom_site_charge
  Zr  Zr1  1  0.120480  0.000000  0.000000  1.0  2.2552
  Zr  Zr2  1  0.120480  0.500000  0.500000  1.0  2.2552
  Zr  Zr3  1  0.620480  0.000000  0.500000  1.0  2.2552
  Zr  Zr4  1  0.620480  0.500000  0.000000  1.0  2.2552
  Zr  Zr5  1  0.879520  0.000000  0.000000  1.0  2.2526
  Zr  Zr6  1  0.879520  0.500000  0.500000  1.0  2.2526
  Zr  Zr7  1  0.379520  0.000000  0.500000  1.0  2.2526
  Zr  Zr8  1  0.379520  0.500000  0.000000  1.0  2.2526
  Zr  Zr9  1  0.000000  0.120480  0.000000  1.0  2.2541
  Zr  Zr10  1  0.000000  0.620480  0.500000  1.0  2.2541
  Zr  Zr11  1  0.500000  0.120480  0.500000  1.0  2.2541
  Zr  Zr12  1  0.500000  0.620480  0.000000  1.0  2.2541
  Zr  Zr13  1  0.000000  0.879520  0.000000  1.0  2.2584
  Zr  Zr14  1  0.000000  0.379520  0.500000  1.0  2.2584
  Zr  Zr15  1  0.500000  0.879520  0.500000  1.0  2.2584
  Zr  Zr16  1  0.500000  0.379520  0.000000  1.0  2.2584
  Zr  Zr17  1  0.000000  0.000000  0.120480  1.0  2.2611
  Zr  Zr18  1  0.000000  0.500000  0.620480  1.0  2.2611
  Zr  Zr19  1  0.500000  0.000000  0.620480  1.0  2.2611
  Zr  Zr20  1  0.500000  0.500000  0.120480  1.0  2.2611
  Zr  Zr21  1  0.000000  0.000000  0.879520  1.0  2.2603
  Zr  Zr22  1  0.000000  0.500000  0.379520  1.0  2.2603
  Zr  Zr23  1  0.500000  0.000000  0.379520  1.0  2.2603
  Zr  Zr24  1  0.500000  0.500000  0.879520  1.0  2.2603
  C  C25  1  0.267500  0.000000  0.184400  1.0  0.3216
  C  C26  1  0.267500  0.500000  0.684400  1.0  0.3216
  C  C27  1  0.767500  0.000000  0.684400  1.0  0.3216
  C  C28  1  0.767500  0.500000  0.184400  1.0  0.3216
  C  C29  1  0.732500  0.000000  0.184400  1.0  0.3216
  C  C30  1  0.732500  0.500000  0.684400  1.0  0.3216
  C  C31  1  0.232500  0.000000  0.684400  1.0  0.3216
  C  C32  1  0.232500  0.500000  0.184400  1.0  0.3216
  C  C33  1  0.732500  0.000000  0.815600  1.0  0.3227
  C  C34  1  0.732500  0.500000  0.315600  1.0  0.3227
  C  C35  1  0.232500  0.000000  0.315600  1.0  0.3227
  C  C36  1  0.232500  0.500000  0.815600  1.0  0.3227
  C  C37  1  0.267500  0.000000  0.815600  1.0  0.3228
  C  C38  1  0.267500  0.500000  0.315600  1.0  0.3228
  C  C39  1  0.767500  0.000000  0.315600  1.0  0.3228
  C  C40  1  0.767500  0.500000  0.815600  1.0  0.3228
  C  C41  1  0.184400  0.267500  0.000000  1.0  0.3202
  C  C42  1  0.184400  0.767500  0.500000  1.0  0.3202
  C  C43  1  0.684400  0.267500  0.500000  1.0  0.3202
  C  C44  1  0.684400  0.767500  0.000000  1.0  0.3202
  C  C45  1  0.184400  0.732500  0.000000  1.0  0.3191
  C  C46  1  0.184400  0.232500  0.500000  1.0  0.3191
  C  C47  1  0.684400  0.732500  0.500000  1.0  0.3191
  C  C48  1  0.684400  0.232500  0.000000  1.0  0.3191
  C  C49  1  0.815600  0.732500  0.000000  1.0  0.3208
  C  C50  1  0.815600  0.232500  0.500000  1.0  0.3208
  C  C51  1  0.315600  0.732500  0.500000  1.0  0.3208
  C  C52  1  0.315600  0.232500  0.000000  1.0  0.3208
  C  C53  1  0.815600  0.267500  0.000000  1.0  0.3212
  C  C54  1  0.815600  0.767500  0.500000  1.0  0.3212
  C  C55  1  0.315600  0.267500  0.500000  1.0  0.3212
  C  C56  1  0.315600  0.767500  0.000000  1.0  0.3212
  C  C57  1  0.000000  0.184400  0.267500  1.0  0.3167
  C  C58  1  0.000000  0.684400  0.767500  1.0  0.3167
  C  C59  1  0.500000  0.184400  0.767500  1.0  0.3167
  C  C60  1  0.500000  0.684400  0.267500  1.0  0.3167
  C  C61  1  0.000000  0.184400  0.732500  1.0  0.315
  C  C62  1  0.000000  0.684400  0.232500  1.0  0.315
  C  C63  1  0.500000  0.184400  0.232500  1.0  0.315
  C  C64  1  0.500000  0.684400  0.732500  1.0  0.315
  C  C65  1  0.000000  0.815600  0.732500  1.0  0.3169
  C  C66  1  0.000000  0.315600  0.232500  1.0  0.3169
  C  C67  1  0.500000  0.815600  0.232500  1.0  0.3169
  C  C68  1  0.500000  0.315600  0.732500  1.0  0.3169
  C  C69  1  0.000000  0.815600  0.267500  1.0  0.318
  C  C70  1  0.000000  0.315600  0.767500  1.0  0.318
  C  C71  1  0.500000  0.815600  0.767500  1.0  0.318
  C  C72  1  0.500000  0.315600  0.267500  1.0  0.318
  C  C73  1  0.000000  0.267500  0.815600  1.0  0.3202
  C  C74  1  0.000000  0.767500  0.315600  1.0  0.3202
  C  C75  1  0.500000  0.267500  0.315600  1.0  0.3202
  C  C76  1  0.500000  0.767500  0.815600  1.0  0.3202
  C  C77  1  0.000000  0.732500  0.815600  1.0  0.3194
  C  C78  1  0.000000  0.232500  0.315600  1.0  0.3194
  C  C79  1  0.500000  0.732500  0.315600  1.0  0.3194
  C  C80  1  0.500000  0.232500  0.815600  1.0  0.3194
  C  C81  1  0.000000  0.732500  0.184400  1.0  0.3178
  C  C82  1  0.000000  0.232500  0.684400  1.0  0.3178
  C  C83  1  0.500000  0.732500  0.684400  1.0  0.3178
  C  C84  1  0.500000  0.232500  0.184400  1.0  0.3178
  C  C85  1  0.000000  0.267500  0.184400  1.0  0.3194
  C  C86  1  0.000000  0.767500  0.684400  1.0  0.3194
  C  C87  1  0.500000  0.267500  0.684400  1.0  0.3194
  C  C88  1  0.500000  0.767500  0.184400  1.0  0.3194
  C  C89  1  0.267500  0.184400  0.000000  1.0  0.3186
  C  C90  1  0.267500  0.684400  0.500000  1.0  0.3186
  C  C91  1  0.767500  0.184400  0.500000  1.0  0.3186
  C  C92  1  0.767500  0.684400  0.000000  1.0  0.3186
  C  C93  1  0.732500  0.184400  0.000000  1.0  0.3189
  C  C94  1  0.732500  0.684400  0.500000  1.0  0.3189
  C  C95  1  0.232500  0.184400  0.500000  1.0  0.3189
  C  C96  1  0.232500  0.684400  0.000000  1.0  0.3189
  C  C97  1  0.732500  0.815600  0.000000  1.0  0.3202
  C  C98  1  0.732500  0.315600  0.500000  1.0  0.3202
  C  C99  1  0.232500  0.815600  0.500000  1.0  0.3202
  C  C100  1  0.232500  0.315600  0.000000  1.0  0.3202
  C  C101  1  0.267500  0.815600  0.000000  1.0  0.3199
  C  C102  1  0.267500  0.315600  0.500000  1.0  0.3199
  C  C103  1  0.767500  0.815600  0.500000  1.0  0.3199
  C  C104  1  0.767500  0.315600  0.000000  1.0  0.3199
  C  C105  1  0.184400  0.000000  0.732500  1.0  0.3185
  C  C106  1  0.184400  0.500000  0.232500  1.0  0.3185
  C  C107  1  0.684400  0.000000  0.232500  1.0  0.3185
  C  C108  1  0.684400  0.500000  0.732500  1.0  0.3185
  C  C109  1  0.184400  0.000000  0.267500  1.0  0.32
  C  C110  1  0.184400  0.500000  0.767500  1.0  0.32
  C  C111  1  0.684400  0.000000  0.767500  1.0  0.32
  C  C112  1  0.684400  0.500000  0.267500  1.0  0.32
  C  C113  1  0.815600  0.000000  0.267500  1.0  0.3215
  C  C114  1  0.815600  0.500000  0.767500  1.0  0.3215
  C  C115  1  0.315600  0.000000  0.767500  1.0  0.3215
  C  C116  1  0.315600  0.500000  0.267500  1.0  0.3215
  C  C117  1  0.815600  0.000000  0.732500  1.0  0.3203
  C  C118  1  0.815600  0.500000  0.232500  1.0  0.3203
  C  C119  1  0.315600  0.000000  0.232500  1.0  0.3203
  C  C120  1  0.315600  0.500000  0.732500  1.0  0.3203
  C  C121  1  0.153600  0.000000  0.153600  1.0  0.3682
  C  C122  1  0.205000  0.000000  0.205000  1.0  0.1237
  C  C123  1  0.153600  0.500000  0.653600  1.0  0.3682
  C  C124  1  0.205000  0.500000  0.705000  1.0  0.1237
  C  C125  1  0.653600  0.000000  0.653600  1.0  0.3682
  C  C126  1  0.705000  0.000000  0.705000  1.0  0.1237
  C  C127  1  0.653600  0.500000  0.153600  1.0  0.3682
  C  C128  1  0.705000  0.500000  0.205000  1.0  0.1237
  C  C129  1  0.846400  0.000000  0.153600  1.0  0.3684
  C  C130  1  0.795000  0.000000  0.205000  1.0  0.1235
  C  C131  1  0.846400  0.500000  0.653600  1.0  0.3684
  C  C132  1  0.795000  0.500000  0.705000  1.0  0.1235
  C  C133  1  0.346400  0.000000  0.653600  1.0  0.3684
  C  C134  1  0.295000  0.000000  0.705000  1.0  0.1235
  C  C135  1  0.346400  0.500000  0.153600  1.0  0.3684
  C  C136  1  0.295000  0.500000  0.205000  1.0  0.1235
  C  C137  1  0.846400  0.000000  0.846400  1.0  0.3681
  C  C138  1  0.795000  0.000000  0.795000  1.0  0.1238
  C  C139  1  0.846400  0.500000  0.346400  1.0  0.3681
  C  C140  1  0.795000  0.500000  0.295000  1.0  0.1238
  C  C141  1  0.346400  0.000000  0.346400  1.0  0.3681
  C  C142  1  0.295000  0.000000  0.295000  1.0  0.1238
  C  C143  1  0.346400  0.500000  0.846400  1.0  0.3681
  C  C144  1  0.295000  0.500000  0.795000  1.0  0.1238
  C  C145  1  0.153600  0.000000  0.846400  1.0  0.3677
  C  C146  1  0.205000  0.000000  0.795000  1.0  0.1239
  C  C147  1  0.153600  0.500000  0.346400  1.0  0.3677
  C  C148  1  0.205000  0.500000  0.295000  1.0  0.1239
  C  C149  1  0.653600  0.000000  0.346400  1.0  0.3677
  C  C150  1  0.705000  0.000000  0.295000  1.0  0.1239
  C  C151  1  0.653600  0.500000  0.846400  1.0  0.3677
  C  C152  1  0.705000  0.500000  0.795000  1.0  0.1239
  C  C153  1  0.153600  0.153600  0.000000  1.0  0.3669
  C  C154  1  0.205000  0.205000  0.000000  1.0  0.1236
  C  C155  1  0.153600  0.653600  0.500000  1.0  0.3669
  C  C156  1  0.205000  0.705000  0.500000  1.0  0.1236
  C  C157  1  0.653600  0.153600  0.500000  1.0  0.3669
  C  C158  1  0.705000  0.205000  0.500000  1.0  0.1236
  C  C159  1  0.653600  0.653600  0.000000  1.0  0.3669
  C  C160  1  0.705000  0.705000  0.000000  1.0  0.1236
  C  C161  1  0.153600  0.846400  0.000000  1.0  0.3676
  C  C162  1  0.205000  0.795000  0.000000  1.0  0.1238
  C  C163  1  0.153600  0.346400  0.500000  1.0  0.3676
  C  C164  1  0.205000  0.295000  0.500000  1.0  0.1238
  C  C165  1  0.653600  0.846400  0.500000  1.0  0.3676
  C  C166  1  0.705000  0.795000  0.500000  1.0  0.1238
  C  C167  1  0.653600  0.346400  0.000000  1.0  0.3676
  C  C168  1  0.705000  0.295000  0.000000  1.0  0.1238
  C  C169  1  0.846400  0.846400  0.000000  1.0  0.3681
  C  C170  1  0.795000  0.795000  0.000000  1.0  0.1237
  C  C171  1  0.846400  0.346400  0.500000  1.0  0.3681
  C  C172  1  0.795000  0.295000  0.500000  1.0  0.1237
  C  C173  1  0.346400  0.846400  0.500000  1.0  0.3681
  C  C174  1  0.295000  0.795000  0.500000  1.0  0.1237
  C  C175  1  0.346400  0.346400  0.000000  1.0  0.3681
  C  C176  1  0.295000  0.295000  0.000000  1.0  0.1237
  C  C177  1  0.846400  0.153600  0.000000  1.0  0.3669
  C  C178  1  0.795000  0.205000  0.000000  1.0  0.1236
  C  C179  1  0.846400  0.653600  0.500000  1.0  0.3669
  C  C180  1  0.795000  0.705000  0.500000  1.0  0.1236
  C  C181  1  0.346400  0.153600  0.500000  1.0  0.3669
  C  C182  1  0.295000  0.205000  0.500000  1.0  0.1236
  C  C183  1  0.346400  0.653600  0.000000  1.0  0.3669
  C  C184  1  0.295000  0.705000  0.000000  1.0  0.1236
  C  C185  1  0.000000  0.153600  0.153600  1.0  0.367
  C  C186  1  0.000000  0.205000  0.205000  1.0  0.1219
  C  C187  1  0.000000  0.653600  0.653600  1.0  0.367
  C  C188  1  0.000000  0.705000  0.705000  1.0  0.1219
  C  C189  1  0.500000  0.153600  0.653600  1.0  0.367
  C  C190  1  0.500000  0.205000  0.705000  1.0  0.1219
  C  C191  1  0.500000  0.653600  0.153600  1.0  0.367
  C  C192  1  0.500000  0.705000  0.205000  1.0  0.1219
  C  C193  1  0.000000  0.153600  0.846400  1.0  0.3666
  C  C194  1  0.000000  0.205000  0.795000  1.0  0.122
  C  C195  1  0.000000  0.653600  0.346400  1.0  0.3666
  C  C196  1  0.000000  0.705000  0.295000  1.0  0.122
  C  C197  1  0.500000  0.153600  0.346400  1.0  0.3666
  C  C198  1  0.500000  0.205000  0.295000  1.0  0.122
  C  C199  1  0.500000  0.653600  0.846400  1.0  0.3666
  C  C200  1  0.500000  0.705000  0.795000  1.0  0.122
  C  C201  1  0.000000  0.846400  0.846400  1.0  0.3677
  C  C202  1  0.000000  0.795000  0.795000  1.0  0.1221
  C  C203  1  0.000000  0.346400  0.346400  1.0  0.3677
  C  C204  1  0.000000  0.295000  0.295000  1.0  0.1221
  C  C205  1  0.500000  0.846400  0.346400  1.0  0.3677
  C  C206  1  0.500000  0.795000  0.295000  1.0  0.1221
  C  C207  1  0.500000  0.346400  0.846400  1.0  0.3677
  C  C208  1  0.500000  0.295000  0.795000  1.0  0.1221
  C  C209  1  0.000000  0.846400  0.153600  1.0  0.3684
  C  C210  1  0.000000  0.795000  0.205000  1.0  0.122
  C  C211  1  0.000000  0.346400  0.653600  1.0  0.3684
  C  C212  1  0.000000  0.295000  0.705000  1.0  0.122
  C  C213  1  0.500000  0.846400  0.653600  1.0  0.3684
  C  C214  1  0.500000  0.795000  0.705000  1.0  0.122
  C  C215  1  0.500000  0.346400  0.153600  1.0  0.3684
  C  C216  1  0.500000  0.295000  0.205000  1.0  0.122
  N  N217  1  0.284280  0.000000  0.121710  1.0  -0.203
  N  N218  1  0.284280  0.500000  0.621710  1.0  -0.203
  N  N219  1  0.784280  0.000000  0.621710  1.0  -0.203
  N  N220  1  0.784280  0.500000  0.121710  1.0  -0.203
  N  N221  1  0.715720  0.000000  0.121710  1.0  -0.2039
  N  N222  1  0.715720  0.500000  0.621710  1.0  -0.2039
  N  N223  1  0.215720  0.000000  0.621710  1.0  -0.2039
  N  N224  1  0.215720  0.500000  0.121710  1.0  -0.2039
  N  N225  1  0.715720  0.000000  0.878290  1.0  -0.2037
  N  N226  1  0.715720  0.500000  0.378290  1.0  -0.2037
  N  N227  1  0.215720  0.000000  0.378290  1.0  -0.2037
  N  N228  1  0.215720  0.500000  0.878290  1.0  -0.2037
  N  N229  1  0.284280  0.000000  0.878290  1.0  -0.2045
  N  N230  1  0.284280  0.500000  0.378290  1.0  -0.2045
  N  N231  1  0.784280  0.000000  0.378290  1.0  -0.2045
  N  N232  1  0.784280  0.500000  0.878290  1.0  -0.2045
  N  N233  1  0.121710  0.284280  0.000000  1.0  -0.2022
  N  N234  1  0.121710  0.784280  0.500000  1.0  -0.2022
  N  N235  1  0.621710  0.284280  0.500000  1.0  -0.2022
  N  N236  1  0.621710  0.784280  0.000000  1.0  -0.2022
  N  N237  1  0.121710  0.715720  0.000000  1.0  -0.2022
  N  N238  1  0.121710  0.215720  0.500000  1.0  -0.2022
  N  N239  1  0.621710  0.715720  0.500000  1.0  -0.2022
  N  N240  1  0.621710  0.215720  0.000000  1.0  -0.2022
  N  N241  1  0.878290  0.715720  0.000000  1.0  -0.2007
  N  N242  1  0.878290  0.215720  0.500000  1.0  -0.2007
  N  N243  1  0.378290  0.715720  0.500000  1.0  -0.2007
  N  N244  1  0.378290  0.215720  0.000000  1.0  -0.2007
  N  N245  1  0.878290  0.284280  0.000000  1.0  -0.2007
  N  N246  1  0.878290  0.784280  0.500000  1.0  -0.2007
  N  N247  1  0.378290  0.284280  0.500000  1.0  -0.2007
  N  N248  1  0.378290  0.784280  0.000000  1.0  -0.2007
  N  N249  1  0.000000  0.121710  0.284280  1.0  -0.2029
  N  N250  1  0.000000  0.621710  0.784280  1.0  -0.2029
  N  N251  1  0.500000  0.121710  0.784280  1.0  -0.2029
  N  N252  1  0.500000  0.621710  0.284280  1.0  -0.2029
  N  N253  1  0.000000  0.121710  0.715720  1.0  -0.2017
  N  N254  1  0.000000  0.621710  0.215720  1.0  -0.2017
  N  N255  1  0.500000  0.121710  0.215720  1.0  -0.2017
  N  N256  1  0.500000  0.621710  0.715720  1.0  -0.2017
  N  N257  1  0.000000  0.878290  0.715720  1.0  -0.2027
  N  N258  1  0.000000  0.378290  0.215720  1.0  -0.2027
  N  N259  1  0.500000  0.878290  0.215720  1.0  -0.2027
  N  N260  1  0.500000  0.378290  0.715720  1.0  -0.2027
  N  N261  1  0.000000  0.878290  0.284280  1.0  -0.2032
  N  N262  1  0.000000  0.378290  0.784280  1.0  -0.2032
  N  N263  1  0.500000  0.878290  0.784280  1.0  -0.2032
  N  N264  1  0.500000  0.378290  0.284280  1.0  -0.2032
  N  N265  1  0.000000  0.284280  0.878290  1.0  -0.2048
  N  N266  1  0.000000  0.784280  0.378290  1.0  -0.2048
  N  N267  1  0.500000  0.284280  0.378290  1.0  -0.2048
  N  N268  1  0.500000  0.784280  0.878290  1.0  -0.2048
  N  N269  1  0.000000  0.715720  0.878290  1.0  -0.2042
  N  N270  1  0.000000  0.215720  0.378290  1.0  -0.2042
  N  N271  1  0.500000  0.715720  0.378290  1.0  -0.2042
  N  N272  1  0.500000  0.215720  0.878290  1.0  -0.2042
  N  N273  1  0.000000  0.715720  0.121710  1.0  -0.2035
  N  N274  1  0.000000  0.215720  0.621710  1.0  -0.2035
  N  N275  1  0.500000  0.715720  0.621710  1.0  -0.2035
  N  N276  1  0.500000  0.215720  0.121710  1.0  -0.2035
  N  N277  1  0.000000  0.284280  0.121710  1.0  -0.2043
  N  N278  1  0.000000  0.784280  0.621710  1.0  -0.2043
  N  N279  1  0.500000  0.284280  0.621710  1.0  -0.2043
  N  N280  1  0.500000  0.784280  0.121710  1.0  -0.2043
  N  N281  1  0.284280  0.121710  0.000000  1.0  -0.2009
  N  N282  1  0.284280  0.621710  0.500000  1.0  -0.2009
  N  N283  1  0.784280  0.121710  0.500000  1.0  -0.2009
  N  N284  1  0.784280  0.621710  0.000000  1.0  -0.2009
  N  N285  1  0.715720  0.121710  0.000000  1.0  -0.2005
  N  N286  1  0.715720  0.621710  0.500000  1.0  -0.2005
  N  N287  1  0.215720  0.121710  0.500000  1.0  -0.2005
  N  N288  1  0.215720  0.621710  0.000000  1.0  -0.2005
  N  N289  1  0.715720  0.878290  0.000000  1.0  -0.2011
  N  N290  1  0.715720  0.378290  0.500000  1.0  -0.2011
  N  N291  1  0.215720  0.878290  0.500000  1.0  -0.2011
  N  N292  1  0.215720  0.378290  0.000000  1.0  -0.2011
  N  N293  1  0.284280  0.878290  0.000000  1.0  -0.2011
  N  N294  1  0.284280  0.378290  0.500000  1.0  -0.2011
  N  N295  1  0.784280  0.878290  0.500000  1.0  -0.2011
  N  N296  1  0.784280  0.378290  0.000000  1.0  -0.2011
  N  N297  1  0.121710  0.000000  0.715720  1.0  -0.2027
  N  N298  1  0.121710  0.500000  0.215720  1.0  -0.2027
  N  N299  1  0.621710  0.000000  0.215720  1.0  -0.2027
  N  N300  1  0.621710  0.500000  0.715720  1.0  -0.2027
  N  N301  1  0.121710  0.000000  0.284280  1.0  -0.2037
  N  N302  1  0.121710  0.500000  0.784280  1.0  -0.2037
  N  N303  1  0.621710  0.000000  0.784280  1.0  -0.2037
  N  N304  1  0.621710  0.500000  0.284280  1.0  -0.2037
  N  N305  1  0.878290  0.000000  0.284280  1.0  -0.2027
  N  N306  1  0.878290  0.500000  0.784280  1.0  -0.2027
  N  N307  1  0.378290  0.000000  0.784280  1.0  -0.2027
  N  N308  1  0.378290  0.500000  0.284280  1.0  -0.2027
  N  N309  1  0.878290  0.000000  0.715720  1.0  -0.2016
  N  N310  1  0.878290  0.500000  0.215720  1.0  -0.2016
  N  N311  1  0.378290  0.000000  0.215720  1.0  -0.2016
  N  N312  1  0.378290  0.500000  0.715720  1.0  -0.2016
  O  O313  1  0.180500  0.000000  0.084800  1.0  -0.6614
  O  O314  1  0.180500  0.500000  0.584800  1.0  -0.6614
  O  O315  1  0.680500  0.000000  0.584800  1.0  -0.6614
  O  O316  1  0.680500  0.500000  0.084800  1.0  -0.6614
  O  O317  1  0.819500  0.000000  0.084800  1.0  -0.6628
  O  O318  1  0.819500  0.500000  0.584800  1.0  -0.6628
  O  O319  1  0.319500  0.000000  0.584800  1.0  -0.6628
  O  O320  1  0.319500  0.500000  0.084800  1.0  -0.6628
  O  O321  1  0.819500  0.000000  0.915200  1.0  -0.6627
  O  O322  1  0.819500  0.500000  0.415200  1.0  -0.6627
  O  O323  1  0.319500  0.000000  0.415200  1.0  -0.6627
  O  O324  1  0.319500  0.500000  0.915200  1.0  -0.6627
  O  O325  1  0.180500  0.000000  0.915200  1.0  -0.6615
  O  O326  1  0.180500  0.500000  0.415200  1.0  -0.6615
  O  O327  1  0.680500  0.000000  0.415200  1.0  -0.6615
  O  O328  1  0.680500  0.500000  0.915200  1.0  -0.6615
  O  O329  1  0.084800  0.180500  0.000000  1.0  -0.6637
  O  O330  1  0.084800  0.680500  0.500000  1.0  -0.6637
  O  O331  1  0.584800  0.180500  0.500000  1.0  -0.6637
  O  O332  1  0.584800  0.680500  0.000000  1.0  -0.6637
  O  O333  1  0.084800  0.819500  0.000000  1.0  -0.6625
  O  O334  1  0.084800  0.319500  0.500000  1.0  -0.6625
  O  O335  1  0.584800  0.819500  0.500000  1.0  -0.6625
  O  O336  1  0.584800  0.319500  0.000000  1.0  -0.6625
  O  O337  1  0.915200  0.819500  0.000000  1.0  -0.6618
  O  O338  1  0.915200  0.319500  0.500000  1.0  -0.6618
  O  O339  1  0.415200  0.819500  0.500000  1.0  -0.6618
  O  O340  1  0.415200  0.319500  0.000000  1.0  -0.6618
  O  O341  1  0.915200  0.180500  0.000000  1.0  -0.6633
  O  O342  1  0.915200  0.680500  0.500000  1.0  -0.6633
  O  O343  1  0.415200  0.180500  0.500000  1.0  -0.6633
  O  O344  1  0.415200  0.680500  0.000000  1.0  -0.6633
  O  O345  1  0.000000  0.084800  0.180500  1.0  -0.6645
  O  O346  1  0.000000  0.584800  0.680500  1.0  -0.6645
  O  O347  1  0.500000  0.084800  0.680500  1.0  -0.6645
  O  O348  1  0.500000  0.584800  0.180500  1.0  -0.6645
  O  O349  1  0.000000  0.084800  0.819500  1.0  -0.6651
  O  O350  1  0.000000  0.584800  0.319500  1.0  -0.6651
  O  O351  1  0.500000  0.084800  0.319500  1.0  -0.6651
  O  O352  1  0.500000  0.584800  0.819500  1.0  -0.6651
  O  O353  1  0.000000  0.915200  0.819500  1.0  -0.6649
  O  O354  1  0.000000  0.415200  0.319500  1.0  -0.6649
  O  O355  1  0.500000  0.915200  0.319500  1.0  -0.6649
  O  O356  1  0.500000  0.415200  0.819500  1.0  -0.6649
  O  O357  1  0.000000  0.915200  0.180500  1.0  -0.6641
  O  O358  1  0.000000  0.415200  0.680500  1.0  -0.6641
  O  O359  1  0.500000  0.915200  0.680500  1.0  -0.6641
  O  O360  1  0.500000  0.415200  0.180500  1.0  -0.6641
  O  O361  1  0.000000  0.180500  0.915200  1.0  -0.6648
  O  O362  1  0.000000  0.680500  0.415200  1.0  -0.6648
  O  O363  1  0.500000  0.180500  0.415200  1.0  -0.6648
  O  O364  1  0.500000  0.680500  0.915200  1.0  -0.6648
  O  O365  1  0.000000  0.819500  0.915200  1.0  -0.6636
  O  O366  1  0.000000  0.319500  0.415200  1.0  -0.6636
  O  O367  1  0.500000  0.819500  0.415200  1.0  -0.6636
  O  O368  1  0.500000  0.319500  0.915200  1.0  -0.6636
  O  O369  1  0.000000  0.819500  0.084800  1.0  -0.6631
  O  O370  1  0.000000  0.319500  0.584800  1.0  -0.6631
  O  O371  1  0.500000  0.819500  0.584800  1.0  -0.6631
  O  O372  1  0.500000  0.319500  0.084800  1.0  -0.6631
  O  O373  1  0.000000  0.180500  0.084800  1.0  -0.6645
  O  O374  1  0.000000  0.680500  0.584800  1.0  -0.6645
  O  O375  1  0.500000  0.180500  0.584800  1.0  -0.6645
  O  O376  1  0.500000  0.680500  0.084800  1.0  -0.6645
  O  O377  1  0.180500  0.084800  0.000000  1.0  -0.6611
  O  O378  1  0.180500  0.584800  0.500000  1.0  -0.6611
  O  O379  1  0.680500  0.084800  0.500000  1.0  -0.6611
  O  O380  1  0.680500  0.584800  0.000000  1.0  -0.6611
  O  O381  1  0.819500  0.084800  0.000000  1.0  -0.6623
  O  O382  1  0.819500  0.584800  0.500000  1.0  -0.6623
  O  O383  1  0.319500  0.084800  0.500000  1.0  -0.6623
  O  O384  1  0.319500  0.584800  0.000000  1.0  -0.6623
  O  O385  1  0.819500  0.915200  0.000000  1.0  -0.6622
  O  O386  1  0.819500  0.415200  0.500000  1.0  -0.6622
  O  O387  1  0.319500  0.915200  0.500000  1.0  -0.6622
  O  O388  1  0.319500  0.415200  0.000000  1.0  -0.6622
  O  O389  1  0.180500  0.915200  0.000000  1.0  -0.6614
  O  O390  1  0.180500  0.415200  0.500000  1.0  -0.6614
  O  O391  1  0.680500  0.915200  0.500000  1.0  -0.6614
  O  O392  1  0.680500  0.415200  0.000000  1.0  -0.6614
  O  O393  1  0.084800  0.000000  0.819500  1.0  -0.6641
  O  O394  1  0.084800  0.500000  0.319500  1.0  -0.6641
  O  O395  1  0.584800  0.000000  0.319500  1.0  -0.6641
  O  O396  1  0.584800  0.500000  0.819500  1.0  -0.6641
  O  O397  1  0.084800  0.000000  0.180500  1.0  -0.6635
  O  O398  1  0.084800  0.500000  0.680500  1.0  -0.6635
  O  O399  1  0.584800  0.000000  0.680500  1.0  -0.6635
  O  O400  1  0.584800  0.500000  0.180500  1.0  -0.6635
  O  O401  1  0.915200  0.000000  0.180500  1.0  -0.6629
  O  O402  1  0.915200  0.500000  0.680500  1.0  -0.6629
  O  O403  1  0.415200  0.000000  0.680500  1.0  -0.6629
  O  O404  1  0.415200  0.500000  0.180500  1.0  -0.6629
  O  O405  1  0.915200  0.000000  0.819500  1.0  -0.6636
  O  O406  1  0.915200  0.500000  0.319500  1.0  -0.6636
  O  O407  1  0.415200  0.000000  0.319500  1.0  -0.6636
  O  O408  1  0.415200  0.500000  0.819500  1.0  -0.6636
  O  O409  1  0.062800  0.062800  0.062800  1.0  -0.7893
  O  O410  1  0.062800  0.562800  0.562800  1.0  -0.7893
  O  O411  1  0.562800  0.062800  0.562800  1.0  -0.7893
  O  O412  1  0.562800  0.562800  0.062800  1.0  -0.7893
  O  O413  1  0.937200  0.937200  0.062800  1.0  -0.7903
  O  O414  1  0.937200  0.437200  0.562800  1.0  -0.7903
  O  O415  1  0.437200  0.937200  0.562800  1.0  -0.7903
  O  O416  1  0.437200  0.437200  0.062800  1.0  -0.7903
  O  O417  1  0.937200  0.062800  0.937200  1.0  -0.7915
  O  O418  1  0.937200  0.562800  0.437200  1.0  -0.7915
  O  O419  1  0.437200  0.062800  0.437200  1.0  -0.7915
  O  O420  1  0.437200  0.562800  0.937200  1.0  -0.7915
  O  O421  1  0.062800  0.937200  0.937200  1.0  -0.791
  O  O422  1  0.062800  0.437200  0.437200  1.0  -0.791
  O  O423  1  0.562800  0.937200  0.437200  1.0  -0.791
  O  O424  1  0.562800  0.437200  0.937200  1.0  -0.791
  O  O425  1  0.062800  0.062800  0.937200  1.0  -0.7909
  O  O426  1  0.062800  0.562800  0.437200  1.0  -0.7909
  O  O427  1  0.562800  0.062800  0.437200  1.0  -0.7909
  O  O428  1  0.562800  0.562800  0.937200  1.0  -0.7909
  O  O429  1  0.937200  0.937200  0.937200  1.0  -0.7921
  O  O430  1  0.937200  0.437200  0.437200  1.0  -0.7921
  O  O431  1  0.437200  0.937200  0.437200  1.0  -0.7921
  O  O432  1  0.437200  0.437200  0.937200  1.0  -0.7921
  O  O433  1  0.062800  0.937200  0.062800  1.0  -0.7893
  O  O434  1  0.062800  0.437200  0.562800  1.0  -0.7893
  O  O435  1  0.562800  0.937200  0.562800  1.0  -0.7893
  O  O436  1  0.562800  0.437200  0.062800  1.0  -0.7893
  O  O437  1  0.937200  0.062800  0.062800  1.0  -0.7897
  O  O438  1  0.937200  0.562800  0.562800  1.0  -0.7897
  O  O439  1  0.437200  0.062800  0.562800  1.0  -0.7897
  O  O440  1  0.437200  0.562800  0.062800  1.0  -0.7897
