# generated using pymatgen
data_Mn2H24C27N5O11
_symmetry_space_group_name_H-M   'P 1'
_cell_length_a   11.34300000
_cell_length_b   13.74800000
_cell_length_c   24.65200000
_cell_angle_alpha   92.98000000
_cell_angle_beta   90.00000000
_cell_angle_gamma   90.00000000
_symmetry_Int_Tables_number   1
_chemical_formula_structural   Mn2H24C27N5O11
_chemical_formula_sum   'Mn8 H96 C108 N20 O44'
_cell_volume   3839.12222860
_cell_formula_units_Z   4
loop_
 _symmetry_equiv_pos_site_id
 _symmetry_equiv_pos_as_xyz
  1  'x, y, z'
loop_
 _atom_site_type_symbol
 _atom_site_label
 _atom_site_symmetry_multiplicity
 _atom_site_fract_x
 _atom_site_fract_y
 _atom_site_fract_z
 _atom_site_occupancy
 _atom_site_charge
  Mn  Mn1  1  0.751310  0.503680  0.713780  1.0  0.9867
  Mn  Mn2  1  0.902330  0.496750  0.891220  1.0  1.005
  Mn  Mn3  1  0.251310  0.496320  0.786220  1.0  0.9882
  Mn  Mn4  1  0.402330  0.503250  0.608780  1.0  1.0071
  Mn  Mn5  1  0.248690  0.496320  0.286220  1.0  0.9915
  Mn  Mn6  1  0.097670  0.503250  0.108780  1.0  1.0062
  Mn  Mn7  1  0.748690  0.503680  0.213780  1.0  0.9901
  Mn  Mn8  1  0.597670  0.496750  0.391220  1.0  1.0041
  H  H9  1  0.789500  0.498900  0.593300  1.0  0.3884
  H  H10  1  0.686400  0.510300  0.622200  1.0  0.3669
  H  H11  1  0.646500  0.495300  0.867800  1.0  0.4606
  H  H12  1  0.697800  0.489900  0.918000  1.0  0.453
  H  H13  1  0.634600  0.682600  0.782800  1.0  0.0629
  H  H14  1  0.627200  0.845000  0.791500  1.0  0.1226
  H  H15  1  0.880300  0.854900  0.682900  1.0  0.1127
  H  H16  1  0.877700  0.688000  0.674800  1.0  0.0844
  H  H17  1  0.692100  0.004000  0.767800  1.0  0.0932
  H  H18  1  0.837000  0.005400  0.682000  1.0  0.0843
  H  H19  1  0.669900  0.157400  0.776900  1.0  0.1239
  H  H20  1  0.656400  0.322700  0.775400  1.0  0.067
  H  H21  1  0.863800  0.325500  0.651700  1.0  0.0764
  H  H22  1  0.885500  0.161500  0.649800  1.0  0.1339
  H  H23  1  0.751100  0.308000  0.892600  1.0  0.0837
  H  H24  1  0.762400  0.138000  0.880900  1.0  0.1126
  H  H25  1  0.099200  0.162100  0.859100  1.0  0.0875
  H  H26  1  0.083200  0.325600  0.867200  1.0  0.0689
  H  H27  1  0.022000  0.996000  0.854900  1.0  0.0816
  H  H28  1  0.800100  0.991100  0.884700  1.0  0.1188
  H  H29  1  0.729400  0.838000  0.909700  1.0  0.1264
  H  H30  1  0.743600  0.676700  0.914800  1.0  0.0712
  H  H31  1  0.059900  0.675800  0.858800  1.0  0.0675
  H  H32  1  0.050400  0.837500  0.846700  1.0  0.111
  H  H33  1  0.289500  0.501100  0.906700  1.0  0.3886
  H  H34  1  0.186400  0.489700  0.877800  1.0  0.3657
  H  H35  1  0.146500  0.504700  0.632200  1.0  0.4588
  H  H36  1  0.197800  0.510100  0.582000  1.0  0.4548
  H  H37  1  0.134600  0.317400  0.717200  1.0  0.0635
  H  H38  1  0.127200  0.155000  0.708500  1.0  0.1226
  H  H39  1  0.380300  0.145100  0.817100  1.0  0.1131
  H  H40  1  0.377700  0.312000  0.825200  1.0  0.0855
  H  H41  1  0.192100  0.996000  0.732200  1.0  0.0935
  H  H42  1  0.337000  0.994600  0.818000  1.0  0.0861
  H  H43  1  0.169900  0.842600  0.723100  1.0  0.1241
  H  H44  1  0.156400  0.677300  0.724600  1.0  0.0672
  H  H45  1  0.363800  0.674500  0.848300  1.0  0.0755
  H  H46  1  0.385500  0.838500  0.850200  1.0  0.1325
  H  H47  1  0.251100  0.692000  0.607400  1.0  0.0838
  H  H48  1  0.262400  0.862000  0.619100  1.0  0.1123
  H  H49  1  0.599200  0.837900  0.640900  1.0  0.0871
  H  H50  1  0.583200  0.674400  0.632800  1.0  0.0691
  H  H51  1  0.522000  0.004000  0.645100  1.0  0.0814
  H  H52  1  0.300100  0.008900  0.615300  1.0  0.1191
  H  H53  1  0.229400  0.162000  0.590300  1.0  0.1276
  H  H54  1  0.243600  0.323300  0.585200  1.0  0.0717
  H  H55  1  0.559900  0.324200  0.641200  1.0  0.067
  H  H56  1  0.550400  0.162500  0.653300  1.0  0.1112
  H  H57  1  0.210500  0.501100  0.406700  1.0  0.3895
  H  H58  1  0.313600  0.489700  0.377800  1.0  0.3686
  H  H59  1  0.353500  0.504700  0.132200  1.0  0.4578
  H  H60  1  0.302200  0.510100  0.082000  1.0  0.4564
  H  H61  1  0.365400  0.317400  0.217200  1.0  0.0633
  H  H62  1  0.372800  0.155000  0.208500  1.0  0.1224
  H  H63  1  0.119700  0.145100  0.317100  1.0  0.1131
  H  H64  1  0.122300  0.312000  0.325200  1.0  0.0853
  H  H65  1  0.307900  0.996000  0.232200  1.0  0.0934
  H  H66  1  0.163000  0.994600  0.318000  1.0  0.0857
  H  H67  1  0.330100  0.842600  0.223100  1.0  0.124
  H  H68  1  0.343600  0.677300  0.224600  1.0  0.0674
  H  H69  1  0.136200  0.674500  0.348300  1.0  0.0759
  H  H70  1  0.114500  0.838500  0.350200  1.0  0.1327
  H  H71  1  0.248900  0.692000  0.107400  1.0  0.0842
  H  H72  1  0.237600  0.862000  0.119100  1.0  0.1125
  H  H73  1  0.900800  0.837900  0.140900  1.0  0.0866
  H  H74  1  0.916800  0.674400  0.132800  1.0  0.0691
  H  H75  1  0.978000  0.004000  0.145100  1.0  0.082
  H  H76  1  0.199900  0.008900  0.115300  1.0  0.1195
  H  H77  1  0.270600  0.162000  0.090300  1.0  0.1284
  H  H78  1  0.256400  0.323300  0.085200  1.0  0.0725
  H  H79  1  0.940100  0.324200  0.141200  1.0  0.067
  H  H80  1  0.949600  0.162500  0.153300  1.0  0.1111
  H  H81  1  0.710500  0.498900  0.093300  1.0  0.3883
  H  H82  1  0.813600  0.510300  0.122200  1.0  0.3688
  H  H83  1  0.853500  0.495300  0.367800  1.0  0.4593
  H  H84  1  0.802200  0.489900  0.418000  1.0  0.4518
  H  H85  1  0.865400  0.682600  0.282800  1.0  0.0628
  H  H86  1  0.872800  0.845000  0.291500  1.0  0.1222
  H  H87  1  0.619700  0.854900  0.182900  1.0  0.1129
  H  H88  1  0.622300  0.688000  0.174800  1.0  0.0847
  H  H89  1  0.807900  0.004000  0.267800  1.0  0.093
  H  H90  1  0.663000  0.005400  0.182000  1.0  0.0841
  H  H91  1  0.830100  0.157400  0.276900  1.0  0.1241
  H  H92  1  0.843600  0.322700  0.275400  1.0  0.0667
  H  H93  1  0.636200  0.325500  0.151700  1.0  0.0762
  H  H94  1  0.614500  0.161500  0.149800  1.0  0.1336
  H  H95  1  0.748900  0.308000  0.392600  1.0  0.0834
  H  H96  1  0.737600  0.138000  0.380900  1.0  0.1128
  H  H97  1  0.400800  0.162100  0.359100  1.0  0.0876
  H  H98  1  0.416800  0.325600  0.367200  1.0  0.0694
  H  H99  1  0.478000  0.996000  0.354900  1.0  0.0816
  H  H100  1  0.699900  0.991100  0.384700  1.0  0.1188
  H  H101  1  0.770600  0.838000  0.409700  1.0  0.1263
  H  H102  1  0.756400  0.676700  0.414800  1.0  0.0708
  H  H103  1  0.440100  0.675800  0.358800  1.0  0.0676
  H  H104  1  0.449600  0.837500  0.346700  1.0  0.111
  C  C105  1  0.976700  0.497300  0.784250  1.0  0.6368
  C  C106  1  0.017800  0.500900  0.725380  1.0  0.6192
  C  C107  1  0.937400  0.499300  0.011700  1.0  0.698
  C  C108  1  0.684000  0.717700  0.760990  1.0  0.1819
  C  C109  1  0.679000  0.815200  0.766530  1.0  -0.2499
  C  C110  1  0.748600  0.870400  0.736050  1.0  0.1074
  C  C111  1  0.826200  0.820800  0.702900  1.0  -0.2091
  C  C112  1  0.825300  0.719800  0.698700  1.0  0.1752
  C  C113  1  0.739000  0.976400  0.740100  1.0  -0.1109
  C  C114  1  0.789000  0.033200  0.709200  1.0  -0.1054
  C  C115  1  0.778500  0.140300  0.712250  1.0  0.0779
  C  C116  1  0.710100  0.190500  0.750620  1.0  -0.2162
  C  C117  1  0.702500  0.289500  0.749380  1.0  0.1844
  C  C118  1  0.823600  0.291000  0.677390  1.0  0.1971
  C  C119  1  0.836900  0.192500  0.675700  1.0  -0.2281
  C  C120  1  0.823800  0.279000  0.885400  1.0  0.1521
  C  C121  1  0.830500  0.175300  0.878900  1.0  -0.1738
  C  C122  1  0.934400  0.131800  0.869930  1.0  0.0559
  C  C123  1  0.025300  0.189500  0.865800  1.0  -0.1309
  C  C124  1  0.015500  0.288400  0.871200  1.0  0.1785
  C  C125  1  0.949300  0.021100  0.866110  1.0  -0.1072
  C  C126  1  0.874100  0.965400  0.876500  1.0  -0.1142
  C  C127  1  0.887400  0.858200  0.877580  1.0  0.1184
  C  C128  1  0.798000  0.806400  0.898000  1.0  -0.2509
  C  C129  1  0.807800  0.709900  0.901500  1.0  0.1929
  C  C130  1  0.990900  0.709200  0.868230  1.0  0.1735
  C  C131  1  0.986700  0.806000  0.861760  1.0  -0.2107
  C  C132  1  0.476700  0.502700  0.715750  1.0  0.6369
  C  C133  1  0.517800  0.499100  0.774620  1.0  0.6184
  C  C134  1  0.437400  0.500700  0.488300  1.0  0.6974
  C  C135  1  0.184000  0.282300  0.739010  1.0  0.1811
  C  C136  1  0.179000  0.184800  0.733470  1.0  -0.2489
  C  C137  1  0.248600  0.129600  0.763950  1.0  0.1076
  C  C138  1  0.326200  0.179200  0.797100  1.0  -0.2098
  C  C139  1  0.325300  0.280200  0.801300  1.0  0.1756
  C  C140  1  0.239000  0.023600  0.759900  1.0  -0.1117
  C  C141  1  0.289000  0.966800  0.790800  1.0  -0.105
  C  C142  1  0.278500  0.859700  0.787750  1.0  0.0788
  C  C143  1  0.210100  0.809500  0.749380  1.0  -0.2165
  C  C144  1  0.202500  0.710500  0.750620  1.0  0.185
  C  C145  1  0.323600  0.709000  0.822610  1.0  0.1978
  C  C146  1  0.336900  0.807500  0.824300  1.0  -0.2267
  C  C147  1  0.323800  0.721000  0.614600  1.0  0.1521
  C  C148  1  0.330500  0.824700  0.621100  1.0  -0.1763
  C  C149  1  0.434400  0.868200  0.630070  1.0  0.0482
  C  C150  1  0.525300  0.810500  0.634200  1.0  -0.1317
  C  C151  1  0.515500  0.711600  0.628800  1.0  0.1769
  C  C152  1  0.449300  0.978900  0.633890  1.0  -0.1076
  C  C153  1  0.374100  0.034600  0.623500  1.0  -0.1146
  C  C154  1  0.387400  0.141800  0.622420  1.0  0.111
  C  C155  1  0.298000  0.193600  0.602000  1.0  -0.2494
  C  C156  1  0.307800  0.290100  0.598500  1.0  0.1929
  C  C157  1  0.490900  0.290800  0.631770  1.0  0.1727
  C  C158  1  0.486700  0.194000  0.638240  1.0  -0.2114
  C  C159  1  0.023300  0.502700  0.215750  1.0  0.6371
  C  C160  1  0.982200  0.499100  0.274620  1.0  0.6191
  C  C161  1  0.062600  0.500700  0.988300  1.0  0.6987
  C  C162  1  0.316000  0.282300  0.239010  1.0  0.1808
  C  C163  1  0.321000  0.184800  0.233470  1.0  -0.2496
  C  C164  1  0.251400  0.129600  0.263950  1.0  0.1077
  C  C165  1  0.173800  0.179200  0.297100  1.0  -0.2099
  C  C166  1  0.174700  0.280200  0.301300  1.0  0.1757
  C  C167  1  0.261000  0.023600  0.259900  1.0  -0.112
  C  C168  1  0.211000  0.966800  0.290800  1.0  -0.1048
  C  C169  1  0.221500  0.859700  0.287750  1.0  0.0796
  C  C170  1  0.289900  0.809500  0.249380  1.0  -0.2176
  C  C171  1  0.297500  0.710500  0.250620  1.0  0.184
  C  C172  1  0.176400  0.709000  0.322610  1.0  0.1979
  C  C173  1  0.163100  0.807500  0.324300  1.0  -0.2279
  C  C174  1  0.176200  0.721000  0.114600  1.0  0.1519
  C  C175  1  0.169500  0.824700  0.121100  1.0  -0.1756
  C  C176  1  0.065600  0.868200  0.130070  1.0  0.0489
  C  C177  1  0.974700  0.810500  0.134200  1.0  -0.1309
  C  C178  1  0.984500  0.711600  0.128800  1.0  0.1782
  C  C179  1  0.050700  0.978900  0.133890  1.0  -0.1081
  C  C180  1  0.125900  0.034600  0.123500  1.0  -0.114
  C  C181  1  0.112600  0.141800  0.122420  1.0  0.1116
  C  C182  1  0.202000  0.193600  0.102000  1.0  -0.249
  C  C183  1  0.192200  0.290100  0.098500  1.0  0.1913
  C  C184  1  0.009100  0.290800  0.131770  1.0  0.173
  C  C185  1  0.013300  0.194000  0.138240  1.0  -0.2135
  C  C186  1  0.523300  0.497300  0.284250  1.0  0.6372
  C  C187  1  0.482200  0.500900  0.225380  1.0  0.6195
  C  C188  1  0.562600  0.499300  0.511700  1.0  0.6993
  C  C189  1  0.816000  0.717700  0.260990  1.0  0.1815
  C  C190  1  0.821000  0.815200  0.266530  1.0  -0.2506
  C  C191  1  0.751400  0.870400  0.236050  1.0  0.1075
  C  C192  1  0.673800  0.820800  0.202900  1.0  -0.2096
  C  C193  1  0.674700  0.719800  0.198700  1.0  0.1753
  C  C194  1  0.761000  0.976400  0.240100  1.0  -0.1114
  C  C195  1  0.711000  0.033200  0.209200  1.0  -0.1057
  C  C196  1  0.721500  0.140300  0.212250  1.0  0.0785
  C  C197  1  0.789900  0.190500  0.250620  1.0  -0.2173
  C  C198  1  0.797500  0.289500  0.249380  1.0  0.1838
  C  C199  1  0.676400  0.291000  0.177390  1.0  0.1986
  C  C200  1  0.663100  0.192500  0.175700  1.0  -0.2279
  C  C201  1  0.676200  0.279000  0.385400  1.0  0.1532
  C  C202  1  0.669500  0.175300  0.378900  1.0  -0.1722
  C  C203  1  0.565600  0.131800  0.369930  1.0  0.0565
  C  C204  1  0.474700  0.189500  0.365800  1.0  -0.1301
  C  C205  1  0.484500  0.288400  0.371200  1.0  0.1791
  C  C206  1  0.550700  0.021100  0.366110  1.0  -0.1096
  C  C207  1  0.625900  0.965400  0.376500  1.0  -0.1143
  C  C208  1  0.612600  0.858200  0.377580  1.0  0.1185
  C  C209  1  0.702000  0.806400  0.398000  1.0  -0.249
  C  C210  1  0.692200  0.709900  0.401500  1.0  0.1922
  C  C211  1  0.509100  0.709200  0.368230  1.0  0.1739
  C  C212  1  0.513300  0.806000  0.361760  1.0  -0.2119
  N  N213  1  0.753700  0.667600  0.726930  1.0  -0.3314
  N  N214  1  0.757600  0.340500  0.712940  1.0  -0.3239
  N  N215  1  0.916200  0.333900  0.881540  1.0  -0.3253
  N  N216  1  0.901000  0.659400  0.887440  1.0  -0.3313
  N  N217  1  0.253700  0.332400  0.773070  1.0  -0.3296
  N  N218  1  0.257600  0.659500  0.787060  1.0  -0.3224
  N  N219  1  0.416200  0.666100  0.618460  1.0  -0.3241
  N  N220  1  0.401000  0.340600  0.612560  1.0  -0.3331
  N  N221  1  0.246300  0.332400  0.273070  1.0  -0.3297
  N  N222  1  0.242400  0.659500  0.287060  1.0  -0.3224
  N  N223  1  0.083800  0.666100  0.118460  1.0  -0.3243
  N  N224  1  0.099000  0.340600  0.112560  1.0  -0.3328
  N  N225  1  0.746300  0.667600  0.226930  1.0  -0.3314
  N  N226  1  0.742400  0.340500  0.212940  1.0  -0.3236
  N  N227  1  0.583800  0.333900  0.381540  1.0  -0.3252
  N  N228  1  0.599000  0.659400  0.387440  1.0  -0.3312
  N  N229  1  0.037600  0.973000  0.611000  1.0  0.6557
  N  N230  1  0.537600  0.027000  0.889000  1.0  0.6524
  N  N231  1  0.962400  0.027000  0.389000  1.0  0.6569
  N  N232  1  0.462400  0.973000  0.111000  1.0  0.6597
  O  O233  1  0.761220  0.505400  0.625680  1.0  -0.7463
  O  O234  1  0.713000  0.492000  0.884220  1.0  -0.7453
  O  O235  1  0.869600  0.497130  0.793150  1.0  -0.6114
  O  O236  1  0.053000  0.495480  0.820140  1.0  -0.6761
  O  O237  1  0.940770  0.505160  0.690270  1.0  -0.5666
  O  O238  1  0.126420  0.498650  0.717920  1.0  -0.5494
  O  O239  1  0.854600  0.499740  0.979800  1.0  -0.6253
  O  O240  1  0.932190  0.498390  0.062170  1.0  -0.6097
  O  O241  1  0.261220  0.494600  0.874320  1.0  -0.7491
  O  O242  1  0.213000  0.508000  0.615780  1.0  -0.7469
  O  O243  1  0.369600  0.502870  0.706850  1.0  -0.6115
  O  O244  1  0.553000  0.504520  0.679860  1.0  -0.6767
  O  O245  1  0.440770  0.494840  0.809730  1.0  -0.5671
  O  O246  1  0.626420  0.501350  0.782080  1.0  -0.5493
  O  O247  1  0.354600  0.500260  0.520200  1.0  -0.6244
  O  O248  1  0.432190  0.501610  0.437830  1.0  -0.6096
  O  O249  1  0.238780  0.494600  0.374320  1.0  -0.7471
  O  O250  1  0.287000  0.508000  0.115780  1.0  -0.7456
  O  O251  1  0.130400  0.502870  0.206850  1.0  -0.6117
  O  O252  1  0.947000  0.504520  0.179860  1.0  -0.6756
  O  O253  1  0.059230  0.494840  0.309730  1.0  -0.5669
  O  O254  1  0.873580  0.501350  0.282080  1.0  -0.5488
  O  O255  1  0.145400  0.500260  0.020200  1.0  -0.6245
  O  O256  1  0.067810  0.501610  0.937830  1.0  -0.6087
  O  O257  1  0.738780  0.505400  0.125680  1.0  -0.7469
  O  O258  1  0.787000  0.492000  0.384220  1.0  -0.7454
  O  O259  1  0.630400  0.497130  0.293150  1.0  -0.6118
  O  O260  1  0.447000  0.495480  0.320140  1.0  -0.6746
  O  O261  1  0.559230  0.505160  0.190270  1.0  -0.5668
  O  O262  1  0.373580  0.498650  0.217920  1.0  -0.5487
  O  O263  1  0.645400  0.499740  0.479800  1.0  -0.6251
  O  O264  1  0.567810  0.498390  0.562170  1.0  -0.6087
  O  O265  1  0.947500  0.940400  0.590900  1.0  -0.4358
  O  O266  1  0.071200  0.937800  0.652300  1.0  -0.4825
  O  O267  1  0.056600  0.058800  0.606500  1.0  -0.4887
  O  O268  1  0.447500  0.059600  0.909100  1.0  -0.433
  O  O269  1  0.571200  0.062200  0.847700  1.0  -0.4833
  O  O270  1  0.556600  0.941200  0.893500  1.0  -0.4865
  O  O271  1  0.052500  0.059600  0.409100  1.0  -0.4331
  O  O272  1  0.928800  0.062200  0.347700  1.0  -0.4822
  O  O273  1  0.943400  0.941200  0.393500  1.0  -0.4883
  O  O274  1  0.552500  0.940400  0.090900  1.0  -0.4366
  O  O275  1  0.428800  0.937800  0.152300  1.0  -0.4819
  O  O276  1  0.443400  0.058800  0.106500  1.0  -0.4882
