# generated using pymatgen
data_ZnH3C8SO7
_symmetry_space_group_name_H-M   'P 1'
_cell_length_a   11.35040000
_cell_length_b   12.19230000
_cell_length_c   16.18270000
_cell_angle_alpha   90.00000000
_cell_angle_beta   130.49100000
_cell_angle_gamma   90.00000000
_symmetry_Int_Tables_number   1
_chemical_formula_structural   ZnH3C8SO7
_chemical_formula_sum   'Zn4 H12 C32 S4 O28'
_cell_volume   1703.14475188
_cell_formula_units_Z   4
loop_
 _symmetry_equiv_pos_site_id
 _symmetry_equiv_pos_as_xyz
  1  'x, y, z'
loop_
 _atom_site_type_symbol
 _atom_site_label
 _atom_site_symmetry_multiplicity
 _atom_site_fract_x
 _atom_site_fract_y
 _atom_site_fract_z
 _atom_site_occupancy
 _atom_site_charge
  Zn  Zn1  1  0.320700  0.023690  0.481170  1.0  1.1106
  Zn  Zn2  1  0.679300  0.523690  0.018830  1.0  1.1111
  Zn  Zn3  1  0.679300  0.976310  0.518830  1.0  1.1109
  Zn  Zn4  1  0.320700  0.476310  0.981170  1.0  1.1108
  H  H5  1  0.167000  0.977400  0.624600  1.0  0.1306
  H  H6  1  0.101800  0.737100  0.760500  1.0  0.1294
  H  H7  1  0.517600  0.775200  0.841800  1.0  0.1344
  H  H8  1  0.833000  0.477400  0.875400  1.0  0.1309
  H  H9  1  0.898200  0.237100  0.739500  1.0  0.1291
  H  H10  1  0.482400  0.275200  0.658200  1.0  0.1341
  H  H11  1  0.833000  0.022600  0.375400  1.0  0.1301
  H  H12  1  0.898200  0.262900  0.239500  1.0  0.1295
  H  H13  1  0.482400  0.224800  0.158200  1.0  0.1344
  H  H14  1  0.167000  0.522600  0.124600  1.0  0.1296
  H  H15  1  0.101800  0.762900  0.260500  1.0  0.1292
  H  H16  1  0.517600  0.724800  0.341800  1.0  0.1345
  C  C17  1  0.357300  0.884800  0.731900  1.0  -0.1945
  C  C18  1  0.204900  0.918300  0.672160  1.0  0.0304
  C  C19  1  0.109500  0.863500  0.683570  1.0  -0.1375
  C  C20  1  0.945900  0.900400  0.622100  1.0  0.7039
  C  C21  1  0.166200  0.774470  0.753280  1.0  0.057
  C  C22  1  0.318800  0.740810  0.812430  1.0  -0.1501
  C  C23  1  0.415100  0.796870  0.801910  1.0  0.044
  C  C24  1  0.380600  0.645040  0.887810  1.0  0.7352
  C  C25  1  0.642700  0.384800  0.768100  1.0  -0.1933
  C  C26  1  0.795100  0.418300  0.827840  1.0  0.0312
  C  C27  1  0.890500  0.363500  0.816430  1.0  -0.1372
  C  C28  1  0.054100  0.400400  0.877900  1.0  0.7034
  C  C29  1  0.833800  0.274470  0.746720  1.0  0.0568
  C  C30  1  0.681200  0.240810  0.687570  1.0  -0.1493
  C  C31  1  0.584900  0.296870  0.698090  1.0  0.0438
  C  C32  1  0.619400  0.145040  0.612190  1.0  0.7364
  C  C33  1  0.642700  0.115200  0.268100  1.0  -0.1931
  C  C34  1  0.795100  0.081700  0.327840  1.0  0.0315
  C  C35  1  0.890500  0.136500  0.316430  1.0  -0.1374
  C  C36  1  0.054100  0.099600  0.377900  1.0  0.7034
  C  C37  1  0.833800  0.225530  0.246720  1.0  0.0569
  C  C38  1  0.681200  0.259190  0.187570  1.0  -0.1484
  C  C39  1  0.584900  0.203130  0.198090  1.0  0.0434
  C  C40  1  0.619400  0.354960  0.112190  1.0  0.7369
  C  C41  1  0.357300  0.615200  0.231900  1.0  -0.1942
  C  C42  1  0.204900  0.581700  0.172160  1.0  0.0312
  C  C43  1  0.109500  0.636500  0.183570  1.0  -0.1375
  C  C44  1  0.945900  0.599600  0.122100  1.0  0.7039
  C  C45  1  0.166200  0.725530  0.253280  1.0  0.0565
  C  C46  1  0.318800  0.759190  0.312430  1.0  -0.1497
  C  C47  1  0.415100  0.703130  0.301910  1.0  0.0437
  C  C48  1  0.380600  0.854960  0.387810  1.0  0.7354
  S  S49  1  0.476550  0.959310  0.716440  1.0  1.4027
  S  S50  1  0.523450  0.459310  0.783560  1.0  1.4021
  S  S51  1  0.523450  0.040690  0.283560  1.0  1.4018
  S  S52  1  0.476550  0.540690  0.216440  1.0  1.4024
  O  O53  1  0.425000  0.923750  0.610790  1.0  -0.6806
  O  O54  1  0.445200  0.072750  0.716100  1.0  -0.532
  O  O55  1  0.632900  0.925900  0.803520  1.0  -0.5206
  O  O56  1  0.895700  0.980100  0.558700  1.0  -0.5538
  O  O57  1  0.862400  0.854620  0.634100  1.0  -0.5326
  O  O58  1  0.523770  0.638500  0.961790  1.0  -0.6088
  O  O59  1  0.282900  0.578270  0.871850  1.0  -0.569
  O  O60  1  0.575000  0.423750  0.889210  1.0  -0.6819
  O  O61  1  0.554800  0.572750  0.783900  1.0  -0.5369
  O  O62  1  0.367100  0.425900  0.696480  1.0  -0.5212
  O  O63  1  0.104300  0.480100  0.941300  1.0  -0.5541
  O  O64  1  0.137600  0.354620  0.865900  1.0  -0.533
  O  O65  1  0.476230  0.138500  0.538210  1.0  -0.6063
  O  O66  1  0.717100  0.078270  0.628150  1.0  -0.5675
  O  O67  1  0.575000  0.076250  0.389210  1.0  -0.6813
  O  O68  1  0.554800  0.927250  0.283900  1.0  -0.5324
  O  O69  1  0.367100  0.074100  0.196480  1.0  -0.5209
  O  O70  1  0.104300  0.019900  0.441300  1.0  -0.5531
  O  O71  1  0.137600  0.145380  0.365900  1.0  -0.5328
  O  O72  1  0.476230  0.361500  0.038210  1.0  -0.6059
  O  O73  1  0.717100  0.421730  0.128150  1.0  -0.568
  O  O74  1  0.425000  0.576250  0.110790  1.0  -0.6809
  O  O75  1  0.445200  0.427250  0.216100  1.0  -0.5341
  O  O76  1  0.632900  0.574100  0.303520  1.0  -0.5201
  O  O77  1  0.895700  0.519900  0.058700  1.0  -0.5541
  O  O78  1  0.862400  0.645380  0.134100  1.0  -0.5316
  O  O79  1  0.523770  0.861500  0.461790  1.0  -0.608
  O  O80  1  0.282900  0.921730  0.371850  1.0  -0.5695
