# generated using pymatgen
data_CuH4C9(NO)4
_symmetry_space_group_name_H-M   'P 1'
_cell_length_a   10.92200000
_cell_length_b   11.40200000
_cell_length_c   14.65400000
_cell_angle_alpha   90.00000000
_cell_angle_beta   109.30000000
_cell_angle_gamma   90.00000000
_symmetry_Int_Tables_number   1
_chemical_formula_structural   CuH4C9(NO)4
_chemical_formula_sum   'Cu4 H16 C36 N16 O16'
_cell_volume   1722.34364500
_cell_formula_units_Z   4
loop_
 _symmetry_equiv_pos_site_id
 _symmetry_equiv_pos_as_xyz
  1  'x, y, z'
loop_
 _atom_site_type_symbol
 _atom_site_label
 _atom_site_symmetry_multiplicity
 _atom_site_fract_x
 _atom_site_fract_y
 _atom_site_fract_z
 _atom_site_occupancy
 _atom_site_charge
  Cu  Cu1  1  0.406850  0.418430  0.976580  1.0  0.8179
  Cu  Cu2  1  0.593150  0.918430  0.523420  1.0  0.8183
  Cu  Cu3  1  0.593150  0.581570  0.023420  1.0  0.8189
  Cu  Cu4  1  0.406850  0.081570  0.476580  1.0  0.8184
  H  H5  1  0.878400  0.372900  0.941600  1.0  0.1168
  H  H6  1  0.880400  0.134000  0.737300  1.0  0.1341
  H  H7  1  0.541500  0.253400  0.758900  1.0  0.1315
  H  H8  1  0.093200  0.422100  0.906800  1.0  0.1285
  H  H9  1  0.121600  0.872900  0.558400  1.0  0.1168
  H  H10  1  0.119600  0.634000  0.762700  1.0  0.1341
  H  H11  1  0.458500  0.753400  0.741100  1.0  0.1294
  H  H12  1  0.906800  0.922100  0.593200  1.0  0.129
  H  H13  1  0.121600  0.627100  0.058400  1.0  0.1166
  H  H14  1  0.119600  0.866000  0.262700  1.0  0.1342
  H  H15  1  0.458500  0.746600  0.241100  1.0  0.1294
  H  H16  1  0.906800  0.577900  0.093200  1.0  0.1294
  H  H17  1  0.878400  0.127100  0.441600  1.0  0.117
  H  H18  1  0.880400  0.366000  0.237300  1.0  0.1346
  H  H19  1  0.541500  0.246600  0.258900  1.0  0.1315
  H  H20  1  0.093200  0.077900  0.406800  1.0  0.1286
  C  C21  1  0.625400  0.391700  0.909300  1.0  0.6767
  C  C22  1  0.699500  0.324700  0.859000  1.0  -0.0737
  C  C23  1  0.832200  0.324400  0.890900  1.0  -0.112
  C  C24  1  0.897300  0.250800  0.846900  1.0  0.0882
  C  C25  1  0.834700  0.180000  0.767400  1.0  -0.1058
  C  C26  1  0.699300  0.182500  0.735800  1.0  -0.0822
  C  C27  1  0.631700  0.253500  0.780900  1.0  -0.0203
  C  C28  1  0.626900  0.112200  0.649100  1.0  0.6672
  C  C29  1  0.117600  0.343900  0.907400  1.0  0.1052
  C  C30  1  0.374600  0.891700  0.590700  1.0  0.6774
  C  C31  1  0.300500  0.824700  0.641000  1.0  -0.0771
  C  C32  1  0.167800  0.824400  0.609100  1.0  -0.1126
  C  C33  1  0.102700  0.750800  0.653100  1.0  0.0852
  C  C34  1  0.165300  0.680000  0.732600  1.0  -0.1069
  C  C35  1  0.300700  0.682500  0.764200  1.0  -0.0817
  C  C36  1  0.368300  0.753500  0.719100  1.0  -0.0175
  C  C37  1  0.373100  0.612200  0.850900  1.0  0.6668
  C  C38  1  0.882400  0.843900  0.592600  1.0  0.105
  C  C39  1  0.374600  0.608300  0.090700  1.0  0.6768
  C  C40  1  0.300500  0.675300  0.141000  1.0  -0.0767
  C  C41  1  0.167800  0.675600  0.109100  1.0  -0.1127
  C  C42  1  0.102700  0.749200  0.153100  1.0  0.0852
  C  C43  1  0.165300  0.820000  0.232600  1.0  -0.1075
  C  C44  1  0.300700  0.817500  0.264200  1.0  -0.0822
  C  C45  1  0.368300  0.746500  0.219100  1.0  -0.0175
  C  C46  1  0.373100  0.887800  0.350900  1.0  0.6676
  C  C47  1  0.882400  0.656100  0.092600  1.0  0.1041
  C  C48  1  0.625400  0.108300  0.409300  1.0  0.6763
  C  C49  1  0.699500  0.175300  0.359000  1.0  -0.074
  C  C50  1  0.832200  0.175600  0.390900  1.0  -0.1123
  C  C51  1  0.897300  0.249200  0.346900  1.0  0.088
  C  C52  1  0.834700  0.320000  0.267400  1.0  -0.1048
  C  C53  1  0.699300  0.317500  0.235800  1.0  -0.0824
  C  C54  1  0.631700  0.246500  0.280900  1.0  -0.0203
  C  C55  1  0.626900  0.387800  0.149100  1.0  0.6676
  C  C56  1  0.117600  0.156100  0.407400  1.0  0.1044
  N  N57  1  0.037600  0.251900  0.881200  1.0  0.16
  N  N58  1  0.109300  0.154100  0.892300  1.0  -0.1781
  N  N59  1  0.229700  0.187600  0.923800  1.0  -0.0474
  N  N60  1  0.239300  0.302600  0.934700  1.0  -0.1914
  N  N61  1  0.962400  0.751900  0.618800  1.0  0.162
  N  N62  1  0.890700  0.654100  0.607700  1.0  -0.178
  N  N63  1  0.770300  0.687600  0.576200  1.0  -0.0499
  N  N64  1  0.760700  0.802600  0.565300  1.0  -0.1997
  N  N65  1  0.962400  0.748100  0.118800  1.0  0.1629
  N  N66  1  0.890700  0.845900  0.107700  1.0  -0.1785
  N  N67  1  0.770300  0.812400  0.076200  1.0  -0.0485
  N  N68  1  0.760700  0.697400  0.065300  1.0  -0.199
  N  N69  1  0.037600  0.248100  0.381200  1.0  0.1607
  N  N70  1  0.109300  0.345900  0.392300  1.0  -0.178
  N  N71  1  0.229700  0.312400  0.423800  1.0  -0.0479
  N  N72  1  0.239300  0.197400  0.434700  1.0  -0.1901
  O  O73  1  0.517500  0.352900  0.907400  1.0  -0.5524
  O  O74  1  0.677600  0.483700  0.949500  1.0  -0.5576
  O  O75  1  0.516100  0.152500  0.597600  1.0  -0.553
  O  O76  1  0.678400  0.020200  0.635600  1.0  -0.5457
  O  O77  1  0.482500  0.852900  0.592600  1.0  -0.5515
  O  O78  1  0.322400  0.983700  0.550500  1.0  -0.5568
  O  O79  1  0.483900  0.652500  0.902400  1.0  -0.5549
  O  O80  1  0.321600  0.520200  0.864400  1.0  -0.5462
  O  O81  1  0.482500  0.647100  0.092600  1.0  -0.5522
  O  O82  1  0.322400  0.516300  0.050500  1.0  -0.557
  O  O83  1  0.483900  0.847500  0.402400  1.0  -0.5531
  O  O84  1  0.321600  0.979800  0.364400  1.0  -0.5462
  O  O85  1  0.517500  0.147100  0.407400  1.0  -0.5535
  O  O86  1  0.677600  0.016300  0.449500  1.0  -0.5569
  O  O87  1  0.516100  0.347500  0.097600  1.0  -0.5531
  O  O88  1  0.678400  0.479800  0.135600  1.0  -0.5458
