# generated using pymatgen
data_CaCu6Hg6H39C34S6N6(Cl3O7)3
_symmetry_space_group_name_H-M   'P 1'
_cell_length_a   17.49200000
_cell_length_b   17.49200000
_cell_length_c   13.24200000
_cell_angle_alpha   90.00000000
_cell_angle_beta   90.00000000
_cell_angle_gamma   120.00000000
_symmetry_Int_Tables_number   1
_chemical_formula_structural   CaCu6Hg6H39C34S6N6(Cl3O7)3
_chemical_formula_sum   'Ca2 Cu12 Hg12 H78 C68 S12 N12 Cl18 O42'
_cell_volume   3508.83666615
_cell_formula_units_Z   2
loop_
 _symmetry_equiv_pos_site_id
 _symmetry_equiv_pos_as_xyz
  1  'x, y, z'
loop_
 _atom_site_type_symbol
 _atom_site_label
 _atom_site_symmetry_multiplicity
 _atom_site_fract_x
 _atom_site_fract_y
 _atom_site_fract_z
 _atom_site_occupancy
 _atom_site_charge
  Ca  Ca1  1  0.666667  0.333333  0.262500  1.0  1.3914
  Ca  Ca2  1  0.333333  0.666667  0.762500  1.0  1.3914
  Cu  Cu3  1  0.557640  0.424640  0.138600  1.0  0.9039
  Cu  Cu4  1  0.552830  0.419050  0.390900  1.0  0.9375
  Cu  Cu5  1  0.575360  0.133000  0.138600  1.0  0.904
  Cu  Cu6  1  0.580950  0.133780  0.390900  1.0  0.9363
  Cu  Cu7  1  0.867000  0.442360  0.138600  1.0  0.9049
  Cu  Cu8  1  0.866220  0.447170  0.390900  1.0  0.9414
  Cu  Cu9  1  0.442360  0.575360  0.638600  1.0  0.9038
  Cu  Cu10  1  0.447170  0.580950  0.890900  1.0  0.9367
  Cu  Cu11  1  0.424640  0.867000  0.638600  1.0  0.9047
  Cu  Cu12  1  0.419050  0.866220  0.890900  1.0  0.9377
  Cu  Cu13  1  0.133000  0.557640  0.638600  1.0  0.9045
  Cu  Cu14  1  0.133780  0.552830  0.890900  1.0  0.9368
  Hg  Hg15  1  0.744300  0.760700  0.325000  1.0  0.571
  Hg  Hg16  1  0.193100  0.354000  0.243900  1.0  0.5979
  Hg  Hg17  1  0.239300  0.983600  0.325000  1.0  0.5709
  Hg  Hg18  1  0.646000  0.839100  0.243900  1.0  0.6044
  Hg  Hg19  1  0.016400  0.255700  0.325000  1.0  0.5737
  Hg  Hg20  1  0.160900  0.806900  0.243900  1.0  0.6074
  Hg  Hg21  1  0.255700  0.239300  0.825000  1.0  0.5709
  Hg  Hg22  1  0.806900  0.646000  0.743900  1.0  0.6008
  Hg  Hg23  1  0.760700  0.016400  0.825000  1.0  0.5749
  Hg  Hg24  1  0.354000  0.160900  0.743900  1.0  0.6069
  Hg  Hg25  1  0.983600  0.744300  0.825000  1.0  0.5727
  Hg  Hg26  1  0.839100  0.193100  0.743900  1.0  0.6061
  H  H27  1  0.696200  0.532600  0.932400  1.0  0.1005
  H  H28  1  0.285000  0.408600  0.039600  1.0  0.0645
  H  H29  1  0.722200  0.668500  0.003900  1.0  0.1111
  H  H30  1  0.795000  0.653900  0.952400  1.0  0.1196
  H  H31  1  0.877900  0.742700  0.064600  1.0  0.1852
  H  H32  1  0.834100  0.659200  0.141800  1.0  0.1099
  H  H33  1  0.741400  0.786200  0.979400  1.0  0.1406
  H  H34  1  0.781500  0.865700  0.058900  1.0  0.1769
  H  H35  1  0.677700  0.797100  0.057500  1.0  0.13
  H  H36  1  0.369400  0.516800  0.178600  1.0  0.078
  H  H37  1  0.266000  0.447900  0.179400  1.0  0.1743
  H  H38  1  0.247200  0.567100  0.112300  1.0  0.0655
  H  H39  1  0.348300  0.631100  0.149600  1.0  0.1422
  H  H40  1  0.467400  0.163600  0.932400  1.0  0.0997
  H  H41  1  0.591400  0.876400  0.039600  1.0  0.0725
  H  H42  1  0.331500  0.053700  0.003900  1.0  0.1114
  H  H43  1  0.346100  0.141100  0.952400  1.0  0.1205
  H  H44  1  0.257300  0.135200  0.064600  1.0  0.1921
  H  H45  1  0.340800  0.174900  0.141800  1.0  0.1105
  H  H46  1  0.213800  0.955200  0.979400  1.0  0.1442
  H  H47  1  0.134300  0.915800  0.058900  1.0  0.1826
  H  H48  1  0.202900  0.880600  0.057500  1.0  0.1256
  H  H49  1  0.483200  0.852600  0.178600  1.0  0.0768
  H  H50  1  0.552100  0.818100  0.179400  1.0  0.1758
  H  H51  1  0.432900  0.680100  0.112300  1.0  0.0651
  H  H52  1  0.368900  0.717200  0.149600  1.0  0.1491
  H  H53  1  0.836400  0.303800  0.932400  1.0  0.1
  H  H54  1  0.123600  0.715000  0.039600  1.0  0.0712
  H  H55  1  0.946300  0.277800  0.003900  1.0  0.1102
  H  H56  1  0.858900  0.205000  0.952400  1.0  0.1189
  H  H57  1  0.864800  0.122100  0.064600  1.0  0.1763
  H  H58  1  0.825100  0.165900  0.141800  1.0  0.1098
  H  H59  1  0.044800  0.258600  0.979400  1.0  0.143
  H  H60  1  0.084200  0.218500  0.058900  1.0  0.1757
  H  H61  1  0.119400  0.322300  0.057500  1.0  0.1254
  H  H62  1  0.147400  0.630600  0.178600  1.0  0.0778
  H  H63  1  0.181900  0.734000  0.179400  1.0  0.1718
  H  H64  1  0.319900  0.752800  0.112300  1.0  0.065
  H  H65  1  0.282800  0.651700  0.149600  1.0  0.1466
  H  H66  1  0.303800  0.467400  0.432400  1.0  0.1005
  H  H67  1  0.715000  0.591400  0.539600  1.0  0.0678
  H  H68  1  0.277800  0.331500  0.503900  1.0  0.1126
  H  H69  1  0.205000  0.346100  0.452400  1.0  0.1195
  H  H70  1  0.122100  0.257300  0.564600  1.0  0.187
  H  H71  1  0.165900  0.340800  0.641800  1.0  0.1102
  H  H72  1  0.258600  0.213800  0.479400  1.0  0.1422
  H  H73  1  0.218500  0.134300  0.558900  1.0  0.1771
  H  H74  1  0.322300  0.202900  0.557500  1.0  0.1293
  H  H75  1  0.630600  0.483200  0.678600  1.0  0.0756
  H  H76  1  0.734000  0.552100  0.679400  1.0  0.1735
  H  H77  1  0.752800  0.432900  0.612300  1.0  0.0666
  H  H78  1  0.651700  0.368900  0.649600  1.0  0.1464
  H  H79  1  0.532600  0.836400  0.432400  1.0  0.0995
  H  H80  1  0.408600  0.123600  0.539600  1.0  0.0733
  H  H81  1  0.668500  0.946300  0.503900  1.0  0.1121
  H  H82  1  0.653900  0.858900  0.452400  1.0  0.1194
  H  H83  1  0.742700  0.864800  0.564600  1.0  0.1997
  H  H84  1  0.659200  0.825100  0.641800  1.0  0.1108
  H  H85  1  0.786200  0.044800  0.479400  1.0  0.1456
  H  H86  1  0.865700  0.084200  0.558900  1.0  0.1904
  H  H87  1  0.797100  0.119400  0.557500  1.0  0.1275
  H  H88  1  0.516800  0.147400  0.678600  1.0  0.0784
  H  H89  1  0.447900  0.181900  0.679400  1.0  0.1739
  H  H90  1  0.567100  0.319900  0.612300  1.0  0.065
  H  H91  1  0.631100  0.282800  0.649600  1.0  0.1442
  H  H92  1  0.163600  0.696200  0.432400  1.0  0.1001
  H  H93  1  0.876400  0.285000  0.539600  1.0  0.071
  H  H94  1  0.053700  0.722200  0.503900  1.0  0.1108
  H  H95  1  0.141100  0.795000  0.452400  1.0  0.1206
  H  H96  1  0.135200  0.877900  0.564600  1.0  0.1818
  H  H97  1  0.174900  0.834100  0.641800  1.0  0.11
  H  H98  1  0.955200  0.741400  0.479400  1.0  0.1426
  H  H99  1  0.915800  0.781500  0.558900  1.0  0.1751
  H  H100  1  0.880600  0.677700  0.557500  1.0  0.1268
  H  H101  1  0.852600  0.369400  0.678600  1.0  0.0771
  H  H102  1  0.818100  0.266000  0.679400  1.0  0.1734
  H  H103  1  0.680100  0.247200  0.612300  1.0  0.0648
  H  H104  1  0.717200  0.348300  0.649600  1.0  0.1454
  C  C105  1  0.546400  0.526100  0.990000  1.0  0.4346
  C  C106  1  0.457000  0.481400  0.043000  1.0  0.598
  C  C107  1  0.696600  0.548200  0.005000  1.0  -0.0101
  C  C108  1  0.725100  0.496000  0.062000  1.0  0.5587
  C  C109  1  0.318700  0.475000  0.042700  1.0  -0.0046
  C  C110  1  0.274000  0.512000  0.960000  1.0  0.6325
  C  C111  1  0.758000  0.640200  0.014000  1.0  -0.2119
  C  C112  1  0.821900  0.694500  0.092600  1.0  -0.2544
  C  C113  1  0.736000  0.804000  0.048000  1.0  -0.365
  C  C114  1  0.313000  0.500200  0.144100  1.0  -0.1787
  C  C115  1  0.295000  0.572200  0.156800  1.0  -0.1176
  C  C116  1  0.473900  0.020300  0.990000  1.0  0.4331
  C  C117  1  0.518600  0.975600  0.043000  1.0  0.5989
  C  C118  1  0.451800  0.148400  0.005000  1.0  -0.0087
  C  C119  1  0.504000  0.229100  0.062000  1.0  0.5592
  C  C120  1  0.525000  0.843700  0.042700  1.0  -0.0056
  C  C121  1  0.488000  0.762000  0.960000  1.0  0.6357
  C  C122  1  0.359800  0.117800  0.014000  1.0  -0.2111
  C  C123  1  0.305500  0.127400  0.092600  1.0  -0.2535
  C  C124  1  0.196000  0.932000  0.048000  1.0  -0.3635
  C  C125  1  0.499800  0.812800  0.144100  1.0  -0.1804
  C  C126  1  0.427800  0.722800  0.156800  1.0  -0.127
  C  C127  1  0.979700  0.453600  0.990000  1.0  0.4339
  C  C128  1  0.024400  0.543000  0.043000  1.0  0.5973
  C  C129  1  0.851600  0.303400  0.005000  1.0  -0.0107
  C  C130  1  0.770900  0.274900  0.062000  1.0  0.558
  C  C131  1  0.156300  0.681300  0.042700  1.0  -0.0061
  C  C132  1  0.238000  0.726000  0.960000  1.0  0.633
  C  C133  1  0.882200  0.242000  0.014000  1.0  -0.2135
  C  C134  1  0.872600  0.178100  0.092600  1.0  -0.2585
  C  C135  1  0.068000  0.264000  0.048000  1.0  -0.3636
  C  C136  1  0.187200  0.687000  0.144100  1.0  -0.1784
  C  C137  1  0.277200  0.705000  0.156800  1.0  -0.1239
  C  C138  1  0.453600  0.473900  0.490000  1.0  0.4345
  C  C139  1  0.543000  0.518600  0.543000  1.0  0.5966
  C  C140  1  0.303400  0.451800  0.505000  1.0  -0.0097
  C  C141  1  0.274900  0.504000  0.562000  1.0  0.5576
  C  C142  1  0.681300  0.525000  0.542700  1.0  -0.0041
  C  C143  1  0.726000  0.488000  0.460000  1.0  0.635
  C  C144  1  0.242000  0.359800  0.514000  1.0  -0.2137
  C  C145  1  0.178100  0.305500  0.592600  1.0  -0.2537
  C  C146  1  0.264000  0.196000  0.548000  1.0  -0.3658
  C  C147  1  0.687000  0.499800  0.644100  1.0  -0.1784
  C  C148  1  0.705000  0.427800  0.656800  1.0  -0.1195
  C  C149  1  0.526100  0.979700  0.490000  1.0  0.4334
  C  C150  1  0.481400  0.024400  0.543000  1.0  0.598
  C  C151  1  0.548200  0.851600  0.505000  1.0  -0.0099
  C  C152  1  0.496000  0.770900  0.562000  1.0  0.5598
  C  C153  1  0.475000  0.156300  0.542700  1.0  -0.0063
  C  C154  1  0.512000  0.238000  0.460000  1.0  0.6337
  C  C155  1  0.640200  0.882200  0.514000  1.0  -0.2142
  C  C156  1  0.694500  0.872600  0.592600  1.0  -0.2548
  C  C157  1  0.804000  0.068000  0.548000  1.0  -0.3652
  C  C158  1  0.500200  0.187200  0.644100  1.0  -0.1782
  C  C159  1  0.572200  0.277200  0.656800  1.0  -0.126
  C  C160  1  0.020300  0.546400  0.490000  1.0  0.4341
  C  C161  1  0.975600  0.457000  0.543000  1.0  0.5984
  C  C162  1  0.148400  0.696600  0.505000  1.0  -0.0105
  C  C163  1  0.229100  0.725100  0.562000  1.0  0.5594
  C  C164  1  0.843700  0.318700  0.542700  1.0  -0.0057
  C  C165  1  0.762000  0.274000  0.460000  1.0  0.6385
  C  C166  1  0.117800  0.758000  0.514000  1.0  -0.2125
  C  C167  1  0.127400  0.821900  0.592600  1.0  -0.2587
  C  C168  1  0.932000  0.736000  0.548000  1.0  -0.3619
  C  C169  1  0.812800  0.313000  0.644100  1.0  -0.1795
  C  C170  1  0.722800  0.295000  0.656800  1.0  -0.1249
  C  C171  1  0.333333  0.666667  0.302000  1.0  -0.1183
  C  C172  1  0.666667  0.333333  0.802000  1.0  -0.1183
  S  S173  1  0.752400  0.732100  0.141700  1.0  0.0882
  S  S174  1  0.259300  0.542200  0.291100  1.0  -0.0035
  S  S175  1  0.267900  0.020300  0.141700  1.0  0.0885
  S  S176  1  0.457800  0.717100  0.291100  1.0  -0.005
  S  S177  1  0.979700  0.247600  0.141700  1.0  0.0875
  S  S178  1  0.282900  0.740700  0.291100  1.0  -0.0049
  S  S179  1  0.247600  0.267900  0.641700  1.0  0.0884
  S  S180  1  0.740700  0.457800  0.791100  1.0  -0.0003
  S  S181  1  0.732100  0.979700  0.641700  1.0  0.0875
  S  S182  1  0.542200  0.282900  0.791100  1.0  -0.0071
  S  S183  1  0.020300  0.752400  0.641700  1.0  0.0872
  S  S184  1  0.717100  0.259300  0.791100  1.0  -0.0046
  N  N185  1  0.604100  0.509800  0.036000  1.0  -0.3366
  N  N186  1  0.405500  0.503300  0.008000  1.0  -0.3444
  N  N187  1  0.490200  0.094300  0.036000  1.0  -0.3377
  N  N188  1  0.496700  0.902200  0.008000  1.0  -0.3435
  N  N189  1  0.905700  0.395900  0.036000  1.0  -0.3365
  N  N190  1  0.097800  0.594500  0.008000  1.0  -0.3408
  N  N191  1  0.395900  0.490200  0.536000  1.0  -0.3364
  N  N192  1  0.594500  0.496700  0.508000  1.0  -0.3439
  N  N193  1  0.509800  0.905700  0.536000  1.0  -0.3376
  N  N194  1  0.503300  0.097800  0.508000  1.0  -0.3441
  N  N195  1  0.094300  0.604100  0.536000  1.0  -0.3361
  N  N196  1  0.902200  0.405500  0.508000  1.0  -0.3403
  Cl  Cl197  1  0.588500  0.732600  0.389100  1.0  -0.4342
  Cl  Cl198  1  0.898400  0.779200  0.370100  1.0  -0.3652
  Cl  Cl199  1  0.805600  0.861900  0.227200  1.0  -0.3301
  Cl  Cl200  1  0.267400  0.855900  0.389100  1.0  -0.4327
  Cl  Cl201  1  0.220800  0.119200  0.370100  1.0  -0.3656
  Cl  Cl202  1  0.138100  0.943700  0.227200  1.0  -0.3322
  Cl  Cl203  1  0.144100  0.411500  0.389100  1.0  -0.4345
  Cl  Cl204  1  0.880800  0.101600  0.370100  1.0  -0.3654
  Cl  Cl205  1  0.056300  0.194400  0.227200  1.0  -0.3287
  Cl  Cl206  1  0.411500  0.267400  0.889100  1.0  -0.4323
  Cl  Cl207  1  0.101600  0.220800  0.870100  1.0  -0.3644
  Cl  Cl208  1  0.194400  0.138100  0.727200  1.0  -0.3316
  Cl  Cl209  1  0.732600  0.144100  0.889100  1.0  -0.4312
  Cl  Cl210  1  0.779200  0.880800  0.870100  1.0  -0.3654
  Cl  Cl211  1  0.861900  0.056300  0.727200  1.0  -0.3306
  Cl  Cl212  1  0.855900  0.588500  0.889100  1.0  -0.4362
  Cl  Cl213  1  0.119200  0.898400  0.870100  1.0  -0.3659
  Cl  Cl214  1  0.943700  0.805600  0.727200  1.0  -0.3297
  O  O215  1  0.531500  0.361300  0.262000  1.0  -0.7339
  O  O216  1  0.324600  0.560800  0.894000  1.0  -0.6211
  O  O217  1  0.677000  0.441900  0.136000  1.0  -0.6735
  O  O218  1  0.552400  0.570900  0.909000  1.0  -0.5608
  O  O219  1  0.199200  0.492000  0.982000  1.0  -0.5564
  O  O220  1  0.803600  0.508200  0.050000  1.0  -0.6826
  O  O221  1  0.444000  0.427500  0.115000  1.0  -0.5738
  O  O222  1  0.638700  0.170200  0.262000  1.0  -0.7327
  O  O223  1  0.439200  0.763800  0.894000  1.0  -0.6232
  O  O224  1  0.558100  0.235100  0.136000  1.0  -0.6717
  O  O225  1  0.429100  0.981500  0.909000  1.0  -0.5612
  O  O226  1  0.508000  0.707200  0.982000  1.0  -0.554
  O  O227  1  0.491800  0.295400  0.050000  1.0  -0.6833
  O  O228  1  0.572500  0.016500  0.115000  1.0  -0.5745
  O  O229  1  0.829800  0.468500  0.262000  1.0  -0.7346
  O  O230  1  0.236200  0.675400  0.894000  1.0  -0.6231
  O  O231  1  0.764900  0.323000  0.136000  1.0  -0.6719
  O  O232  1  0.018500  0.447600  0.909000  1.0  -0.5611
  O  O233  1  0.292800  0.800800  0.982000  1.0  -0.5543
  O  O234  1  0.704600  0.196400  0.050000  1.0  -0.6829
  O  O235  1  0.983500  0.556000  0.115000  1.0  -0.5759
  O  O236  1  0.468500  0.638700  0.762000  1.0  -0.7334
  O  O237  1  0.675400  0.439200  0.394000  1.0  -0.6232
  O  O238  1  0.323000  0.558100  0.636000  1.0  -0.6737
  O  O239  1  0.447600  0.429100  0.409000  1.0  -0.5609
  O  O240  1  0.800800  0.508000  0.482000  1.0  -0.5561
  O  O241  1  0.196400  0.491800  0.550000  1.0  -0.6822
  O  O242  1  0.556000  0.572500  0.615000  1.0  -0.5746
  O  O243  1  0.361300  0.829800  0.762000  1.0  -0.7327
  O  O244  1  0.560800  0.236200  0.394000  1.0  -0.6226
  O  O245  1  0.441900  0.764900  0.636000  1.0  -0.6721
  O  O246  1  0.570900  0.018500  0.409000  1.0  -0.5612
  O  O247  1  0.492000  0.292800  0.482000  1.0  -0.5572
  O  O248  1  0.508200  0.704600  0.550000  1.0  -0.6835
  O  O249  1  0.427500  0.983500  0.615000  1.0  -0.5752
  O  O250  1  0.170200  0.531500  0.762000  1.0  -0.7336
  O  O251  1  0.763800  0.324600  0.394000  1.0  -0.6237
  O  O252  1  0.235100  0.677000  0.636000  1.0  -0.6713
  O  O253  1  0.981500  0.552400  0.409000  1.0  -0.5614
  O  O254  1  0.707200  0.199200  0.482000  1.0  -0.5563
  O  O255  1  0.295400  0.803600  0.550000  1.0  -0.6834
  O  O256  1  0.016500  0.444000  0.615000  1.0  -0.5748
