# generated using pymatgen
data_CdH28C21(NO)6
_symmetry_space_group_name_H-M   'P 1'
_cell_length_a   30.35300000
_cell_length_b   4.85950000
_cell_length_c   18.32300000
_cell_angle_alpha   90.00000000
_cell_angle_beta   118.12300000
_cell_angle_gamma   90.00000000
_symmetry_Int_Tables_number   1
_chemical_formula_structural   CdH28C21(NO)6
_chemical_formula_sum   'Cd4 H112 C84 N24 O24'
_cell_volume   2383.56888126
_cell_formula_units_Z   4
loop_
 _symmetry_equiv_pos_site_id
 _symmetry_equiv_pos_as_xyz
  1  'x, y, z'
loop_
 _atom_site_type_symbol
 _atom_site_label
 _atom_site_symmetry_multiplicity
 _atom_site_fract_x
 _atom_site_fract_y
 _atom_site_fract_z
 _atom_site_occupancy
 _atom_site_charge
  Cd  Cd1  1  0.759380  0.780000  0.086130  1.0  1.063
  Cd  Cd2  1  0.259380  0.280000  0.086130  1.0  1.063
  Cd  Cd3  1  0.240620  0.780000  0.913870  1.0  1.0647
  Cd  Cd4  1  0.740620  0.280000  0.913870  1.0  1.0647
  H  H5  1  0.876200  0.950600  0.136400  1.0  0.079
  H  H6  1  0.896200  0.158600  0.041800  1.0  0.0776
  H  H7  1  0.912200  0.431400  0.093600  1.0  0.085
  H  H8  1  0.965100  0.927700  0.140100  1.0  0.0807
  H  H9  1  0.984700  0.201300  0.119900  1.0  0.085
  H  H10  1  0.977100  0.168000  0.330600  1.0  0.0841
  H  H11  1  0.958300  0.912400  0.271200  1.0  0.0728
  H  H12  1  0.888700  0.165800  0.258000  1.0  0.0684
  H  H13  1  0.909200  0.431500  0.235300  1.0  0.0807
  H  H14  1  0.123000  0.000900  0.632200  1.0  0.0841
  H  H15  1  0.182400  0.714100  0.575300  1.0  0.0859
  H  H16  1  0.189200  0.024000  0.602500  1.0  0.0775
  H  H17  1  0.114700  0.145500  0.485800  1.0  0.0725
  H  H18  1  0.146500  0.975800  0.454200  1.0  0.0725
  H  H19  1  0.036900  0.562400  0.464100  1.0  0.0671
  H  H20  1  0.041200  0.873300  0.490000  1.0  0.0678
  H  H21  1  0.075000  0.621200  0.610500  1.0  0.0754
  H  H22  1  0.108100  0.449400  0.582500  1.0  0.0807
  H  H23  1  0.149600  0.036000  0.099900  1.0  0.0862
  H  H24  1  0.123000  0.496300  0.112500  1.0  0.0759
  H  H25  1  0.098700  0.684300  0.033900  1.0  0.0726
  H  H26  1  0.058200  0.940900  0.087200  1.0  0.0782
  H  H27  1  0.048500  0.632600  0.100700  1.0  0.0744
  H  H28  1  0.147500  0.022200  0.299200  1.0  0.0714
  H  H29  1  0.124800  0.193500  0.216700  1.0  0.0642
  H  H30  1  0.191600  0.741400  0.253000  1.0  0.0964
  H  H31  1  0.204100  0.046900  0.242100  1.0  0.087
  H  H32  1  0.209200  0.463800  0.696400  1.0  0.3791
  H  H33  1  0.376200  0.450600  0.136400  1.0  0.079
  H  H34  1  0.396200  0.658600  0.041800  1.0  0.0776
  H  H35  1  0.412200  0.931400  0.093600  1.0  0.085
  H  H36  1  0.465100  0.427700  0.140100  1.0  0.0807
  H  H37  1  0.484700  0.701300  0.119900  1.0  0.085
  H  H38  1  0.477100  0.668000  0.330600  1.0  0.0841
  H  H39  1  0.458300  0.412400  0.271200  1.0  0.0728
  H  H40  1  0.388700  0.665800  0.258000  1.0  0.0684
  H  H41  1  0.409200  0.931500  0.235300  1.0  0.0807
  H  H42  1  0.623000  0.500900  0.632200  1.0  0.0841
  H  H43  1  0.682400  0.214100  0.575300  1.0  0.0859
  H  H44  1  0.689200  0.524000  0.602500  1.0  0.0775
  H  H45  1  0.614700  0.645500  0.485800  1.0  0.0725
  H  H46  1  0.646500  0.475800  0.454200  1.0  0.0725
  H  H47  1  0.536900  0.062400  0.464100  1.0  0.0671
  H  H48  1  0.541200  0.373300  0.490000  1.0  0.0678
  H  H49  1  0.575000  0.121200  0.610500  1.0  0.0754
  H  H50  1  0.608100  0.949400  0.582500  1.0  0.0807
  H  H51  1  0.649600  0.536000  0.099900  1.0  0.0862
  H  H52  1  0.623000  0.996300  0.112500  1.0  0.0759
  H  H53  1  0.598700  0.184300  0.033900  1.0  0.0726
  H  H54  1  0.558200  0.440900  0.087200  1.0  0.0782
  H  H55  1  0.548500  0.132600  0.100700  1.0  0.0744
  H  H56  1  0.647500  0.522200  0.299200  1.0  0.0714
  H  H57  1  0.624800  0.693500  0.216700  1.0  0.0642
  H  H58  1  0.691600  0.241400  0.253000  1.0  0.0964
  H  H59  1  0.704100  0.546900  0.242100  1.0  0.087
  H  H60  1  0.709200  0.963800  0.696400  1.0  0.3791
  H  H61  1  0.123800  0.950600  0.863600  1.0  0.0793
  H  H62  1  0.103800  0.158600  0.958200  1.0  0.0761
  H  H63  1  0.087800  0.431400  0.906400  1.0  0.0843
  H  H64  1  0.034900  0.927700  0.859900  1.0  0.0809
  H  H65  1  0.015300  0.201300  0.880100  1.0  0.084
  H  H66  1  0.022900  0.168000  0.669400  1.0  0.0847
  H  H67  1  0.041700  0.912400  0.728800  1.0  0.0735
  H  H68  1  0.111300  0.165800  0.742000  1.0  0.0689
  H  H69  1  0.090800  0.431500  0.764700  1.0  0.0805
  H  H70  1  0.877000  0.000900  0.367800  1.0  0.0837
  H  H71  1  0.817600  0.714100  0.424700  1.0  0.0883
  H  H72  1  0.810800  0.024000  0.397500  1.0  0.0759
  H  H73  1  0.885300  0.145500  0.514200  1.0  0.0712
  H  H74  1  0.853500  0.975800  0.545800  1.0  0.073
  H  H75  1  0.963100  0.562400  0.535900  1.0  0.0668
  H  H76  1  0.958800  0.873300  0.510000  1.0  0.067
  H  H77  1  0.925000  0.621200  0.389500  1.0  0.075
  H  H78  1  0.891900  0.449400  0.417500  1.0  0.0806
  H  H79  1  0.850400  0.036000  0.900100  1.0  0.0861
  H  H80  1  0.877000  0.496300  0.887500  1.0  0.0766
  H  H81  1  0.901300  0.684300  0.966100  1.0  0.0717
  H  H82  1  0.941800  0.940900  0.912800  1.0  0.0761
  H  H83  1  0.951500  0.632600  0.899300  1.0  0.0752
  H  H84  1  0.852500  0.022200  0.700800  1.0  0.0731
  H  H85  1  0.875200  0.193500  0.783300  1.0  0.0649
  H  H86  1  0.808400  0.741400  0.747000  1.0  0.0958
  H  H87  1  0.795900  0.046900  0.757900  1.0  0.0896
  H  H88  1  0.790800  0.463800  0.303600  1.0  0.3812
  H  H89  1  0.623800  0.450600  0.863600  1.0  0.0793
  H  H90  1  0.603800  0.658600  0.958200  1.0  0.0761
  H  H91  1  0.587800  0.931400  0.906400  1.0  0.0843
  H  H92  1  0.534900  0.427700  0.859900  1.0  0.0809
  H  H93  1  0.515300  0.701300  0.880100  1.0  0.084
  H  H94  1  0.522900  0.668000  0.669400  1.0  0.0847
  H  H95  1  0.541700  0.412400  0.728800  1.0  0.0735
  H  H96  1  0.611300  0.665800  0.742000  1.0  0.0689
  H  H97  1  0.590800  0.931500  0.764700  1.0  0.0805
  H  H98  1  0.377000  0.500900  0.367800  1.0  0.0837
  H  H99  1  0.317600  0.214100  0.424700  1.0  0.0883
  H  H100  1  0.310800  0.524000  0.397500  1.0  0.0759
  H  H101  1  0.385300  0.645500  0.514200  1.0  0.0712
  H  H102  1  0.353500  0.475800  0.545800  1.0  0.073
  H  H103  1  0.463100  0.062400  0.535900  1.0  0.0668
  H  H104  1  0.458800  0.373300  0.510000  1.0  0.067
  H  H105  1  0.425000  0.121200  0.389500  1.0  0.075
  H  H106  1  0.391900  0.949400  0.417500  1.0  0.0806
  H  H107  1  0.350400  0.536000  0.900100  1.0  0.0861
  H  H108  1  0.377000  0.996300  0.887500  1.0  0.0766
  H  H109  1  0.401300  0.184300  0.966100  1.0  0.0717
  H  H110  1  0.441800  0.440900  0.912800  1.0  0.0761
  H  H111  1  0.451500  0.132600  0.899300  1.0  0.0752
  H  H112  1  0.352500  0.522200  0.700800  1.0  0.0731
  H  H113  1  0.375200  0.693500  0.783300  1.0  0.0649
  H  H114  1  0.308400  0.241400  0.747000  1.0  0.0958
  H  H115  1  0.295900  0.546900  0.757900  1.0  0.0896
  H  H116  1  0.290800  0.963800  0.303600  1.0  0.3812
  C  C117  1  0.828700  0.288000  0.092300  1.0  0.659
  C  C118  1  0.880600  0.151000  0.140100  1.0  -0.1836
  C  C119  1  0.911800  0.232000  0.097500  1.0  -0.1343
  C  C120  1  0.965000  0.127000  0.144500  1.0  0.0035
  C  C121  1  0.960100  0.112000  0.273100  1.0  0.0057
  C  C122  1  0.907300  0.233000  0.230700  1.0  -0.1712
  C  C123  1  0.021700  0.407000  0.262300  1.0  0.5373
  C  C124  1  0.074300  0.675000  0.371000  1.0  0.4844
  C  C125  1  0.075400  0.701000  0.250000  1.0  0.5389
  C  C126  1  0.175600  0.734000  0.712600  1.0  0.593
  C  C127  1  0.137000  0.826000  0.626400  1.0  -0.1297
  C  C128  1  0.164700  0.879000  0.576000  1.0  -0.1742
  C  C129  1  0.128600  0.965000  0.486100  1.0  0.0089
  C  C130  1  0.060300  0.711000  0.491700  1.0  0.0298
  C  C131  1  0.094600  0.631000  0.581400  1.0  -0.1314
  C  C132  1  0.200200  0.735000  0.116900  1.0  0.7196
  C  C133  1  0.158400  0.858000  0.128500  1.0  -0.1666
  C  C134  1  0.113200  0.684000  0.093700  1.0  -0.1316
  C  C135  1  0.074000  0.774000  0.117000  1.0  0.026
  C  C136  1  0.135600  0.012000  0.240000  1.0  0.0346
  C  C137  1  0.177700  0.910000  0.222700  1.0  -0.154
  C  C138  1  0.328700  0.788000  0.092300  1.0  0.659
  C  C139  1  0.380600  0.651000  0.140100  1.0  -0.1836
  C  C140  1  0.411800  0.732000  0.097500  1.0  -0.1343
  C  C141  1  0.465000  0.627000  0.144500  1.0  0.0035
  C  C142  1  0.460100  0.612000  0.273100  1.0  0.0057
  C  C143  1  0.407300  0.733000  0.230700  1.0  -0.1712
  C  C144  1  0.521700  0.907000  0.262300  1.0  0.5373
  C  C145  1  0.574300  0.175000  0.371000  1.0  0.4844
  C  C146  1  0.575400  0.201000  0.250000  1.0  0.5389
  C  C147  1  0.675600  0.234000  0.712600  1.0  0.593
  C  C148  1  0.637000  0.326000  0.626400  1.0  -0.1297
  C  C149  1  0.664700  0.379000  0.576000  1.0  -0.1742
  C  C150  1  0.628600  0.465000  0.486100  1.0  0.0089
  C  C151  1  0.560300  0.211000  0.491700  1.0  0.0298
  C  C152  1  0.594600  0.131000  0.581400  1.0  -0.1314
  C  C153  1  0.700200  0.235000  0.116900  1.0  0.7196
  C  C154  1  0.658400  0.358000  0.128500  1.0  -0.1666
  C  C155  1  0.613200  0.184000  0.093700  1.0  -0.1316
  C  C156  1  0.574000  0.274000  0.117000  1.0  0.026
  C  C157  1  0.635600  0.512000  0.240000  1.0  0.0346
  C  C158  1  0.677700  0.410000  0.222700  1.0  -0.154
  C  C159  1  0.171300  0.288000  0.907700  1.0  0.6618
  C  C160  1  0.119400  0.151000  0.859900  1.0  -0.1817
  C  C161  1  0.088200  0.232000  0.902500  1.0  -0.1356
  C  C162  1  0.035000  0.127000  0.855500  1.0  0.0045
  C  C163  1  0.039900  0.112000  0.726900  1.0  0.0099
  C  C164  1  0.092700  0.233000  0.769300  1.0  -0.171
  C  C165  1  0.978300  0.407000  0.737700  1.0  0.5362
  C  C166  1  0.925700  0.675000  0.629000  1.0  0.4837
  C  C167  1  0.924600  0.701000  0.750000  1.0  0.5388
  C  C168  1  0.824400  0.734000  0.287400  1.0  0.5891
  C  C169  1  0.863000  0.826000  0.373600  1.0  -0.1297
  C  C170  1  0.835300  0.879000  0.424000  1.0  -0.1766
  C  C171  1  0.871400  0.965000  0.513900  1.0  0.0095
  C  C172  1  0.939700  0.711000  0.508300  1.0  0.0313
  C  C173  1  0.905400  0.631000  0.418600  1.0  -0.133
  C  C174  1  0.799800  0.735000  0.883100  1.0  0.7174
  C  C175  1  0.841600  0.858000  0.871500  1.0  -0.1664
  C  C176  1  0.886800  0.684000  0.906300  1.0  -0.1327
  C  C177  1  0.926000  0.774000  0.883000  1.0  0.0282
  C  C178  1  0.864400  0.012000  0.760000  1.0  0.0344
  C  C179  1  0.822300  0.910000  0.777300  1.0  -0.1525
  C  C180  1  0.671300  0.788000  0.907700  1.0  0.6618
  C  C181  1  0.619400  0.651000  0.859900  1.0  -0.1817
  C  C182  1  0.588200  0.732000  0.902500  1.0  -0.1356
  C  C183  1  0.535000  0.627000  0.855500  1.0  0.0045
  C  C184  1  0.539900  0.612000  0.726900  1.0  0.0099
  C  C185  1  0.592700  0.733000  0.769300  1.0  -0.171
  C  C186  1  0.478300  0.907000  0.737700  1.0  0.5362
  C  C187  1  0.425700  0.175000  0.629000  1.0  0.4837
  C  C188  1  0.424600  0.201000  0.750000  1.0  0.5388
  C  C189  1  0.324400  0.234000  0.287400  1.0  0.5891
  C  C190  1  0.363000  0.326000  0.373600  1.0  -0.1297
  C  C191  1  0.335300  0.379000  0.424000  1.0  -0.1766
  C  C192  1  0.371400  0.465000  0.513900  1.0  0.0095
  C  C193  1  0.439700  0.211000  0.508300  1.0  0.0313
  C  C194  1  0.405400  0.131000  0.418600  1.0  -0.133
  C  C195  1  0.299800  0.235000  0.883100  1.0  0.7174
  C  C196  1  0.341600  0.358000  0.871500  1.0  -0.1664
  C  C197  1  0.386800  0.184000  0.906300  1.0  -0.1327
  C  C198  1  0.426000  0.274000  0.883000  1.0  0.0282
  C  C199  1  0.364400  0.512000  0.760000  1.0  0.0344
  C  C200  1  0.322300  0.410000  0.777300  1.0  -0.1525
  N  N201  1  0.987800  0.206000  0.232000  1.0  -0.1239
  N  N202  1  0.035600  0.493000  0.340600  1.0  -0.5485
  N  N203  1  0.096400  0.771000  0.330700  1.0  -0.473
  N  N204  1  0.039700  0.514000  0.213100  1.0  -0.5971
  N  N205  1  0.088700  0.766000  0.449200  1.0  -0.1491
  N  N206  1  0.094900  0.822000  0.203500  1.0  -0.1401
  N  N207  1  0.487800  0.706000  0.232000  1.0  -0.1239
  N  N208  1  0.535600  0.993000  0.340600  1.0  -0.5485
  N  N209  1  0.596400  0.271000  0.330700  1.0  -0.473
  N  N210  1  0.539700  0.014000  0.213100  1.0  -0.5971
  N  N211  1  0.588700  0.266000  0.449200  1.0  -0.1491
  N  N212  1  0.594900  0.322000  0.203500  1.0  -0.1401
  N  N213  1  0.012200  0.206000  0.768000  1.0  -0.1253
  N  N214  1  0.964400  0.493000  0.659400  1.0  -0.5485
  N  N215  1  0.903600  0.771000  0.669300  1.0  -0.4724
  N  N216  1  0.960300  0.514000  0.786900  1.0  -0.5966
  N  N217  1  0.911300  0.766000  0.550800  1.0  -0.1487
  N  N218  1  0.905100  0.822000  0.796500  1.0  -0.1391
  N  N219  1  0.512200  0.706000  0.768000  1.0  -0.1253
  N  N220  1  0.464400  0.993000  0.659400  1.0  -0.5485
  N  N221  1  0.403600  0.271000  0.669300  1.0  -0.4724
  N  N222  1  0.460300  0.014000  0.786900  1.0  -0.5966
  N  N223  1  0.411300  0.266000  0.550800  1.0  -0.1487
  N  N224  1  0.405100  0.322000  0.796500  1.0  -0.1391
  O  O225  1  0.824700  0.526000  0.101800  1.0  -0.6015
  O  O226  1  0.793300  0.128000  0.042600  1.0  -0.7306
  O  O227  1  0.188100  0.474000  0.712300  1.0  -0.5461
  O  O228  1  0.190000  0.868000  0.773400  1.0  -0.5949
  O  O229  1  0.240000  0.866000  0.137000  1.0  -0.7035
  O  O230  1  0.196100  0.495000  0.090300  1.0  -0.6051
  O  O231  1  0.324700  0.026000  0.101800  1.0  -0.6015
  O  O232  1  0.293300  0.628000  0.042600  1.0  -0.7306
  O  O233  1  0.688100  0.974000  0.712300  1.0  -0.5461
  O  O234  1  0.690000  0.368000  0.773400  1.0  -0.5949
  O  O235  1  0.740000  0.366000  0.137000  1.0  -0.7035
  O  O236  1  0.696100  0.995000  0.090300  1.0  -0.6051
  O  O237  1  0.175300  0.526000  0.898200  1.0  -0.6014
  O  O238  1  0.206700  0.128000  0.957400  1.0  -0.7287
  O  O239  1  0.811900  0.474000  0.287700  1.0  -0.5456
  O  O240  1  0.810000  0.868000  0.226600  1.0  -0.595
  O  O241  1  0.760000  0.866000  0.863000  1.0  -0.7038
  O  O242  1  0.803900  0.495000  0.909700  1.0  -0.6048
  O  O243  1  0.675300  0.026000  0.898200  1.0  -0.6014
  O  O244  1  0.706700  0.628000  0.957400  1.0  -0.7287
  O  O245  1  0.311900  0.974000  0.287700  1.0  -0.5456
  O  O246  1  0.310000  0.368000  0.226600  1.0  -0.595
  O  O247  1  0.260000  0.366000  0.863000  1.0  -0.7038
  O  O248  1  0.303900  0.995000  0.909700  1.0  -0.6048
