# generated using pymatgen
data_Zn2CoH5C15O11
_symmetry_space_group_name_H-M   'P 1'
_cell_length_a   18.38900000
_cell_length_b   18.38900000
_cell_length_c   17.96900000
_cell_angle_alpha   90.00000000
_cell_angle_beta   90.00000000
_cell_angle_gamma   120.00000000
_symmetry_Int_Tables_number   1
_chemical_formula_structural   Zn2CoH5C15O11
_chemical_formula_sum   'Zn12 Co6 H30 C90 O66'
_cell_volume   5262.24138735
_cell_formula_units_Z   6
loop_
 _symmetry_equiv_pos_site_id
 _symmetry_equiv_pos_as_xyz
  1  'x, y, z'
loop_
 _atom_site_type_symbol
 _atom_site_label
 _atom_site_symmetry_multiplicity
 _atom_site_fract_x
 _atom_site_fract_y
 _atom_site_fract_z
 _atom_site_occupancy
 _atom_site_charge
  Zn  Zn1  1  0.756910  0.658580  0.333160  1.0  1.1124
  Zn  Zn2  1  0.341420  0.098330  0.333160  1.0  1.1136
  Zn  Zn3  1  0.901670  0.243090  0.333160  1.0  1.1133
  Zn  Zn4  1  0.243090  0.341420  0.833160  1.0  1.1135
  Zn  Zn5  1  0.658580  0.901670  0.833160  1.0  1.1132
  Zn  Zn6  1  0.098330  0.756910  0.833160  1.0  1.1118
  Zn  Zn7  1  0.341420  0.243090  0.833160  1.0  1.1117
  Zn  Zn8  1  0.901670  0.658580  0.833160  1.0  1.1138
  Zn  Zn9  1  0.756910  0.098330  0.833160  1.0  1.1132
  Zn  Zn10  1  0.658580  0.756910  0.333160  1.0  1.1133
  Zn  Zn11  1  0.098330  0.341420  0.333160  1.0  1.1119
  Zn  Zn12  1  0.243090  0.901670  0.333160  1.0  1.1134
  Co  Co13  1  0.650660  0.650660  0.175400  1.0  0.9681
  Co  Co14  1  0.349340  0.000000  0.175400  1.0  0.9646
  Co  Co15  1  0.000000  0.349340  0.175400  1.0  0.9672
  Co  Co16  1  0.349340  0.349340  0.675400  1.0  0.9687
  Co  Co17  1  0.650660  0.000000  0.675400  1.0  0.9635
  Co  Co18  1  0.000000  0.650660  0.675400  1.0  0.9701
  H  H19  1  0.844300  0.717600  0.551300  1.0  0.1128
  H  H20  1  0.802100  0.447500  0.377500  1.0  0.1146
  H  H21  1  0.282400  0.126700  0.551300  1.0  0.1141
  H  H22  1  0.552500  0.354600  0.377500  1.0  0.1142
  H  H23  1  0.873300  0.155700  0.551300  1.0  0.1132
  H  H24  1  0.645400  0.197900  0.377500  1.0  0.1157
  H  H25  1  0.155700  0.282400  0.051300  1.0  0.1129
  H  H26  1  0.197900  0.552500  0.877500  1.0  0.1139
  H  H27  1  0.717600  0.873300  0.051300  1.0  0.114
  H  H28  1  0.447500  0.645400  0.877500  1.0  0.1147
  H  H29  1  0.126700  0.844300  0.051300  1.0  0.113
  H  H30  1  0.354600  0.802100  0.877500  1.0  0.1153
  H  H31  1  0.282400  0.155700  0.051300  1.0  0.1129
  H  H32  1  0.552500  0.197900  0.877500  1.0  0.1153
  H  H33  1  0.873300  0.717600  0.051300  1.0  0.1129
  H  H34  1  0.645400  0.447500  0.877500  1.0  0.1145
  H  H35  1  0.844300  0.126700  0.051300  1.0  0.1141
  H  H36  1  0.802100  0.354600  0.877500  1.0  0.1148
  H  H37  1  0.717600  0.844300  0.551300  1.0  0.1131
  H  H38  1  0.447500  0.802100  0.377500  1.0  0.1156
  H  H39  1  0.126700  0.282400  0.551300  1.0  0.113
  H  H40  1  0.354600  0.552500  0.377500  1.0  0.1143
  H  H41  1  0.155700  0.873300  0.551300  1.0  0.1141
  H  H42  1  0.197900  0.645400  0.377500  1.0  0.1142
  H  H43  1  0.815250  0.815250  0.743000  1.0  0.1156
  H  H44  1  0.184750  0.000000  0.743000  1.0  0.1158
  H  H45  1  0.000000  0.184750  0.743000  1.0  0.1159
  H  H46  1  0.184750  0.184750  0.243000  1.0  0.1159
  H  H47  1  0.815250  0.000000  0.243000  1.0  0.1158
  H  H48  1  0.000000  0.815250  0.243000  1.0  0.1154
  C  C49  1  0.691700  0.503700  0.370700  1.0  0.6681
  C  C50  1  0.677500  0.413200  0.377000  1.0  -0.1608
  C  C51  1  0.822100  0.746300  0.577600  1.0  -0.0413
  C  C52  1  0.747400  0.401000  0.377200  1.0  0.0345
  C  C53  1  0.833500  0.756600  0.654000  1.0  -0.1591
  C  C54  1  0.877000  0.721800  0.696800  1.0  0.7315
  C  C55  1  0.496300  0.188000  0.370700  1.0  0.6675
  C  C56  1  0.586800  0.264300  0.377000  1.0  -0.1624
  C  C57  1  0.253700  0.075800  0.577600  1.0  -0.0409
  C  C58  1  0.599000  0.346400  0.377200  1.0  0.0331
  C  C59  1  0.243400  0.076900  0.654000  1.0  -0.1583
  C  C60  1  0.278200  0.155200  0.696800  1.0  0.7308
  C  C61  1  0.812000  0.308300  0.370700  1.0  0.6674
  C  C62  1  0.735700  0.322500  0.377000  1.0  -0.1608
  C  C63  1  0.924200  0.177900  0.577600  1.0  -0.0415
  C  C64  1  0.653600  0.252600  0.377200  1.0  0.0349
  C  C65  1  0.923100  0.166500  0.654000  1.0  -0.1587
  C  C66  1  0.844800  0.123000  0.696800  1.0  0.7312
  C  C67  1  0.308300  0.496300  0.870700  1.0  0.6682
  C  C68  1  0.322500  0.586800  0.877000  1.0  -0.1613
  C  C69  1  0.177900  0.253700  0.077600  1.0  -0.0409
  C  C70  1  0.252600  0.599000  0.877200  1.0  0.0341
  C  C71  1  0.166500  0.243400  0.154000  1.0  -0.1584
  C  C72  1  0.123000  0.278200  0.196800  1.0  0.7321
  C  C73  1  0.503700  0.812000  0.870700  1.0  0.6685
  C  C74  1  0.413200  0.735700  0.877000  1.0  -0.1615
  C  C75  1  0.746300  0.924200  0.077600  1.0  -0.0395
  C  C76  1  0.401000  0.653600  0.877200  1.0  0.0347
  C  C77  1  0.756600  0.923100  0.154000  1.0  -0.1588
  C  C78  1  0.721800  0.844800  0.196800  1.0  0.7301
  C  C79  1  0.188000  0.691700  0.870700  1.0  0.6677
  C  C80  1  0.264300  0.677500  0.877000  1.0  -0.1605
  C  C81  1  0.075800  0.822100  0.077600  1.0  -0.0417
  C  C82  1  0.346400  0.747400  0.877200  1.0  0.0331
  C  C83  1  0.076900  0.833500  0.154000  1.0  -0.1592
  C  C84  1  0.155200  0.877000  0.196800  1.0  0.7318
  C  C85  1  0.496300  0.308300  0.870700  1.0  0.6699
  C  C86  1  0.586800  0.322500  0.877000  1.0  -0.1605
  C  C87  1  0.253700  0.177900  0.077600  1.0  -0.0397
  C  C88  1  0.599000  0.252600  0.877200  1.0  0.0336
  C  C89  1  0.243400  0.166500  0.154000  1.0  -0.1594
  C  C90  1  0.278200  0.123000  0.196800  1.0  0.7314
  C  C91  1  0.812000  0.503700  0.870700  1.0  0.6688
  C  C92  1  0.735700  0.413200  0.877000  1.0  -0.1615
  C  C93  1  0.924200  0.746300  0.077600  1.0  -0.0385
  C  C94  1  0.653600  0.401000  0.877200  1.0  0.0335
  C  C95  1  0.923100  0.756600  0.154000  1.0  -0.1586
  C  C96  1  0.844800  0.721800  0.196800  1.0  0.7322
  C  C97  1  0.691700  0.188000  0.870700  1.0  0.666
  C  C98  1  0.677500  0.264300  0.877000  1.0  -0.1616
  C  C99  1  0.822100  0.075800  0.077600  1.0  -0.0383
  C  C100  1  0.747400  0.346400  0.877200  1.0  0.035
  C  C101  1  0.833500  0.076900  0.154000  1.0  -0.1582
  C  C102  1  0.877000  0.155200  0.196800  1.0  0.7305
  C  C103  1  0.503700  0.691700  0.370700  1.0  0.6699
  C  C104  1  0.413200  0.677500  0.377000  1.0  -0.1607
  C  C105  1  0.746300  0.822100  0.577600  1.0  -0.0392
  C  C106  1  0.401000  0.747400  0.377200  1.0  0.0347
  C  C107  1  0.756600  0.833500  0.654000  1.0  -0.1585
  C  C108  1  0.721800  0.877000  0.696800  1.0  0.7313
  C  C109  1  0.188000  0.496300  0.370700  1.0  0.6681
  C  C110  1  0.264300  0.586800  0.377000  1.0  -0.1609
  C  C111  1  0.075800  0.253700  0.577600  1.0  -0.0396
  C  C112  1  0.346400  0.599000  0.377200  1.0  0.0346
  C  C113  1  0.076900  0.243400  0.654000  1.0  -0.1591
  C  C114  1  0.155200  0.278200  0.696800  1.0  0.7316
  C  C115  1  0.308300  0.812000  0.370700  1.0  0.6649
  C  C116  1  0.322500  0.735700  0.377000  1.0  -0.1618
  C  C117  1  0.177900  0.924200  0.577600  1.0  -0.0383
  C  C118  1  0.252600  0.653600  0.377200  1.0  0.0328
  C  C119  1  0.166500  0.923100  0.654000  1.0  -0.1589
  C  C120  1  0.123000  0.844800  0.696800  1.0  0.7306
  C  C121  1  0.760200  0.760200  0.460400  1.0  0.7692
  C  C122  1  0.778000  0.778000  0.539400  1.0  -0.1622
  C  C123  1  0.803700  0.803700  0.692100  1.0  -0.0005
  C  C124  1  0.239800  0.000000  0.460400  1.0  0.7699
  C  C125  1  0.222000  0.000000  0.539400  1.0  -0.1622
  C  C126  1  0.196300  0.000000  0.692100  1.0  -0.0005
  C  C127  1  0.000000  0.239800  0.460400  1.0  0.7694
  C  C128  1  0.000000  0.222000  0.539400  1.0  -0.1622
  C  C129  1  0.000000  0.196300  0.692100  1.0  -0.0002
  C  C130  1  0.239800  0.239800  0.960400  1.0  0.7693
  C  C131  1  0.222000  0.222000  0.039400  1.0  -0.1623
  C  C132  1  0.196300  0.196300  0.192100  1.0  -0.0003
  C  C133  1  0.760200  0.000000  0.960400  1.0  0.769
  C  C134  1  0.778000  0.000000  0.039400  1.0  -0.1622
  C  C135  1  0.803700  0.000000  0.192100  1.0  -0.0002
  C  C136  1  0.000000  0.760200  0.960400  1.0  0.7692
  C  C137  1  0.000000  0.778000  0.039400  1.0  -0.1623
  C  C138  1  0.000000  0.803700  0.192100  1.0  -0.0007
  O  O139  1  0.787700  0.718600  0.429300  1.0  -0.5878
  O  O140  1  0.760300  0.556800  0.349900  1.0  -0.5361
  O  O141  1  0.879900  0.729000  0.766900  1.0  -0.5784
  O  O142  1  0.907000  0.684400  0.662700  1.0  -0.6573
  O  O143  1  0.631100  0.513000  0.380900  1.0  -0.4897
  O  O144  1  0.281400  0.069100  0.429300  1.0  -0.5897
  O  O145  1  0.443200  0.203500  0.349900  1.0  -0.5348
  O  O146  1  0.271000  0.150900  0.766900  1.0  -0.5774
  O  O147  1  0.315600  0.222600  0.662700  1.0  -0.6587
  O  O148  1  0.487000  0.118100  0.380900  1.0  -0.4852
  O  O149  1  0.930900  0.212300  0.429300  1.0  -0.5886
  O  O150  1  0.796500  0.239700  0.349900  1.0  -0.5369
  O  O151  1  0.849100  0.120100  0.766900  1.0  -0.5769
  O  O152  1  0.777400  0.093000  0.662700  1.0  -0.6552
  O  O153  1  0.881900  0.368900  0.380900  1.0  -0.4837
  O  O154  1  0.212300  0.281400  0.929300  1.0  -0.5877
  O  O155  1  0.239700  0.443200  0.849900  1.0  -0.5348
  O  O156  1  0.120100  0.271000  0.266900  1.0  -0.5777
  O  O157  1  0.093000  0.315600  0.162700  1.0  -0.6582
  O  O158  1  0.368900  0.487000  0.880900  1.0  -0.4877
  O  O159  1  0.718600  0.930900  0.929300  1.0  -0.589
  O  O160  1  0.556800  0.796500  0.849900  1.0  -0.5347
  O  O161  1  0.729000  0.849100  0.266900  1.0  -0.5784
  O  O162  1  0.684400  0.777400  0.162700  1.0  -0.6574
  O  O163  1  0.513000  0.881900  0.880900  1.0  -0.4854
  O  O164  1  0.069100  0.787700  0.929300  1.0  -0.5896
  O  O165  1  0.203500  0.760300  0.849900  1.0  -0.5359
  O  O166  1  0.150900  0.879900  0.266900  1.0  -0.5776
  O  O167  1  0.222600  0.907000  0.162700  1.0  -0.6555
  O  O168  1  0.118100  0.631100  0.880900  1.0  -0.4835
  O  O169  1  0.281400  0.212300  0.929300  1.0  -0.5892
  O  O170  1  0.443200  0.239700  0.849900  1.0  -0.5356
  O  O171  1  0.271000  0.120100  0.266900  1.0  -0.5778
  O  O172  1  0.315600  0.093000  0.162700  1.0  -0.6554
  O  O173  1  0.487000  0.368900  0.880900  1.0  -0.4826
  O  O174  1  0.930900  0.718600  0.929300  1.0  -0.5875
  O  O175  1  0.796500  0.556800  0.849900  1.0  -0.5348
  O  O176  1  0.849100  0.729000  0.266900  1.0  -0.5772
  O  O177  1  0.777400  0.684400  0.162700  1.0  -0.657
  O  O178  1  0.881900  0.513000  0.880900  1.0  -0.4877
  O  O179  1  0.787700  0.069100  0.929300  1.0  -0.5894
  O  O180  1  0.760300  0.203500  0.849900  1.0  -0.5342
  O  O181  1  0.879900  0.150900  0.266900  1.0  -0.5781
  O  O182  1  0.907000  0.222600  0.162700  1.0  -0.6585
  O  O183  1  0.631100  0.118100  0.880900  1.0  -0.4841
  O  O184  1  0.718600  0.787700  0.429300  1.0  -0.5889
  O  O185  1  0.556800  0.760300  0.349900  1.0  -0.5364
  O  O186  1  0.729000  0.879900  0.766900  1.0  -0.5768
  O  O187  1  0.684400  0.907000  0.662700  1.0  -0.6552
  O  O188  1  0.513000  0.631100  0.380900  1.0  -0.4842
  O  O189  1  0.069100  0.281400  0.429300  1.0  -0.5879
  O  O190  1  0.203500  0.443200  0.349900  1.0  -0.5337
  O  O191  1  0.150900  0.271000  0.766900  1.0  -0.5789
  O  O192  1  0.222600  0.315600  0.662700  1.0  -0.6585
  O  O193  1  0.118100  0.487000  0.380900  1.0  -0.4897
  O  O194  1  0.212300  0.930900  0.429300  1.0  -0.589
  O  O195  1  0.239700  0.796500  0.349900  1.0  -0.5338
  O  O196  1  0.120100  0.849100  0.766900  1.0  -0.5778
  O  O197  1  0.093000  0.777400  0.662700  1.0  -0.6577
  O  O198  1  0.368900  0.881900  0.380900  1.0  -0.4854
  O  O199  1  0.657100  0.657100  0.292100  1.0  -0.8292
  O  O200  1  0.342900  0.000000  0.292100  1.0  -0.8294
  O  O201  1  0.000000  0.342900  0.292100  1.0  -0.8288
  O  O202  1  0.342900  0.342900  0.792100  1.0  -0.8294
  O  O203  1  0.657100  0.000000  0.792100  1.0  -0.8304
  O  O204  1  0.000000  0.657100  0.792100  1.0  -0.8291
