# generated using pymatgen
data_Zn2CoH6C18O13
_symmetry_space_group_name_H-M   'P 1'
_cell_length_a   20.32800000
_cell_length_b   20.32800000
_cell_length_c   17.91000000
_cell_angle_alpha   90.00000000
_cell_angle_beta   90.00000000
_cell_angle_gamma   90.00000000
_symmetry_Int_Tables_number   1
_chemical_formula_structural   Zn2CoH6C18O13
_chemical_formula_sum   'Zn16 Co8 H48 C144 O104'
_cell_volume   7400.90602944
_cell_formula_units_Z   8
loop_
 _symmetry_equiv_pos_site_id
 _symmetry_equiv_pos_as_xyz
  1  'x, y, z'
loop_
 _atom_site_type_symbol
 _atom_site_label
 _atom_site_symmetry_multiplicity
 _atom_site_fract_x
 _atom_site_fract_y
 _atom_site_fract_z
 _atom_site_occupancy
 _atom_site_charge
  Zn  Zn1  1  0.258410  0.117570  0.764010  1.0  1.0527
  Zn  Zn2  1  0.758410  0.617570  0.264010  1.0  1.0527
  Zn  Zn3  1  0.741590  0.882430  0.764010  1.0  1.0518
  Zn  Zn4  1  0.241590  0.382430  0.264010  1.0  1.0518
  Zn  Zn5  1  0.882430  0.258410  0.764010  1.0  1.0526
  Zn  Zn6  1  0.382430  0.758410  0.264010  1.0  1.0526
  Zn  Zn7  1  0.117570  0.741590  0.764010  1.0  1.0519
  Zn  Zn8  1  0.617570  0.241590  0.264010  1.0  1.0519
  Zn  Zn9  1  0.258410  0.882430  0.264010  1.0  1.0525
  Zn  Zn10  1  0.758410  0.382430  0.764010  1.0  1.0525
  Zn  Zn11  1  0.741590  0.117570  0.264010  1.0  1.0532
  Zn  Zn12  1  0.241590  0.617570  0.764010  1.0  1.0532
  Zn  Zn13  1  0.882430  0.741590  0.264010  1.0  1.0523
  Zn  Zn14  1  0.382430  0.241590  0.764010  1.0  1.0523
  Zn  Zn15  1  0.117570  0.258410  0.264010  1.0  1.0533
  Zn  Zn16  1  0.617570  0.758410  0.764010  1.0  1.0533
  Co  Co17  1  0.347060  0.152940  0.619060  1.0  1.057
  Co  Co18  1  0.652940  0.847060  0.619060  1.0  1.0587
  Co  Co19  1  0.152940  0.347060  0.119060  1.0  1.0587
  Co  Co20  1  0.847060  0.347060  0.619060  1.0  1.0571
  Co  Co21  1  0.152940  0.652940  0.619060  1.0  1.0584
  Co  Co22  1  0.347060  0.847060  0.119060  1.0  1.0571
  Co  Co23  1  0.652940  0.152940  0.119060  1.0  1.0584
  Co  Co24  1  0.847060  0.652940  0.119060  1.0  1.057
  H  H25  1  0.088200  0.224000  0.694700  1.0  0.1339
  H  H26  1  0.178100  0.208900  0.495300  1.0  0.1213
  H  H27  1  0.507700  0.194000  0.510800  1.0  0.1216
  H  H28  1  0.588200  0.724000  0.194700  1.0  0.1339
  H  H29  1  0.678100  0.708900  0.995300  1.0  0.1213
  H  H30  1  0.007700  0.694000  0.010800  1.0  0.1216
  H  H31  1  0.911800  0.776000  0.694700  1.0  0.1334
  H  H32  1  0.821900  0.791100  0.495300  1.0  0.1214
  H  H33  1  0.492300  0.806000  0.510800  1.0  0.1218
  H  H34  1  0.411800  0.276000  0.194700  1.0  0.1334
  H  H35  1  0.321900  0.291100  0.995300  1.0  0.1214
  H  H36  1  0.992300  0.306000  0.010800  1.0  0.1218
  H  H37  1  0.776000  0.088200  0.694700  1.0  0.1336
  H  H38  1  0.791100  0.178100  0.495300  1.0  0.1207
  H  H39  1  0.806000  0.507700  0.510800  1.0  0.1219
  H  H40  1  0.276000  0.588200  0.194700  1.0  0.1336
  H  H41  1  0.291100  0.678100  0.995300  1.0  0.1207
  H  H42  1  0.306000  0.007700  0.010800  1.0  0.1219
  H  H43  1  0.224000  0.911800  0.694700  1.0  0.134
  H  H44  1  0.208900  0.821900  0.495300  1.0  0.1202
  H  H45  1  0.194000  0.492300  0.510800  1.0  0.1226
  H  H46  1  0.724000  0.411800  0.194700  1.0  0.134
  H  H47  1  0.708900  0.321900  0.995300  1.0  0.1202
  H  H48  1  0.694000  0.992300  0.010800  1.0  0.1226
  H  H49  1  0.088200  0.776000  0.194700  1.0  0.1337
  H  H50  1  0.178100  0.791100  0.995300  1.0  0.1212
  H  H51  1  0.507700  0.806000  0.010800  1.0  0.122
  H  H52  1  0.588200  0.276000  0.694700  1.0  0.1337
  H  H53  1  0.678100  0.291100  0.495300  1.0  0.1212
  H  H54  1  0.007700  0.306000  0.510800  1.0  0.122
  H  H55  1  0.911800  0.224000  0.194700  1.0  0.1337
  H  H56  1  0.821900  0.208900  0.995300  1.0  0.1215
  H  H57  1  0.492300  0.194000  0.010800  1.0  0.1212
  H  H58  1  0.411800  0.724000  0.694700  1.0  0.1337
  H  H59  1  0.321900  0.708900  0.495300  1.0  0.1215
  H  H60  1  0.992300  0.694000  0.510800  1.0  0.1212
  H  H61  1  0.776000  0.911800  0.194700  1.0  0.1335
  H  H62  1  0.791100  0.821900  0.995300  1.0  0.1207
  H  H63  1  0.806000  0.492300  0.010800  1.0  0.1222
  H  H64  1  0.276000  0.411800  0.694700  1.0  0.1335
  H  H65  1  0.291100  0.321900  0.495300  1.0  0.1207
  H  H66  1  0.306000  0.992300  0.510800  1.0  0.1222
  H  H67  1  0.224000  0.088200  0.194700  1.0  0.1341
  H  H68  1  0.208900  0.178100  0.995300  1.0  0.1209
  H  H69  1  0.194000  0.507700  0.010800  1.0  0.122
  H  H70  1  0.724000  0.588200  0.694700  1.0  0.1341
  H  H71  1  0.708900  0.678100  0.495300  1.0  0.1209
  H  H72  1  0.694000  0.007700  0.510800  1.0  0.122
  C  C73  1  0.198900  0.178000  0.639200  1.0  0.7148
  C  C74  1  0.142700  0.212800  0.601700  1.0  -0.1317
  C  C75  1  0.480800  0.209100  0.653300  1.0  0.7438
  C  C76  1  0.090000  0.233700  0.644000  1.0  0.0308
  C  C77  1  0.143100  0.224200  0.523900  1.0  0.0238
  C  C78  1  0.539100  0.230400  0.610200  1.0  -0.1474
  C  C79  1  0.092800  0.257500  0.490400  1.0  -0.1384
  C  C80  1  0.541100  0.218300  0.533300  1.0  0.0298
  C  C81  1  0.091200  0.267900  0.407700  1.0  0.7022
  C  C82  1  0.698900  0.678000  0.139200  1.0  0.7148
  C  C83  1  0.642700  0.712800  0.101700  1.0  -0.1317
  C  C84  1  0.980800  0.709100  0.153300  1.0  0.7438
  C  C85  1  0.590000  0.733700  0.144000  1.0  0.0308
  C  C86  1  0.643100  0.724200  0.023900  1.0  0.0238
  C  C87  1  0.039100  0.730400  0.110200  1.0  -0.1474
  C  C88  1  0.592800  0.757500  0.990400  1.0  -0.1384
  C  C89  1  0.041100  0.718300  0.033300  1.0  0.0298
  C  C90  1  0.591200  0.767900  0.907700  1.0  0.7022
  C  C91  1  0.801100  0.822000  0.639200  1.0  0.7156
  C  C92  1  0.857300  0.787200  0.601700  1.0  -0.132
  C  C93  1  0.519200  0.790900  0.653300  1.0  0.7427
  C  C94  1  0.910000  0.766300  0.644000  1.0  0.0319
  C  C95  1  0.856900  0.775800  0.523900  1.0  0.0244
  C  C96  1  0.460900  0.769600  0.610200  1.0  -0.1479
  C  C97  1  0.907200  0.742500  0.490400  1.0  -0.1386
  C  C98  1  0.458900  0.781700  0.533300  1.0  0.0302
  C  C99  1  0.908800  0.732100  0.407700  1.0  0.7028
  C  C100  1  0.301100  0.322000  0.139200  1.0  0.7156
  C  C101  1  0.357300  0.287200  0.101700  1.0  -0.132
  C  C102  1  0.019200  0.290900  0.153300  1.0  0.7427
  C  C103  1  0.410000  0.266300  0.144000  1.0  0.0319
  C  C104  1  0.356900  0.275800  0.023900  1.0  0.0244
  C  C105  1  0.960900  0.269600  0.110200  1.0  -0.1479
  C  C106  1  0.407200  0.242500  0.990400  1.0  -0.1386
  C  C107  1  0.958900  0.281700  0.033300  1.0  0.0302
  C  C108  1  0.408800  0.232100  0.907700  1.0  0.7028
  C  C109  1  0.822000  0.198900  0.639200  1.0  0.7169
  C  C110  1  0.787200  0.142700  0.601700  1.0  -0.1325
  C  C111  1  0.790900  0.480800  0.653300  1.0  0.7452
  C  C112  1  0.766300  0.090000  0.644000  1.0  0.0317
  C  C113  1  0.775800  0.143100  0.523900  1.0  0.0269
  C  C114  1  0.769600  0.539100  0.610200  1.0  -0.1469
  C  C115  1  0.742500  0.092800  0.490400  1.0  -0.1387
  C  C116  1  0.781700  0.541100  0.533300  1.0  0.0292
  C  C117  1  0.732100  0.091200  0.407700  1.0  0.7011
  C  C118  1  0.322000  0.698900  0.139200  1.0  0.7169
  C  C119  1  0.287200  0.642700  0.101700  1.0  -0.1325
  C  C120  1  0.290900  0.980800  0.153300  1.0  0.7452
  C  C121  1  0.266300  0.590000  0.144000  1.0  0.0317
  C  C122  1  0.275800  0.643100  0.023900  1.0  0.0269
  C  C123  1  0.269600  0.039100  0.110200  1.0  -0.1469
  C  C124  1  0.242500  0.592800  0.990400  1.0  -0.1387
  C  C125  1  0.281700  0.041100  0.033300  1.0  0.0292
  C  C126  1  0.232100  0.591200  0.907700  1.0  0.7011
  C  C127  1  0.178000  0.801100  0.639200  1.0  0.7164
  C  C128  1  0.212800  0.857300  0.601700  1.0  -0.1321
  C  C129  1  0.209100  0.519200  0.653300  1.0  0.7442
  C  C130  1  0.233700  0.910000  0.644000  1.0  0.0314
  C  C131  1  0.224200  0.856900  0.523900  1.0  0.0276
  C  C132  1  0.230400  0.460900  0.610200  1.0  -0.1464
  C  C133  1  0.257500  0.907200  0.490400  1.0  -0.1381
  C  C134  1  0.218300  0.458900  0.533300  1.0  0.0283
  C  C135  1  0.267900  0.908800  0.407700  1.0  0.7016
  C  C136  1  0.678000  0.301100  0.139200  1.0  0.7164
  C  C137  1  0.712800  0.357300  0.101700  1.0  -0.1321
  C  C138  1  0.709100  0.019200  0.153300  1.0  0.7442
  C  C139  1  0.733700  0.410000  0.144000  1.0  0.0314
  C  C140  1  0.724200  0.356900  0.023900  1.0  0.0276
  C  C141  1  0.730400  0.960900  0.110200  1.0  -0.1464
  C  C142  1  0.757500  0.407200  0.990400  1.0  -0.1381
  C  C143  1  0.718300  0.958900  0.033300  1.0  0.0283
  C  C144  1  0.767900  0.408800  0.907700  1.0  0.7016
  C  C145  1  0.198900  0.822000  0.139200  1.0  0.7157
  C  C146  1  0.142700  0.787200  0.101700  1.0  -0.1317
  C  C147  1  0.480800  0.790900  0.153300  1.0  0.7267
  C  C148  1  0.090000  0.766300  0.144000  1.0  0.0307
  C  C149  1  0.143100  0.775800  0.023900  1.0  0.025
  C  C150  1  0.539100  0.769600  0.110200  1.0  -0.1472
  C  C151  1  0.092800  0.742500  0.990400  1.0  -0.1387
  C  C152  1  0.541100  0.781700  0.033300  1.0  0.03
  C  C153  1  0.091200  0.732100  0.907700  1.0  0.703
  C  C154  1  0.698900  0.322000  0.639200  1.0  0.7157
  C  C155  1  0.642700  0.287200  0.601700  1.0  -0.1317
  C  C156  1  0.980800  0.290900  0.653300  1.0  0.7267
  C  C157  1  0.590000  0.266300  0.644000  1.0  0.0307
  C  C158  1  0.643100  0.275800  0.523900  1.0  0.025
  C  C159  1  0.039100  0.269600  0.610200  1.0  -0.1472
  C  C160  1  0.592800  0.242500  0.490400  1.0  -0.1387
  C  C161  1  0.041100  0.281700  0.533300  1.0  0.03
  C  C162  1  0.591200  0.232100  0.407700  1.0  0.703
  C  C163  1  0.801100  0.178000  0.139200  1.0  0.7151
  C  C164  1  0.857300  0.212800  0.101700  1.0  -0.1326
  C  C165  1  0.519200  0.209100  0.153300  1.0  0.7267
  C  C166  1  0.910000  0.233700  0.144000  1.0  0.0316
  C  C167  1  0.856900  0.224200  0.023900  1.0  0.0239
  C  C168  1  0.460900  0.230400  0.110200  1.0  -0.1476
  C  C169  1  0.907200  0.257500  0.990400  1.0  -0.1385
  C  C170  1  0.458900  0.218300  0.033300  1.0  0.03
  C  C171  1  0.908800  0.267900  0.907700  1.0  0.7033
  C  C172  1  0.301100  0.678000  0.639200  1.0  0.7151
  C  C173  1  0.357300  0.712800  0.601700  1.0  -0.1326
  C  C174  1  0.019200  0.709100  0.653300  1.0  0.7267
  C  C175  1  0.410000  0.733700  0.644000  1.0  0.0316
  C  C176  1  0.356900  0.724200  0.523900  1.0  0.0239
  C  C177  1  0.960900  0.730400  0.610200  1.0  -0.1476
  C  C178  1  0.407200  0.757500  0.490400  1.0  -0.1385
  C  C179  1  0.958900  0.718300  0.533300  1.0  0.03
  C  C180  1  0.408800  0.767900  0.407700  1.0  0.7033
  C  C181  1  0.822000  0.801100  0.139200  1.0  0.7164
  C  C182  1  0.787200  0.857300  0.101700  1.0  -0.1325
  C  C183  1  0.790900  0.519200  0.153300  1.0  0.7284
  C  C184  1  0.766300  0.910000  0.144000  1.0  0.0322
  C  C185  1  0.775800  0.856900  0.023900  1.0  0.0279
  C  C186  1  0.769600  0.460900  0.110200  1.0  -0.1467
  C  C187  1  0.742500  0.907200  0.990400  1.0  -0.1378
  C  C188  1  0.781700  0.458900  0.033300  1.0  0.0284
  C  C189  1  0.732100  0.908800  0.907700  1.0  0.7021
  C  C190  1  0.322000  0.301100  0.639200  1.0  0.7164
  C  C191  1  0.287200  0.357300  0.601700  1.0  -0.1325
  C  C192  1  0.290900  0.019200  0.653300  1.0  0.7284
  C  C193  1  0.266300  0.410000  0.644000  1.0  0.0322
  C  C194  1  0.275800  0.356900  0.523900  1.0  0.0279
  C  C195  1  0.269600  0.960900  0.610200  1.0  -0.1467
  C  C196  1  0.242500  0.407200  0.490400  1.0  -0.1378
  C  C197  1  0.281700  0.958900  0.533300  1.0  0.0284
  C  C198  1  0.232100  0.408800  0.407700  1.0  0.7021
  C  C199  1  0.178000  0.198900  0.139200  1.0  0.7166
  C  C200  1  0.212800  0.142700  0.101700  1.0  -0.1319
  C  C201  1  0.209100  0.480800  0.153300  1.0  0.7276
  C  C202  1  0.233700  0.090000  0.144000  1.0  0.0311
  C  C203  1  0.224200  0.143100  0.023900  1.0  0.0267
  C  C204  1  0.230400  0.539100  0.110200  1.0  -0.1469
  C  C205  1  0.257500  0.092800  0.990400  1.0  -0.1387
  C  C206  1  0.218300  0.541100  0.033300  1.0  0.0295
  C  C207  1  0.267900  0.091200  0.907700  1.0  0.7014
  C  C208  1  0.678000  0.698900  0.639200  1.0  0.7166
  C  C209  1  0.712800  0.642700  0.601700  1.0  -0.1319
  C  C210  1  0.709100  0.980800  0.653300  1.0  0.7276
  C  C211  1  0.733700  0.590000  0.644000  1.0  0.0311
  C  C212  1  0.724200  0.643100  0.523900  1.0  0.0267
  C  C213  1  0.730400  0.039100  0.610200  1.0  -0.1469
  C  C214  1  0.757500  0.592800  0.490400  1.0  -0.1387
  C  C215  1  0.718300  0.041100  0.533300  1.0  0.0295
  C  C216  1  0.767900  0.591200  0.407700  1.0  0.7014
  O  O217  1  0.194100  0.172100  0.710100  1.0  -0.5506
  O  O218  1  0.257200  0.033100  0.711900  1.0  -0.5501
  O  O219  1  0.233000  0.130400  0.868600  1.0  -0.5861
  O  O220  1  0.245600  0.157000  0.599700  1.0  -0.5905
  O  O221  1  0.339700  0.051600  0.629600  1.0  -0.5934
  O  O222  1  0.052300  0.307800  0.380400  1.0  -0.5074
  O  O223  1  0.694100  0.672100  0.210100  1.0  -0.5506
  O  O224  1  0.757200  0.533100  0.211900  1.0  -0.5501
  O  O225  1  0.733000  0.630400  0.368600  1.0  -0.5861
  O  O226  1  0.745600  0.657000  0.099700  1.0  -0.5905
  O  O227  1  0.839700  0.551600  0.129600  1.0  -0.5934
  O  O228  1  0.552300  0.807800  0.880400  1.0  -0.5074
  O  O229  1  0.805900  0.827900  0.710100  1.0  -0.5505
  O  O230  1  0.742800  0.966900  0.711900  1.0  -0.5519
  O  O231  1  0.767000  0.869600  0.868600  1.0  -0.5859
  O  O232  1  0.754400  0.843000  0.599700  1.0  -0.5904
  O  O233  1  0.660300  0.948400  0.629600  1.0  -0.5934
  O  O234  1  0.947700  0.692200  0.380400  1.0  -0.507
  O  O235  1  0.305900  0.327900  0.210100  1.0  -0.5505
  O  O236  1  0.242800  0.466900  0.211900  1.0  -0.5519
  O  O237  1  0.267000  0.369600  0.368600  1.0  -0.5859
  O  O238  1  0.254400  0.343000  0.099700  1.0  -0.5904
  O  O239  1  0.160300  0.448400  0.129600  1.0  -0.5934
  O  O240  1  0.447700  0.192200  0.880400  1.0  -0.507
  O  O241  1  0.827900  0.194100  0.710100  1.0  -0.5509
  O  O242  1  0.966900  0.257200  0.711900  1.0  -0.5517
  O  O243  1  0.869600  0.233000  0.868600  1.0  -0.5841
  O  O244  1  0.843000  0.245600  0.599700  1.0  -0.5925
  O  O245  1  0.948400  0.339700  0.629600  1.0  -0.5928
  O  O246  1  0.692200  0.052300  0.380400  1.0  -0.5071
  O  O247  1  0.327900  0.694100  0.210100  1.0  -0.5509
  O  O248  1  0.466900  0.757200  0.211900  1.0  -0.5517
  O  O249  1  0.369600  0.733000  0.368600  1.0  -0.5841
  O  O250  1  0.343000  0.745600  0.099700  1.0  -0.5925
  O  O251  1  0.448400  0.839700  0.129600  1.0  -0.5928
  O  O252  1  0.192200  0.552300  0.880400  1.0  -0.5071
  O  O253  1  0.172100  0.805900  0.710100  1.0  -0.55
  O  O254  1  0.033100  0.742800  0.711900  1.0  -0.552
  O  O255  1  0.130400  0.767000  0.868600  1.0  -0.5869
  O  O256  1  0.157000  0.754400  0.599700  1.0  -0.5935
  O  O257  1  0.051600  0.660300  0.629600  1.0  -0.5925
  O  O258  1  0.307800  0.947700  0.380400  1.0  -0.5062
  O  O259  1  0.672100  0.305900  0.210100  1.0  -0.55
  O  O260  1  0.533100  0.242800  0.211900  1.0  -0.552
  O  O261  1  0.630400  0.267000  0.368600  1.0  -0.5869
  O  O262  1  0.657000  0.254400  0.099700  1.0  -0.5935
  O  O263  1  0.551600  0.160300  0.129600  1.0  -0.5925
  O  O264  1  0.807800  0.447700  0.880400  1.0  -0.5062
  O  O265  1  0.194100  0.827900  0.210100  1.0  -0.5507
  O  O266  1  0.257200  0.966900  0.211900  1.0  -0.5505
  O  O267  1  0.233000  0.869600  0.368600  1.0  -0.5848
  O  O268  1  0.245600  0.843000  0.099700  1.0  -0.5922
  O  O269  1  0.339700  0.948400  0.129600  1.0  -0.5938
  O  O270  1  0.052300  0.692200  0.880400  1.0  -0.5065
  O  O271  1  0.694100  0.327900  0.710100  1.0  -0.5507
  O  O272  1  0.757200  0.466900  0.711900  1.0  -0.5505
  O  O273  1  0.733000  0.369600  0.868600  1.0  -0.5848
  O  O274  1  0.745600  0.343000  0.599700  1.0  -0.5922
  O  O275  1  0.839700  0.448400  0.629600  1.0  -0.5938
  O  O276  1  0.552300  0.192200  0.380400  1.0  -0.5065
  O  O277  1  0.805900  0.172100  0.210100  1.0  -0.5504
  O  O278  1  0.742800  0.033100  0.211900  1.0  -0.5504
  O  O279  1  0.767000  0.130400  0.368600  1.0  -0.5875
  O  O280  1  0.754400  0.157000  0.099700  1.0  -0.5919
  O  O281  1  0.660300  0.051600  0.129600  1.0  -0.5931
  O  O282  1  0.947700  0.307800  0.880400  1.0  -0.5065
  O  O283  1  0.305900  0.672100  0.710100  1.0  -0.5504
  O  O284  1  0.242800  0.533100  0.711900  1.0  -0.5504
  O  O285  1  0.267000  0.630400  0.868600  1.0  -0.5875
  O  O286  1  0.254400  0.657000  0.599700  1.0  -0.5919
  O  O287  1  0.160300  0.551600  0.629600  1.0  -0.5931
  O  O288  1  0.447700  0.807800  0.380400  1.0  -0.5065
  O  O289  1  0.827900  0.805900  0.210100  1.0  -0.5485
  O  O290  1  0.966900  0.742800  0.211900  1.0  -0.551
  O  O291  1  0.869600  0.767000  0.368600  1.0  -0.5865
  O  O292  1  0.843000  0.754400  0.099700  1.0  -0.594
  O  O293  1  0.948400  0.660300  0.129600  1.0  -0.5922
  O  O294  1  0.692200  0.947700  0.880400  1.0  -0.5067
  O  O295  1  0.327900  0.305900  0.710100  1.0  -0.5485
  O  O296  1  0.466900  0.242800  0.711900  1.0  -0.551
  O  O297  1  0.369600  0.267000  0.868600  1.0  -0.5865
  O  O298  1  0.343000  0.254400  0.599700  1.0  -0.594
  O  O299  1  0.448400  0.160300  0.629600  1.0  -0.5922
  O  O300  1  0.192200  0.447700  0.380400  1.0  -0.5067
  O  O301  1  0.172100  0.194100  0.210100  1.0  -0.5519
  O  O302  1  0.033100  0.257200  0.211900  1.0  -0.551
  O  O303  1  0.130400  0.233000  0.368600  1.0  -0.5835
  O  O304  1  0.157000  0.245600  0.099700  1.0  -0.5951
  O  O305  1  0.051600  0.339700  0.129600  1.0  -0.5935
  O  O306  1  0.307800  0.052300  0.880400  1.0  -0.5062
  O  O307  1  0.672100  0.694100  0.710100  1.0  -0.5519
  O  O308  1  0.533100  0.757200  0.711900  1.0  -0.551
  O  O309  1  0.630400  0.733000  0.868600  1.0  -0.5835
  O  O310  1  0.657000  0.745600  0.599700  1.0  -0.5951
  O  O311  1  0.551600  0.839700  0.629600  1.0  -0.5935
  O  O312  1  0.807800  0.552300  0.380400  1.0  -0.5062
  O  O313  1  0.343700  0.156300  0.737000  1.0  -0.8031
  O  O314  1  0.656300  0.843700  0.737000  1.0  -0.8026
  O  O315  1  0.156300  0.343700  0.237000  1.0  -0.8026
  O  O316  1  0.843700  0.343700  0.737000  1.0  -0.802
  O  O317  1  0.156300  0.656300  0.737000  1.0  -0.8032
  O  O318  1  0.343700  0.843700  0.237000  1.0  -0.802
  O  O319  1  0.656300  0.156300  0.237000  1.0  -0.8032
  O  O320  1  0.843700  0.656300  0.237000  1.0  -0.8031
