# generated using pymatgen
data_Zn3H5C15O11
_symmetry_space_group_name_H-M   'P 1'
_cell_length_a   18.36800000
_cell_length_b   18.36800000
_cell_length_c   17.96400000
_cell_angle_alpha   90.00000000
_cell_angle_beta   90.00000000
_cell_angle_gamma   120.00000000
_symmetry_Int_Tables_number   1
_chemical_formula_structural   Zn3H5C15O11
_chemical_formula_sum   'Zn18 H30 C90 O66'
_cell_volume   5248.76851382
_cell_formula_units_Z   6
loop_
 _symmetry_equiv_pos_site_id
 _symmetry_equiv_pos_as_xyz
  1  'x, y, z'
loop_
 _atom_site_type_symbol
 _atom_site_label
 _atom_site_symmetry_multiplicity
 _atom_site_fract_x
 _atom_site_fract_y
 _atom_site_fract_z
 _atom_site_occupancy
 _atom_site_charge
  Zn  Zn1  1  0.243130  0.341570  0.670440  1.0  1.1059
  Zn  Zn2  1  0.658430  0.901560  0.670440  1.0  1.1077
  Zn  Zn3  1  0.098440  0.756870  0.670440  1.0  1.1049
  Zn  Zn4  1  0.756870  0.658430  0.170440  1.0  1.1058
  Zn  Zn5  1  0.341570  0.098440  0.170440  1.0  1.1076
  Zn  Zn6  1  0.901560  0.243130  0.170440  1.0  1.1057
  Zn  Zn7  1  0.658430  0.756870  0.170440  1.0  1.1057
  Zn  Zn8  1  0.098440  0.341570  0.170440  1.0  1.1054
  Zn  Zn9  1  0.243130  0.901560  0.170440  1.0  1.1079
  Zn  Zn10  1  0.341570  0.243130  0.670440  1.0  1.1049
  Zn  Zn11  1  0.901560  0.658430  0.670440  1.0  1.1061
  Zn  Zn12  1  0.756870  0.098440  0.670440  1.0  1.1074
  Zn  Zn13  1  0.349100  0.349100  0.828240  1.0  1.0462
  Zn  Zn14  1  0.650900  0.000000  0.828240  1.0  1.0376
  Zn  Zn15  1  0.000000  0.650900  0.828240  1.0  1.0469
  Zn  Zn16  1  0.650900  0.650900  0.328240  1.0  1.039
  Zn  Zn17  1  0.349100  0.000000  0.328240  1.0  1.0407
  Zn  Zn18  1  0.000000  0.349100  0.328240  1.0  1.0388
  H  H19  1  0.283000  0.127300  0.950700  1.0  0.1093
  H  H20  1  0.197600  0.552200  0.624700  1.0  0.1066
  H  H21  1  0.872700  0.155700  0.950700  1.0  0.1085
  H  H22  1  0.447800  0.645400  0.624700  1.0  0.1072
  H  H23  1  0.844300  0.717000  0.950700  1.0  0.1083
  H  H24  1  0.354600  0.802400  0.624700  1.0  0.1081
  H  H25  1  0.717000  0.872700  0.450700  1.0  0.1091
  H  H26  1  0.802400  0.447800  0.124700  1.0  0.1076
  H  H27  1  0.127300  0.844300  0.450700  1.0  0.1084
  H  H28  1  0.552200  0.354600  0.124700  1.0  0.1071
  H  H29  1  0.155700  0.283000  0.450700  1.0  0.1082
  H  H30  1  0.645400  0.197600  0.124700  1.0  0.1084
  H  H31  1  0.872700  0.717000  0.450700  1.0  0.1083
  H  H32  1  0.447800  0.802400  0.124700  1.0  0.1085
  H  H33  1  0.844300  0.127300  0.450700  1.0  0.1092
  H  H34  1  0.354600  0.552200  0.124700  1.0  0.1072
  H  H35  1  0.283000  0.155700  0.450700  1.0  0.1083
  H  H36  1  0.197600  0.645400  0.124700  1.0  0.107
  H  H37  1  0.127300  0.283000  0.950700  1.0  0.1085
  H  H38  1  0.552200  0.197600  0.624700  1.0  0.1082
  H  H39  1  0.155700  0.872700  0.950700  1.0  0.1091
  H  H40  1  0.645400  0.447800  0.624700  1.0  0.1073
  H  H41  1  0.717000  0.844300  0.950700  1.0  0.1084
  H  H42  1  0.802400  0.354600  0.624700  1.0  0.1076
  H  H43  1  0.189600  0.000000  0.759500  1.0  0.1132
  H  H44  1  0.000000  0.189600  0.759500  1.0  0.1133
  H  H45  1  0.810400  0.810400  0.759500  1.0  0.1132
  H  H46  1  0.810400  0.000000  0.259500  1.0  0.1128
  H  H47  1  0.000000  0.810400  0.259500  1.0  0.1132
  H  H48  1  0.189600  0.189600  0.259500  1.0  0.1133
  C  C49  1  0.279200  0.157400  0.806500  1.0  0.7378
  C  C50  1  0.241700  0.075900  0.849600  1.0  -0.1417
  C  C51  1  0.308600  0.499000  0.633000  1.0  0.6528
  C  C52  1  0.253700  0.076000  0.925000  1.0  1e-04
  C  C53  1  0.321600  0.585900  0.624400  1.0  -0.1432
  C  C54  1  0.252400  0.598700  0.624500  1.0  0.032
  C  C55  1  0.842600  0.121800  0.806500  1.0  0.7371
  C  C56  1  0.924100  0.165800  0.849600  1.0  -0.1425
  C  C57  1  0.501000  0.809600  0.633000  1.0  0.6524
  C  C58  1  0.924000  0.177700  0.925000  1.0  0.0005
  C  C59  1  0.414100  0.735700  0.624400  1.0  -0.1444
  C  C60  1  0.401300  0.653700  0.624500  1.0  0.032
  C  C61  1  0.878200  0.720800  0.806500  1.0  0.7372
  C  C62  1  0.834200  0.758300  0.849600  1.0  -0.1424
  C  C63  1  0.190400  0.691400  0.633000  1.0  0.651
  C  C64  1  0.822300  0.746300  0.925000  1.0  0.0011
  C  C65  1  0.264300  0.678400  0.624400  1.0  -0.1425
  C  C66  1  0.346300  0.747600  0.624500  1.0  0.0317
  C  C67  1  0.720800  0.842600  0.306500  1.0  0.737
  C  C68  1  0.758300  0.924100  0.349600  1.0  -0.1424
  C  C69  1  0.691400  0.501000  0.133000  1.0  0.6521
  C  C70  1  0.746300  0.924000  0.425000  1.0  0.0014
  C  C71  1  0.678400  0.414100  0.124400  1.0  -0.1428
  C  C72  1  0.747600  0.401300  0.124500  1.0  0.0323
  C  C73  1  0.157400  0.878200  0.306500  1.0  0.7383
  C  C74  1  0.075900  0.834200  0.349600  1.0  -0.1424
  C  C75  1  0.499000  0.190400  0.133000  1.0  0.6535
  C  C76  1  0.076000  0.822300  0.425000  1.0  0.0003
  C  C77  1  0.585900  0.264300  0.124400  1.0  -0.1433
  C  C78  1  0.598700  0.346300  0.124500  1.0  0.0307
  C  C79  1  0.121800  0.279200  0.306500  1.0  0.7379
  C  C80  1  0.165800  0.241700  0.349600  1.0  -0.1421
  C  C81  1  0.809600  0.308600  0.133000  1.0  0.651
  C  C82  1  0.177700  0.253700  0.425000  1.0  0.0006
  C  C83  1  0.735700  0.321600  0.124400  1.0  -0.1434
  C  C84  1  0.653700  0.252400  0.124500  1.0  0.0327
  C  C85  1  0.842600  0.720800  0.306500  1.0  0.7378
  C  C86  1  0.924100  0.758300  0.349600  1.0  -0.1423
  C  C87  1  0.501000  0.691400  0.133000  1.0  0.6528
  C  C88  1  0.924000  0.746300  0.425000  1.0  0.001
  C  C89  1  0.414100  0.678400  0.124400  1.0  -0.1436
  C  C90  1  0.401300  0.747600  0.124500  1.0  0.0325
  C  C91  1  0.878200  0.157400  0.306500  1.0  0.7374
  C  C92  1  0.834200  0.075900  0.349600  1.0  -0.1422
  C  C93  1  0.190400  0.499000  0.133000  1.0  0.6532
  C  C94  1  0.822300  0.076000  0.425000  1.0  1e-04
  C  C95  1  0.264300  0.585900  0.124400  1.0  -0.1432
  C  C96  1  0.346300  0.598700  0.124500  1.0  0.0326
  C  C97  1  0.279200  0.121800  0.306500  1.0  0.7377
  C  C98  1  0.241700  0.165800  0.349600  1.0  -0.1424
  C  C99  1  0.308600  0.809600  0.133000  1.0  0.6508
  C  C100  1  0.253700  0.177700  0.425000  1.0  0.0004
  C  C101  1  0.321600  0.735700  0.124400  1.0  -0.143
  C  C102  1  0.252400  0.653700  0.124500  1.0  0.0307
  C  C103  1  0.157400  0.279200  0.806500  1.0  0.7372
  C  C104  1  0.075900  0.241700  0.849600  1.0  -0.1423
  C  C105  1  0.499000  0.308600  0.633000  1.0  0.6525
  C  C106  1  0.076000  0.253700  0.925000  1.0  0.0009
  C  C107  1  0.585900  0.321600  0.624400  1.0  -0.1425
  C  C108  1  0.598700  0.252400  0.624500  1.0  0.0314
  C  C109  1  0.121800  0.842600  0.806500  1.0  0.7376
  C  C110  1  0.165800  0.924100  0.849600  1.0  -0.142
  C  C111  1  0.809600  0.501000  0.633000  1.0  0.6519
  C  C112  1  0.177700  0.924000  0.925000  1.0  0.0009
  C  C113  1  0.735700  0.414100  0.624400  1.0  -0.1434
  C  C114  1  0.653700  0.401300  0.624500  1.0  0.0318
  C  C115  1  0.720800  0.878200  0.806500  1.0  0.7375
  C  C116  1  0.758300  0.834200  0.849600  1.0  -0.1425
  C  C117  1  0.691400  0.190400  0.633000  1.0  0.6512
  C  C118  1  0.746300  0.822300  0.925000  1.0  0.0004
  C  C119  1  0.678400  0.264300  0.624400  1.0  -0.144
  C  C120  1  0.747600  0.346300  0.624500  1.0  0.0321
  C  C121  1  0.239100  0.239100  0.545200  1.0  0.7435
  C  C122  1  0.222400  0.222400  0.464200  1.0  -0.1776
  C  C123  1  0.760900  0.000000  0.545200  1.0  0.7439
  C  C124  1  0.777600  0.000000  0.464200  1.0  -0.1777
  C  C125  1  0.000000  0.760900  0.545200  1.0  0.7428
  C  C126  1  0.000000  0.777600  0.464200  1.0  -0.1776
  C  C127  1  0.760900  0.760900  0.045200  1.0  0.7431
  C  C128  1  0.777600  0.777600  0.964200  1.0  -0.1775
  C  C129  1  0.239100  0.000000  0.045200  1.0  0.7434
  C  C130  1  0.222400  0.000000  0.964200  1.0  -0.1776
  C  C131  1  0.000000  0.239100  0.045200  1.0  0.7437
  C  C132  1  0.000000  0.222400  0.964200  1.0  -0.1775
  C  C133  1  0.197700  0.000000  0.811100  1.0  0.0347
  C  C134  1  0.000000  0.197700  0.811100  1.0  0.0354
  C  C135  1  0.802300  0.802300  0.811100  1.0  0.0347
  C  C136  1  0.802300  0.000000  0.311100  1.0  0.0346
  C  C137  1  0.000000  0.802300  0.311100  1.0  0.0347
  C  C138  1  0.197700  0.197700  0.311100  1.0  0.0355
  O  O139  1  0.317600  0.224300  0.842600  1.0  -0.6494
  O  O140  1  0.211900  0.281900  0.575500  1.0  -0.5894
  O  O141  1  0.236500  0.442000  0.654800  1.0  -0.5792
  O  O142  1  0.151600  0.271300  0.737300  1.0  -0.5688
  O  O143  1  0.368100  0.486000  0.621400  1.0  -0.5347
  O  O144  1  0.775700  0.093300  0.842600  1.0  -0.6472
  O  O145  1  0.718100  0.930000  0.575500  1.0  -0.5899
  O  O146  1  0.558000  0.794500  0.654800  1.0  -0.5787
  O  O147  1  0.728700  0.880300  0.737300  1.0  -0.5674
  O  O148  1  0.514000  0.882100  0.621400  1.0  -0.5334
  O  O149  1  0.906700  0.682400  0.842600  1.0  -0.6482
  O  O150  1  0.070000  0.788100  0.575500  1.0  -0.5907
  O  O151  1  0.205500  0.763500  0.654800  1.0  -0.5798
  O  O152  1  0.119700  0.848400  0.737300  1.0  -0.5685
  O  O153  1  0.117900  0.631900  0.621400  1.0  -0.533
  O  O154  1  0.682400  0.775700  0.342600  1.0  -0.6484
  O  O155  1  0.788100  0.718100  0.075500  1.0  -0.5898
  O  O156  1  0.763500  0.558000  0.154800  1.0  -0.5789
  O  O157  1  0.848400  0.728700  0.237300  1.0  -0.5676
  O  O158  1  0.631900  0.514000  0.121400  1.0  -0.534
  O  O159  1  0.224300  0.906700  0.342600  1.0  -0.6483
  O  O160  1  0.281900  0.070000  0.075500  1.0  -0.5915
  O  O161  1  0.442000  0.205500  0.154800  1.0  -0.5799
  O  O162  1  0.271300  0.119700  0.237300  1.0  -0.5679
  O  O163  1  0.486000  0.117900  0.121400  1.0  -0.5339
  O  O164  1  0.093300  0.317600  0.342600  1.0  -0.6487
  O  O165  1  0.930000  0.211900  0.075500  1.0  -0.5901
  O  O166  1  0.794500  0.236500  0.154800  1.0  -0.5801
  O  O167  1  0.880300  0.151600  0.237300  1.0  -0.5683
  O  O168  1  0.882100  0.368100  0.121400  1.0  -0.5339
  O  O169  1  0.775700  0.682400  0.342600  1.0  -0.6478
  O  O170  1  0.718100  0.788100  0.075500  1.0  -0.5911
  O  O171  1  0.558000  0.763500  0.154800  1.0  -0.5812
  O  O172  1  0.728700  0.848400  0.237300  1.0  -0.5681
  O  O173  1  0.514000  0.631900  0.121400  1.0  -0.5338
  O  O174  1  0.906700  0.224300  0.342600  1.0  -0.6495
  O  O175  1  0.070000  0.281900  0.075500  1.0  -0.5895
  O  O176  1  0.205500  0.442000  0.154800  1.0  -0.5784
  O  O177  1  0.119700  0.271300  0.237300  1.0  -0.568
  O  O178  1  0.117900  0.486000  0.121400  1.0  -0.5345
  O  O179  1  0.317600  0.093300  0.342600  1.0  -0.648
  O  O180  1  0.211900  0.930000  0.075500  1.0  -0.5907
  O  O181  1  0.236500  0.794500  0.154800  1.0  -0.5798
  O  O182  1  0.151600  0.880300  0.237300  1.0  -0.5679
  O  O183  1  0.368100  0.882100  0.121400  1.0  -0.5325
  O  O184  1  0.224300  0.317600  0.842600  1.0  -0.6494
  O  O185  1  0.281900  0.211900  0.575500  1.0  -0.5899
  O  O186  1  0.442000  0.236500  0.654800  1.0  -0.5798
  O  O187  1  0.271300  0.151600  0.737300  1.0  -0.5686
  O  O188  1  0.486000  0.368100  0.621400  1.0  -0.5322
  O  O189  1  0.093300  0.775700  0.842600  1.0  -0.6488
  O  O190  1  0.930000  0.718100  0.575500  1.0  -0.5896
  O  O191  1  0.794500  0.558000  0.654800  1.0  -0.5795
  O  O192  1  0.880300  0.728700  0.737300  1.0  -0.5684
  O  O193  1  0.882100  0.514000  0.621400  1.0  -0.5346
  O  O194  1  0.682400  0.906700  0.842600  1.0  -0.6474
  O  O195  1  0.788100  0.070000  0.575500  1.0  -0.5912
  O  O196  1  0.763500  0.205500  0.654800  1.0  -0.5789
  O  O197  1  0.848400  0.119700  0.737300  1.0  -0.5674
  O  O198  1  0.631900  0.117900  0.621400  1.0  -0.5338
  O  O199  1  0.343500  0.343500  0.712700  1.0  -0.8348
  O  O200  1  0.656500  0.000000  0.712700  1.0  -0.8337
  O  O201  1  0.000000  0.656500  0.712700  1.0  -0.8326
  O  O202  1  0.656500  0.656500  0.212700  1.0  -0.8328
  O  O203  1  0.343500  0.000000  0.212700  1.0  -0.8334
  O  O204  1  0.000000  0.343500  0.212700  1.0  -0.8344
