# generated using pymatgen
data_Cu3MoH16C20S3N4Cl
_symmetry_space_group_name_H-M   'P 1'
_cell_length_a   19.57000000
_cell_length_b   19.57000000
_cell_length_c   31.88520000
_cell_angle_alpha   105.20400000
_cell_angle_beta   105.20400000
_cell_angle_gamma   98.36040000
_symmetry_Int_Tables_number   1
_chemical_formula_structural   Cu3MoH16C20S3N4Cl
_chemical_formula_sum   'Cu24 Mo8 H128 C160 S24 N32 Cl8'
_cell_volume   11066.80026952
_cell_formula_units_Z   8
loop_
 _symmetry_equiv_pos_site_id
 _symmetry_equiv_pos_as_xyz
  1  'x, y, z'
loop_
 _atom_site_type_symbol
 _atom_site_label
 _atom_site_symmetry_multiplicity
 _atom_site_fract_x
 _atom_site_fract_y
 _atom_site_fract_z
 _atom_site_occupancy
 _atom_site_charge
  Cu  Cu1  1  0.140860  0.714380  0.918420  1.0  0.3303
  Cu  Cu2  1  0.262150  0.633170  0.985820  1.0  0.3289
  Cu  Cu3  1  0.231180  0.815120  0.037600  1.0  0.3119
  Cu  Cu4  1  0.795960  0.722440  0.581580  1.0  0.3295
  Cu  Cu5  1  0.647350  0.776330  0.514180  1.0  0.3313
  Cu  Cu6  1  0.777520  0.693580  0.462400  1.0  0.311
  Cu  Cu7  1  0.859140  0.285620  0.081580  1.0  0.3309
  Cu  Cu8  1  0.737850  0.366830  0.014180  1.0  0.3293
  Cu  Cu9  1  0.768820  0.184880  0.962400  1.0  0.3106
  Cu  Cu10  1  0.204040  0.277560  0.418420  1.0  0.3292
  Cu  Cu11  1  0.352650  0.223670  0.485820  1.0  0.3315
  Cu  Cu12  1  0.222480  0.306420  0.537600  1.0  0.3142
  Cu  Cu13  1  0.777560  0.704040  0.918420  1.0  0.3304
  Cu  Cu14  1  0.723670  0.852650  0.985820  1.0  0.3293
  Cu  Cu15  1  0.806420  0.722480  0.037600  1.0  0.3135
  Cu  Cu16  1  0.785620  0.359140  0.581580  1.0  0.3297
  Cu  Cu17  1  0.866830  0.237850  0.514180  1.0  0.3317
  Cu  Cu18  1  0.684880  0.268820  0.462400  1.0  0.3111
  Cu  Cu19  1  0.222440  0.295960  0.081580  1.0  0.331
  Cu  Cu20  1  0.276330  0.147350  0.014180  1.0  0.33
  Cu  Cu21  1  0.193580  0.277520  0.962400  1.0  0.3119
  Cu  Cu22  1  0.214380  0.640860  0.418420  1.0  0.3303
  Cu  Cu23  1  0.133170  0.762150  0.485820  1.0  0.3299
  Cu  Cu24  1  0.315120  0.731180  0.537600  1.0  0.3129
  Mo  Mo25  1  0.280700  0.760140  0.969240  1.0  0.5202
  Mo  Mo26  1  0.790900  0.811460  0.530760  1.0  0.5187
  Mo  Mo27  1  0.719300  0.239860  0.030760  1.0  0.5192
  Mo  Mo28  1  0.209100  0.188540  0.469240  1.0  0.5182
  Mo  Mo29  1  0.688540  0.709100  0.969240  1.0  0.5186
  Mo  Mo30  1  0.739860  0.219300  0.530760  1.0  0.5185
  Mo  Mo31  1  0.311460  0.290900  0.030760  1.0  0.5203
  Mo  Mo32  1  0.260140  0.780700  0.469240  1.0  0.5198
  H  H33  1  0.407800  0.453000  0.021200  1.0  0.1103
  H  H34  1  0.314600  0.505600  0.015600  1.0  0.0896
  H  H35  1  0.501000  0.592200  0.973600  1.0  0.1015
  H  H36  1  0.402300  0.645100  0.969600  1.0  0.0802
  H  H37  1  0.076800  0.414000  0.961800  1.0  0.1082
  H  H38  1  0.153000  0.488400  0.943600  1.0  0.0772
  H  H39  1  0.075000  0.723800  0.999800  1.0  0.0655
  H  H40  1  0.051600  0.501000  0.098600  1.0  0.1156
  H  H41  1  0.009900  0.344500  0.981000  1.0  0.1207
  H  H42  1  0.025500  0.573700  0.881400  1.0  0.0881
  H  H43  1  0.201000  0.633000  0.061200  1.0  0.0675
  H  H44  1  0.115000  0.647400  0.819400  1.0  0.0675
  H  H45  1  0.017300  0.772900  0.879200  1.0  0.0639
  H  H46  1  0.126600  0.561400  0.084400  1.0  0.1228
  H  H47  1  0.948100  0.774500  0.812000  1.0  0.0712
  H  H48  1  0.046200  0.647200  0.751000  1.0  0.1202
  H  H49  1  0.431800  0.886600  0.478800  1.0  0.1088
  H  H50  1  0.490000  0.799000  0.484400  1.0  0.0887
  H  H51  1  0.618600  0.027400  0.526400  1.0  0.1004
  H  H52  1  0.675500  0.932700  0.530400  1.0  0.0791
  H  H53  1  0.452200  0.615000  0.538200  1.0  0.1085
  H  H54  1  0.544800  0.709400  0.556400  1.0  0.0779
  H  H55  1  0.724000  0.575200  0.500200  1.0  0.0654
  H  H56  1  0.402400  0.453000  0.401400  1.0  0.114
  H  H57  1  0.363500  0.528900  0.519000  1.0  0.1192
  H  H58  1  0.692300  0.644100  0.618600  1.0  0.0875
  H  H59  1  0.571800  0.639800  0.438800  1.0  0.0686
  H  H60  1  0.828000  0.795600  0.680600  1.0  0.0674
  H  H61  1  0.893700  0.638100  0.620800  1.0  0.0646
  H  H62  1  0.477000  0.542200  0.415600  1.0  0.123
  H  H63  1  0.962500  0.636100  0.688000  1.0  0.0711
  H  H64  1  0.896200  0.795200  0.749000  1.0  0.1193
  H  H65  1  0.592200  0.547000  0.978800  1.0  0.1107
  H  H66  1  0.685400  0.494400  0.984400  1.0  0.0897
  H  H67  1  0.499000  0.407800  0.026400  1.0  0.101
  H  H68  1  0.597700  0.354900  0.030400  1.0  0.0793
  H  H69  1  0.923200  0.586000  0.038200  1.0  0.1082
  H  H70  1  0.847000  0.511600  0.056400  1.0  0.0777
  H  H71  1  0.925000  0.276200  0.000200  1.0  0.0661
  H  H72  1  0.948400  0.499000  0.901400  1.0  0.1161
  H  H73  1  0.990100  0.655500  0.019000  1.0  0.1194
  H  H74  1  0.974500  0.426300  0.118600  1.0  0.0878
  H  H75  1  0.799000  0.367000  0.938800  1.0  0.0665
  H  H76  1  0.885000  0.352600  0.180600  1.0  0.0697
  H  H77  1  0.982700  0.227100  0.120800  1.0  0.0654
  H  H78  1  0.873400  0.438600  0.915600  1.0  0.1233
  H  H79  1  0.051900  0.225500  0.188000  1.0  0.0716
  H  H80  1  0.953800  0.352800  0.249000  1.0  0.121
  H  H81  1  0.568200  0.113400  0.521200  1.0  0.1088
  H  H82  1  0.510000  0.201000  0.515600  1.0  0.089
  H  H83  1  0.381400  0.972600  0.473600  1.0  0.1013
  H  H84  1  0.324500  0.067300  0.469600  1.0  0.0803
  H  H85  1  0.547800  0.385000  0.461800  1.0  0.1081
  H  H86  1  0.455200  0.290600  0.443600  1.0  0.0768
  H  H87  1  0.276000  0.424800  0.499800  1.0  0.0649
  H  H88  1  0.597600  0.547000  0.598600  1.0  0.1135
  H  H89  1  0.636500  0.471100  0.481000  1.0  0.1195
  H  H90  1  0.307700  0.355900  0.381400  1.0  0.0875
  H  H91  1  0.428200  0.360200  0.561200  1.0  0.0685
  H  H92  1  0.172000  0.204400  0.319400  1.0  0.0657
  H  H93  1  0.106300  0.361900  0.379200  1.0  0.0644
  H  H94  1  0.523000  0.457800  0.584400  1.0  0.1237
  H  H95  1  0.037500  0.363900  0.312000  1.0  0.0701
  H  H96  1  0.103800  0.204800  0.251000  1.0  0.1203
  H  H97  1  0.613400  0.068200  0.021200  1.0  0.1084
  H  H98  1  0.701000  0.010000  0.015600  1.0  0.0886
  H  H99  1  0.472600  0.881400  0.973600  1.0  0.1008
  H  H100  1  0.567300  0.824500  0.969600  1.0  0.0799
  H  H101  1  0.885000  0.047800  0.961800  1.0  0.1077
  H  H102  1  0.790600  0.955200  0.943600  1.0  0.0777
  H  H103  1  0.924800  0.776000  0.999800  1.0  0.0647
  H  H104  1  0.047000  0.097600  0.098600  1.0  0.1126
  H  H105  1  0.971100  0.136500  0.981000  1.0  0.1186
  H  H106  1  0.855900  0.807700  0.881400  1.0  0.0875
  H  H107  1  0.860200  0.928200  0.061200  1.0  0.0681
  H  H108  1  0.704400  0.672000  0.819400  1.0  0.068
  H  H109  1  0.861900  0.606300  0.879200  1.0  0.0643
  H  H110  1  0.957800  0.023000  0.084400  1.0  0.1232
  H  H111  1  0.863900  0.537500  0.812000  1.0  0.0718
  H  H112  1  0.704800  0.603800  0.751000  1.0  0.1195
  H  H113  1  0.047000  0.092200  0.478800  1.0  0.1095
  H  H114  1  0.994400  0.185400  0.484400  1.0  0.0896
  H  H115  1  0.907800  0.999000  0.526400  1.0  0.1006
  H  H116  1  0.854900  0.097700  0.530400  1.0  0.0807
  H  H117  1  0.086000  0.423200  0.538200  1.0  0.1079
  H  H118  1  0.011600  0.347000  0.556400  1.0  0.0771
  H  H119  1  0.776200  0.425000  0.500200  1.0  0.0655
  H  H120  1  0.999000  0.448400  0.401400  1.0  0.1099
  H  H121  1  0.155500  0.490100  0.519000  1.0  0.1188
  H  H122  1  0.926300  0.474500  0.618600  1.0  0.0871
  H  H123  1  0.867000  0.299000  0.438800  1.0  0.0677
  H  H124  1  0.852600  0.385000  0.680600  1.0  0.0673
  H  H125  1  0.727100  0.482700  0.620800  1.0  0.0655
  H  H126  1  0.938600  0.373400  0.415600  1.0  0.122
  H  H127  1  0.725500  0.551900  0.688000  1.0  0.0704
  H  H128  1  0.852800  0.453800  0.749000  1.0  0.1216
  H  H129  1  0.386600  0.931800  0.978800  1.0  0.1098
  H  H130  1  0.299000  0.990000  0.984400  1.0  0.0887
  H  H131  1  0.527400  0.118600  0.026400  1.0  0.1001
  H  H132  1  0.432700  0.175500  0.030400  1.0  0.078
  H  H133  1  0.115000  0.952200  0.038200  1.0  0.1071
  H  H134  1  0.209400  0.044800  0.056400  1.0  0.0782
  H  H135  1  0.075200  0.224000  0.000200  1.0  0.0649
  H  H136  1  0.953000  0.902400  0.901400  1.0  0.1131
  H  H137  1  0.028900  0.863500  0.019000  1.0  0.1199
  H  H138  1  0.144100  0.192300  0.118600  1.0  0.088
  H  H139  1  0.139800  0.071800  0.938800  1.0  0.0676
  H  H140  1  0.295600  0.328000  0.180600  1.0  0.0666
  H  H141  1  0.138100  0.393700  0.120800  1.0  0.0642
  H  H142  1  0.042200  0.977000  0.915600  1.0  0.1226
  H  H143  1  0.136100  0.462500  0.188000  1.0  0.0723
  H  H144  1  0.295200  0.396200  0.249000  1.0  0.1197
  H  H145  1  0.953000  0.907800  0.521200  1.0  0.1101
  H  H146  1  0.005600  0.814600  0.515600  1.0  0.0896
  H  H147  1  0.092200  0.001000  0.473600  1.0  0.1003
  H  H148  1  0.145100  0.902300  0.469600  1.0  0.0802
  H  H149  1  0.914000  0.576800  0.461800  1.0  0.1063
  H  H150  1  0.988400  0.653000  0.443600  1.0  0.0774
  H  H151  1  0.223800  0.575000  0.499800  1.0  0.0646
  H  H152  1  0.001000  0.551600  0.598600  1.0  0.1118
  H  H153  1  0.844500  0.509900  0.481000  1.0  0.1189
  H  H154  1  0.073700  0.525500  0.381400  1.0  0.087
  H  H155  1  0.133000  0.701000  0.561200  1.0  0.0693
  H  H156  1  0.147400  0.615000  0.319400  1.0  0.0674
  H  H157  1  0.272900  0.517300  0.379200  1.0  0.0648
  H  H158  1  0.061400  0.626600  0.584400  1.0  0.1238
  H  H159  1  0.274500  0.448100  0.312000  1.0  0.0713
  H  H160  1  0.147200  0.546200  0.251000  1.0  0.1204
  C  C161  1  0.408200  0.491800  0.009400  1.0  -0.1914
  C  C162  1  0.465900  0.514900  0.996600  1.0  0.0492
  C  C163  1  0.352500  0.523500  0.006000  1.0  0.1697
  C  C164  1  0.462500  0.572500  0.982000  1.0  -0.1559
  C  C165  1  0.402000  0.604200  0.979200  1.0  0.1024
  C  C166  1  0.038600  0.429800  0.038000  1.0  0.0123
  C  C167  1  0.089900  0.477100  0.025000  1.0  0.0827
  C  C168  1  0.101800  0.459000  0.983400  1.0  -0.1943
  C  C169  1  0.988900  0.716100  0.773800  1.0  0.1427
  C  C170  1  0.147800  0.503800  0.972600  1.0  0.1696
  C  C171  1  0.048300  0.679100  0.978600  1.0  0.1666
  C  C172  1  0.027700  0.454700  0.078800  1.0  -0.2272
  C  C173  1  0.001700  0.362300  0.008800  1.0  -0.1965
  C  C174  1  0.020000  0.590400  0.910200  1.0  0.1536
  C  C175  1  0.175700  0.587300  0.041000  1.0  0.1572
  C  C176  1  0.081500  0.676500  0.819000  1.0  0.1786
  C  C177  1  0.026200  0.747600  0.852800  1.0  0.1617
  C  C178  1  0.130400  0.545200  0.055200  1.0  -0.2347
  C  C179  1  0.983900  0.748100  0.811800  1.0  -0.1164
  C  C180  1  0.039800  0.675800  0.777400  1.0  -0.2097
  C  C181  1  0.482400  0.898800  0.490600  1.0  -0.194
  C  C182  1  0.518300  0.969300  0.503400  1.0  0.0495
  C  C183  1  0.517500  0.846500  0.494000  1.0  0.1681
  C  C184  1  0.590500  0.980500  0.518000  1.0  -0.1561
  C  C185  1  0.625000  0.922800  0.520800  1.0  0.1074
  C  C186  1  0.391800  0.500600  0.462000  1.0  0.0138
  C  C187  1  0.452100  0.564900  0.475000  1.0  0.0843
  C  C188  1  0.475600  0.618400  0.516600  1.0  -0.1945
  C  C189  1  0.942300  0.715100  0.726200  1.0  0.1409
  C  C190  1  0.531200  0.675200  0.527400  1.0  0.1677
  C  C191  1  0.700500  0.569700  0.521400  1.0  0.1668
  C  C192  1  0.375900  0.448900  0.421200  1.0  -0.2289
  C  C193  1  0.353500  0.492900  0.491200  1.0  -0.1974
  C  C194  1  0.680200  0.609800  0.589800  1.0  0.1505
  C  C195  1  0.546300  0.634700  0.459000  1.0  0.1609
  C  C196  1  0.857500  0.762500  0.681000  1.0  0.1807
  C  C197  1  0.894800  0.673400  0.647200  1.0  0.1548
  C  C198  1  0.490000  0.575200  0.444800  1.0  -0.2317
  C  C199  1  0.936300  0.672100  0.688200  1.0  -0.1106
  C  C200  1  0.898400  0.762400  0.722600  1.0  -0.2022
  C  C201  1  0.591800  0.508200  0.990600  1.0  -0.1932
  C  C202  1  0.534100  0.485100  0.003400  1.0  0.0467
  C  C203  1  0.647500  0.476500  0.994000  1.0  0.1697
  C  C204  1  0.537500  0.427500  0.018000  1.0  -0.1549
  C  C205  1  0.598000  0.395800  0.020800  1.0  0.1035
  C  C206  1  0.961400  0.570200  0.962000  1.0  0.0111
  C  C207  1  0.910100  0.522900  0.975000  1.0  0.0831
  C  C208  1  0.898200  0.541000  0.016600  1.0  -0.1971
  C  C209  1  0.011100  0.283900  0.226200  1.0  0.1409
  C  C210  1  0.852200  0.496200  0.027400  1.0  0.1687
  C  C211  1  0.951700  0.320900  0.021400  1.0  0.1655
  C  C212  1  0.972300  0.545300  0.921200  1.0  -0.2254
  C  C213  1  0.998300  0.637700  0.991200  1.0  -0.1976
  C  C214  1  0.980000  0.409600  0.089800  1.0  0.1516
  C  C215  1  0.824300  0.412700  0.959000  1.0  0.1557
  C  C216  1  0.918500  0.323500  0.181000  1.0  0.179
  C  C217  1  0.973800  0.252400  0.147200  1.0  0.1592
  C  C218  1  0.869600  0.454800  0.944800  1.0  -0.2326
  C  C219  1  0.016100  0.251900  0.188200  1.0  -0.1175
  C  C220  1  0.960200  0.324200  0.222600  1.0  -0.2093
  C  C221  1  0.517600  0.101200  0.509400  1.0  -0.1917
  C  C222  1  0.481700  0.030700  0.496600  1.0  0.0506
  C  C223  1  0.482500  0.153500  0.506000  1.0  0.1682
  C  C224  1  0.409500  0.019500  0.482000  1.0  -0.1536
  C  C225  1  0.375000  0.077200  0.479200  1.0  0.1068
  C  C226  1  0.608200  0.499400  0.538000  1.0  0.0136
  C  C227  1  0.547900  0.435100  0.525000  1.0  0.0823
  C  C228  1  0.524400  0.381600  0.483400  1.0  -0.1958
  C  C229  1  0.057700  0.284900  0.273800  1.0  0.1408
  C  C230  1  0.468800  0.324800  0.472600  1.0  0.1682
  C  C231  1  0.299500  0.430300  0.478600  1.0  0.1667
  C  C232  1  0.624100  0.551100  0.578800  1.0  -0.2242
  C  C233  1  0.646500  0.507100  0.508800  1.0  -0.1987
  C  C234  1  0.319800  0.390200  0.410200  1.0  0.1516
  C  C235  1  0.453700  0.365300  0.541000  1.0  0.1579
  C  C236  1  0.142500  0.237500  0.319000  1.0  0.1755
  C  C237  1  0.105200  0.326600  0.352800  1.0  0.1577
  C  C238  1  0.510000  0.424800  0.555200  1.0  -0.229
  C  C239  1  0.063700  0.327900  0.311800  1.0  -0.1119
  C  C240  1  0.101600  0.237600  0.277400  1.0  -0.2086
  C  C241  1  0.601200  0.017600  0.009400  1.0  -0.1936
  C  C242  1  0.530700  0.981700  0.996600  1.0  0.0491
  C  C243  1  0.653500  0.982500  0.006000  1.0  0.1696
  C  C244  1  0.519500  0.909500  0.982000  1.0  -0.1548
  C  C245  1  0.577200  0.875000  0.979200  1.0  0.1051
  C  C246  1  0.999400  0.108200  0.038000  1.0  0.011
  C  C247  1  0.935100  0.047900  0.025000  1.0  0.0838
  C  C248  1  0.881600  0.024400  0.983400  1.0  -0.1937
  C  C249  1  0.784900  0.557700  0.773800  1.0  0.1405
  C  C250  1  0.824800  0.968800  0.972600  1.0  0.1686
  C  C251  1  0.930300  0.799500  0.978600  1.0  0.1662
  C  C252  1  0.051100  0.124100  0.078800  1.0  -0.225
  C  C253  1  0.007100  0.146500  0.008800  1.0  -0.1992
  C  C254  1  0.890200  0.819800  0.910200  1.0  0.1534
  C  C255  1  0.865300  0.953700  0.041000  1.0  0.1578
  C  C256  1  0.737500  0.642500  0.819000  1.0  0.1769
  C  C257  1  0.826600  0.605200  0.852800  1.0  0.1585
  C  C258  1  0.924800  0.010000  0.055200  1.0  -0.2333
  C  C259  1  0.827900  0.563700  0.811800  1.0  -0.1151
  C  C260  1  0.737600  0.601600  0.777400  1.0  -0.2069
  C  C261  1  0.008200  0.091800  0.490600  1.0  -0.1921
  C  C262  1  0.985100  0.034100  0.503400  1.0  0.0503
  C  C263  1  0.976500  0.147500  0.494000  1.0  0.1675
  C  C264  1  0.927500  0.037500  0.518000  1.0  -0.1522
  C  C265  1  0.895800  0.098000  0.520800  1.0  0.1044
  C  C266  1  0.070200  0.461400  0.462000  1.0  0.0142
  C  C267  1  0.022900  0.410100  0.475000  1.0  0.0832
  C  C268  1  0.041000  0.398200  0.516600  1.0  -0.1944
  C  C269  1  0.783900  0.511100  0.726200  1.0  0.1392
  C  C270  1  0.996200  0.352200  0.527400  1.0  0.1697
  C  C271  1  0.820900  0.451700  0.521400  1.0  0.1676
  C  C272  1  0.045300  0.472300  0.421200  1.0  -0.2278
  C  C273  1  0.137700  0.498300  0.491200  1.0  -0.197
  C  C274  1  0.909600  0.480000  0.589800  1.0  0.1545
  C  C275  1  0.912700  0.324300  0.459000  1.0  0.1583
  C  C276  1  0.823500  0.418500  0.681000  1.0  0.1758
  C  C277  1  0.752400  0.473800  0.647200  1.0  0.1595
  C  C278  1  0.954800  0.369600  0.444800  1.0  -0.2345
  C  C279  1  0.751900  0.516100  0.688200  1.0  -0.1132
  C  C280  1  0.824200  0.460200  0.722600  1.0  -0.2049
  C  C281  1  0.398800  0.982400  0.990600  1.0  -0.1926
  C  C282  1  0.469300  0.018300  0.003400  1.0  0.0498
  C  C283  1  0.346500  0.017500  0.994000  1.0  0.1698
  C  C284  1  0.480500  0.090500  0.018000  1.0  -0.1559
  C  C285  1  0.422800  0.125000  0.020800  1.0  0.1046
  C  C286  1  0.000600  0.891800  0.962000  1.0  0.0118
  C  C287  1  0.064900  0.952100  0.975000  1.0  0.0831
  C  C288  1  0.118400  0.975600  0.016600  1.0  -0.1915
  C  C289  1  0.215100  0.442300  0.226200  1.0  0.1415
  C  C290  1  0.175200  0.031200  0.027400  1.0  0.1688
  C  C291  1  0.069700  0.200500  0.021400  1.0  0.1669
  C  C292  1  0.948900  0.875900  0.921200  1.0  -0.2246
  C  C293  1  0.992900  0.853500  0.991200  1.0  -0.199
  C  C294  1  0.109800  0.180200  0.089800  1.0  0.155
  C  C295  1  0.134700  0.046300  0.959000  1.0  0.1599
  C  C296  1  0.262500  0.357500  0.181000  1.0  0.1751
  C  C297  1  0.173400  0.394800  0.147200  1.0  0.1594
  C  C298  1  0.075200  0.990000  0.944800  1.0  -0.2333
  C  C299  1  0.172100  0.436300  0.188200  1.0  -0.1159
  C  C300  1  0.262400  0.398400  0.222600  1.0  -0.2032
  C  C301  1  0.991800  0.908200  0.509400  1.0  -0.1911
  C  C302  1  0.014900  0.965900  0.496600  1.0  0.0498
  C  C303  1  0.023500  0.852500  0.506000  1.0  0.1678
  C  C304  1  0.072500  0.962500  0.482000  1.0  -0.1545
  C  C305  1  0.104200  0.902000  0.479200  1.0  0.1045
  C  C306  1  0.929800  0.538600  0.538000  1.0  0.0143
  C  C307  1  0.977100  0.589900  0.525000  1.0  0.084
  C  C308  1  0.959000  0.601800  0.483400  1.0  -0.1963
  C  C309  1  0.216100  0.488900  0.273800  1.0  0.1411
  C  C310  1  0.003800  0.647800  0.472600  1.0  0.1712
  C  C311  1  0.179100  0.548300  0.478600  1.0  0.1685
  C  C312  1  0.954700  0.527700  0.578800  1.0  -0.2263
  C  C313  1  0.862300  0.501700  0.508800  1.0  -0.1965
  C  C314  1  0.090400  0.520000  0.410200  1.0  0.1567
  C  C315  1  0.087300  0.675700  0.541000  1.0  0.1565
  C  C316  1  0.176500  0.581500  0.319000  1.0  0.1791
  C  C317  1  0.247600  0.526200  0.352800  1.0  0.1607
  C  C318  1  0.045200  0.630400  0.555200  1.0  -0.2339
  C  C319  1  0.248100  0.483900  0.311800  1.0  -0.1114
  C  C320  1  0.175800  0.539800  0.277400  1.0  -0.2048
  S  S321  1  0.196500  0.828020  0.967460  1.0  -0.4551
  S  S322  1  0.228220  0.649920  0.916220  1.0  -0.4405
  S  S323  1  0.311760  0.744500  0.038900  1.0  -0.3633
  S  S324  1  0.860560  0.729040  0.532540  1.0  -0.4523
  S  S325  1  0.733700  0.812000  0.583780  1.0  -0.4449
  S  S326  1  0.705600  0.772860  0.461100  1.0  -0.3659
  S  S327  1  0.803500  0.171980  0.032540  1.0  -0.4551
  S  S328  1  0.771780  0.350080  0.083780  1.0  -0.4424
  S  S329  1  0.688240  0.255500  0.961100  1.0  -0.3669
  S  S330  1  0.139440  0.270960  0.467460  1.0  -0.4524
  S  S331  1  0.266300  0.188000  0.416220  1.0  -0.4443
  S  S332  1  0.294400  0.227140  0.538900  1.0  -0.3655
  S  S333  1  0.770960  0.639440  0.967460  1.0  -0.4552
  S  S334  1  0.688000  0.766300  0.916220  1.0  -0.4443
  S  S335  1  0.727140  0.794400  0.038900  1.0  -0.3691
  S  S336  1  0.671980  0.303500  0.532540  1.0  -0.4527
  S  S337  1  0.850080  0.271780  0.583780  1.0  -0.4405
  S  S338  1  0.755500  0.188240  0.461100  1.0  -0.3682
  S  S339  1  0.229040  0.360560  0.032540  1.0  -0.4559
  S  S340  1  0.312000  0.233700  0.083780  1.0  -0.4414
  S  S341  1  0.272860  0.205600  0.961100  1.0  -0.3678
  S  S342  1  0.328020  0.696500  0.467460  1.0  -0.4522
  S  S343  1  0.149920  0.728220  0.416220  1.0  -0.4398
  S  S344  1  0.244500  0.811760  0.538900  1.0  -0.3652
  N  N345  1  0.186380  0.568180  0.000360  1.0  -0.3333
  N  N346  1  0.347170  0.578970  0.989540  1.0  -0.3242
  N  N347  1  0.061350  0.659950  0.938500  1.0  -0.3925
  N  N348  1  0.078360  0.713560  0.856920  1.0  -0.2193
  N  N349  1  0.567820  0.686020  0.499640  1.0  -0.3298
  N  N350  1  0.589430  0.857630  0.510460  1.0  -0.3219
  N  N351  1  0.721450  0.622850  0.561500  1.0  -0.3907
  N  N352  1  0.856640  0.721440  0.643080  1.0  -0.2186
  N  N353  1  0.813620  0.431820  0.999640  1.0  -0.333
  N  N354  1  0.652830  0.421030  0.010460  1.0  -0.3218
  N  N355  1  0.938650  0.340050  0.061500  1.0  -0.3909
  N  N356  1  0.921640  0.286440  0.143080  1.0  -0.2203
  N  N357  1  0.432180  0.313980  0.500360  1.0  -0.3339
  N  N358  1  0.410570  0.142370  0.489540  1.0  -0.3224
  N  N359  1  0.278550  0.377150  0.438500  1.0  -0.3912
  N  N360  1  0.143360  0.278560  0.356920  1.0  -0.2165
  N  N361  1  0.813980  0.932180  0.000360  1.0  -0.3319
  N  N362  1  0.642370  0.910570  0.989540  1.0  -0.3189
  N  N363  1  0.877150  0.778550  0.938500  1.0  -0.3909
  N  N364  1  0.778560  0.643360  0.856920  1.0  -0.2195
  N  N365  1  0.931820  0.313620  0.499640  1.0  -0.3361
  N  N366  1  0.921030  0.152830  0.510460  1.0  -0.3245
  N  N367  1  0.840050  0.438650  0.561500  1.0  -0.39
  N  N368  1  0.786440  0.421640  0.643080  1.0  -0.2212
  N  N369  1  0.186020  0.067820  0.999640  1.0  -0.3303
  N  N370  1  0.357630  0.089430  0.010460  1.0  -0.323
  N  N371  1  0.122850  0.221450  0.061500  1.0  -0.3948
  N  N372  1  0.221440  0.356640  0.143080  1.0  -0.2179
  N  N373  1  0.068180  0.686380  0.500360  1.0  -0.3341
  N  N374  1  0.078970  0.847170  0.489540  1.0  -0.3227
  N  N375  1  0.159950  0.561350  0.438500  1.0  -0.3918
  N  N376  1  0.213560  0.578360  0.356920  1.0  -0.2204
  Cl  Cl377  1  0.165690  0.833230  0.086720  1.0  -0.4523
  Cl  Cl378  1  0.746510  0.578970  0.413280  1.0  -0.4538
  Cl  Cl379  1  0.834310  0.166770  0.913280  1.0  -0.4543
  Cl  Cl380  1  0.253490  0.421030  0.586720  1.0  -0.4513
  Cl  Cl381  1  0.921030  0.753490  0.086720  1.0  -0.4506
  Cl  Cl382  1  0.666770  0.334310  0.413280  1.0  -0.4527
  Cl  Cl383  1  0.078970  0.246510  0.913280  1.0  -0.4533
  Cl  Cl384  1  0.333230  0.665690  0.586720  1.0  -0.451
