# generated using pymatgen
data_Cu3H16WC20S3N4Cl
_symmetry_space_group_name_H-M   'P 1'
_cell_length_a   19.57150000
_cell_length_b   19.57160000
_cell_length_c   31.96490000
_cell_angle_alpha   74.85530000
_cell_angle_beta   74.85540000
_cell_angle_gamma   98.43070000
_symmetry_Int_Tables_number   1
_chemical_formula_structural   Cu3H16WC20S3N4Cl
_chemical_formula_sum   'Cu24 H128 W8 C160 S24 N32 Cl8'
_cell_volume   11100.80477904
_cell_formula_units_Z   8
loop_
 _symmetry_equiv_pos_site_id
 _symmetry_equiv_pos_as_xyz
  1  'x, y, z'
loop_
 _atom_site_type_symbol
 _atom_site_label
 _atom_site_symmetry_multiplicity
 _atom_site_fract_x
 _atom_site_fract_y
 _atom_site_fract_z
 _atom_site_occupancy
 _atom_site_charge
  Cu  Cu1  1  0.762090  0.131750  0.015080  1.0  0.3211
  Cu  Cu2  1  0.730860  0.315380  0.962500  1.0  0.3177
  Cu  Cu3  1  0.639420  0.214000  0.082060  1.0  0.3341
  Cu  Cu4  1  0.146830  0.277170  0.484920  1.0  0.3236
  Cu  Cu5  1  0.277880  0.193360  0.537500  1.0  0.3202
  Cu  Cu6  1  0.296060  0.221480  0.417940  1.0  0.334
  Cu  Cu7  1  0.237910  0.868250  0.984920  1.0  0.3207
  Cu  Cu8  1  0.269140  0.684620  0.037500  1.0  0.319
  Cu  Cu9  1  0.360580  0.786000  0.917940  1.0  0.3341
  Cu  Cu10  1  0.853170  0.722830  0.515080  1.0  0.3238
  Cu  Cu11  1  0.722120  0.806640  0.462500  1.0  0.3176
  Cu  Cu12  1  0.703940  0.778520  0.582060  1.0  0.3346
  Cu  Cu13  1  0.222830  0.353170  0.015080  1.0  0.3215
  Cu  Cu14  1  0.306640  0.222120  0.962500  1.0  0.3175
  Cu  Cu15  1  0.278520  0.203940  0.082060  1.0  0.335
  Cu  Cu16  1  0.368250  0.737910  0.484920  1.0  0.3228
  Cu  Cu17  1  0.184620  0.769140  0.537500  1.0  0.3193
  Cu  Cu18  1  0.286000  0.860580  0.417940  1.0  0.3327
  Cu  Cu19  1  0.777170  0.646830  0.984920  1.0  0.3216
  Cu  Cu20  1  0.693360  0.777880  0.037500  1.0  0.3205
  Cu  Cu21  1  0.721480  0.796060  0.917940  1.0  0.3362
  Cu  Cu22  1  0.631750  0.262090  0.515080  1.0  0.3229
  Cu  Cu23  1  0.815380  0.230860  0.462500  1.0  0.3181
  Cu  Cu24  1  0.714000  0.139420  0.582060  1.0  0.3328
  H  H25  1  0.465900  0.926500  0.885200  1.0  0.0591
  H  H26  1  0.548400  0.000000  0.900600  1.0  0.118
  H  H27  1  0.505400  0.842400  0.019600  1.0  0.1074
  H  H28  1  0.430400  0.772000  0.996600  1.0  0.0735
  H  H29  1  0.630300  0.056700  0.915400  1.0  0.1355
  H  H30  1  0.702000  0.134400  0.942000  1.0  0.0668
  H  H31  1  0.655900  0.987700  0.055200  1.0  0.0697
  H  H32  1  0.577500  0.912300  0.038000  1.0  0.1182
  H  H33  1  0.521600  0.273800  0.118200  1.0  0.0602
  H  H34  1  0.444800  0.278400  0.189000  1.0  0.1511
  H  H35  1  0.539300  0.144500  0.249600  1.0  0.1062
  H  H36  1  0.623700  0.154300  0.181800  1.0  0.0976
  H  H37  1  0.897300  0.136100  0.039400  1.0  0.0789
  H  H38  1  0.999300  0.090300  0.029600  1.0  0.1112
  H  H39  1  0.908900  0.953300  0.978600  1.0  0.0972
  H  H40  1  0.815000  0.007200  0.982800  1.0  0.0859
  H  H41  1  0.811700  0.851100  0.614800  1.0  0.0585
  H  H42  1  0.900600  0.949000  0.599400  1.0  0.1184
  H  H43  1  0.862000  0.025000  0.480400  1.0  0.1078
  H  H44  1  0.768600  0.927000  0.503400  1.0  0.0728
  H  H45  1  0.972100  0.045700  0.584600  1.0  0.1351
  H  H46  1  0.076400  0.144000  0.558000  1.0  0.0667
  H  H47  1  0.042900  0.211100  0.444800  1.0  0.0691
  H  H48  1  0.950300  0.115500  0.462000  1.0  0.1187
  H  H49  1  0.392000  0.139800  0.381800  1.0  0.0592
  H  H50  1  0.467400  0.133800  0.311000  1.0  0.1502
  H  H51  1  0.394100  0.288900  0.250400  1.0  0.1079
  H  H52  1  0.336100  0.305500  0.318200  1.0  0.096
  H  H53  1  0.175500  0.436700  0.460600  1.0  0.0773
  H  H54  1  0.119900  0.528900  0.470400  1.0  0.1101
  H  H55  1  0.931900  0.387500  0.521400  1.0  0.0963
  H  H56  1  0.990000  0.297800  0.517200  1.0  0.0859
  H  H57  1  0.534100  0.073500  0.114800  1.0  0.0581
  H  H58  1  0.451600  0.000000  0.099400  1.0  0.1191
  H  H59  1  0.494600  0.157600  0.980400  1.0  0.1087
  H  H60  1  0.569600  0.228000  0.003400  1.0  0.0735
  H  H61  1  0.369700  0.943300  0.084600  1.0  0.1351
  H  H62  1  0.298000  0.865600  0.058000  1.0  0.066
  H  H63  1  0.344100  0.012300  0.944800  1.0  0.0702
  H  H64  1  0.422500  0.087700  0.962000  1.0  0.1196
  H  H65  1  0.478400  0.726200  0.881800  1.0  0.0591
  H  H66  1  0.555200  0.721600  0.811000  1.0  0.1492
  H  H67  1  0.460700  0.855500  0.750400  1.0  0.107
  H  H68  1  0.376300  0.845700  0.818200  1.0  0.097
  H  H69  1  0.102700  0.863900  0.960600  1.0  0.078
  H  H70  1  0.000700  0.909700  0.970400  1.0  0.1112
  H  H71  1  0.091100  0.046700  0.021400  1.0  0.0985
  H  H72  1  0.185000  0.992800  0.017200  1.0  0.0866
  H  H73  1  0.188300  0.148900  0.385200  1.0  0.058
  H  H74  1  0.099400  0.051000  0.400600  1.0  0.1176
  H  H75  1  0.138000  0.975000  0.519600  1.0  0.108
  H  H76  1  0.231400  0.073000  0.496600  1.0  0.0725
  H  H77  1  0.027900  0.954300  0.415400  1.0  0.1348
  H  H78  1  0.923600  0.856000  0.442000  1.0  0.0683
  H  H79  1  0.957100  0.788900  0.555200  1.0  0.0695
  H  H80  1  0.049700  0.884500  0.538000  1.0  0.1179
  H  H81  1  0.608000  0.860200  0.618200  1.0  0.0596
  H  H82  1  0.532600  0.866200  0.689000  1.0  0.1518
  H  H83  1  0.605900  0.711100  0.749600  1.0  0.107
  H  H84  1  0.663900  0.694500  0.681800  1.0  0.0966
  H  H85  1  0.824500  0.563300  0.539400  1.0  0.0778
  H  H86  1  0.880100  0.471100  0.529600  1.0  0.1103
  H  H87  1  0.068100  0.612500  0.478600  1.0  0.0954
  H  H88  1  0.010000  0.702200  0.482800  1.0  0.0859
  H  H89  1  0.648900  0.688300  0.885200  1.0  0.0585
  H  H90  1  0.551000  0.599400  0.900600  1.0  0.1182
  H  H91  1  0.475000  0.638000  0.019600  1.0  0.1077
  H  H92  1  0.573000  0.731400  0.996600  1.0  0.0725
  H  H93  1  0.454300  0.527900  0.915400  1.0  0.1354
  H  H94  1  0.356000  0.423600  0.942000  1.0  0.0672
  H  H95  1  0.288900  0.457100  0.055200  1.0  0.0716
  H  H96  1  0.384500  0.549700  0.038000  1.0  0.1178
  H  H97  1  0.360200  0.108000  0.118200  1.0  0.0587
  H  H98  1  0.366200  0.032600  0.189000  1.0  0.1498
  H  H99  1  0.211100  0.105900  0.249600  1.0  0.1063
  H  H100  1  0.194500  0.163900  0.181800  1.0  0.0988
  H  H101  1  0.063300  0.324500  0.039400  1.0  0.0777
  H  H102  1  0.971100  0.380100  0.029600  1.0  0.1097
  H  H103  1  0.112500  0.568100  0.978600  1.0  0.0968
  H  H104  1  0.202200  0.510000  0.982800  1.0  0.0855
  H  H105  1  0.573500  0.034100  0.614800  1.0  0.0592
  H  H106  1  0.500000  0.951600  0.599400  1.0  0.1162
  H  H107  1  0.657600  0.994600  0.480400  1.0  0.1085
  H  H108  1  0.728000  0.069600  0.503400  1.0  0.0728
  H  H109  1  0.443300  0.869700  0.584600  1.0  0.1356
  H  H110  1  0.365600  0.798000  0.558000  1.0  0.0684
  H  H111  1  0.512300  0.844100  0.444800  1.0  0.0702
  H  H112  1  0.587700  0.922500  0.462000  1.0  0.1188
  H  H113  1  0.226200  0.978400  0.381800  1.0  0.0604
  H  H114  1  0.221600  0.055200  0.311000  1.0  0.1504
  H  H115  1  0.355500  0.960700  0.250400  1.0  0.1058
  H  H116  1  0.345700  0.876300  0.318200  1.0  0.0971
  H  H117  1  0.363900  0.602700  0.460600  1.0  0.078
  H  H118  1  0.409700  0.500700  0.470400  1.0  0.1095
  H  H119  1  0.546700  0.591100  0.521400  1.0  0.0971
  H  H120  1  0.492800  0.685000  0.517200  1.0  0.086
  H  H121  1  0.351100  0.311700  0.114800  1.0  0.059
  H  H122  1  0.449000  0.400600  0.099400  1.0  0.1184
  H  H123  1  0.525000  0.362000  0.980400  1.0  0.1077
  H  H124  1  0.427000  0.268600  0.003400  1.0  0.0729
  H  H125  1  0.545700  0.472100  0.084600  1.0  0.1354
  H  H126  1  0.644000  0.576400  0.058000  1.0  0.0659
  H  H127  1  0.711100  0.542900  0.944800  1.0  0.0709
  H  H128  1  0.615500  0.450300  0.962000  1.0  0.119
  H  H129  1  0.639800  0.892000  0.881800  1.0  0.0588
  H  H130  1  0.633800  0.967400  0.811000  1.0  0.1522
  H  H131  1  0.788900  0.894100  0.750400  1.0  0.1069
  H  H132  1  0.805500  0.836100  0.818200  1.0  0.0985
  H  H133  1  0.936700  0.675500  0.960600  1.0  0.076
  H  H134  1  0.028900  0.619900  0.970400  1.0  0.1102
  H  H135  1  0.887500  0.431900  0.021400  1.0  0.0968
  H  H136  1  0.797800  0.490000  0.017200  1.0  0.0857
  H  H137  1  0.426500  0.965900  0.385200  1.0  0.0596
  H  H138  1  0.500000  0.048400  0.400600  1.0  0.1168
  H  H139  1  0.342400  0.005400  0.519600  1.0  0.1071
  H  H140  1  0.272000  0.930400  0.496600  1.0  0.0729
  H  H141  1  0.556700  0.130300  0.415400  1.0  0.1352
  H  H142  1  0.634400  0.202000  0.442000  1.0  0.0687
  H  H143  1  0.487700  0.155900  0.555200  1.0  0.0705
  H  H144  1  0.412300  0.077500  0.538000  1.0  0.1173
  H  H145  1  0.773800  0.021600  0.618200  1.0  0.061
  H  H146  1  0.778400  0.944800  0.689000  1.0  0.1498
  H  H147  1  0.644500  0.039300  0.749600  1.0  0.107
  H  H148  1  0.654300  0.123700  0.681800  1.0  0.0963
  H  H149  1  0.636100  0.397300  0.539400  1.0  0.0789
  H  H150  1  0.590300  0.499300  0.529600  1.0  0.1097
  H  H151  1  0.453300  0.408900  0.478600  1.0  0.0973
  H  H152  1  0.507200  0.315000  0.482800  1.0  0.0859
  W  W153  1  0.779930  0.259930  0.031120  1.0  0.4354
  W  W154  1  0.291050  0.311050  0.468880  1.0  0.4344
  W  W155  1  0.220070  0.740070  0.968880  1.0  0.4334
  W  W156  1  0.708950  0.688950  0.531120  1.0  0.4332
  W  W157  1  0.188950  0.208950  0.031120  1.0  0.4339
  W  W158  1  0.240070  0.720070  0.468880  1.0  0.4337
  W  W159  1  0.811050  0.791050  0.968880  1.0  0.4343
  W  W160  1  0.759930  0.279930  0.531120  1.0  0.437
  C  C161  1  0.475600  0.908400  0.912400  1.0  0.1777
  C  C162  1  0.525000  0.954200  0.921400  1.0  -0.2195
  C  C163  1  0.540200  0.930200  0.963400  1.0  0.046
  C  C164  1  0.500200  0.860800  0.991000  1.0  -0.1888
  C  C165  1  0.453700  0.818900  0.977200  1.0  0.1591
  C  C166  1  0.589600  0.976400  0.976200  1.0  0.0874
  C  C167  1  0.631600  0.042200  0.945200  1.0  -0.2217
  C  C168  1  0.677900  0.087900  0.961400  1.0  0.1325
  C  C169  1  0.649500  0.003700  0.026600  1.0  0.1766
  C  C170  1  0.601800  0.957400  0.016600  1.0  -0.2363
  C  C171  1  0.527600  0.248000  0.145400  1.0  0.158
  C  C172  1  0.479400  0.250400  0.189400  1.0  -0.1492
  C  C173  1  0.484300  0.214100  0.228600  1.0  0.1559
  C  C174  1  0.536000  0.175800  0.223000  1.0  -0.1135
  C  C175  1  0.585600  0.177400  0.181800  1.0  0.0599
  C  C176  1  0.900000  0.099600  0.025800  1.0  0.102
  C  C177  1  0.961400  0.070800  0.020600  1.0  -0.1732
  C  C178  1  0.967700  0.015100  0.003200  1.0  0.0552
  C  C179  1  0.909100  0.992300  0.990200  1.0  -0.15
  C  C180  1  0.851900  0.023500  0.993600  1.0  0.1495
  C  C181  1  0.820800  0.888000  0.587600  1.0  0.176
  C  C182  1  0.875600  0.946400  0.578600  1.0  -0.2212
  C  C183  1  0.893600  0.003600  0.536600  1.0  0.048
  C  C184  1  0.851800  0.991200  0.509000  1.0  -0.1906
  C  C185  1  0.796100  0.930900  0.522800  1.0  0.1631
  C  C186  1  0.952600  0.065800  0.523800  1.0  0.0882
  C  C187  1  0.987400  0.076800  0.554800  1.0  -0.2172
  C  C188  1  0.049300  0.139300  0.538600  1.0  0.1349
  C  C189  1  0.030300  0.176100  0.473400  1.0  0.173
  C  C190  1  0.974000  0.118400  0.483400  1.0  -0.2331
  C  C191  1  0.393400  0.173000  0.354600  1.0  0.1546
  C  C192  1  0.439800  0.168800  0.310600  1.0  -0.1482
  C  C193  1  0.442700  0.212900  0.271400  1.0  0.1554
  C  C194  1  0.398800  0.259000  0.277000  1.0  -0.1173
  C  C195  1  0.359200  0.267400  0.318200  1.0  0.0573
  C  C196  1  0.125400  0.425800  0.474200  1.0  0.1079
  C  C197  1  0.091400  0.482000  0.479400  1.0  -0.1716
  C  C198  1  0.018300  0.470900  0.496800  1.0  0.059
  C  C199  1  0.982500  0.399300  0.509800  1.0  -0.1501
  C  C200  1  0.017100  0.345500  0.506400  1.0  0.1496
  C  C201  1  0.524400  0.091600  0.087600  1.0  0.1775
  C  C202  1  0.475000  0.045800  0.078600  1.0  -0.22
  C  C203  1  0.459800  0.069800  0.036600  1.0  0.0464
  C  C204  1  0.499800  0.139200  0.009000  1.0  -0.1915
  C  C205  1  0.546300  0.181100  0.022800  1.0  0.159
  C  C206  1  0.410400  0.023600  0.023800  1.0  0.0873
  C  C207  1  0.368400  0.957800  0.054800  1.0  -0.2192
  C  C208  1  0.322100  0.912100  0.038600  1.0  0.1299
  C  C209  1  0.350500  0.996300  0.973400  1.0  0.1755
  C  C210  1  0.398200  0.042600  0.983400  1.0  -0.2383
  C  C211  1  0.472400  0.752000  0.854600  1.0  0.1574
  C  C212  1  0.520600  0.749600  0.810600  1.0  -0.1494
  C  C213  1  0.515700  0.785900  0.771400  1.0  0.1581
  C  C214  1  0.464000  0.824200  0.777000  1.0  -0.1147
  C  C215  1  0.414400  0.822600  0.818200  1.0  0.058
  C  C216  1  0.100000  0.900400  0.974200  1.0  0.1045
  C  C217  1  0.038600  0.929200  0.979400  1.0  -0.1727
  C  C218  1  0.032300  0.984900  0.996800  1.0  0.0549
  C  C219  1  0.090900  0.007700  0.009800  1.0  -0.1486
  C  C220  1  0.148100  0.976500  0.006400  1.0  0.149
  C  C221  1  0.179200  0.112000  0.412400  1.0  0.1769
  C  C222  1  0.124400  0.053600  0.421400  1.0  -0.2232
  C  C223  1  0.106400  0.996400  0.463400  1.0  0.0484
  C  C224  1  0.148200  0.008800  0.491000  1.0  -0.1892
  C  C225  1  0.203900  0.069100  0.477200  1.0  0.163
  C  C226  1  0.047400  0.934200  0.476200  1.0  0.0869
  C  C227  1  0.012600  0.923200  0.445200  1.0  -0.2164
  C  C228  1  0.950700  0.860700  0.461400  1.0  0.1371
  C  C229  1  0.969700  0.823900  0.526600  1.0  0.1741
  C  C230  1  0.026000  0.881600  0.516600  1.0  -0.2337
  C  C231  1  0.606600  0.827000  0.645400  1.0  0.156
  C  C232  1  0.560200  0.831200  0.689400  1.0  -0.1492
  C  C233  1  0.557300  0.787100  0.728600  1.0  0.157
  C  C234  1  0.601200  0.741000  0.723000  1.0  -0.1164
  C  C235  1  0.640800  0.732600  0.681800  1.0  0.0567
  C  C236  1  0.874600  0.574200  0.525800  1.0  0.1091
  C  C237  1  0.908600  0.518000  0.520600  1.0  -0.171
  C  C238  1  0.981700  0.529100  0.503200  1.0  0.0588
  C  C239  1  0.017500  0.600700  0.490200  1.0  -0.1484
  C  C240  1  0.982900  0.654500  0.493600  1.0  0.1474
  C  C241  1  0.612000  0.679200  0.912400  1.0  0.1776
  C  C242  1  0.553600  0.624400  0.921400  1.0  -0.2224
  C  C243  1  0.496400  0.606400  0.963400  1.0  0.0463
  C  C244  1  0.508800  0.648200  0.991000  1.0  -0.1884
  C  C245  1  0.569100  0.703900  0.977200  1.0  0.163
  C  C246  1  0.434200  0.547400  0.976200  1.0  0.088
  C  C247  1  0.423200  0.512600  0.945200  1.0  -0.2188
  C  C248  1  0.360700  0.450700  0.961400  1.0  0.1362
  C  C249  1  0.323900  0.469700  0.026600  1.0  0.1753
  C  C250  1  0.381600  0.526000  0.016600  1.0  -0.2292
  C  C251  1  0.327000  0.106600  0.145400  1.0  0.1573
  C  C252  1  0.331200  0.060200  0.189400  1.0  -0.1513
  C  C253  1  0.287100  0.057300  0.228600  1.0  0.1569
  C  C254  1  0.241000  0.101200  0.223000  1.0  -0.1113
  C  C255  1  0.232600  0.140800  0.181800  1.0  0.0557
  C  C256  1  0.074200  0.374600  0.025800  1.0  0.1094
  C  C257  1  0.018000  0.408600  0.020600  1.0  -0.171
  C  C258  1  0.029100  0.481700  0.003200  1.0  0.0547
  C  C259  1  0.100700  0.517500  0.990200  1.0  -0.1502
  C  C260  1  0.154500  0.482900  0.993600  1.0  0.1496
  C  C261  1  0.591600  0.024400  0.587600  1.0  0.1776
  C  C262  1  0.545800  0.975000  0.578600  1.0  -0.2229
  C  C263  1  0.569800  0.959800  0.536600  1.0  0.0482
  C  C264  1  0.639200  0.999800  0.509000  1.0  -0.1901
  C  C265  1  0.681100  0.046300  0.522800  1.0  0.1616
  C  C266  1  0.523600  0.910400  0.523800  1.0  0.0885
  C  C267  1  0.457800  0.868400  0.554800  1.0  -0.221
  C  C268  1  0.412100  0.822100  0.538600  1.0  0.1326
  C  C269  1  0.496300  0.850500  0.473400  1.0  0.176
  C  C270  1  0.542600  0.898200  0.483400  1.0  -0.2349
  C  C271  1  0.252000  0.972400  0.354600  1.0  0.1571
  C  C272  1  0.249600  0.020600  0.310600  1.0  -0.1458
  C  C273  1  0.285900  0.015700  0.271400  1.0  0.1575
  C  C274  1  0.324200  0.964000  0.277000  1.0  -0.1159
  C  C275  1  0.322600  0.914400  0.318200  1.0  0.0573
  C  C276  1  0.400400  0.600000  0.474200  1.0  0.1063
  C  C277  1  0.429200  0.538600  0.479400  1.0  -0.1692
  C  C278  1  0.484900  0.532300  0.496800  1.0  0.059
  C  C279  1  0.507700  0.590900  0.509800  1.0  -0.1496
  C  C280  1  0.476500  0.648100  0.506400  1.0  0.1462
  C  C281  1  0.388000  0.320800  0.087600  1.0  0.1767
  C  C282  1  0.446400  0.375600  0.078600  1.0  -0.2201
  C  C283  1  0.503600  0.393600  0.036600  1.0  0.0459
  C  C284  1  0.491200  0.351800  0.009000  1.0  -0.1902
  C  C285  1  0.430900  0.296100  0.022800  1.0  0.1628
  C  C286  1  0.565800  0.452600  0.023800  1.0  0.0876
  C  C287  1  0.576800  0.487400  0.054800  1.0  -0.2176
  C  C288  1  0.639300  0.549300  0.038600  1.0  0.1339
  C  C289  1  0.676100  0.530300  0.973400  1.0  0.1743
  C  C290  1  0.618400  0.474000  0.983400  1.0  -0.2302
  C  C291  1  0.673000  0.893400  0.854600  1.0  0.1581
  C  C292  1  0.668800  0.939800  0.810600  1.0  -0.151
  C  C293  1  0.712900  0.942700  0.771400  1.0  0.1549
  C  C294  1  0.759000  0.898800  0.777000  1.0  -0.1123
  C  C295  1  0.767400  0.859200  0.818200  1.0  0.0564
  C  C296  1  0.925800  0.625400  0.974200  1.0  0.1072
  C  C297  1  0.982000  0.591400  0.979400  1.0  -0.1734
  C  C298  1  0.970900  0.518300  0.996800  1.0  0.0552
  C  C299  1  0.899300  0.482500  0.009800  1.0  -0.1504
  C  C300  1  0.845500  0.517100  0.006400  1.0  0.1497
  C  C301  1  0.408400  0.975600  0.412400  1.0  0.1778
  C  C302  1  0.454200  0.025000  0.421400  1.0  -0.2222
  C  C303  1  0.430200  0.040200  0.463400  1.0  0.0481
  C  C304  1  0.360800  0.000200  0.491000  1.0  -0.188
  C  C305  1  0.318900  0.953700  0.477200  1.0  0.1619
  C  C306  1  0.476400  0.089600  0.476200  1.0  0.0894
  C  C307  1  0.542200  0.131600  0.445200  1.0  -0.2233
  C  C308  1  0.587900  0.177900  0.461400  1.0  0.135
  C  C309  1  0.503700  0.149500  0.526600  1.0  0.1765
  C  C310  1  0.457400  0.101800  0.516600  1.0  -0.2358
  C  C311  1  0.748000  0.027600  0.645400  1.0  0.1563
  C  C312  1  0.750400  0.979400  0.689400  1.0  -0.1445
  C  C313  1  0.714100  0.984300  0.728600  1.0  0.1568
  C  C314  1  0.675800  0.036000  0.723000  1.0  -0.1168
  C  C315  1  0.677400  0.085600  0.681800  1.0  0.0546
  C  C316  1  0.599600  0.400000  0.525800  1.0  0.106
  C  C317  1  0.570800  0.461400  0.520600  1.0  -0.1698
  C  C318  1  0.515100  0.467700  0.503200  1.0  0.0586
  C  C319  1  0.492300  0.409100  0.490200  1.0  -0.1509
  C  C320  1  0.523500  0.351900  0.493600  1.0  0.1489
  S  S321  1  0.812230  0.244190  0.962320  1.0  -0.3668
  S  S322  1  0.728480  0.150400  0.084080  1.0  -0.435
  S  S323  1  0.696570  0.328210  0.032580  1.0  -0.4594
  S  S324  1  0.206510  0.274550  0.537680  1.0  -0.3751
  S  S325  1  0.234480  0.312560  0.415920  1.0  -0.434
  S  S326  1  0.360790  0.229150  0.467420  1.0  -0.4564
  S  S327  1  0.187770  0.755810  0.037680  1.0  -0.3709
  S  S328  1  0.271520  0.849600  0.915920  1.0  -0.4342
  S  S329  1  0.303430  0.671790  0.967420  1.0  -0.4611
  S  S330  1  0.793490  0.725450  0.462320  1.0  -0.3746
  S  S331  1  0.765520  0.687440  0.584080  1.0  -0.4345
  S  S332  1  0.639210  0.770850  0.532580  1.0  -0.4571
  S  S333  1  0.225450  0.293490  0.962320  1.0  -0.3703
  S  S334  1  0.187440  0.265520  0.084080  1.0  -0.4367
  S  S335  1  0.270850  0.139210  0.032580  1.0  -0.4594
  S  S336  1  0.255810  0.687770  0.537680  1.0  -0.3725
  S  S337  1  0.349600  0.771520  0.415920  1.0  -0.434
  S  S338  1  0.171790  0.803430  0.467420  1.0  -0.4585
  S  S339  1  0.774550  0.706510  0.037680  1.0  -0.3696
  S  S340  1  0.812560  0.734480  0.915920  1.0  -0.4312
  S  S341  1  0.729150  0.860790  0.967420  1.0  -0.4598
  S  S342  1  0.744190  0.312230  0.462320  1.0  -0.3675
  S  S343  1  0.650400  0.228480  0.584080  1.0  -0.4358
  S  S344  1  0.828210  0.196570  0.532580  1.0  -0.4561
  N  N345  1  0.439600  0.841800  0.937400  1.0  -0.3482
  N  N346  1  0.687200  0.068600  0.999800  1.0  -0.2958
  N  N347  1  0.577100  0.211700  0.143800  1.0  -0.2645
  N  N348  1  0.846600  0.077200  0.012000  1.0  -0.319
  N  N349  1  0.779200  0.877000  0.562600  1.0  -0.3486
  N  N350  1  0.068400  0.187000  0.500200  1.0  -0.2945
  N  N351  1  0.355500  0.220900  0.356200  1.0  -0.2583
  N  N352  1  0.089200  0.358600  0.488000  1.0  -0.3199
  N  N353  1  0.560400  0.158200  0.062600  1.0  -0.3482
  N  N354  1  0.312800  0.931400  0.000200  1.0  -0.2984
  N  N355  1  0.422900  0.788300  0.856200  1.0  -0.2606
  N  N356  1  0.153400  0.922800  0.988000  1.0  -0.3211
  N  N357  1  0.220800  0.123000  0.437400  1.0  -0.3477
  N  N358  1  0.931600  0.813000  0.499800  1.0  -0.295
  N  N359  1  0.644500  0.779100  0.643800  1.0  -0.2613
  N  N360  1  0.910800  0.641400  0.512000  1.0  -0.316
  N  N361  1  0.623000  0.720800  0.937400  1.0  -0.348
  N  N362  1  0.313000  0.431600  0.999800  1.0  -0.2936
  N  N363  1  0.279100  0.144500  0.143800  1.0  -0.2619
  N  N364  1  0.141400  0.410800  0.012000  1.0  -0.3196
  N  N365  1  0.658200  0.060400  0.562600  1.0  -0.3478
  N  N366  1  0.431400  0.812800  0.500200  1.0  -0.3031
  N  N367  1  0.288300  0.922900  0.356200  1.0  -0.2618
  N  N368  1  0.422800  0.653400  0.488000  1.0  -0.3168
  N  N369  1  0.377000  0.279200  0.062600  1.0  -0.3464
  N  N370  1  0.687000  0.568400  0.000200  1.0  -0.2938
  N  N371  1  0.720900  0.855500  0.856200  1.0  -0.2617
  N  N372  1  0.858600  0.589200  0.988000  1.0  -0.3182
  N  N373  1  0.341800  0.939600  0.437400  1.0  -0.3492
  N  N374  1  0.568600  0.187200  0.499800  1.0  -0.2962
  N  N375  1  0.711700  0.077100  0.643800  1.0  -0.2635
  N  N376  1  0.577200  0.346600  0.512000  1.0  -0.3192
  Cl  Cl377  1  0.664550  0.331750  0.912300  1.0  -0.4722
  Cl  Cl378  1  0.244050  0.076850  0.587700  1.0  -0.4701
  Cl  Cl379  1  0.335450  0.668250  0.087700  1.0  -0.4701
  Cl  Cl380  1  0.755950  0.923150  0.412300  1.0  -0.4737
  Cl  Cl381  1  0.423150  0.255950  0.912300  1.0  -0.4737
  Cl  Cl382  1  0.168250  0.835450  0.587700  1.0  -0.4697
  Cl  Cl383  1  0.576850  0.744050  0.087700  1.0  -0.4694
  Cl  Cl384  1  0.831750  0.164550  0.412300  1.0  -0.4735
