# generated using pymatgen
data_Cu3H20WC26(S2N3)2
_symmetry_space_group_name_H-M   'P 1'
_cell_length_a   9.70970000
_cell_length_b   20.90600000
_cell_length_c   24.73940000
_cell_angle_alpha   104.60300000
_cell_angle_beta   90.00000000
_cell_angle_gamma   103.42800000
_symmetry_Int_Tables_number   1
_chemical_formula_structural   Cu3H20WC26(S2N3)2
_chemical_formula_sum   'Cu12 H80 W4 C104 S16 N24'
_cell_volume   4717.64446790
_cell_formula_units_Z   4
loop_
 _symmetry_equiv_pos_site_id
 _symmetry_equiv_pos_as_xyz
  1  'x, y, z'
loop_
 _atom_site_type_symbol
 _atom_site_label
 _atom_site_symmetry_multiplicity
 _atom_site_fract_x
 _atom_site_fract_y
 _atom_site_fract_z
 _atom_site_occupancy
 _atom_site_charge
  Cu  Cu1  1  0.645510  0.709240  0.461010  1.0  0.3489
  Cu  Cu2  1  0.037870  0.784680  0.509720  1.0  0.3425
  Cu  Cu3  1  0.765260  0.738720  0.608710  1.0  0.324
  Cu  Cu4  1  0.936270  0.290760  0.038990  1.0  0.3487
  Cu  Cu5  1  0.253190  0.215320  0.990280  1.0  0.3422
  Cu  Cu6  1  0.026540  0.261280  0.891290  1.0  0.324
  Cu  Cu7  1  0.354490  0.290760  0.538990  1.0  0.3489
  Cu  Cu8  1  0.962130  0.215320  0.490280  1.0  0.3422
  Cu  Cu9  1  0.234740  0.261280  0.391290  1.0  0.3237
  Cu  Cu10  1  0.063730  0.709240  0.961010  1.0  0.3498
  Cu  Cu11  1  0.746810  0.784680  0.009720  1.0  0.3424
  Cu  Cu12  1  0.973460  0.738720  0.108710  1.0  0.3241
  H  H13  1  0.260300  0.820000  0.915600  1.0  0.0754
  H  H14  1  0.426000  0.830600  0.849200  1.0  0.1164
  H  H15  1  0.409700  0.632400  0.823700  1.0  0.1167
  H  H16  1  0.243500  0.627000  0.888700  1.0  0.0726
  H  H17  1  0.764600  0.831600  0.727000  1.0  0.0833
  H  H18  1  0.637100  0.830400  0.804600  1.0  0.1116
  H  H19  1  0.458800  0.636400  0.738200  1.0  0.1225
  H  H20  1  0.586700  0.643200  0.661400  1.0  0.0657
  H  H21  1  0.120200  0.896600  0.451600  1.0  0.075
  H  H22  1  0.299700  0.989000  0.450600  1.0  0.1194
  H  H23  1  0.538800  0.924000  0.543100  1.0  0.119
  H  H24  1  0.352600  0.835600  0.542700  1.0  0.0757
  H  H25  1  0.258700  0.714400  0.538800  1.0  0.0762
  H  H26  1  0.304100  0.607800  0.518300  1.0  0.1236
  H  H27  1  0.978900  0.545800  0.402900  1.0  0.1235
  H  H28  1  0.943200  0.653200  0.428400  1.0  0.0738
  H  H29  1  0.602800  0.594000  0.551000  1.0  0.077
  H  H30  1  0.625900  0.485400  0.529600  1.0  0.1111
  H  H31  1  0.966500  0.443200  0.414200  1.0  0.1152
  H  H32  1  0.995800  0.664000  0.607100  1.0  0.0764
  H  H33  1  0.440300  0.180000  0.584400  1.0  0.0757
  H  H34  1  0.595400  0.169400  0.650800  1.0  0.1175
  H  H35  1  0.777300  0.367600  0.676300  1.0  0.1165
  H  H36  1  0.616500  0.373000  0.611300  1.0  0.0736
  H  H37  1  0.933000  0.168400  0.773000  1.0  0.0823
  H  H38  1  0.806700  0.169600  0.695400  1.0  0.1124
  H  H39  1  0.822400  0.363600  0.761800  1.0  0.1229
  H  H40  1  0.943500  0.356800  0.838600  1.0  0.065
  H  H41  1  0.223600  0.103400  0.048400  1.0  0.0756
  H  H42  1  0.310700  0.011000  0.049400  1.0  0.1201
  H  H43  1  0.614800  0.076000  0.956900  1.0  0.1185
  H  H44  1  0.517000  0.164400  0.957300  1.0  0.0755
  H  H45  1  0.544300  0.285600  0.961200  1.0  0.0763
  H  H46  1  0.696300  0.392200  0.981700  1.0  0.1233
  H  H47  1  0.433100  0.454200  0.097100  1.0  0.1243
  H  H48  1  0.290000  0.346800  0.071600  1.0  0.0737
  H  H49  1  0.008800  0.406000  0.949000  1.0  0.0769
  H  H50  1  0.140500  0.514600  0.970400  1.0  0.1113
  H  H51  1  0.523300  0.556800  0.085800  1.0  0.1167
  H  H52  1  0.331800  0.336000  0.892900  1.0  0.0753
  H  H53  1  0.739700  0.180000  0.084400  1.0  0.0758
  H  H54  1  0.574000  0.169400  0.150800  1.0  0.1173
  H  H55  1  0.590300  0.367600  0.176300  1.0  0.1169
  H  H56  1  0.756500  0.373000  0.111300  1.0  0.0738
  H  H57  1  0.235400  0.168400  0.273000  1.0  0.0832
  H  H58  1  0.362900  0.169600  0.195400  1.0  0.1122
  H  H59  1  0.541200  0.363600  0.261800  1.0  0.123
  H  H60  1  0.413300  0.356800  0.338600  1.0  0.0652
  H  H61  1  0.879800  0.103400  0.548400  1.0  0.0759
  H  H62  1  0.700300  0.011000  0.549400  1.0  0.1192
  H  H63  1  0.461200  0.076000  0.456900  1.0  0.1198
  H  H64  1  0.647400  0.164400  0.457300  1.0  0.0755
  H  H65  1  0.741300  0.285600  0.461200  1.0  0.0764
  H  H66  1  0.695900  0.392200  0.481700  1.0  0.123
  H  H67  1  0.021100  0.454200  0.597100  1.0  0.124
  H  H68  1  0.056800  0.346800  0.571600  1.0  0.0742
  H  H69  1  0.397200  0.406000  0.449000  1.0  0.0767
  H  H70  1  0.374100  0.514600  0.470400  1.0  0.1114
  H  H71  1  0.033500  0.556800  0.585800  1.0  0.1149
  H  H72  1  0.004200  0.336000  0.392900  1.0  0.0751
  H  H73  1  0.559700  0.820000  0.415600  1.0  0.0755
  H  H74  1  0.404600  0.830600  0.349200  1.0  0.1168
  H  H75  1  0.222700  0.632400  0.323700  1.0  0.1166
  H  H76  1  0.383500  0.627000  0.388700  1.0  0.0728
  H  H77  1  0.067000  0.831600  0.227000  1.0  0.0832
  H  H78  1  0.193300  0.830400  0.304600  1.0  0.1117
  H  H79  1  0.177600  0.636400  0.238200  1.0  0.1225
  H  H80  1  0.056500  0.643200  0.161400  1.0  0.066
  H  H81  1  0.776400  0.896600  0.951600  1.0  0.0756
  H  H82  1  0.689300  0.989000  0.950600  1.0  0.1191
  H  H83  1  0.385200  0.924000  0.043100  1.0  0.1192
  H  H84  1  0.483000  0.835600  0.042700  1.0  0.0756
  H  H85  1  0.455700  0.714400  0.038800  1.0  0.0761
  H  H86  1  0.303700  0.607800  0.018300  1.0  0.1233
  H  H87  1  0.566900  0.545800  0.902900  1.0  0.1241
  H  H88  1  0.710000  0.653200  0.928400  1.0  0.0741
  H  H89  1  0.991200  0.594000  0.051000  1.0  0.0765
  H  H90  1  0.859500  0.485400  0.029600  1.0  0.1113
  H  H91  1  0.476700  0.443200  0.914200  1.0  0.1151
  H  H92  1  0.668200  0.664000  0.107100  1.0  0.0764
  W  W93  1  0.792650  0.820180  0.539070  1.0  0.4501
  W  W94  1  0.972470  0.179820  0.960930  1.0  0.4482
  W  W95  1  0.207350  0.179820  0.460930  1.0  0.4483
  W  W96  1  0.027530  0.820180  0.039070  1.0  0.4502
  C  C97  1  0.289170  0.781540  0.896300  1.0  0.1666
  C  C98  1  0.389390  0.788380  0.856000  1.0  -0.1978
  C  C99  1  0.433450  0.731500  0.826400  1.0  0.0916
  C  C100  1  0.379210  0.671220  0.840800  1.0  -0.2195
  C  C101  1  0.279940  0.668480  0.880600  1.0  0.1849
  C  C102  1  0.699940  0.791480  0.728200  1.0  0.142
  C  C103  1  0.622800  0.791200  0.775300  1.0  -0.2254
  C  C104  1  0.526550  0.734100  0.778900  1.0  0.0908
  C  C105  1  0.517600  0.677800  0.736500  1.0  -0.2094
  C  C106  1  0.597000  0.682400  0.690600  1.0  0.1906
  C  C107  1  0.204700  0.903200  0.472200  1.0  0.1667
  C  C108  1  0.313400  0.959000  0.471000  1.0  -0.2035
  C  C109  1  0.440390  0.969980  0.499600  1.0  0.078
  C  C110  1  0.452630  0.921260  0.525100  1.0  -0.213
  C  C111  1  0.339160  0.867920  0.524600  1.0  0.176
  C  C112  1  0.199910  0.679620  0.511800  1.0  0.1662
  C  C113  1  0.229230  0.615460  0.499400  1.0  -0.2113
  C  C114  1  0.144200  0.563200  0.458200  1.0  0.0611
  C  C115  1  0.036840  0.578880  0.431400  1.0  -0.2125
  C  C116  1  0.016030  0.643860  0.447100  1.0  0.1683
  C  C117  1  0.690200  0.586200  0.558800  1.0  0.1699
  C  C118  1  0.703440  0.520880  0.545500  1.0  -0.1879
  C  C119  1  0.165800  0.493200  0.444100  1.0  0.0996
  C  C120  1  0.056210  0.437220  0.421200  1.0  -0.2103
  C  C121  1  0.920220  0.627240  0.591400  1.0  0.1894
  C  C122  1  0.643400  0.556200  0.414500  1.0  0.2841
  C  C123  1  0.507630  0.218460  0.603700  1.0  0.1677
  C  C124  1  0.601010  0.211620  0.644000  1.0  -0.1981
  C  C125  1  0.701950  0.268500  0.673600  1.0  0.0912
  C  C126  1  0.707990  0.328780  0.659200  1.0  -0.2202
  C  C127  1  0.611460  0.331520  0.619400  1.0  0.1842
  C  C128  1  0.908460  0.208520  0.771800  1.0  0.1435
  C  C129  1  0.831600  0.208800  0.724700  1.0  -0.2249
  C  C130  1  0.792450  0.265900  0.721100  1.0  0.0909
  C  C131  1  0.839800  0.322200  0.763500  1.0  -0.2102
  C  C132  1  0.914600  0.317600  0.809400  1.0  0.1908
  C  C133  1  0.301500  0.096800  0.027800  1.0  0.1675
  C  C134  1  0.354400  0.041000  0.029000  1.0  -0.2037
  C  C135  1  0.470410  0.030020  0.000400  1.0  0.0758
  C  C136  1  0.531370  0.078740  0.974900  1.0  -0.2129
  C  C137  1  0.471240  0.132080  0.975400  1.0  0.1757
  C  C138  1  0.520290  0.320380  0.988200  1.0  0.1648
  C  C139  1  0.613770  0.384540  0.000600  1.0  -0.2119
  C  C140  1  0.581000  0.436800  0.041800  1.0  0.0616
  C  C141  1  0.457960  0.421120  0.068600  1.0  -0.214
  C  C142  1  0.372170  0.356140  0.052900  1.0  0.169
  C  C143  1  0.104000  0.413800  0.941200  1.0  0.1703
  C  C144  1  0.182560  0.479120  0.954500  1.0  -0.1873
  C  C145  1  0.672600  0.506800  0.055900  1.0  0.0998
  C  C146  1  0.618990  0.562780  0.078800  1.0  -0.2111
  C  C147  1  0.292980  0.372760  0.908600  1.0  0.1869
  C  C148  1  0.087200  0.443800  0.085500  1.0  0.2815
  C  C149  1  0.710830  0.218460  0.103700  1.0  0.1675
  C  C150  1  0.610610  0.211620  0.144000  1.0  -0.1974
  C  C151  1  0.566550  0.268500  0.173600  1.0  0.0911
  C  C152  1  0.620790  0.328780  0.159200  1.0  -0.2202
  C  C153  1  0.720060  0.331520  0.119400  1.0  0.185
  C  C154  1  0.300060  0.208520  0.271800  1.0  0.1449
  C  C155  1  0.377200  0.208800  0.224700  1.0  -0.2244
  C  C156  1  0.473450  0.265900  0.221100  1.0  0.0908
  C  C157  1  0.482400  0.322200  0.263500  1.0  -0.2097
  C  C158  1  0.403000  0.317600  0.309400  1.0  0.1901
  C  C159  1  0.795300  0.096800  0.527800  1.0  0.1674
  C  C160  1  0.686600  0.041000  0.529000  1.0  -0.2034
  C  C161  1  0.559610  0.030020  0.500400  1.0  0.0753
  C  C162  1  0.547370  0.078740  0.474900  1.0  -0.2138
  C  C163  1  0.660840  0.132080  0.475400  1.0  0.176
  C  C164  1  0.800090  0.320380  0.488200  1.0  0.1653
  C  C165  1  0.770770  0.384540  0.500600  1.0  -0.2106
  C  C166  1  0.855800  0.436800  0.541800  1.0  0.0622
  C  C167  1  0.963160  0.421120  0.568600  1.0  -0.2132
  C  C168  1  0.983970  0.356140  0.552900  1.0  0.169
  C  C169  1  0.309800  0.413800  0.441200  1.0  0.1695
  C  C170  1  0.296560  0.479120  0.454500  1.0  -0.188
  C  C171  1  0.834200  0.506800  0.555900  1.0  0.0998
  C  C172  1  0.943790  0.562780  0.578800  1.0  -0.21
  C  C173  1  0.079780  0.372760  0.408600  1.0  0.1871
  C  C174  1  0.356600  0.443800  0.585500  1.0  0.2811
  C  C175  1  0.492370  0.781540  0.396300  1.0  0.1675
  C  C176  1  0.398990  0.788380  0.356000  1.0  -0.1972
  C  C177  1  0.298050  0.731500  0.326400  1.0  0.0909
  C  C178  1  0.292010  0.671220  0.340800  1.0  -0.2198
  C  C179  1  0.388540  0.668480  0.380600  1.0  0.1853
  C  C180  1  0.091540  0.791480  0.228200  1.0  0.143
  C  C181  1  0.168400  0.791200  0.275300  1.0  -0.2256
  C  C182  1  0.207550  0.734100  0.278900  1.0  0.0907
  C  C183  1  0.160200  0.677800  0.236500  1.0  -0.209
  C  C184  1  0.085400  0.682400  0.190600  1.0  0.1901
  C  C185  1  0.698500  0.903200  0.972200  1.0  0.167
  C  C186  1  0.645600  0.959000  0.971000  1.0  -0.203
  C  C187  1  0.529590  0.969980  0.999600  1.0  0.0777
  C  C188  1  0.468630  0.921260  0.025100  1.0  -0.2145
  C  C189  1  0.528760  0.867920  0.024600  1.0  0.1761
  C  C190  1  0.479710  0.679620  0.011800  1.0  0.1659
  C  C191  1  0.386230  0.615460  0.999400  1.0  -0.2103
  C  C192  1  0.419000  0.563200  0.958200  1.0  0.0613
  C  C193  1  0.542040  0.578880  0.931400  1.0  -0.2139
  C  C194  1  0.627830  0.643860  0.947100  1.0  0.1684
  C  C195  1  0.896000  0.586200  0.058800  1.0  0.1695
  C  C196  1  0.817440  0.520880  0.045500  1.0  -0.1884
  C  C197  1  0.327400  0.493200  0.944100  1.0  0.0998
  C  C198  1  0.381010  0.437220  0.921200  1.0  -0.2095
  C  C199  1  0.707020  0.627240  0.091400  1.0  0.1869
  C  C200  1  0.912800  0.556200  0.914500  1.0  0.2834
  S  S201  1  0.854010  0.784420  0.450570  1.0  -0.4229
  S  S202  1  0.965400  0.816720  0.599110  1.0  -0.463
  S  S203  1  0.589060  0.748620  0.551410  1.0  -0.4241
  S  S204  1  0.659320  0.477640  0.389810  1.0  -0.3217
  S  S205  1  0.069590  0.215580  0.049430  1.0  -0.4242
  S  S206  1  0.148680  0.183280  0.900890  1.0  -0.4642
  S  S207  1  0.840440  0.251380  0.948590  1.0  -0.4244
  S  S208  1  0.181680  0.522360  0.110190  1.0  -0.3212
  S  S209  1  0.145990  0.215580  0.549430  1.0  -0.423
  S  S210  1  0.034600  0.183280  0.400890  1.0  -0.4645
  S  S211  1  0.410940  0.251380  0.448590  1.0  -0.4241
  S  S212  1  0.340680  0.522360  0.610190  1.0  -0.3219
  S  S213  1  0.930410  0.784420  0.950570  1.0  -0.4216
  S  S214  1  0.851320  0.816720  0.099110  1.0  -0.4639
  S  S215  1  0.159560  0.748620  0.051410  1.0  -0.4238
  S  S216  1  0.818320  0.477640  0.889810  1.0  -0.3226
  N  N217  1  0.633360  0.610920  0.431200  1.0  -0.4972
  N  N218  1  0.510900  0.277400  0.591700  1.0  -0.3253
  N  N219  1  0.686540  0.738480  0.685500  1.0  -0.3314
  N  N220  1  0.213810  0.859020  0.500900  1.0  -0.3115
  N  N221  1  0.093890  0.693980  0.487600  1.0  -0.3052
  N  N222  1  0.794860  0.639920  0.582400  1.0  -0.3207
  N  N223  1  0.022440  0.389080  0.068800  1.0  -0.4974
  N  N224  1  0.233500  0.722600  0.908300  1.0  -0.3261
  N  N225  1  0.948060  0.261520  0.814500  1.0  -0.3305
  N  N226  1  0.354790  0.140980  0.999100  1.0  -0.3105
  N  N227  1  0.399910  0.306020  0.012400  1.0  -0.3093
  N  N228  1  0.154940  0.360080  0.917600  1.0  -0.3227
  N  N229  1  0.366640  0.389080  0.568800  1.0  -0.4973
  N  N230  1  0.489100  0.722600  0.408300  1.0  -0.3281
  N  N231  1  0.313460  0.261520  0.314500  1.0  -0.3316
  N  N232  1  0.786190  0.140980  0.499100  1.0  -0.3119
  N  N233  1  0.906110  0.306020  0.512400  1.0  -0.3069
  N  N234  1  0.205140  0.360080  0.417600  1.0  -0.3217
  N  N235  1  0.977560  0.610920  0.931200  1.0  -0.4973
  N  N236  1  0.766500  0.277400  0.091700  1.0  -0.3295
  N  N237  1  0.051940  0.738480  0.185500  1.0  -0.3306
  N  N238  1  0.645210  0.859020  0.000900  1.0  -0.3112
  N  N239  1  0.600090  0.693980  0.987600  1.0  -0.3057
  N  N240  1  0.845060  0.639920  0.082400  1.0  -0.3218
