# generated using pymatgen
data_NiH24(C4N3)4
_symmetry_space_group_name_H-M   'P 1'
_cell_length_a   11.20100000
_cell_length_b   14.94300000
_cell_length_c   21.48300000
_cell_angle_alpha   90.00000000
_cell_angle_beta   92.09600000
_cell_angle_gamma   90.00000000
_symmetry_Int_Tables_number   1
_chemical_formula_structural   NiH24(C4N3)4
_chemical_formula_sum   'Ni4 H96 C64 N48'
_cell_volume   3593.34453496
_cell_formula_units_Z   4
loop_
 _symmetry_equiv_pos_site_id
 _symmetry_equiv_pos_as_xyz
  1  'x, y, z'
loop_
 _atom_site_type_symbol
 _atom_site_label
 _atom_site_symmetry_multiplicity
 _atom_site_fract_x
 _atom_site_fract_y
 _atom_site_fract_z
 _atom_site_occupancy
 _atom_site_charge
  Ni  Ni1  1  0.901700  0.237400  0.699670  1.0  0.4835
  Ni  Ni2  1  0.598300  0.737400  0.800330  1.0  0.4836
  Ni  Ni3  1  0.098300  0.762600  0.300330  1.0  0.4842
  Ni  Ni4  1  0.401700  0.262600  0.199670  1.0  0.4841
  H  H5  1  0.918500  0.215900  0.551500  1.0  0.0844
  H  H6  1  0.724500  0.134400  0.782400  1.0  0.0694
  H  H7  1  0.418200  0.883200  0.834600  1.0  0.0799
  H  H8  1  0.450900  0.067400  0.865400  1.0  0.0601
  H  H9  1  0.552300  0.064200  0.817200  1.0  0.0655
  H  H10  1  0.473800  0.227500  0.866000  1.0  0.0693
  H  H11  1  0.579500  0.173800  0.898100  1.0  0.0896
  H  H12  1  0.871000  0.032800  0.682200  1.0  0.0813
  H  H13  1  0.649000  0.206900  0.616900  1.0  0.0612
  H  H14  1  0.483000  0.107400  0.573700  1.0  0.079
  H  H15  1  0.489100  0.009600  0.600000  1.0  0.0911
  H  H16  1  0.155300  0.130900  0.465300  1.0  0.0933
  H  H17  1  0.016800  0.146500  0.456600  1.0  0.0835
  H  H18  1  0.504900  0.824300  0.665100  1.0  0.0667
  H  H19  1  0.057800  0.990000  0.443800  1.0  0.0631
  H  H20  1  0.123000  0.986700  0.509400  1.0  0.0814
  H  H21  1  0.753600  0.390800  0.770400  1.0  0.0656
  H  H22  1  0.619400  0.974500  0.516100  1.0  0.0586
  H  H23  1  0.584200  0.068200  0.487400  1.0  0.0597
  H  H24  1  0.435700  0.123100  0.741000  1.0  0.0681
  H  H25  1  0.346300  0.164100  0.787900  1.0  0.0705
  H  H26  1  0.176400  0.172100  0.675900  1.0  0.0633
  H  H27  1  0.280100  0.015000  0.812300  1.0  0.0603
  H  H28  1  0.250900  0.039700  0.742400  1.0  0.0792
  H  H29  1  0.581500  0.715900  0.948500  1.0  0.085
  H  H30  1  0.775500  0.634400  0.717600  1.0  0.0698
  H  H31  1  0.081800  0.383200  0.665400  1.0  0.0796
  H  H32  1  0.049100  0.567400  0.634600  1.0  0.0594
  H  H33  1  0.947700  0.564200  0.682800  1.0  0.0624
  H  H34  1  0.026200  0.727500  0.634000  1.0  0.0701
  H  H35  1  0.920500  0.673800  0.601900  1.0  0.0884
  H  H36  1  0.629000  0.532800  0.817800  1.0  0.0796
  H  H37  1  0.851000  0.706900  0.883100  1.0  0.0603
  H  H38  1  0.017000  0.607400  0.926300  1.0  0.0786
  H  H39  1  0.010900  0.509600  0.900000  1.0  0.0903
  H  H40  1  0.344700  0.630900  0.034700  1.0  0.0936
  H  H41  1  0.483200  0.646500  0.043400  1.0  0.0833
  H  H42  1  0.995100  0.324300  0.834900  1.0  0.0661
  H  H43  1  0.442200  0.490000  0.056200  1.0  0.0631
  H  H44  1  0.377000  0.486700  0.990600  1.0  0.0805
  H  H45  1  0.746400  0.890800  0.729600  1.0  0.0659
  H  H46  1  0.880600  0.474500  0.983900  1.0  0.0587
  H  H47  1  0.915800  0.568200  0.012600  1.0  0.06
  H  H48  1  0.064300  0.623100  0.759000  1.0  0.0674
  H  H49  1  0.153700  0.664100  0.712100  1.0  0.0698
  H  H50  1  0.323600  0.672100  0.824100  1.0  0.0642
  H  H51  1  0.219900  0.515000  0.687700  1.0  0.0587
  H  H52  1  0.249100  0.539700  0.757600  1.0  0.0798
  H  H53  1  0.081500  0.784100  0.448500  1.0  0.085
  H  H54  1  0.275500  0.865600  0.217600  1.0  0.0703
  H  H55  1  0.581800  0.116800  0.165400  1.0  0.0798
  H  H56  1  0.549100  0.932600  0.134600  1.0  0.0597
  H  H57  1  0.447700  0.935800  0.182800  1.0  0.0629
  H  H58  1  0.526200  0.772500  0.134000  1.0  0.0698
  H  H59  1  0.420500  0.826200  0.101900  1.0  0.0881
  H  H60  1  0.129000  0.967200  0.317800  1.0  0.0796
  H  H61  1  0.351000  0.793100  0.383100  1.0  0.0612
  H  H62  1  0.517000  0.892600  0.426300  1.0  0.079
  H  H63  1  0.510900  0.990400  0.400000  1.0  0.0906
  H  H64  1  0.844700  0.869100  0.534700  1.0  0.0936
  H  H65  1  0.983200  0.853500  0.543400  1.0  0.0838
  H  H66  1  0.495100  0.175700  0.334900  1.0  0.0661
  H  H67  1  0.942200  0.010000  0.556200  1.0  0.063
  H  H68  1  0.877000  0.013300  0.490600  1.0  0.0806
  H  H69  1  0.246400  0.609200  0.229600  1.0  0.0662
  H  H70  1  0.380600  0.025500  0.483900  1.0  0.0577
  H  H71  1  0.415800  0.931800  0.512600  1.0  0.0614
  H  H72  1  0.564300  0.876900  0.259000  1.0  0.0673
  H  H73  1  0.653700  0.835900  0.212100  1.0  0.068
  H  H74  1  0.823600  0.827900  0.324100  1.0  0.064
  H  H75  1  0.719900  0.985000  0.187700  1.0  0.0589
  H  H76  1  0.749100  0.960300  0.257600  1.0  0.0799
  H  H77  1  0.418500  0.284100  0.051500  1.0  0.085
  H  H78  1  0.224500  0.365600  0.282400  1.0  0.0694
  H  H79  1  0.918200  0.616800  0.334600  1.0  0.0799
  H  H80  1  0.950900  0.432600  0.365400  1.0  0.0602
  H  H81  1  0.052300  0.435800  0.317200  1.0  0.0652
  H  H82  1  0.973800  0.272500  0.366000  1.0  0.069
  H  H83  1  0.079500  0.326200  0.398100  1.0  0.0894
  H  H84  1  0.371000  0.467200  0.182200  1.0  0.0814
  H  H85  1  0.149000  0.293100  0.116900  1.0  0.0607
  H  H86  1  0.983000  0.392600  0.073700  1.0  0.0794
  H  H87  1  0.989100  0.490400  0.100000  1.0  0.0909
  H  H88  1  0.655300  0.369100  0.965300  1.0  0.0931
  H  H89  1  0.516800  0.353500  0.956600  1.0  0.0836
  H  H90  1  0.004900  0.675700  0.165100  1.0  0.0658
  H  H91  1  0.557800  0.510000  0.943800  1.0  0.0627
  H  H92  1  0.623000  0.513300  0.009400  1.0  0.0814
  H  H93  1  0.253600  0.109200  0.270400  1.0  0.0654
  H  H94  1  0.119400  0.525500  0.016100  1.0  0.0587
  H  H95  1  0.084200  0.431800  0.987400  1.0  0.0606
  H  H96  1  0.935700  0.376900  0.241000  1.0  0.0679
  H  H97  1  0.846300  0.335900  0.287900  1.0  0.0685
  H  H98  1  0.676400  0.327900  0.175900  1.0  0.0636
  H  H99  1  0.780100  0.485000  0.312300  1.0  0.0598
  H  H100  1  0.750900  0.460300  0.242400  1.0  0.0792
  C  C101  1  0.989000  0.198300  0.572100  1.0  0.0751
  C  C102  1  0.708500  0.195200  0.786300  1.0  0.0997
  C  C103  1  0.428000  0.885000  0.791800  1.0  0.0996
  C  C104  1  0.487000  0.100000  0.832100  1.0  -0.1385
  C  C105  1  0.538000  0.186000  0.858500  1.0  -0.0175
  C  C106  1  0.805000  0.059300  0.662300  1.0  0.2323
  C  C107  1  0.687000  0.153300  0.627800  1.0  0.1464
  C  C108  1  0.533000  0.055000  0.577700  1.0  -0.0413
  C  C109  1  0.078000  0.118000  0.482900  1.0  -0.1057
  C  C110  1  0.473000  0.854000  0.698700  1.0  0.1574
  C  C111  1  0.057000  0.014000  0.485800  1.0  -0.1497
  C  C112  1  0.725000  0.334000  0.780400  1.0  0.2037
  C  C113  1  0.557000  0.019800  0.513600  1.0  -0.1411
  C  C114  1  0.396000  0.112400  0.779600  1.0  -0.1465
  C  C115  1  0.131000  0.173800  0.639000  1.0  0.1576
  C  C116  1  0.315000  0.027600  0.772600  1.0  -0.0364
  C  C117  1  0.511000  0.698300  0.927900  1.0  0.0753
  C  C118  1  0.791500  0.695200  0.713700  1.0  0.0989
  C  C119  1  0.072000  0.385000  0.708200  1.0  0.0989
  C  C120  1  0.013000  0.600000  0.667900  1.0  -0.1395
  C  C121  1  0.962000  0.686000  0.641500  1.0  -0.0174
  C  C122  1  0.695000  0.559300  0.837700  1.0  0.2313
  C  C123  1  0.813000  0.653300  0.872200  1.0  0.1456
  C  C124  1  0.967000  0.555000  0.922300  1.0  -0.0392
  C  C125  1  0.422000  0.618000  0.017100  1.0  -0.1007
  C  C126  1  0.027000  0.354000  0.801300  1.0  0.1579
  C  C127  1  0.443000  0.514000  0.014200  1.0  -0.1503
  C  C128  1  0.775000  0.834000  0.719600  1.0  0.2034
  C  C129  1  0.943000  0.519800  0.986400  1.0  -0.1415
  C  C130  1  0.104000  0.612400  0.720400  1.0  -0.1508
  C  C131  1  0.369000  0.673800  0.861000  1.0  0.1561
  C  C132  1  0.185000  0.527600  0.727400  1.0  -0.0354
  C  C133  1  0.011000  0.801700  0.427900  1.0  0.0745
  C  C134  1  0.291500  0.804800  0.213700  1.0  0.0988
  C  C135  1  0.572000  0.115000  0.208200  1.0  0.0988
  C  C136  1  0.513000  0.900000  0.167900  1.0  -0.1389
  C  C137  1  0.462000  0.814000  0.141500  1.0  -0.0168
  C  C138  1  0.195000  0.940700  0.337700  1.0  0.2314
  C  C139  1  0.313000  0.846700  0.372200  1.0  0.1446
  C  C140  1  0.467000  0.945000  0.422300  1.0  -0.0395
  C  C141  1  0.922000  0.882000  0.517100  1.0  -0.1004
  C  C142  1  0.527000  0.146000  0.301300  1.0  0.1574
  C  C143  1  0.943000  0.986000  0.514200  1.0  -0.1509
  C  C144  1  0.275000  0.666000  0.219600  1.0  0.204
  C  C145  1  0.443000  0.980200  0.486400  1.0  -0.143
  C  C146  1  0.604000  0.887600  0.220400  1.0  -0.1502
  C  C147  1  0.869000  0.826200  0.361000  1.0  0.1559
  C  C148  1  0.685000  0.972400  0.227400  1.0  -0.0357
  C  C149  1  0.489000  0.301700  0.072100  1.0  0.0747
  C  C150  1  0.208500  0.304800  0.286300  1.0  0.0998
  C  C151  1  0.928000  0.615000  0.291800  1.0  0.0987
  C  C152  1  0.987000  0.400000  0.332100  1.0  -0.1384
  C  C153  1  0.038000  0.314000  0.358500  1.0  -0.0176
  C  C154  1  0.305000  0.440700  0.162300  1.0  0.2318
  C  C155  1  0.187000  0.346700  0.127800  1.0  0.1457
  C  C156  1  0.033000  0.445000  0.077700  1.0  -0.0403
  C  C157  1  0.578000  0.382000  0.982900  1.0  -0.1055
  C  C158  1  0.973000  0.646000  0.198700  1.0  0.158
  C  C159  1  0.557000  0.486000  0.985800  1.0  -0.1505
  C  C160  1  0.225000  0.166000  0.280400  1.0  0.2028
  C  C161  1  0.057000  0.480200  0.013600  1.0  -0.1429
  C  C162  1  0.896000  0.387600  0.279600  1.0  -0.1473
  C  C163  1  0.631000  0.326200  0.139000  1.0  0.1572
  C  C164  1  0.815000  0.472400  0.272600  1.0  -0.037
  N  N165  1  0.075500  0.154900  0.547100  1.0  0.1639
  N  N166  1  0.018000  0.213700  0.632600  1.0  -0.449
  N  N167  1  0.773000  0.257500  0.761200  1.0  -0.4061
  N  N168  1  0.643000  0.077800  0.614900  1.0  0.1365
  N  N169  1  0.619400  0.226600  0.817600  1.0  0.0557
  N  N170  1  0.487500  0.825800  0.761200  1.0  -0.425
  N  N171  1  0.791400  0.149300  0.658200  1.0  -0.3857
  N  N172  1  0.408000  0.927000  0.693900  1.0  -0.3006
  N  N173  1  0.381000  0.949200  0.752900  1.0  0.1109
  N  N174  1  0.631000  0.320200  0.815800  1.0  -0.4552
  N  N175  1  0.717000  0.012400  0.635800  1.0  -0.3892
  N  N176  1  0.162000  0.140100  0.587900  1.0  -0.2713
  N  N177  1  0.424500  0.654900  0.952900  1.0  0.1653
  N  N178  1  0.482000  0.713700  0.867400  1.0  -0.4492
  N  N179  1  0.727000  0.757500  0.738800  1.0  -0.4071
  N  N180  1  0.857000  0.577800  0.885100  1.0  0.1372
  N  N181  1  0.880600  0.726600  0.682400  1.0  0.0566
  N  N182  1  0.012500  0.325800  0.738800  1.0  -0.4259
  N  N183  1  0.708600  0.649300  0.841800  1.0  -0.3873
  N  N184  1  0.092000  0.427000  0.806100  1.0  -0.3019
  N  N185  1  0.119000  0.449200  0.747100  1.0  0.1114
  N  N186  1  0.869000  0.820200  0.684200  1.0  -0.4579
  N  N187  1  0.783000  0.512400  0.864200  1.0  -0.3891
  N  N188  1  0.338000  0.640100  0.912100  1.0  -0.2721
  N  N189  1  0.924500  0.845100  0.452900  1.0  0.1664
  N  N190  1  0.982000  0.786300  0.367400  1.0  -0.4488
  N  N191  1  0.227000  0.742500  0.238800  1.0  -0.4073
  N  N192  1  0.357000  0.922200  0.385100  1.0  0.1375
  N  N193  1  0.380600  0.773400  0.182400  1.0  0.0574
  N  N194  1  0.512500  0.174200  0.238800  1.0  -0.4254
  N  N195  1  0.208600  0.850700  0.341800  1.0  -0.3871
  N  N196  1  0.592000  0.073000  0.306100  1.0  -0.3016
  N  N197  1  0.619000  0.050800  0.247100  1.0  0.1119
  N  N198  1  0.369000  0.679800  0.184200  1.0  -0.4566
  N  N199  1  0.283000  0.987600  0.364200  1.0  -0.3887
  N  N200  1  0.838000  0.859900  0.412100  1.0  -0.2714
  N  N201  1  0.575500  0.345100  0.047100  1.0  0.1654
  N  N202  1  0.518000  0.286300  0.132600  1.0  -0.4485
  N  N203  1  0.273000  0.242500  0.261200  1.0  -0.4062
  N  N204  1  0.143000  0.422200  0.114900  1.0  0.137
  N  N205  1  0.119400  0.273400  0.317600  1.0  0.0565
  N  N206  1  0.987500  0.674200  0.261200  1.0  -0.4249
  N  N207  1  0.291400  0.350700  0.158200  1.0  -0.3844
  N  N208  1  0.908000  0.573000  0.193900  1.0  -0.3015
  N  N209  1  0.881000  0.550800  0.252900  1.0  0.1125
  N  N210  1  0.131000  0.179800  0.315800  1.0  -0.455
  N  N211  1  0.217000  0.487600  0.135800  1.0  -0.3891
  N  N212  1  0.662000  0.359900  0.087900  1.0  -0.2711
