# generated using pymatgen
data_Ni3Mo12PH60C40(N15O17)2
_symmetry_space_group_name_H-M   'P 1'
_cell_length_a   13.00240000
_cell_length_b   13.47650000
_cell_length_c   19.01070000
_cell_angle_alpha   76.29400000
_cell_angle_beta   85.28400000
_cell_angle_gamma   74.76800000
_symmetry_Int_Tables_number   1
_chemical_formula_structural   Ni3Mo12PH60C40(N15O17)2
_chemical_formula_sum   'Ni3 Mo12 P1 H60 C40 N30 O34'
_cell_volume   3121.92630805
_cell_formula_units_Z   1
loop_
 _symmetry_equiv_pos_site_id
 _symmetry_equiv_pos_as_xyz
  1  'x, y, z'
loop_
 _atom_site_type_symbol
 _atom_site_label
 _atom_site_symmetry_multiplicity
 _atom_site_fract_x
 _atom_site_fract_y
 _atom_site_fract_z
 _atom_site_occupancy
 _atom_site_charge
  Ni  Ni1  1  0.652110  0.766050  0.853850  1.0  0.6427
  Ni  Ni2  1  0.347890  0.233950  0.146150  1.0  0.6438
  Ni  Ni3  1  0.000000  0.000000  0.500000  1.0  0.5111
  Mo  Mo4  1  0.796230  0.181280  0.887290  1.0  1.4494
  Mo  Mo5  1  0.768800  0.141090  0.078720  1.0  1.3674
  Mo  Mo6  1  0.018070  0.024190  0.809720  1.0  1.4415
  Mo  Mo7  1  0.821820  0.862670  0.105890  1.0  1.3559
  Mo  Mo8  1  0.828940  0.904550  0.914970  1.0  1.9677
  Mo  Mo9  1  0.044400  0.722510  0.015850  1.0  1.3608
  Mo  Mo10  1  0.203770  0.818720  0.112710  1.0  1.4447
  Mo  Mo11  1  0.231200  0.858910  0.921280  1.0  1.3689
  Mo  Mo12  1  0.981930  0.975810  0.190280  1.0  1.4326
  Mo  Mo13  1  0.178180  0.137330  0.894110  1.0  1.3567
  Mo  Mo14  1  0.171060  0.095450  0.085030  1.0  1.9676
  Mo  Mo15  1  0.955600  0.277490  0.984150  1.0  1.3613
  P  P16  1  0.000000  0.000000  0.000000  1.0  1.391
  H  H17  1  0.124500  0.292800  0.671400  1.0  0.0834
  H  H18  1  0.028300  0.244800  0.703200  1.0  0.0806
  H  H19  1  0.858100  0.112300  0.351800  1.0  0.1055
  H  H20  1  0.016800  0.409400  0.587000  1.0  0.0698
  H  H21  1  0.921300  0.363700  0.623400  1.0  0.0638
  H  H22  1  0.617700  0.980100  0.509200  1.0  0.0956
  H  H23  1  0.555000  0.894400  0.544600  1.0  0.0831
  H  H24  1  0.527300  0.087000  0.575300  1.0  0.0764
  H  H25  1  0.452500  0.010600  0.605900  1.0  0.0717
  H  H26  1  0.950300  0.522200  0.657700  1.0  0.0895
  H  H27  1  0.036000  0.439800  0.709200  1.0  0.0798
  H  H28  1  0.769600  0.401400  0.269400  1.0  0.0772
  H  H29  1  0.875600  0.429500  0.236000  1.0  0.0784
  H  H30  1  0.907700  0.635900  0.884900  1.0  0.0865
  H  H31  1  0.824700  0.431900  0.717100  1.0  0.0763
  H  H32  1  0.912600  0.367000  0.773700  1.0  0.1011
  H  H33  1  0.221500  0.023800  0.557100  1.0  0.085
  H  H34  1  0.796300  0.647800  0.000700  1.0  0.0791
  H  H35  1  0.923800  0.272600  0.195600  1.0  0.0978
  H  H36  1  0.818900  0.244400  0.231000  1.0  0.0945
  H  H37  1  0.710900  0.596400  0.760200  1.0  0.0902
  H  H38  1  0.800400  0.875900  0.730100  1.0  0.0773
  H  H39  1  0.701600  0.424900  0.158100  1.0  0.0746
  H  H40  1  0.813500  0.420700  0.119400  1.0  0.0851
  H  H41  1  0.499100  0.887200  0.715600  1.0  0.1173
  H  H42  1  0.811500  0.581900  0.142000  1.0  0.0929
  H  H43  1  0.701600  0.585800  0.183200  1.0  0.0984
  H  H44  1  0.940200  0.201200  0.575500  1.0  0.0999
  H  H45  1  0.496000  0.720400  0.988400  1.0  0.0844
  H  H46  1  0.090100  0.198900  0.412700  1.0  0.0604
  H  H47  1  0.875500  0.707200  0.328600  1.0  0.082
  H  H48  1  0.971700  0.755200  0.296800  1.0  0.0805
  H  H49  1  0.141900  0.887700  0.648200  1.0  0.1055
  H  H50  1  0.983200  0.590600  0.413000  1.0  0.0702
  H  H51  1  0.078700  0.636300  0.376600  1.0  0.0635
  H  H52  1  0.382300  0.019900  0.490800  1.0  0.0943
  H  H53  1  0.445000  0.105600  0.455400  1.0  0.086
  H  H54  1  0.472700  0.913000  0.424700  1.0  0.0795
  H  H55  1  0.547500  0.989400  0.394100  1.0  0.0708
  H  H56  1  0.049700  0.477800  0.342300  1.0  0.0901
  H  H57  1  0.964000  0.560200  0.290800  1.0  0.0781
  H  H58  1  0.230400  0.598600  0.730600  1.0  0.0771
  H  H59  1  0.124400  0.570500  0.764000  1.0  0.0777
  H  H60  1  0.092300  0.364100  0.115100  1.0  0.0862
  H  H61  1  0.175300  0.568100  0.282900  1.0  0.0741
  H  H62  1  0.087400  0.633000  0.226300  1.0  0.1016
  H  H63  1  0.778500  0.976200  0.442900  1.0  0.084
  H  H64  1  0.203700  0.352200  0.999300  1.0  0.0791
  H  H65  1  0.076200  0.727400  0.804400  1.0  0.0995
  H  H66  1  0.181100  0.755600  0.769000  1.0  0.0958
  H  H67  1  0.289100  0.403600  0.239800  1.0  0.0888
  H  H68  1  0.199600  0.124100  0.269900  1.0  0.077
  H  H69  1  0.298400  0.575100  0.841900  1.0  0.0732
  H  H70  1  0.186500  0.579300  0.880600  1.0  0.084
  H  H71  1  0.500900  0.112800  0.284400  1.0  0.1156
  H  H72  1  0.188500  0.418100  0.858000  1.0  0.0949
  H  H73  1  0.298400  0.414200  0.816800  1.0  0.0972
  H  H74  1  0.059800  0.798800  0.424500  1.0  0.0995
  H  H75  1  0.504000  0.279600  0.011600  1.0  0.0841
  H  H76  1  0.909900  0.801100  0.587300  1.0  0.0604
  C  C77  1  0.058000  0.280600  0.659200  1.0  -0.0216
  C  C78  1  0.910300  0.147300  0.353800  1.0  0.095
  C  C79  1  0.989000  0.375700  0.632700  1.0  -0.1157
  C  C80  1  0.550000  0.969600  0.530300  1.0  -0.0708
  C  C81  1  0.523800  0.013900  0.587800  1.0  0.0394
  C  C82  1  0.969800  0.449800  0.685300  1.0  -0.1056
  C  C83  1  0.822000  0.393800  0.230400  1.0  -0.0967
  C  C84  1  0.879800  0.610700  0.851100  1.0  0.277
  C  C85  1  0.887800  0.434100  0.739900  1.0  0.0247
  C  C86  1  0.166300  0.078000  0.568100  1.0  0.2267
  C  C87  1  0.724600  0.650800  0.011200  1.0  0.1607
  C  C88  1  0.873100  0.279900  0.235600  1.0  0.0075
  C  C89  1  0.772100  0.590000  0.784800  1.0  0.1295
  C  C90  1  0.732500  0.891000  0.711700  1.0  0.2738
  C  C91  1  0.767700  0.445500  0.157900  1.0  -0.1024
  C  C92  1  0.568400  0.894200  0.705400  1.0  0.1017
  C  C93  1  0.745000  0.561600  0.143600  1.0  0.062
  C  C94  1  0.013600  0.172700  0.576600  1.0  0.1088
  C  C95  1  0.565000  0.689000  0.004800  1.0  0.2259
  C  C96  1  0.035600  0.196200  0.385000  1.0  0.2716
  C  C97  1  0.942000  0.719400  0.340800  1.0  -0.0203
  C  C98  1  0.089700  0.852700  0.646200  1.0  0.095
  C  C99  1  0.011000  0.624300  0.367300  1.0  -0.1173
  C  C100  1  0.450000  0.030400  0.469700  1.0  -0.0722
  C  C101  1  0.476200  0.986100  0.412200  1.0  0.0419
  C  C102  1  0.030200  0.550200  0.314700  1.0  -0.106
  C  C103  1  0.178000  0.606200  0.769600  1.0  -0.0971
  C  C104  1  0.120200  0.389300  0.148900  1.0  0.2765
  C  C105  1  0.112200  0.565900  0.260100  1.0  0.027
  C  C106  1  0.833700  0.922000  0.431900  1.0  0.227
  C  C107  1  0.275400  0.349200  0.988800  1.0  0.1614
  C  C108  1  0.126900  0.720100  0.764400  1.0  0.0078
  C  C109  1  0.227900  0.410000  0.215200  1.0  0.1313
  C  C110  1  0.267500  0.109000  0.288300  1.0  0.2718
  C  C111  1  0.232300  0.554500  0.842100  1.0  -0.1034
  C  C112  1  0.431600  0.105800  0.294600  1.0  0.1069
  C  C113  1  0.255000  0.438400  0.856400  1.0  0.0633
  C  C114  1  0.986400  0.827300  0.423400  1.0  0.1115
  C  C115  1  0.435000  0.311000  0.995200  1.0  0.2266
  C  C116  1  0.964400  0.803800  0.615000  1.0  0.2709
  N  N117  1  0.605900  0.948900  0.643100  1.0  0.1734
  N  N118  1  0.705600  0.950700  0.648100  1.0  -0.3588
  N  N119  1  0.652200  0.852700  0.748800  1.0  -0.3879
  N  N120  1  0.860100  0.520900  0.780100  1.0  0.1243
  N  N121  1  0.935600  0.534100  0.822200  1.0  -0.3647
  N  N122  1  0.778400  0.650500  0.828300  1.0  -0.4031
  N  N123  1  0.651600  0.692200  0.963100  1.0  -0.3933
  N  N124  1  0.587800  0.634500  0.073800  1.0  -0.3465
  N  N125  1  0.689400  0.613900  0.075500  1.0  0.1322
  N  N126  1  0.928900  0.227700  0.304300  1.0  0.1519
  N  N127  1  0.011900  0.261900  0.322900  1.0  -0.3784
  N  N128  1  0.978600  0.124500  0.407400  1.0  -0.4351
  N  N129  1  0.064500  0.090400  0.551500  1.0  -0.3833
  N  N130  1  0.181900  0.147800  0.600800  1.0  -0.3804
  N  N131  1  0.083000  0.208900  0.603900  1.0  0.1317
  N  N132  1  0.394100  0.051100  0.356900  1.0  0.1727
  N  N133  1  0.294400  0.049300  0.351900  1.0  -0.3595
  N  N134  1  0.347800  0.147300  0.251200  1.0  -0.387
  N  N135  1  0.139900  0.479100  0.219900  1.0  0.1242
  N  N136  1  0.064400  0.465900  0.177800  1.0  -0.3646
  N  N137  1  0.221600  0.349500  0.171700  1.0  -0.4023
  N  N138  1  0.348400  0.307800  0.036900  1.0  -0.3918
  N  N139  1  0.412200  0.365500  0.926200  1.0  -0.3479
  N  N140  1  0.310600  0.386100  0.924500  1.0  0.1306
  N  N141  1  0.071100  0.772300  0.695700  1.0  0.1521
  N  N142  1  0.988100  0.738100  0.677100  1.0  -0.3762
  N  N143  1  0.021400  0.875500  0.592600  1.0  -0.4344
  N  N144  1  0.935500  0.909600  0.448500  1.0  -0.3846
  N  N145  1  0.818100  0.852200  0.399200  1.0  -0.3796
  N  N146  1  0.917000  0.791100  0.396100  1.0  0.1325
  O  O147  1  0.921000  0.997300  0.062600  1.0  -0.425
  O  O148  1  0.950000  0.910000  0.009200  1.0  -0.433
  O  O149  1  0.918800  0.104800  0.995200  1.0  -0.4259
  O  O150  1  0.934600  0.018600  0.929700  1.0  -0.7316
  O  O151  1  0.895900  0.143500  0.819400  1.0  -0.7153
  O  O152  1  0.759900  0.046500  0.894100  1.0  -0.7407
  O  O153  1  0.865500  0.083000  0.159900  1.0  -0.7487
  O  O154  1  0.742800  0.009500  0.095400  1.0  -0.733
  O  O155  1  0.925600  0.937700  0.836200  1.0  -0.742
  O  O156  1  0.939400  0.779900  0.944600  1.0  -0.7112
  O  O157  1  0.849000  0.245000  0.050600  1.0  -0.7104
  O  O158  1  0.102700  0.120100  0.822100  1.0  -0.6886
  O  O159  1  0.773500  0.885400  0.006500  1.0  -0.7361
  O  O160  1  0.755200  0.852800  0.874000  1.0  -0.8243
  O  O161  1  0.864200  0.273600  0.909900  1.0  -0.7118
  O  O162  1  0.929400  0.750100  0.085600  1.0  -0.6746
  O  O163  1  0.726200  0.172800  0.984500  1.0  -0.7219
  O  O164  1  0.079000  0.002700  0.937400  1.0  -0.4184
  O  O165  1  0.050000  0.090000  0.990800  1.0  -0.4343
  O  O166  1  0.081200  0.895200  0.004800  1.0  -0.4248
  O  O167  1  0.065400  0.981400  0.070300  1.0  -0.7306
  O  O168  1  0.104100  0.856500  0.180600  1.0  -0.7159
  O  O169  1  0.240100  0.953500  0.105900  1.0  -0.7426
  O  O170  1  0.134500  0.917000  0.840100  1.0  -0.7454
  O  O171  1  0.257200  0.990500  0.904600  1.0  -0.7333
  O  O172  1  0.074400  0.062300  0.163800  1.0  -0.7397
  O  O173  1  0.060600  0.220100  0.055400  1.0  -0.7084
  O  O174  1  0.151000  0.755000  0.949400  1.0  -0.7056
  O  O175  1  0.897300  0.879900  0.177900  1.0  -0.6903
  O  O176  1  0.226500  0.114600  0.993500  1.0  -0.7372
  O  O177  1  0.244800  0.147200  0.126000  1.0  -0.8234
  O  O178  1  0.135800  0.726400  0.090100  1.0  -0.7099
  O  O179  1  0.070600  0.249900  0.914400  1.0  -0.6769
  O  O180  1  0.273800  0.827200  0.015500  1.0  -0.7185
