# generated using pymatgen
data_CuH20C32(S2N)4
_symmetry_space_group_name_H-M   'P 1'
_cell_length_a   15.43700000
_cell_length_b   15.43700000
_cell_length_c   7.51120000
_cell_angle_alpha   90.00000000
_cell_angle_beta   90.00000000
_cell_angle_gamma   90.00000000
_symmetry_Int_Tables_number   1
_chemical_formula_structural   CuH20C32(S2N)4
_chemical_formula_sum   'Cu2 H40 C64 S16 N8'
_cell_volume   1789.92623835
_cell_formula_units_Z   2
loop_
 _symmetry_equiv_pos_site_id
 _symmetry_equiv_pos_as_xyz
  1  'x, y, z'
loop_
 _atom_site_type_symbol
 _atom_site_label
 _atom_site_symmetry_multiplicity
 _atom_site_fract_x
 _atom_site_fract_y
 _atom_site_fract_z
 _atom_site_occupancy
 _atom_site_charge
  Cu  Cu1  1  0.250000  0.750000  0.500000  1.0  0.3421
  Cu  Cu2  1  0.750000  0.250000  0.500000  1.0  0.3421
  H  H3  1  0.590800  0.644500  0.079700  1.0  0.1869
  H  H4  1  0.446600  0.724700  0.585400  1.0  0.0546
  H  H5  1  0.527900  0.674800  0.816000  1.0  0.1073
  H  H6  1  0.313900  0.565800  0.013900  1.0  0.0882
  H  H7  1  0.239100  0.618200  0.775800  1.0  0.0495
  H  H8  1  0.909200  0.855500  0.079700  1.0  0.188
  H  H9  1  0.053400  0.775300  0.585400  1.0  0.0554
  H  H10  1  0.972100  0.825200  0.816000  1.0  0.1053
  H  H11  1  0.186100  0.934200  0.013900  1.0  0.0879
  H  H12  1  0.260900  0.881800  0.775800  1.0  0.0501
  H  H13  1  0.855500  0.590800  0.079700  1.0  0.1888
  H  H14  1  0.775300  0.446600  0.585400  1.0  0.0543
  H  H15  1  0.825200  0.527900  0.816000  1.0  0.1075
  H  H16  1  0.934200  0.313900  0.013900  1.0  0.0882
  H  H17  1  0.881800  0.239100  0.775800  1.0  0.05
  H  H18  1  0.644500  0.909200  0.079700  1.0  0.187
  H  H19  1  0.724700  0.053400  0.585400  1.0  0.055
  H  H20  1  0.674800  0.972100  0.816000  1.0  0.1076
  H  H21  1  0.565800  0.186100  0.013900  1.0  0.0882
  H  H22  1  0.618200  0.260900  0.775800  1.0  0.0498
  H  H23  1  0.409200  0.355500  0.920300  1.0  0.1882
  H  H24  1  0.553400  0.275300  0.414600  1.0  0.0559
  H  H25  1  0.472100  0.325200  0.184000  1.0  0.1057
  H  H26  1  0.686100  0.434200  0.986100  1.0  0.0876
  H  H27  1  0.760900  0.381800  0.224200  1.0  0.0509
  H  H28  1  0.090800  0.144500  0.920300  1.0  0.187
  H  H29  1  0.946600  0.224700  0.414600  1.0  0.0549
  H  H30  1  0.027900  0.174800  0.184000  1.0  0.1066
  H  H31  1  0.813900  0.065800  0.986100  1.0  0.0874
  H  H32  1  0.739100  0.118200  0.224200  1.0  0.051
  H  H33  1  0.144500  0.409200  0.920300  1.0  0.1872
  H  H34  1  0.224700  0.553400  0.414600  1.0  0.0555
  H  H35  1  0.174800  0.472100  0.184000  1.0  0.1076
  H  H36  1  0.065800  0.686100  0.986100  1.0  0.0877
  H  H37  1  0.118200  0.760900  0.224200  1.0  0.051
  H  H38  1  0.355500  0.090800  0.920300  1.0  0.1887
  H  H39  1  0.275300  0.946600  0.414600  1.0  0.0548
  H  H40  1  0.325200  0.027900  0.184000  1.0  0.1077
  H  H41  1  0.434200  0.813900  0.986100  1.0  0.0876
  H  H42  1  0.381800  0.739100  0.224200  1.0  0.0514
  C  C43  1  0.475600  0.590600  0.113000  1.0  -0.1483
  C  C44  1  0.556500  0.612700  0.157600  1.0  0.0032
  C  C45  1  0.503000  0.522500  0.423700  1.0  -0.0468
  C  C46  1  0.419100  0.693600  0.675000  1.0  0.1478
  C  C47  1  0.468700  0.663900  0.813500  1.0  -0.219
  C  C48  1  0.429700  0.617200  0.950300  1.0  0.0329
  C  C49  1  0.342500  0.599600  0.929800  1.0  -0.2048
  C  C50  1  0.297600  0.631600  0.785800  1.0  0.1579
  C  C51  1  0.024400  0.909400  0.113000  1.0  -0.1477
  C  C52  1  0.943500  0.887300  0.157600  1.0  0.0054
  C  C53  1  0.997000  0.977500  0.423700  1.0  -0.0478
  C  C54  1  0.080900  0.806400  0.675000  1.0  0.1487
  C  C55  1  0.031300  0.836100  0.813500  1.0  -0.2196
  C  C56  1  0.070300  0.882800  0.950300  1.0  0.0325
  C  C57  1  0.157500  0.900400  0.929800  1.0  -0.2057
  C  C58  1  0.202400  0.868400  0.785800  1.0  0.1592
  C  C59  1  0.909400  0.475600  0.113000  1.0  -0.1479
  C  C60  1  0.887300  0.556500  0.157600  1.0  0.0011
  C  C61  1  0.977500  0.503000  0.423700  1.0  -0.0473
  C  C62  1  0.806400  0.419100  0.675000  1.0  0.1474
  C  C63  1  0.836100  0.468700  0.813500  1.0  -0.2188
  C  C64  1  0.882800  0.429700  0.950300  1.0  0.0332
  C  C65  1  0.900400  0.342500  0.929800  1.0  -0.2073
  C  C66  1  0.868400  0.297600  0.785800  1.0  0.1594
  C  C67  1  0.590600  0.024400  0.113000  1.0  -0.1479
  C  C68  1  0.612700  0.943500  0.157600  1.0  0.004
  C  C69  1  0.522500  0.997000  0.423700  1.0  -0.047
  C  C70  1  0.693600  0.080900  0.675000  1.0  0.1468
  C  C71  1  0.663900  0.031300  0.813500  1.0  -0.2192
  C  C72  1  0.617200  0.070300  0.950300  1.0  0.0331
  C  C73  1  0.599600  0.157500  0.929800  1.0  -0.2063
  C  C74  1  0.631600  0.202400  0.785800  1.0  0.1582
  C  C75  1  0.524400  0.409400  0.887000  1.0  -0.148
  C  C76  1  0.443500  0.387300  0.842400  1.0  0.0067
  C  C77  1  0.497000  0.477500  0.576300  1.0  -0.0511
  C  C78  1  0.580900  0.306400  0.325000  1.0  0.1485
  C  C79  1  0.531300  0.336100  0.186500  1.0  -0.2193
  C  C80  1  0.570300  0.382800  0.049700  1.0  0.0321
  C  C81  1  0.657500  0.400400  0.070200  1.0  -0.2053
  C  C82  1  0.702400  0.368400  0.214200  1.0  0.1587
  C  C83  1  0.975600  0.090600  0.887000  1.0  -0.1489
  C  C84  1  0.056500  0.112700  0.842400  1.0  0.0056
  C  C85  1  0.003000  0.022500  0.576300  1.0  -0.0495
  C  C86  1  0.919100  0.193600  0.325000  1.0  0.1481
  C  C87  1  0.968700  0.163900  0.186500  1.0  -0.2205
  C  C88  1  0.929700  0.117200  0.049700  1.0  0.033
  C  C89  1  0.842500  0.099600  0.070200  1.0  -0.2051
  C  C90  1  0.797600  0.131600  0.214200  1.0  0.1579
  C  C91  1  0.090600  0.524400  0.887000  1.0  -0.1486
  C  C92  1  0.112700  0.443500  0.842400  1.0  0.0059
  C  C93  1  0.022500  0.497000  0.576300  1.0  -0.0503
  C  C94  1  0.193600  0.580900  0.325000  1.0  0.1468
  C  C95  1  0.163900  0.531300  0.186500  1.0  -0.2194
  C  C96  1  0.117200  0.570300  0.049700  1.0  0.0329
  C  C97  1  0.099600  0.657500  0.070200  1.0  -0.2063
  C  C98  1  0.131600  0.702400  0.214200  1.0  0.1579
  C  C99  1  0.409400  0.975600  0.887000  1.0  -0.1488
  C  C100  1  0.387300  0.056500  0.842400  1.0  0.0038
  C  C101  1  0.477500  0.003000  0.576300  1.0  -0.0501
  C  C102  1  0.306400  0.919100  0.325000  1.0  0.147
  C  C103  1  0.336100  0.968700  0.186500  1.0  -0.2205
  C  C104  1  0.382800  0.929700  0.049700  1.0  0.0339
  C  C105  1  0.400400  0.842500  0.070200  1.0  -0.2071
  C  C106  1  0.368400  0.797600  0.214200  1.0  0.159
  S  S107  1  0.417880  0.529510  0.270470  1.0  0.0153
  S  S108  1  0.596150  0.580870  0.363000  1.0  0.0467
  S  S109  1  0.082120  0.970490  0.270470  1.0  0.0143
  S  S110  1  0.903850  0.919130  0.363000  1.0  0.0468
  S  S111  1  0.970490  0.417880  0.270470  1.0  0.0154
  S  S112  1  0.919130  0.596150  0.363000  1.0  0.0481
  S  S113  1  0.529510  0.082120  0.270470  1.0  0.0151
  S  S114  1  0.580870  0.903850  0.363000  1.0  0.0478
  S  S115  1  0.582120  0.470490  0.729530  1.0  0.0148
  S  S116  1  0.403850  0.419130  0.637000  1.0  0.0452
  S  S117  1  0.917880  0.029510  0.729530  1.0  0.015
  S  S118  1  0.096150  0.080870  0.637000  1.0  0.0454
  S  S119  1  0.029510  0.582120  0.729530  1.0  0.0152
  S  S120  1  0.080870  0.403850  0.637000  1.0  0.0465
  S  S121  1  0.470490  0.917880  0.729530  1.0  0.0156
  S  S122  1  0.419130  0.096150  0.637000  1.0  0.0463
  N  N123  1  0.333200  0.680500  0.660200  1.0  -0.357
  N  N124  1  0.166800  0.819500  0.660200  1.0  -0.358
  N  N125  1  0.819500  0.333200  0.660200  1.0  -0.3587
  N  N126  1  0.680500  0.166800  0.660200  1.0  -0.3572
  N  N127  1  0.666800  0.319500  0.339800  1.0  -0.3537
  N  N128  1  0.833200  0.180500  0.339800  1.0  -0.3552
  N  N129  1  0.180500  0.666800  0.339800  1.0  -0.3554
  N  N130  1  0.319500  0.833200  0.339800  1.0  -0.3547
