# generated using pymatgen
data_Cu2H3C7INO4
_symmetry_space_group_name_H-M   'P 1'
_cell_length_a   19.15010000
_cell_length_b   19.15010000
_cell_length_c   11.11900000
_cell_angle_alpha   90.00000000
_cell_angle_beta   90.00000000
_cell_angle_gamma   90.00000000
_symmetry_Int_Tables_number   1
_chemical_formula_structural   Cu2H3C7INO4
_chemical_formula_sum   'Cu16 H24 C56 I8 N8 O32'
_cell_volume   4077.63006338
_cell_formula_units_Z   8
loop_
 _symmetry_equiv_pos_site_id
 _symmetry_equiv_pos_as_xyz
  1  'x, y, z'
loop_
 _atom_site_type_symbol
 _atom_site_label
 _atom_site_symmetry_multiplicity
 _atom_site_fract_x
 _atom_site_fract_y
 _atom_site_fract_z
 _atom_site_occupancy
 _atom_site_charge
  Cu  Cu1  1  0.680800  0.250000  0.414400  1.0  0.1234
  Cu  Cu2  1  0.819200  0.250000  0.414400  1.0  0.1239
  Cu  Cu3  1  0.250000  0.680800  0.414400  1.0  0.1242
  Cu  Cu4  1  0.250000  0.819200  0.414400  1.0  0.1234
  Cu  Cu5  1  0.319200  0.750000  0.585600  1.0  0.1237
  Cu  Cu6  1  0.180800  0.750000  0.585600  1.0  0.1232
  Cu  Cu7  1  0.750000  0.180800  0.585600  1.0  0.1239
  Cu  Cu8  1  0.750000  0.319200  0.585600  1.0  0.1232
  Cu  Cu9  1  0.530900  0.530900  0.093400  1.0  0.9008
  Cu  Cu10  1  0.969100  0.969100  0.093400  1.0  0.9014
  Cu  Cu11  1  0.969100  0.530900  0.093400  1.0  0.9005
  Cu  Cu12  1  0.530900  0.969100  0.093400  1.0  0.9016
  Cu  Cu13  1  0.469100  0.030900  0.906600  1.0  0.9012
  Cu  Cu14  1  0.030900  0.469100  0.906600  1.0  0.9008
  Cu  Cu15  1  0.030900  0.030900  0.906600  1.0  0.9003
  Cu  Cu16  1  0.469100  0.469100  0.906600  1.0  0.9015
  H  H17  1  0.594100  0.351100  0.275900  1.0  0.1082
  H  H18  1  0.905900  0.148900  0.275900  1.0  0.1081
  H  H19  1  0.148900  0.594100  0.275900  1.0  0.1085
  H  H20  1  0.351100  0.905900  0.275900  1.0  0.108
  H  H21  1  0.405900  0.851100  0.724100  1.0  0.1077
  H  H22  1  0.094100  0.648900  0.724100  1.0  0.108
  H  H23  1  0.851100  0.094100  0.724100  1.0  0.1082
  H  H24  1  0.648900  0.405900  0.724100  1.0  0.1078
  H  H25  1  0.405900  0.648900  0.724100  1.0  0.1078
  H  H26  1  0.094100  0.851100  0.724100  1.0  0.1079
  H  H27  1  0.851100  0.405900  0.724100  1.0  0.1077
  H  H28  1  0.648900  0.094100  0.724100  1.0  0.1082
  H  H29  1  0.594100  0.148900  0.275900  1.0  0.108
  H  H30  1  0.905900  0.351100  0.275900  1.0  0.1081
  H  H31  1  0.148900  0.905900  0.275900  1.0  0.1081
  H  H32  1  0.351100  0.594100  0.275900  1.0  0.1084
  H  H33  1  0.481900  0.250000  0.029700  1.0  0.1412
  H  H34  1  0.018100  0.250000  0.029700  1.0  0.1411
  H  H35  1  0.250000  0.481900  0.029700  1.0  0.1418
  H  H36  1  0.250000  0.018100  0.029700  1.0  0.1418
  H  H37  1  0.518100  0.750000  0.970300  1.0  0.1414
  H  H38  1  0.981900  0.750000  0.970300  1.0  0.1412
  H  H39  1  0.750000  0.981900  0.970300  1.0  0.142
  H  H40  1  0.750000  0.518100  0.970300  1.0  0.1419
  C  C41  1  0.579200  0.309200  0.242300  1.0  0.1886
  C  C42  1  0.534300  0.311900  0.145800  1.0  -0.2067
  C  C43  1  0.515900  0.381600  0.092100  1.0  0.6808
  C  C44  1  0.920800  0.190800  0.242300  1.0  0.1988
  C  C45  1  0.965700  0.188100  0.145800  1.0  -0.2051
  C  C46  1  0.984100  0.118400  0.092100  1.0  0.6808
  C  C47  1  0.190800  0.579200  0.242300  1.0  0.1885
  C  C48  1  0.188100  0.534300  0.145800  1.0  -0.2067
  C  C49  1  0.118400  0.515900  0.092100  1.0  0.6905
  C  C50  1  0.309200  0.920800  0.242300  1.0  0.1898
  C  C51  1  0.311900  0.965700  0.145800  1.0  -0.2064
  C  C52  1  0.381600  0.984100  0.092100  1.0  0.6794
  C  C53  1  0.420800  0.809200  0.757700  1.0  0.1921
  C  C54  1  0.465700  0.811900  0.854200  1.0  -0.2063
  C  C55  1  0.484100  0.881600  0.907900  1.0  0.6797
  C  C56  1  0.079200  0.690800  0.757700  1.0  0.1912
  C  C57  1  0.034300  0.688100  0.854200  1.0  -0.2065
  C  C58  1  0.015900  0.618400  0.907900  1.0  0.6805
  C  C59  1  0.809200  0.079200  0.757700  1.0  0.1858
  C  C60  1  0.811900  0.034300  0.854200  1.0  -0.2058
  C  C61  1  0.881600  0.015900  0.907900  1.0  0.6793
  C  C62  1  0.690800  0.420800  0.757700  1.0  0.1919
  C  C63  1  0.688100  0.465700  0.854200  1.0  -0.2057
  C  C64  1  0.618400  0.484100  0.907900  1.0  0.6787
  C  C65  1  0.420800  0.690800  0.757700  1.0  0.1981
  C  C66  1  0.465700  0.688100  0.854200  1.0  -0.2054
  C  C67  1  0.484100  0.618400  0.907900  1.0  0.6791
  C  C68  1  0.079200  0.809200  0.757700  1.0  0.188
  C  C69  1  0.034300  0.811900  0.854200  1.0  -0.206
  C  C70  1  0.015900  0.881600  0.907900  1.0  0.6803
  C  C71  1  0.809200  0.420800  0.757700  1.0  0.1885
  C  C72  1  0.811900  0.465700  0.854200  1.0  -0.2059
  C  C73  1  0.881600  0.484100  0.907900  1.0  0.6791
  C  C74  1  0.690800  0.079200  0.757700  1.0  0.1884
  C  C75  1  0.688100  0.034300  0.854200  1.0  -0.2064
  C  C76  1  0.618400  0.015900  0.907900  1.0  0.68
  C  C77  1  0.579200  0.190800  0.242300  1.0  0.1923
  C  C78  1  0.534300  0.188100  0.145800  1.0  -0.2065
  C  C79  1  0.515900  0.118400  0.092100  1.0  0.6806
  C  C80  1  0.920800  0.309200  0.242300  1.0  0.1922
  C  C81  1  0.965700  0.311900  0.145800  1.0  -0.2068
  C  C82  1  0.984100  0.381600  0.092100  1.0  0.6803
  C  C83  1  0.190800  0.920800  0.242300  1.0  0.1926
  C  C84  1  0.188100  0.965700  0.145800  1.0  -0.2062
  C  C85  1  0.118400  0.984100  0.092100  1.0  0.6801
  C  C86  1  0.309200  0.579200  0.242300  1.0  0.1867
  C  C87  1  0.311900  0.534300  0.145800  1.0  -0.206
  C  C88  1  0.381600  0.515900  0.092100  1.0  0.6799
  C  C89  1  0.511700  0.250000  0.095800  1.0  0.047
  C  C90  1  0.988300  0.250000  0.095800  1.0  0.0472
  C  C91  1  0.250000  0.511700  0.095800  1.0  0.0469
  C  C92  1  0.250000  0.988300  0.095800  1.0  0.0463
  C  C93  1  0.488300  0.750000  0.904200  1.0  0.047
  C  C94  1  0.011700  0.750000  0.904200  1.0  0.0474
  C  C95  1  0.750000  0.011700  0.904200  1.0  0.0476
  C  C96  1  0.750000  0.488300  0.904200  1.0  0.0463
  I  I97  1  0.629200  0.250000  0.634300  1.0  -0.2277
  I  I98  1  0.870800  0.250000  0.634300  1.0  -0.2287
  I  I99  1  0.250000  0.629200  0.634300  1.0  -0.2291
  I  I100  1  0.250000  0.870800  0.634300  1.0  -0.2292
  I  I101  1  0.370800  0.750000  0.365700  1.0  -0.2289
  I  I102  1  0.129200  0.750000  0.365700  1.0  -0.2279
  I  I103  1  0.750000  0.129200  0.365700  1.0  -0.2289
  I  I104  1  0.750000  0.370800  0.365700  1.0  -0.2294
  N  N105  1  0.602400  0.250000  0.290300  1.0  -0.2899
  N  N106  1  0.897600  0.250000  0.290300  1.0  -0.2863
  N  N107  1  0.250000  0.602400  0.290300  1.0  -0.2893
  N  N108  1  0.250000  0.897600  0.290300  1.0  -0.2873
  N  N109  1  0.397600  0.750000  0.709700  1.0  -0.2865
  N  N110  1  0.102400  0.750000  0.709700  1.0  -0.2905
  N  N111  1  0.750000  0.102400  0.709700  1.0  -0.2892
  N  N112  1  0.750000  0.397600  0.709700  1.0  -0.2879
  O  O113  1  0.483800  0.381500  0.994300  1.0  -0.5491
  O  O114  1  0.536400  0.434000  0.149800  1.0  -0.5725
  O  O115  1  0.016200  0.118500  0.994300  1.0  -0.5488
  O  O116  1  0.963600  0.066000  0.149800  1.0  -0.5723
  O  O117  1  0.118500  0.483800  0.994300  1.0  -0.5491
  O  O118  1  0.066000  0.536400  0.149800  1.0  -0.5715
  O  O119  1  0.381500  0.016200  0.994300  1.0  -0.5494
  O  O120  1  0.434000  0.963600  0.149800  1.0  -0.5722
  O  O121  1  0.516200  0.881500  0.005700  1.0  -0.549
  O  O122  1  0.463600  0.934000  0.850200  1.0  -0.572
  O  O123  1  0.983800  0.618500  0.005700  1.0  -0.5486
  O  O124  1  0.036400  0.566000  0.850200  1.0  -0.5737
  O  O125  1  0.881500  0.983800  0.005700  1.0  -0.5492
  O  O126  1  0.934000  0.036400  0.850200  1.0  -0.5733
  O  O127  1  0.618500  0.516200  0.005700  1.0  -0.5488
  O  O128  1  0.566000  0.463600  0.850200  1.0  -0.5717
  O  O129  1  0.516200  0.618500  0.005700  1.0  -0.5489
  O  O130  1  0.463600  0.566000  0.850200  1.0  -0.5719
  O  O131  1  0.983800  0.881500  0.005700  1.0  -0.5488
  O  O132  1  0.036400  0.934000  0.850200  1.0  -0.5738
  O  O133  1  0.881500  0.516200  0.005700  1.0  -0.549
  O  O134  1  0.934000  0.463600  0.850200  1.0  -0.5723
  O  O135  1  0.618500  0.983800  0.005700  1.0  -0.5491
  O  O136  1  0.566000  0.036400  0.850200  1.0  -0.5724
  O  O137  1  0.483800  0.118500  0.994300  1.0  -0.5488
  O  O138  1  0.536400  0.066000  0.149800  1.0  -0.5728
  O  O139  1  0.016200  0.381500  0.994300  1.0  -0.5489
  O  O140  1  0.963600  0.434000  0.149800  1.0  -0.5713
  O  O141  1  0.118500  0.016200  0.994300  1.0  -0.5487
  O  O142  1  0.066000  0.963600  0.149800  1.0  -0.5715
  O  O143  1  0.381500  0.483800  0.994300  1.0  -0.5496
  O  O144  1  0.434000  0.536400  0.149800  1.0  -0.572
