# generated using pymatgen
data_Cu2H3C7INO4
_symmetry_space_group_name_H-M   'P 1'
_cell_length_a   19.35770000
_cell_length_b   19.35770000
_cell_length_c   11.02420000
_cell_angle_alpha   90.00000000
_cell_angle_beta   90.00000000
_cell_angle_gamma   90.00000000
_symmetry_Int_Tables_number   1
_chemical_formula_structural   Cu2H3C7INO4
_chemical_formula_sum   'Cu16 H24 C56 I8 N8 O32'
_cell_volume   4130.99427948
_cell_formula_units_Z   8
loop_
 _symmetry_equiv_pos_site_id
 _symmetry_equiv_pos_as_xyz
  1  'x, y, z'
loop_
 _atom_site_type_symbol
 _atom_site_label
 _atom_site_symmetry_multiplicity
 _atom_site_fract_x
 _atom_site_fract_y
 _atom_site_fract_z
 _atom_site_occupancy
 _atom_site_charge
  Cu  Cu1  1  0.250000  0.680890  0.087870  1.0  0.1198
  Cu  Cu2  1  0.250000  0.819110  0.087870  1.0  0.1183
  Cu  Cu3  1  0.819110  0.250000  0.087870  1.0  0.1186
  Cu  Cu4  1  0.680890  0.250000  0.087870  1.0  0.1185
  Cu  Cu5  1  0.750000  0.180890  0.912130  1.0  0.1201
  Cu  Cu6  1  0.750000  0.319110  0.912130  1.0  0.1185
  Cu  Cu7  1  0.180890  0.750000  0.912130  1.0  0.1187
  Cu  Cu8  1  0.319110  0.750000  0.912130  1.0  0.1188
  Cu  Cu9  1  0.467470  0.467470  0.601400  1.0  0.8695
  Cu  Cu10  1  0.032530  0.032530  0.601400  1.0  0.8709
  Cu  Cu11  1  0.032530  0.467470  0.601400  1.0  0.8691
  Cu  Cu12  1  0.467470  0.032530  0.601400  1.0  0.871
  Cu  Cu13  1  0.532530  0.967470  0.398600  1.0  0.8685
  Cu  Cu14  1  0.967470  0.532530  0.398600  1.0  0.8717
  Cu  Cu15  1  0.967470  0.967470  0.398600  1.0  0.8708
  Cu  Cu16  1  0.532530  0.532530  0.398600  1.0  0.8697
  H  H17  1  0.349700  0.595300  0.228000  1.0  0.1085
  H  H18  1  0.150300  0.904700  0.228000  1.0  0.1075
  H  H19  1  0.904700  0.349700  0.228000  1.0  0.1077
  H  H20  1  0.595300  0.150300  0.228000  1.0  0.1083
  H  H21  1  0.650300  0.095300  0.772000  1.0  0.1079
  H  H22  1  0.849700  0.404700  0.772000  1.0  0.1076
  H  H23  1  0.095300  0.849700  0.772000  1.0  0.1081
  H  H24  1  0.404700  0.650300  0.772000  1.0  0.1079
  H  H25  1  0.650300  0.404700  0.772000  1.0  0.1073
  H  H26  1  0.849700  0.095300  0.772000  1.0  0.1081
  H  H27  1  0.095300  0.650300  0.772000  1.0  0.1079
  H  H28  1  0.404700  0.849700  0.772000  1.0  0.1077
  H  H29  1  0.349700  0.904700  0.228000  1.0  0.1078
  H  H30  1  0.150300  0.595300  0.228000  1.0  0.1082
  H  H31  1  0.904700  0.150300  0.228000  1.0  0.1081
  H  H32  1  0.595300  0.349700  0.228000  1.0  0.1083
  H  H33  1  0.250000  0.482600  0.472900  1.0  0.1365
  H  H34  1  0.250000  0.017400  0.472900  1.0  0.1366
  H  H35  1  0.017400  0.250000  0.472900  1.0  0.1356
  H  H36  1  0.482600  0.250000  0.472900  1.0  0.1356
  H  H37  1  0.750000  0.982600  0.527100  1.0  0.1361
  H  H38  1  0.750000  0.517400  0.527100  1.0  0.1365
  H  H39  1  0.982600  0.750000  0.527100  1.0  0.1355
  H  H40  1  0.517400  0.750000  0.527100  1.0  0.1353
  C  C41  1  0.308300  0.579300  0.259900  1.0  0.1995
  C  C42  1  0.311500  0.533700  0.355900  1.0  -0.2064
  C  C43  1  0.381100  0.515700  0.411100  1.0  0.7191
  C  C44  1  0.191700  0.920700  0.259900  1.0  0.2071
  C  C45  1  0.188500  0.966300  0.355900  1.0  -0.2048
  C  C46  1  0.118900  0.984300  0.411100  1.0  0.7204
  C  C47  1  0.920700  0.308300  0.259900  1.0  0.2058
  C  C48  1  0.966300  0.311500  0.355900  1.0  -0.2067
  C  C49  1  0.984300  0.381100  0.411100  1.0  0.7215
  C  C50  1  0.579300  0.191700  0.259900  1.0  0.2028
  C  C51  1  0.533700  0.188500  0.355900  1.0  -0.2061
  C  C52  1  0.515700  0.118900  0.411100  1.0  0.7217
  C  C53  1  0.691700  0.079300  0.740100  1.0  0.2017
  C  C54  1  0.688500  0.033700  0.644100  1.0  -0.2065
  C  C55  1  0.618900  0.015700  0.588900  1.0  0.7314
  C  C56  1  0.808300  0.420700  0.740100  1.0  0.2041
  C  C57  1  0.811500  0.466300  0.644100  1.0  -0.2061
  C  C58  1  0.881100  0.484300  0.588900  1.0  0.7211
  C  C59  1  0.079300  0.808300  0.740100  1.0  0.2023
  C  C60  1  0.033700  0.811500  0.644100  1.0  -0.2062
  C  C61  1  0.015700  0.881100  0.588900  1.0  0.7251
  C  C62  1  0.420700  0.691700  0.740100  1.0  0.2107
  C  C63  1  0.466300  0.688500  0.644100  1.0  -0.2055
  C  C64  1  0.484300  0.618900  0.588900  1.0  0.7246
  C  C65  1  0.691700  0.420700  0.740100  1.0  0.2077
  C  C66  1  0.688500  0.466300  0.644100  1.0  -0.2051
  C  C67  1  0.618900  0.484300  0.588900  1.0  0.7239
  C  C68  1  0.808300  0.079300  0.740100  1.0  0.2001
  C  C69  1  0.811500  0.033700  0.644100  1.0  -0.2067
  C  C70  1  0.881100  0.015700  0.588900  1.0  0.7228
  C  C71  1  0.079300  0.691700  0.740100  1.0  0.2041
  C  C72  1  0.033700  0.688500  0.644100  1.0  -0.2063
  C  C73  1  0.015700  0.618900  0.588900  1.0  0.7328
  C  C74  1  0.420700  0.808300  0.740100  1.0  0.2058
  C  C75  1  0.466300  0.811500  0.644100  1.0  -0.2068
  C  C76  1  0.484300  0.881100  0.588900  1.0  0.7236
  C  C77  1  0.308300  0.920700  0.259900  1.0  0.2028
  C  C78  1  0.311500  0.966300  0.355900  1.0  -0.2058
  C  C79  1  0.381100  0.984300  0.411100  1.0  0.7201
  C  C80  1  0.191700  0.579300  0.259900  1.0  0.202
  C  C81  1  0.188500  0.533700  0.355900  1.0  -0.2062
  C  C82  1  0.118900  0.515700  0.411100  1.0  0.7212
  C  C83  1  0.920700  0.191700  0.259900  1.0  0.2101
  C  C84  1  0.966300  0.188500  0.355900  1.0  -0.2056
  C  C85  1  0.984300  0.118900  0.411100  1.0  0.7211
  C  C86  1  0.579300  0.308300  0.259900  1.0  0.2015
  C  C87  1  0.533700  0.311500  0.355900  1.0  -0.2059
  C  C88  1  0.515700  0.381100  0.411100  1.0  0.7212
  C  C89  1  0.250000  0.511900  0.406000  1.0  0.0412
  C  C90  1  0.250000  0.988100  0.406000  1.0  0.0398
  C  C91  1  0.988100  0.250000  0.406000  1.0  0.0418
  C  C92  1  0.511900  0.250000  0.406000  1.0  0.0415
  C  C93  1  0.750000  0.011900  0.594000  1.0  0.041
  C  C94  1  0.750000  0.488100  0.594000  1.0  0.0404
  C  C95  1  0.011900  0.750000  0.594000  1.0  0.0418
  C  C96  1  0.488100  0.750000  0.594000  1.0  0.0421
  I  I97  1  0.250000  0.631080  0.864730  1.0  -0.2363
  I  I98  1  0.250000  0.868920  0.864730  1.0  -0.2372
  I  I99  1  0.868920  0.250000  0.864730  1.0  -0.238
  I  I100  1  0.631080  0.250000  0.864730  1.0  -0.2372
  I  I101  1  0.750000  0.131080  0.135270  1.0  -0.2367
  I  I102  1  0.750000  0.368920  0.135270  1.0  -0.2371
  I  I103  1  0.131080  0.750000  0.135270  1.0  -0.237
  I  I104  1  0.368920  0.750000  0.135270  1.0  -0.2378
  N  N105  1  0.250000  0.601700  0.210000  1.0  -0.2759
  N  N106  1  0.250000  0.898300  0.210000  1.0  -0.2748
  N  N107  1  0.898300  0.250000  0.210000  1.0  -0.2736
  N  N108  1  0.601700  0.250000  0.210000  1.0  -0.2768
  N  N109  1  0.750000  0.101700  0.790000  1.0  -0.2744
  N  N110  1  0.750000  0.398300  0.790000  1.0  -0.2727
  N  N111  1  0.101700  0.750000  0.790000  1.0  -0.2741
  N  N112  1  0.398300  0.750000  0.790000  1.0  -0.2721
  O  O113  1  0.380400  0.483400  0.508400  1.0  -0.5625
  O  O114  1  0.431900  0.535400  0.353600  1.0  -0.5956
  O  O115  1  0.119600  0.016600  0.508400  1.0  -0.562
  O  O116  1  0.068100  0.964600  0.353600  1.0  -0.5945
  O  O117  1  0.016600  0.380400  0.508400  1.0  -0.5624
  O  O118  1  0.964600  0.431900  0.353600  1.0  -0.5955
  O  O119  1  0.483400  0.119600  0.508400  1.0  -0.5619
  O  O120  1  0.535400  0.068100  0.353600  1.0  -0.5955
  O  O121  1  0.619600  0.983400  0.491600  1.0  -0.5618
  O  O122  1  0.568100  0.035400  0.646400  1.0  -0.594
  O  O123  1  0.880400  0.516600  0.491600  1.0  -0.5616
  O  O124  1  0.931900  0.464600  0.646400  1.0  -0.5937
  O  O125  1  0.983400  0.880400  0.491600  1.0  -0.5621
  O  O126  1  0.035400  0.931900  0.646400  1.0  -0.5946
  O  O127  1  0.516600  0.619600  0.491600  1.0  -0.5618
  O  O128  1  0.464600  0.568100  0.646400  1.0  -0.5945
  O  O129  1  0.619600  0.516600  0.491600  1.0  -0.5611
  O  O130  1  0.568100  0.464600  0.646400  1.0  -0.5936
  O  O131  1  0.880400  0.983400  0.491600  1.0  -0.5625
  O  O132  1  0.931900  0.035400  0.646400  1.0  -0.5943
  O  O133  1  0.983400  0.619600  0.491600  1.0  -0.5624
  O  O134  1  0.035400  0.568100  0.646400  1.0  -0.5942
  O  O135  1  0.516600  0.880400  0.491600  1.0  -0.5615
  O  O136  1  0.464600  0.931900  0.646400  1.0  -0.5945
  O  O137  1  0.380400  0.016600  0.508400  1.0  -0.5621
  O  O138  1  0.431900  0.964600  0.353600  1.0  -0.5954
  O  O139  1  0.119600  0.483400  0.508400  1.0  -0.562
  O  O140  1  0.068100  0.535400  0.353600  1.0  -0.5945
  O  O141  1  0.016600  0.119600  0.508400  1.0  -0.5624
  O  O142  1  0.964600  0.068100  0.353600  1.0  -0.5953
  O  O143  1  0.483400  0.380400  0.508400  1.0  -0.5624
  O  O144  1  0.535400  0.431900  0.353600  1.0  -0.5952
