# generated using pymatgen
data_Cd2H24C36N3(ClO2)3
_symmetry_space_group_name_H-M   'P 1'
_cell_length_a   18.19600000
_cell_length_b   18.19600000
_cell_length_c   15.12700000
_cell_angle_alpha   90.00000000
_cell_angle_beta   90.00000000
_cell_angle_gamma   120.00000000
_symmetry_Int_Tables_number   1
_chemical_formula_structural   Cd2H24C36N3(ClO2)3
_chemical_formula_sum   'Cd8 H96 C144 N12 Cl12 O24'
_cell_volume   4337.45812387
_cell_formula_units_Z   4
loop_
 _symmetry_equiv_pos_site_id
 _symmetry_equiv_pos_as_xyz
  1  'x, y, z'
loop_
 _atom_site_type_symbol
 _atom_site_label
 _atom_site_symmetry_multiplicity
 _atom_site_fract_x
 _atom_site_fract_y
 _atom_site_fract_z
 _atom_site_occupancy
 _atom_site_charge
  Cd  Cd1  1  0.333333  0.666667  0.750000  1.0  0.8029
  Cd  Cd2  1  0.666667  0.333333  0.250000  1.0  0.8029
  Cd  Cd3  1  0.211500  0.423000  0.750000  1.0  0.897
  Cd  Cd4  1  0.577000  0.788500  0.750000  1.0  0.8985
  Cd  Cd5  1  0.211500  0.788500  0.750000  1.0  0.8993
  Cd  Cd6  1  0.788500  0.577000  0.250000  1.0  0.8975
  Cd  Cd7  1  0.423000  0.211500  0.250000  1.0  0.8992
  Cd  Cd8  1  0.788500  0.211500  0.250000  1.0  0.8984
  H  H9  1  0.981700  0.181300  0.913700  1.0  0.1153
  H  H10  1  0.926600  0.349800  0.808900  1.0  0.1054
  H  H11  1  0.839800  0.096800  0.957200  1.0  0.1172
  H  H12  1  0.786700  0.268100  0.856700  1.0  0.1233
  H  H13  1  0.712100  0.208600  0.011400  1.0  0.1013
  H  H14  1  0.695300  0.017000  0.878200  1.0  0.1039
  H  H15  1  0.574400  0.128400  0.058900  1.0  0.1121
  H  H16  1  0.553000  0.935500  0.915900  1.0  0.1156
  H  H17  1  0.818700  0.800400  0.913700  1.0  0.1146
  H  H18  1  0.650200  0.576800  0.808900  1.0  0.1051
  H  H19  1  0.903200  0.743000  0.957200  1.0  0.1178
  H  H20  1  0.731900  0.518600  0.856700  1.0  0.1231
  H  H21  1  0.791400  0.503500  0.011400  1.0  0.1013
  H  H22  1  0.983000  0.678300  0.878200  1.0  0.1047
  H  H23  1  0.871600  0.446000  0.058900  1.0  0.1125
  H  H24  1  0.064500  0.617500  0.915900  1.0  0.1145
  H  H25  1  0.199600  0.018300  0.913700  1.0  0.1149
  H  H26  1  0.423200  0.073400  0.808900  1.0  0.1062
  H  H27  1  0.257000  0.160200  0.957200  1.0  0.1177
  H  H28  1  0.481400  0.213300  0.856700  1.0  0.1239
  H  H29  1  0.496500  0.287900  0.011400  1.0  0.1035
  H  H30  1  0.321700  0.304700  0.878200  1.0  0.105
  H  H31  1  0.554000  0.425600  0.058900  1.0  0.1119
  H  H32  1  0.382500  0.447000  0.915900  1.0  0.1149
  H  H33  1  0.818700  0.018300  0.586300  1.0  0.1159
  H  H34  1  0.650200  0.073400  0.691100  1.0  0.1064
  H  H35  1  0.903200  0.160200  0.542800  1.0  0.1184
  H  H36  1  0.731900  0.213300  0.643300  1.0  0.1238
  H  H37  1  0.791400  0.287900  0.488600  1.0  0.1032
  H  H38  1  0.983000  0.304700  0.621800  1.0  0.105
  H  H39  1  0.871600  0.425600  0.441100  1.0  0.1121
  H  H40  1  0.064500  0.447000  0.584100  1.0  0.1139
  H  H41  1  0.199600  0.181300  0.586300  1.0  0.1145
  H  H42  1  0.423200  0.349800  0.691100  1.0  0.1057
  H  H43  1  0.257000  0.096800  0.542800  1.0  0.1167
  H  H44  1  0.481400  0.268100  0.643300  1.0  0.1234
  H  H45  1  0.496500  0.208600  0.488600  1.0  0.1014
  H  H46  1  0.321700  0.017000  0.621800  1.0  0.1038
  H  H47  1  0.554000  0.128400  0.441100  1.0  0.1127
  H  H48  1  0.382500  0.935500  0.584100  1.0  0.1161
  H  H49  1  0.981700  0.800400  0.586300  1.0  0.1149
  H  H50  1  0.926600  0.576800  0.691100  1.0  0.1061
  H  H51  1  0.839800  0.743000  0.542800  1.0  0.1181
  H  H52  1  0.786700  0.518600  0.643300  1.0  0.1235
  H  H53  1  0.712100  0.503500  0.488600  1.0  0.101
  H  H54  1  0.695300  0.678300  0.621800  1.0  0.1041
  H  H55  1  0.574400  0.446000  0.441100  1.0  0.1122
  H  H56  1  0.553000  0.617500  0.584100  1.0  0.1146
  H  H57  1  0.018300  0.818700  0.086300  1.0  0.1148
  H  H58  1  0.073400  0.650200  0.191100  1.0  0.1059
  H  H59  1  0.160200  0.903200  0.042800  1.0  0.1175
  H  H60  1  0.213300  0.731900  0.143300  1.0  0.1234
  H  H61  1  0.287900  0.791400  0.988600  1.0  0.1014
  H  H62  1  0.304700  0.983000  0.121800  1.0  0.1036
  H  H63  1  0.425600  0.871600  0.941100  1.0  0.1131
  H  H64  1  0.447000  0.064500  0.084100  1.0  0.1163
  H  H65  1  0.181300  0.199600  0.086300  1.0  0.114
  H  H66  1  0.349800  0.423200  0.191100  1.0  0.1063
  H  H67  1  0.096800  0.257000  0.042800  1.0  0.117
  H  H68  1  0.268100  0.481400  0.143300  1.0  0.1227
  H  H69  1  0.208600  0.496500  0.988600  1.0  0.1013
  H  H70  1  0.017000  0.321700  0.121800  1.0  0.1042
  H  H71  1  0.128400  0.554000  0.941100  1.0  0.1125
  H  H72  1  0.935500  0.382500  0.084100  1.0  0.115
  H  H73  1  0.800400  0.981700  0.086300  1.0  0.1159
  H  H74  1  0.576800  0.926600  0.191100  1.0  0.1062
  H  H75  1  0.743000  0.839800  0.042800  1.0  0.1184
  H  H76  1  0.518600  0.786700  0.143300  1.0  0.1239
  H  H77  1  0.503500  0.712100  0.988600  1.0  0.1032
  H  H78  1  0.678300  0.695300  0.121800  1.0  0.1047
  H  H79  1  0.446000  0.574400  0.941100  1.0  0.1126
  H  H80  1  0.617500  0.553000  0.084100  1.0  0.1143
  H  H81  1  0.181300  0.981700  0.413700  1.0  0.1151
  H  H82  1  0.349800  0.926600  0.308900  1.0  0.106
  H  H83  1  0.096800  0.839800  0.457200  1.0  0.1176
  H  H84  1  0.268100  0.786700  0.356700  1.0  0.1236
  H  H85  1  0.208600  0.712100  0.511400  1.0  0.1032
  H  H86  1  0.017000  0.695300  0.378200  1.0  0.105
  H  H87  1  0.128400  0.574400  0.558900  1.0  0.1124
  H  H88  1  0.935500  0.553000  0.415900  1.0  0.1149
  H  H89  1  0.800400  0.818700  0.413700  1.0  0.1158
  H  H90  1  0.576800  0.650200  0.308900  1.0  0.1052
  H  H91  1  0.743000  0.903200  0.457200  1.0  0.1175
  H  H92  1  0.518600  0.731900  0.356700  1.0  0.1232
  H  H93  1  0.503500  0.791400  0.511400  1.0  0.1016
  H  H94  1  0.678300  0.983000  0.378200  1.0  0.104
  H  H95  1  0.446000  0.871600  0.558900  1.0  0.1123
  H  H96  1  0.617500  0.064500  0.415900  1.0  0.1161
  H  H97  1  0.018300  0.199600  0.413700  1.0  0.1142
  H  H98  1  0.073400  0.423200  0.308900  1.0  0.1059
  H  H99  1  0.160200  0.257000  0.457200  1.0  0.1174
  H  H100  1  0.213300  0.481400  0.356700  1.0  0.1229
  H  H101  1  0.287900  0.496500  0.511400  1.0  0.101
  H  H102  1  0.304700  0.321700  0.378200  1.0  0.1045
  H  H103  1  0.425600  0.554000  0.558900  1.0  0.1123
  H  H104  1  0.447000  0.382500  0.415900  1.0  0.1148
  C  C105  1  0.056700  0.324800  0.821900  1.0  0.6882
  C  C106  1  0.966100  0.271600  0.853300  1.0  -0.1119
  C  C107  1  0.941400  0.198100  0.899700  1.0  -0.0563
  C  C108  1  0.909200  0.297600  0.838600  1.0  -0.0661
  C  C109  1  0.857500  0.148400  0.926200  1.0  -0.1693
  C  C110  1  0.826000  0.249000  0.866500  1.0  -0.1794
  C  C111  1  0.800800  0.174500  0.907400  1.0  0.1608
  C  C112  1  0.678500  0.152300  0.989800  1.0  0.0564
  C  C113  1  0.668600  0.041500  0.911400  1.0  0.0122
  C  C114  1  0.596200  0.105200  0.017100  1.0  -0.1888
  C  C115  1  0.584500  0.992800  0.935000  1.0  -0.1654
  C  C116  1  0.545300  0.026000  0.985700  1.0  0.0927
  C  C117  1  0.675200  0.731900  0.821900  1.0  0.6888
  C  C118  1  0.728400  0.694500  0.853300  1.0  -0.1087
  C  C119  1  0.801900  0.743300  0.899700  1.0  -0.0596
  C  C120  1  0.702400  0.611600  0.838600  1.0  -0.0672
  C  C121  1  0.851600  0.709100  0.926200  1.0  -0.1716
  C  C122  1  0.751000  0.577000  0.866500  1.0  -0.1828
  C  C123  1  0.825500  0.626300  0.907400  1.0  0.161
  C  C124  1  0.847700  0.526200  0.989800  1.0  0.0567
  C  C125  1  0.958500  0.627100  0.911400  1.0  0.0139
  C  C126  1  0.894800  0.491000  0.017100  1.0  -0.1851
  C  C127  1  0.007200  0.591700  0.935000  1.0  -0.1671
  C  C128  1  0.974000  0.519300  0.985700  1.0  0.0928
  C  C129  1  0.268100  0.943300  0.821900  1.0  0.69
  C  C130  1  0.305500  0.033900  0.853300  1.0  -0.1125
  C  C131  1  0.256700  0.058600  0.899700  1.0  -0.0565
  C  C132  1  0.388400  0.090800  0.838600  1.0  -0.066
  C  C133  1  0.290900  0.142500  0.926200  1.0  -0.1682
  C  C134  1  0.423000  0.174000  0.866500  1.0  -0.1782
  C  C135  1  0.373700  0.199200  0.907400  1.0  0.1608
  C  C136  1  0.473800  0.321500  0.989800  1.0  0.0603
  C  C137  1  0.372900  0.331400  0.911400  1.0  0.0112
  C  C138  1  0.509000  0.403800  0.017100  1.0  -0.1845
  C  C139  1  0.408300  0.415500  0.935000  1.0  -0.1657
  C  C140  1  0.480700  0.454700  0.985700  1.0  0.093
  C  C141  1  0.675200  0.943300  0.678100  1.0  0.6915
  C  C142  1  0.728400  0.033900  0.646700  1.0  -0.1118
  C  C143  1  0.801900  0.058600  0.600300  1.0  -0.0559
  C  C144  1  0.702400  0.090800  0.661400  1.0  -0.0664
  C  C145  1  0.851600  0.142500  0.573800  1.0  -0.1684
  C  C146  1  0.751000  0.174000  0.633500  1.0  -0.1779
  C  C147  1  0.825500  0.199200  0.592600  1.0  0.1607
  C  C148  1  0.847700  0.321500  0.510200  1.0  0.0588
  C  C149  1  0.958500  0.331400  0.588600  1.0  0.0106
  C  C150  1  0.894800  0.403800  0.482900  1.0  -0.1841
  C  C151  1  0.007200  0.415500  0.565000  1.0  -0.1655
  C  C152  1  0.974000  0.454700  0.514300  1.0  0.0922
  C  C153  1  0.268100  0.324800  0.678100  1.0  0.6884
  C  C154  1  0.305500  0.271600  0.646700  1.0  -0.113
  C  C155  1  0.256700  0.198100  0.600300  1.0  -0.0552
  C  C156  1  0.388400  0.297600  0.661400  1.0  -0.0667
  C  C157  1  0.290900  0.148400  0.573800  1.0  -0.1693
  C  C158  1  0.423000  0.249000  0.633500  1.0  -0.1804
  C  C159  1  0.373700  0.174500  0.592600  1.0  0.1606
  C  C160  1  0.473800  0.152300  0.510200  1.0  0.0569
  C  C161  1  0.372900  0.041500  0.588600  1.0  0.0125
  C  C162  1  0.509000  0.105200  0.482900  1.0  -0.1866
  C  C163  1  0.408300  0.992800  0.565000  1.0  -0.1668
  C  C164  1  0.480700  0.026000  0.514300  1.0  0.0929
  C  C165  1  0.056700  0.731900  0.678100  1.0  0.6901
  C  C166  1  0.966100  0.694500  0.646700  1.0  -0.1095
  C  C167  1  0.941400  0.743300  0.600300  1.0  -0.0576
  C  C168  1  0.909200  0.611600  0.661400  1.0  -0.0681
  C  C169  1  0.857500  0.709100  0.573800  1.0  -0.1711
  C  C170  1  0.826000  0.577000  0.633500  1.0  -0.1829
  C  C171  1  0.800800  0.626300  0.592600  1.0  0.1598
  C  C172  1  0.678500  0.526200  0.510200  1.0  0.0582
  C  C173  1  0.668600  0.627100  0.588600  1.0  0.013
  C  C174  1  0.596200  0.491000  0.482900  1.0  -0.1846
  C  C175  1  0.584500  0.591700  0.565000  1.0  -0.1685
  C  C176  1  0.545300  0.519300  0.514300  1.0  0.0927
  C  C177  1  0.943300  0.675200  0.178100  1.0  0.6883
  C  C178  1  0.033900  0.728400  0.146700  1.0  -0.1127
  C  C179  1  0.058600  0.801900  0.100300  1.0  -0.0561
  C  C180  1  0.090800  0.702400  0.161400  1.0  -0.0673
  C  C181  1  0.142500  0.851600  0.073800  1.0  -0.1698
  C  C182  1  0.174000  0.751000  0.133500  1.0  -0.1789
  C  C183  1  0.199200  0.825500  0.092600  1.0  0.1606
  C  C184  1  0.321500  0.847700  0.010200  1.0  0.0574
  C  C185  1  0.331400  0.958500  0.088600  1.0  0.0122
  C  C186  1  0.403800  0.894800  0.982900  1.0  -0.1851
  C  C187  1  0.415500  0.007200  0.065000  1.0  -0.1661
  C  C188  1  0.454700  0.974000  0.014300  1.0  0.0928
  C  C189  1  0.324800  0.268100  0.178100  1.0  0.6903
  C  C190  1  0.271600  0.305500  0.146700  1.0  -0.1096
  C  C191  1  0.198100  0.256700  0.100300  1.0  -0.06
  C  C192  1  0.297600  0.388400  0.161400  1.0  -0.0677
  C  C193  1  0.148400  0.290900  0.073800  1.0  -0.1702
  C  C194  1  0.249000  0.423000  0.133500  1.0  -0.1823
  C  C195  1  0.174500  0.373700  0.092600  1.0  0.1598
  C  C196  1  0.152300  0.473800  0.010200  1.0  0.0579
  C  C197  1  0.041500  0.372900  0.088600  1.0  0.0121
  C  C198  1  0.105200  0.509000  0.982900  1.0  -0.1857
  C  C199  1  0.992800  0.408300  0.065000  1.0  -0.168
  C  C200  1  0.026000  0.480700  0.014300  1.0  0.0925
  C  C201  1  0.731900  0.056700  0.178100  1.0  0.691
  C  C202  1  0.694500  0.966100  0.146700  1.0  -0.1112
  C  C203  1  0.743300  0.941400  0.100300  1.0  -0.0552
  C  C204  1  0.611600  0.909200  0.161400  1.0  -0.0663
  C  C205  1  0.709100  0.857500  0.073800  1.0  -0.1688
  C  C206  1  0.577000  0.826000  0.133500  1.0  -0.1775
  C  C207  1  0.626300  0.800800  0.092600  1.0  0.1609
  C  C208  1  0.526200  0.678500  0.010200  1.0  0.0596
  C  C209  1  0.627100  0.668600  0.088600  1.0  0.0106
  C  C210  1  0.491000  0.596200  0.982900  1.0  -0.1845
  C  C211  1  0.591700  0.584500  0.065000  1.0  -0.1652
  C  C212  1  0.519300  0.545300  0.014300  1.0  0.0925
  C  C213  1  0.324800  0.056700  0.321900  1.0  0.6904
  C  C214  1  0.271600  0.966100  0.353300  1.0  -0.1113
  C  C215  1  0.198100  0.941400  0.399700  1.0  -0.057
  C  C216  1  0.297600  0.909200  0.338600  1.0  -0.066
  C  C217  1  0.148400  0.857500  0.426200  1.0  -0.1687
  C  C218  1  0.249000  0.826000  0.366500  1.0  -0.1775
  C  C219  1  0.174500  0.800800  0.407400  1.0  0.1609
  C  C220  1  0.152300  0.678500  0.489800  1.0  0.0611
  C  C221  1  0.041500  0.668600  0.411400  1.0  0.0112
  C  C222  1  0.105200  0.596200  0.517100  1.0  -0.1843
  C  C223  1  0.992800  0.584500  0.435000  1.0  -0.165
  C  C224  1  0.026000  0.545300  0.485700  1.0  0.0932
  C  C225  1  0.731900  0.675200  0.321900  1.0  0.6886
  C  C226  1  0.694500  0.728400  0.353300  1.0  -0.1121
  C  C227  1  0.743300  0.801900  0.399700  1.0  -0.0559
  C  C228  1  0.611600  0.702400  0.338600  1.0  -0.0676
  C  C229  1  0.709100  0.851600  0.426200  1.0  -0.17
  C  C230  1  0.577000  0.751000  0.366500  1.0  -0.1796
  C  C231  1  0.626300  0.825500  0.407400  1.0  0.1607
  C  C232  1  0.526200  0.847700  0.489800  1.0  0.0571
  C  C233  1  0.627100  0.958500  0.411400  1.0  0.0131
  C  C234  1  0.491000  0.894800  0.517100  1.0  -0.1867
  C  C235  1  0.591700  0.007200  0.435000  1.0  -0.165
  C  C236  1  0.519300  0.974000  0.485700  1.0  0.0923
  C  C237  1  0.943300  0.268100  0.321900  1.0  0.6895
  C  C238  1  0.033900  0.305500  0.353300  1.0  -0.109
  C  C239  1  0.058600  0.256700  0.399700  1.0  -0.0624
  C  C240  1  0.090800  0.388400  0.338600  1.0  -0.0663
  C  C241  1  0.142500  0.290900  0.426200  1.0  -0.1716
  C  C242  1  0.174000  0.423000  0.366500  1.0  -0.1812
  C  C243  1  0.199200  0.373700  0.407400  1.0  0.161
  C  C244  1  0.321500  0.473800  0.489800  1.0  0.0554
  C  C245  1  0.331400  0.372900  0.411400  1.0  0.0132
  C  C246  1  0.403800  0.509000  0.517100  1.0  -0.1872
  C  C247  1  0.415500  0.408300  0.435000  1.0  -0.1663
  C  C248  1  0.454700  0.480700  0.485700  1.0  0.0931
  N  N249  1  0.712300  0.122500  0.935100  1.0  0.1181
  N  N250  1  0.877500  0.589800  0.935100  1.0  0.1201
  N  N251  1  0.410200  0.287700  0.935100  1.0  0.1196
  N  N252  1  0.877500  0.287700  0.564900  1.0  0.1188
  N  N253  1  0.410200  0.122500  0.564900  1.0  0.1191
  N  N254  1  0.712300  0.589800  0.564900  1.0  0.1202
  N  N255  1  0.287700  0.877500  0.064900  1.0  0.1196
  N  N256  1  0.122500  0.410200  0.064900  1.0  0.1204
  N  N257  1  0.589800  0.712300  0.064900  1.0  0.1182
  N  N258  1  0.122500  0.712300  0.435100  1.0  0.1191
  N  N259  1  0.589800  0.877500  0.435100  1.0  0.1185
  N  N260  1  0.287700  0.410200  0.435100  1.0  0.1203
  Cl  Cl261  1  0.229700  0.540430  0.646070  1.0  -0.4869
  Cl  Cl262  1  0.459570  0.689270  0.646070  1.0  -0.488
  Cl  Cl263  1  0.310730  0.770300  0.646070  1.0  -0.4872
  Cl  Cl264  1  0.459570  0.770300  0.853930  1.0  -0.4884
  Cl  Cl265  1  0.310730  0.540430  0.853930  1.0  -0.4863
  Cl  Cl266  1  0.229700  0.689270  0.853930  1.0  -0.4869
  Cl  Cl267  1  0.770300  0.459570  0.353930  1.0  -0.486
  Cl  Cl268  1  0.540430  0.310730  0.353930  1.0  -0.4867
  Cl  Cl269  1  0.689270  0.229700  0.353930  1.0  -0.4887
  Cl  Cl270  1  0.540430  0.229700  0.146070  1.0  -0.4873
  Cl  Cl271  1  0.689270  0.459570  0.146070  1.0  -0.4867
  Cl  Cl272  1  0.770300  0.310730  0.146070  1.0  -0.4878
  O  O273  1  0.113900  0.315100  0.854700  1.0  -0.6052
  O  O274  1  0.071800  0.377200  0.763300  1.0  -0.5849
  O  O275  1  0.684900  0.798800  0.854700  1.0  -0.6029
  O  O276  1  0.622800  0.694600  0.763300  1.0  -0.5828
  O  O277  1  0.201200  0.886100  0.854700  1.0  -0.6036
  O  O278  1  0.305400  0.928200  0.763300  1.0  -0.5814
  O  O279  1  0.684900  0.886100  0.645300  1.0  -0.6021
  O  O280  1  0.622800  0.928200  0.736700  1.0  -0.5829
  O  O281  1  0.201200  0.315100  0.645300  1.0  -0.6046
  O  O282  1  0.305400  0.377200  0.736700  1.0  -0.5864
  O  O283  1  0.113900  0.798800  0.645300  1.0  -0.601
  O  O284  1  0.071800  0.694600  0.736700  1.0  -0.5841
  O  O285  1  0.886100  0.684900  0.145300  1.0  -0.6046
  O  O286  1  0.928200  0.622800  0.236700  1.0  -0.5846
  O  O287  1  0.315100  0.201200  0.145300  1.0  -0.6008
  O  O288  1  0.377200  0.305400  0.236700  1.0  -0.5841
  O  O289  1  0.798800  0.113900  0.145300  1.0  -0.6027
  O  O290  1  0.694600  0.071800  0.236700  1.0  -0.5836
  O  O291  1  0.315100  0.113900  0.354700  1.0  -0.6041
  O  O292  1  0.377200  0.071800  0.263300  1.0  -0.5821
  O  O293  1  0.798800  0.684900  0.354700  1.0  -0.6047
  O  O294  1  0.694600  0.622800  0.263300  1.0  -0.5852
  O  O295  1  0.886100  0.201200  0.354700  1.0  -0.603
  O  O296  1  0.928200  0.305400  0.263300  1.0  -0.5833
