# generated using pymatgen
data_AgH4C4IN3
_symmetry_space_group_name_H-M   'P 1'
_cell_length_a   7.73340000
_cell_length_b   25.83300000
_cell_length_c   12.06230000
_cell_angle_alpha   90.00000000
_cell_angle_beta   106.85400000
_cell_angle_gamma   90.00000000
_symmetry_Int_Tables_number   1
_chemical_formula_structural   AgH4C4IN3
_chemical_formula_sum   'Ag8 H32 C32 I8 N24'
_cell_volume   2306.26154952
_cell_formula_units_Z   8
loop_
 _symmetry_equiv_pos_site_id
 _symmetry_equiv_pos_as_xyz
  1  'x, y, z'
loop_
 _atom_site_type_symbol
 _atom_site_label
 _atom_site_symmetry_multiplicity
 _atom_site_fract_x
 _atom_site_fract_y
 _atom_site_fract_z
 _atom_site_occupancy
 _atom_site_charge
  Ag  Ag1  1  0.864630  0.646950  0.208890  1.0  0.279
  Ag  Ag2  1  0.506060  0.891780  0.171240  1.0  0.2775
  Ag  Ag3  1  0.506060  0.608220  0.671240  1.0  0.2769
  Ag  Ag4  1  0.864630  0.853050  0.708890  1.0  0.2788
  Ag  Ag5  1  0.493940  0.391780  0.328760  1.0  0.2777
  Ag  Ag6  1  0.135370  0.146950  0.291110  1.0  0.2793
  Ag  Ag7  1  0.135370  0.353050  0.791110  1.0  0.2792
  Ag  Ag8  1  0.493940  0.108220  0.828760  1.0  0.277
  H  H9  1  0.264600  0.676700  0.522900  1.0  0.3286
  H  H10  1  0.119900  0.685700  0.412500  1.0  0.3327
  H  H11  1  0.352100  0.509400  0.552300  1.0  0.0618
  H  H12  1  0.968200  0.533100  0.256700  1.0  0.0738
  H  H13  1  0.661900  0.930900  0.396800  1.0  0.3453
  H  H14  1  0.728900  0.920400  0.523500  1.0  0.3357
  H  H15  1  0.582500  0.779400  0.227600  1.0  0.0573
  H  H16  1  0.752400  0.752700  0.566100  1.0  0.0644
  H  H17  1  0.661900  0.569100  0.896800  1.0  0.3475
  H  H18  1  0.728900  0.579600  0.023500  1.0  0.3358
  H  H19  1  0.582500  0.720600  0.727600  1.0  0.0577
  H  H20  1  0.752400  0.747300  0.066100  1.0  0.0645
  H  H21  1  0.264600  0.823300  0.022900  1.0  0.3289
  H  H22  1  0.119900  0.814300  0.912500  1.0  0.3314
  H  H23  1  0.352100  0.990600  0.052300  1.0  0.0614
  H  H24  1  0.968200  0.966900  0.756700  1.0  0.0738
  H  H25  1  0.338100  0.430900  0.103200  1.0  0.3456
  H  H26  1  0.271100  0.420400  0.976500  1.0  0.3354
  H  H27  1  0.417500  0.279400  0.272400  1.0  0.0582
  H  H28  1  0.247600  0.252700  0.933900  1.0  0.0649
  H  H29  1  0.735400  0.176700  0.977100  1.0  0.327
  H  H30  1  0.880100  0.185700  0.087500  1.0  0.333
  H  H31  1  0.647900  0.009400  0.947700  1.0  0.0603
  H  H32  1  0.031800  0.033100  0.243300  1.0  0.0751
  H  H33  1  0.735400  0.323300  0.477100  1.0  0.3269
  H  H34  1  0.880100  0.314300  0.587500  1.0  0.3321
  H  H35  1  0.647900  0.490600  0.447700  1.0  0.0607
  H  H36  1  0.031800  0.466900  0.743300  1.0  0.0751
  H  H37  1  0.338100  0.069100  0.603200  1.0  0.3474
  H  H38  1  0.271100  0.079600  0.476500  1.0  0.3351
  H  H39  1  0.417500  0.220600  0.772400  1.0  0.0581
  H  H40  1  0.247600  0.247300  0.433900  1.0  0.0656
  C  C41  1  0.156100  0.510830  0.402000  1.0  -0.0351
  C  C42  1  0.277500  0.531670  0.498700  1.0  0.1655
  C  C43  1  0.180400  0.614100  0.439800  1.0  0.5067
  C  C44  1  0.050200  0.545800  0.323600  1.0  0.1533
  C  C45  1  0.618700  0.791460  0.303500  1.0  0.1621
  C  C46  1  0.662400  0.756090  0.392500  1.0  -0.0473
  C  C47  1  0.721600  0.775630  0.504100  1.0  0.1401
  C  C48  1  0.683900  0.859000  0.432600  1.0  0.4967
  C  C49  1  0.618700  0.708540  0.803500  1.0  0.1622
  C  C50  1  0.662400  0.743910  0.892500  1.0  -0.0479
  C  C51  1  0.721600  0.724370  0.004100  1.0  0.1393
  C  C52  1  0.683900  0.641000  0.932600  1.0  0.4969
  C  C53  1  0.156100  0.989170  0.902000  1.0  -0.0335
  C  C54  1  0.277500  0.968330  0.998700  1.0  0.1649
  C  C55  1  0.180400  0.885900  0.939800  1.0  0.5073
  C  C56  1  0.050200  0.954200  0.823600  1.0  0.153
  C  C57  1  0.381300  0.291460  0.196500  1.0  0.1612
  C  C58  1  0.337600  0.256090  0.107500  1.0  -0.0468
  C  C59  1  0.278400  0.275630  0.995900  1.0  0.1389
  C  C60  1  0.316100  0.359000  0.067400  1.0  0.4973
  C  C61  1  0.843900  0.010830  0.098000  1.0  -0.0356
  C  C62  1  0.722500  0.031670  0.001300  1.0  0.1673
  C  C63  1  0.819600  0.114100  0.060200  1.0  0.5066
  C  C64  1  0.949800  0.045800  0.176400  1.0  0.1526
  C  C65  1  0.843900  0.489170  0.598000  1.0  -0.0349
  C  C66  1  0.722500  0.468330  0.501300  1.0  0.1672
  C  C67  1  0.819600  0.385900  0.560200  1.0  0.5073
  C  C68  1  0.949800  0.454200  0.676400  1.0  0.1525
  C  C69  1  0.381300  0.208540  0.696500  1.0  0.1605
  C  C70  1  0.337600  0.243910  0.607500  1.0  -0.0476
  C  C71  1  0.278400  0.224370  0.495900  1.0  0.1389
  C  C72  1  0.316100  0.141000  0.567400  1.0  0.4976
  I  I73  1  0.129330  0.431390  0.373160  1.0  -0.253
  I  I74  1  0.620030  0.677000  0.361070  1.0  -0.2739
  I  I75  1  0.620030  0.823000  0.861070  1.0  -0.2705
  I  I76  1  0.129330  0.068610  0.873160  1.0  -0.2516
  I  I77  1  0.379970  0.177000  0.138930  1.0  -0.2743
  I  I78  1  0.870670  0.931390  0.126840  1.0  -0.2538
  I  I79  1  0.870670  0.568610  0.626840  1.0  -0.2524
  I  I80  1  0.379970  0.323000  0.638930  1.0  -0.2709
  N  N81  1  0.061300  0.596850  0.340500  1.0  -0.4791
  N  N82  1  0.189400  0.664850  0.460900  1.0  -0.7261
  N  N83  1  0.292200  0.582440  0.518300  1.0  -0.4273
  N  N84  1  0.735700  0.826390  0.525200  1.0  -0.4039
  N  N85  1  0.692600  0.909270  0.453400  1.0  -0.7374
  N  N86  1  0.626600  0.842070  0.322000  1.0  -0.4035
  N  N87  1  0.735700  0.673610  0.025200  1.0  -0.4028
  N  N88  1  0.692600  0.590730  0.953400  1.0  -0.7396
  N  N89  1  0.626600  0.657930  0.822000  1.0  -0.4038
  N  N90  1  0.061300  0.903150  0.840500  1.0  -0.48
  N  N91  1  0.189400  0.835150  0.960900  1.0  -0.7266
  N  N92  1  0.292200  0.917560  0.018300  1.0  -0.4274
  N  N93  1  0.264300  0.326390  0.974800  1.0  -0.4036
  N  N94  1  0.307400  0.409270  0.046600  1.0  -0.735
  N  N95  1  0.373400  0.342070  0.178000  1.0  -0.402
  N  N96  1  0.938700  0.096850  0.159500  1.0  -0.4754
  N  N97  1  0.810600  0.164850  0.039100  1.0  -0.7249
  N  N98  1  0.707800  0.082440  0.981700  1.0  -0.4244
  N  N99  1  0.938700  0.403150  0.659500  1.0  -0.4755
  N  N100  1  0.810600  0.335150  0.539100  1.0  -0.726
  N  N101  1  0.707800  0.417560  0.481700  1.0  -0.4258
  N  N102  1  0.264300  0.173610  0.474800  1.0  -0.4041
  N  N103  1  0.307400  0.090730  0.546600  1.0  -0.738
  N  N104  1  0.373400  0.157930  0.678000  1.0  -0.4012
