# generated using pymatgen
data_ScH4C8O5
_symmetry_space_group_name_H-M   'P 1'
_cell_length_a   12.38500000
_cell_length_b   15.35200000
_cell_length_c   25.03780000
_cell_angle_alpha   107.85300000
_cell_angle_beta   104.31900000
_cell_angle_gamma   90.00010000
_symmetry_Int_Tables_number   1
_chemical_formula_structural   ScH4C8O5
_chemical_formula_sum   'Sc12 H48 C96 O60'
_cell_volume   4375.67740353
_cell_formula_units_Z   12
loop_
 _symmetry_equiv_pos_site_id
 _symmetry_equiv_pos_as_xyz
  1  'x, y, z'
loop_
 _atom_site_type_symbol
 _atom_site_label
 _atom_site_symmetry_multiplicity
 _atom_site_fract_x
 _atom_site_fract_y
 _atom_site_fract_z
 _atom_site_occupancy
 _atom_site_charge
  Sc  Sc1  1  0.479340  0.041690  0.208540  1.0  2.0488
  Sc  Sc2  1  0.687450  0.999800  0.124860  1.0  2.0454
  Sc  Sc3  1  0.604120  0.791730  0.458180  1.0  2.0555
  Sc  Sc4  1  0.229200  0.166850  0.208540  1.0  2.0491
  Sc  Sc5  1  0.937410  0.125060  0.124860  1.0  2.0426
  Sc  Sc6  1  0.354060  0.666450  0.458180  1.0  2.0573
  Sc  Sc7  1  0.270800  0.458310  0.791460  1.0  2.0468
  Sc  Sc8  1  0.562590  0.500200  0.875140  1.0  2.0446
  Sc  Sc9  1  0.145940  0.708270  0.541820  1.0  2.0583
  Sc  Sc10  1  0.020660  0.333150  0.791460  1.0  2.0499
  Sc  Sc11  1  0.812550  0.374940  0.875140  1.0  2.047
  Sc  Sc12  1  0.895880  0.833550  0.541820  1.0  2.0569
  H  H13  1  0.569000  0.128100  0.158000  1.0  0.4494
  H  H14  1  0.924300  0.939000  0.255600  1.0  0.0912
  H  H15  1  0.101200  0.014400  0.293400  1.0  0.0933
  H  H16  1  0.405000  0.916700  0.333600  1.0  0.096
  H  H17  1  0.142100  0.819700  0.374600  1.0  0.0901
  H  H18  1  0.001600  0.895800  0.411800  1.0  0.0905
  H  H19  1  0.678400  0.917600  0.333400  1.0  0.0989
  H  H20  1  0.242400  0.848000  0.077400  1.0  0.0809
  H  H21  1  0.066100  0.885900  0.039200  1.0  0.0816
  H  H22  1  0.089000  0.029900  0.158000  1.0  0.4498
  H  H23  1  0.831300  0.316600  0.255600  1.0  0.0906
  H  H24  1  0.692200  0.279000  0.293400  1.0  0.0933
  H  H25  1  0.428600  0.416900  0.333600  1.0  0.0956
  H  H26  1  0.732500  0.554900  0.374600  1.0  0.0918
  H  H27  1  0.910200  0.516000  0.411800  1.0  0.0923
  H  H28  1  0.155000  0.415800  0.333400  1.0  0.0992
  H  H29  1  0.335000  0.229400  0.077400  1.0  0.0792
  H  H30  1  0.473100  0.153300  0.039200  1.0  0.0804
  H  H31  1  0.411000  0.371900  0.842000  1.0  0.4493
  H  H32  1  0.668700  0.561000  0.744400  1.0  0.0905
  H  H33  1  0.807800  0.485600  0.706600  1.0  0.0917
  H  H34  1  0.071400  0.583300  0.666400  1.0  0.0956
  H  H35  1  0.767500  0.680300  0.625400  1.0  0.0913
  H  H36  1  0.589800  0.604200  0.588200  1.0  0.0913
  H  H37  1  0.345000  0.582400  0.666667  1.0  0.0986
  H  H38  1  0.165000  0.652000  0.922600  1.0  0.0799
  H  H39  1  0.026900  0.614100  0.960800  1.0  0.0812
  H  H40  1  0.931000  0.470100  0.842000  1.0  0.4497
  H  H41  1  0.575700  0.183400  0.744400  1.0  0.0923
  H  H42  1  0.398800  0.221000  0.706600  1.0  0.0932
  H  H43  1  0.095000  0.083100  0.666400  1.0  0.098
  H  H44  1  0.357900  0.945100  0.625400  1.0  0.0916
  H  H45  1  0.498400  0.984000  0.588200  1.0  0.0912
  H  H46  1  0.821600  0.084200  0.666667  1.0  0.0954
  H  H47  1  0.257600  0.270600  0.922600  1.0  0.08
  H  H48  1  0.433900  0.346700  0.960800  1.0  0.0811
  H  H49  1  0.850600  0.100600  0.201200  1.0  0.4803
  H  H50  1  0.649400  0.399400  0.798800  1.0  0.4804
  H  H51  1  0.316100  0.066100  0.132200  1.0  0.478
  H  H52  1  0.183900  0.433900  0.867800  1.0  0.4786
  H  H53  1  0.517200  0.767200  0.534400  1.0  0.4795
  H  H54  1  0.982800  0.732800  0.465600  1.0  0.478
  H  H55  1  0.750000  0.698000  0.500000  1.0  0.483
  H  H56  1  0.250000  0.802000  0.500000  1.0  0.4823
  H  H57  1  0.487600  0.750000  0.000000  1.0  0.0941
  H  H58  1  0.761400  0.750000  0.000000  1.0  0.1002
  H  H59  1  0.012400  0.250000  0.000000  1.0  0.0938
  H  H60  1  0.738600  0.250000  0.000000  1.0  0.1005
  C  C61  1  0.704600  0.953000  0.240600  1.0  0.7411
  C  C62  1  0.789300  0.931300  0.287600  1.0  -0.1611
  C  C63  1  0.901800  0.930100  0.287200  1.0  -0.1034
  C  C64  1  0.980800  0.915900  0.333200  1.0  0.0066
  C  C65  1  0.102100  0.915900  0.333200  1.0  0.0107
  C  C66  1  0.147200  0.974000  0.309200  1.0  -0.0817
  C  C67  1  0.259800  0.972200  0.308200  1.0  -0.1533
  C  C68  1  0.304200  0.028300  0.278800  1.0  0.7225
  C  C69  1  0.328200  0.916600  0.333400  1.0  -0.016
  C  C70  1  0.284400  0.860500  0.358400  1.0  -0.1604
  C  C71  1  0.358900  0.805600  0.388600  1.0  0.731
  C  C72  1  0.171600  0.859200  0.358000  1.0  -0.0982
  C  C73  1  0.947400  0.903100  0.379600  1.0  -0.0821
  C  C74  1  0.834200  0.901100  0.379000  1.0  -0.1783
  C  C75  1  0.755000  0.916800  0.333200  1.0  -0.0225
  C  C76  1  0.796800  0.881100  0.426000  1.0  0.7419
  C  C77  1  0.461000  0.880800  0.093000  1.0  0.71
  C  C78  1  0.379000  0.810300  0.045800  1.0  -0.147
  C  C79  1  0.264900  0.808200  0.045400  1.0  -0.0863
  C  C80  1  0.019600  0.829900  0.023400  1.0  -0.1024
  C  C81  1  0.906800  0.831200  0.024800  1.0  -0.1662
  C  C82  1  0.862400  0.916400  0.055200  1.0  0.7337
  C  C83  1  0.036000  0.287600  0.240600  1.0  0.7416
  C  C84  1  0.998300  0.356300  0.287600  1.0  -0.162
  C  C85  1  0.885400  0.357100  0.287200  1.0  -0.1035
  C  C86  1  0.852400  0.417300  0.333200  1.0  0.0066
  C  C87  1  0.731100  0.417300  0.333200  1.0  0.0106
  C  C88  1  0.662000  0.335200  0.309200  1.0  -0.0806
  C  C89  1  0.548400  0.336000  0.308200  1.0  -0.1533
  C  C90  1  0.474600  0.250500  0.278800  1.0  0.7233
  C  C91  1  0.505200  0.416800  0.333400  1.0  -0.0176
  C  C92  1  0.574000  0.497900  0.358400  1.0  -0.1598
  C  C93  1  0.529700  0.583000  0.388600  1.0  0.7312
  C  C94  1  0.686400  0.498800  0.358000  1.0  -0.1007
  C  C95  1  0.932200  0.476500  0.379600  1.0  -0.0838
  C  C96  1  0.044800  0.477900  0.379000  1.0  -0.1768
  C  C97  1  0.078200  0.416400  0.333200  1.0  -0.0206
  C  C98  1  0.129200  0.544900  0.426000  1.0  0.7385
  C  C99  1  0.132000  0.212200  0.093000  1.0  0.7128
  C  C100  1  0.166800  0.235500  0.045800  1.0  -0.1457
  C  C101  1  0.280500  0.237200  0.045400  1.0  -0.0862
  C  C102  1  0.503800  0.193500  0.023400  1.0  -0.1004
  C  C103  1  0.618000  0.193600  0.024800  1.0  -0.167
  C  C104  1  0.692800  0.138800  0.055200  1.0  0.7326
  C  C105  1  0.464000  0.547000  0.759400  1.0  0.7428
  C  C106  1  0.501700  0.568700  0.712400  1.0  -0.1627
  C  C107  1  0.614600  0.569900  0.712800  1.0  -0.1019
  C  C108  1  0.647600  0.584100  0.666800  1.0  0.0065
  C  C109  1  0.768900  0.584100  0.666800  1.0  0.0107
  C  C110  1  0.838000  0.526000  0.690800  1.0  -0.081
  C  C111  1  0.951600  0.527800  0.691800  1.0  -0.1549
  C  C112  1  0.025400  0.471700  0.721200  1.0  0.7228
  C  C113  1  0.994800  0.583400  0.666667  1.0  -0.0164
  C  C114  1  0.926000  0.639500  0.641600  1.0  -0.16
  C  C115  1  0.970300  0.694400  0.611400  1.0  0.73
  C  C116  1  0.813600  0.640800  0.642000  1.0  -0.0987
  C  C117  1  0.567800  0.596900  0.620400  1.0  -0.0824
  C  C118  1  0.455200  0.598900  0.621000  1.0  -0.177
  C  C119  1  0.421800  0.583200  0.666800  1.0  -0.0207
  C  C120  1  0.370800  0.618900  0.574000  1.0  0.7389
  C  C121  1  0.368000  0.619200  0.907000  1.0  0.7182
  C  C122  1  0.333200  0.689700  0.954200  1.0  -0.1431
  C  C123  1  0.219500  0.691800  0.954600  1.0  -0.0861
  C  C124  1  0.996200  0.670100  0.976600  1.0  -0.1005
  C  C125  1  0.882000  0.668800  0.975200  1.0  -0.1665
  C  C126  1  0.807200  0.583600  0.944800  1.0  0.7338
  C  C127  1  0.795400  0.212400  0.759400  1.0  0.74
  C  C128  1  0.710700  0.143700  0.712400  1.0  -0.1619
  C  C129  1  0.598200  0.142900  0.712800  1.0  -0.1042
  C  C130  1  0.519200  0.082700  0.666800  1.0  0.0065
  C  C131  1  0.397900  0.082700  0.666800  1.0  0.0105
  C  C132  1  0.352800  0.164800  0.690800  1.0  -0.0801
  C  C133  1  0.240200  0.164000  0.691800  1.0  -0.1535
  C  C134  1  0.195800  0.249500  0.721200  1.0  0.7245
  C  C135  1  0.171800  0.083200  0.666667  1.0  -0.0174
  C  C136  1  0.215600  0.002100  0.641600  1.0  -0.1601
  C  C137  1  0.141100  0.917000  0.611400  1.0  0.7312
  C  C138  1  0.328400  0.001200  0.642000  1.0  -0.0979
  C  C139  1  0.552600  0.023500  0.620400  1.0  -0.084
  C  C140  1  0.665800  0.022100  0.621000  1.0  -0.1773
  C  C141  1  0.745000  0.083600  0.666800  1.0  -0.0198
  C  C142  1  0.703200  0.955100  0.574000  1.0  0.74
  C  C143  1  0.039000  0.287800  0.907000  1.0  0.7174
  C  C144  1  0.121000  0.264500  0.954200  1.0  -0.1426
  C  C145  1  0.235100  0.262800  0.954600  1.0  -0.0877
  C  C146  1  0.480400  0.306500  0.976600  1.0  -0.1023
  C  C147  1  0.593200  0.306400  0.975200  1.0  -0.1664
  C  C148  1  0.637600  0.361200  0.944800  1.0  0.7346
  C  C149  1  0.410900  0.750000  0.000000  1.0  -0.0
  C  C150  1  0.185900  0.750000  0.000000  1.0  -0.0197
  C  C151  1  0.063700  0.750000  0.000000  1.0  -0.0142
  C  C152  1  0.838100  0.750000  0.000000  1.0  -0.0146
  C  C153  1  0.089100  0.250000  0.000000  1.0  -0.0028
  C  C154  1  0.314100  0.250000  0.000000  1.0  -0.0195
  C  C155  1  0.436300  0.250000  0.000000  1.0  -0.0145
  C  C156  1  0.661900  0.250000  0.000000  1.0  -0.0121
  O  O157  1  0.729130  0.941030  0.192660  1.0  -0.6698
  O  O158  1  0.615170  0.982270  0.251740  1.0  -0.6447
  O  O159  1  0.696290  0.850790  0.415180  1.0  -0.6544
  O  O160  1  0.869980  0.892680  0.474160  1.0  -0.6728
  O  O161  1  0.315520  0.737220  0.396240  1.0  -0.6658
  O  O162  1  0.463300  0.829600  0.404400  1.0  -0.6659
  O  O163  1  0.392280  0.003480  0.262160  1.0  -0.6768
  O  O164  1  0.253110  0.096410  0.270420  1.0  -0.6677
  O  O165  1  0.551940  0.897840  0.081680  1.0  -0.6585
  O  O166  1  0.438080  0.915680  0.141360  1.0  -0.6691
  O  O167  1  0.913600  0.992900  0.062800  1.0  -0.6647
  O  O168  1  0.774000  0.908300  0.071200  1.0  -0.6791
  O  O169  1  0.583680  0.080980  0.167160  1.0  -1.0056
  O  O170  1  0.963530  0.251630  0.192660  1.0  -0.6691
  O  O171  1  0.136570  0.269470  0.251740  1.0  -0.6486
  O  O172  1  0.218890  0.564390  0.415180  1.0  -0.6521
  O  O173  1  0.104180  0.581480  0.474160  1.0  -0.6735
  O  O174  1  0.580720  0.659020  0.396240  1.0  -0.6648
  O  O175  1  0.441100  0.574800  0.404400  1.0  -0.6671
  O  O176  1  0.369880  0.258680  0.262160  1.0  -0.6758
  O  O177  1  0.517310  0.174010  0.270420  1.0  -0.6684
  O  O178  1  0.029740  0.183840  0.081680  1.0  -0.6622
  O  O179  1  0.203280  0.225680  0.141360  1.0  -0.6677
  O  O180  1  0.649200  0.069900  0.062800  1.0  -0.6654
  O  O181  1  0.797200  0.162900  0.071200  1.0  -0.6775
  O  O182  1  0.083480  0.086180  0.167160  1.0  -1.0068
  O  O183  1  0.536470  0.558970  0.807340  1.0  -0.6692
  O  O184  1  0.363430  0.517730  0.748260  1.0  -0.648
  O  O185  1  0.281110  0.649210  0.584820  1.0  -0.6509
  O  O186  1  0.395820  0.607320  0.525840  1.0  -0.675
  O  O187  1  0.919280  0.762780  0.603760  1.0  -0.6634
  O  O188  1  0.058900  0.670400  0.595600  1.0  -0.6673
  O  O189  1  0.130120  0.496520  0.737840  1.0  -0.6753
  O  O190  1  0.982690  0.403590  0.729580  1.0  -0.6703
  O  O191  1  0.470260  0.602160  0.918320  1.0  -0.662
  O  O192  1  0.296720  0.584320  0.858640  1.0  -0.6679
  O  O193  1  0.850800  0.507100  0.937200  1.0  -0.6626
  O  O194  1  0.702800  0.591700  0.928800  1.0  -0.6781
  O  O195  1  0.416520  0.419020  0.832840  1.0  -1.0103
  O  O196  1  0.770870  0.248370  0.807340  1.0  -0.6689
  O  O197  1  0.884830  0.230530  0.748260  1.0  -0.6463
  O  O198  1  0.803710  0.935610  0.584820  1.0  -0.6546
  O  O199  1  0.630020  0.918520  0.525840  1.0  -0.6728
  O  O200  1  0.184480  0.840980  0.603760  1.0  -0.6634
  O  O201  1  0.036700  0.925200  0.595600  1.0  -0.6667
  O  O202  1  0.107720  0.241320  0.737840  1.0  -0.6768
  O  O203  1  0.246890  0.325990  0.729580  1.0  -0.6687
  O  O204  1  0.948060  0.316160  0.918320  1.0  -0.6587
  O  O205  1  0.061920  0.274320  0.858640  1.0  -0.6694
  O  O206  1  0.586400  0.430100  0.937200  1.0  -0.663
  O  O207  1  0.726000  0.337100  0.928800  1.0  -0.6781
  O  O208  1  0.916320  0.413820  0.832840  1.0  -1.0056
  O  O209  1  0.832490  0.082490  0.164980  1.0  -1.1236
  O  O210  1  0.667510  0.417510  0.835020  1.0  -1.1237
  O  O211  1  0.334200  0.084200  0.168400  1.0  -1.0889
  O  O212  1  0.165800  0.415800  0.831600  1.0  -1.0875
  O  O213  1  0.499100  0.749100  0.498200  1.0  -1.0967
  O  O214  1  0.000900  0.750900  0.501800  1.0  -1.0979
  O  O215  1  0.750000  0.752400  0.500000  1.0  -1.0977
  O  O216  1  0.250000  0.747600  0.500000  1.0  -1.0953
