# generated using pymatgen
data_ScH4C8O5
_symmetry_space_group_name_H-M   'P 1'
_cell_length_a   12.38450000
_cell_length_b   12.49440000
_cell_length_c   12.49440000
_cell_angle_alpha   75.78130000
_cell_angle_beta   60.29050000
_cell_angle_gamma   60.29040000
_symmetry_Int_Tables_number   1
_chemical_formula_structural   ScH4C8O5
_chemical_formula_sum   'Sc4 H16 C32 O20'
_cell_volume   1458.47119946
_cell_formula_units_Z   4
loop_
 _symmetry_equiv_pos_site_id
 _symmetry_equiv_pos_as_xyz
  1  'x, y, z'
loop_
 _atom_site_type_symbol
 _atom_site_label
 _atom_site_symmetry_multiplicity
 _atom_site_fract_x
 _atom_site_fract_y
 _atom_site_fract_z
 _atom_site_occupancy
 _atom_site_charge
  Sc  Sc1  1  0.187220  0.000000  0.625560  1.0  2.0269
  Sc  Sc2  1  0.812780  0.000000  0.374440  1.0  2.0314
  Sc  Sc3  1  0.062780  0.874440  0.500000  1.0  2.022
  Sc  Sc4  1  0.437220  0.125560  0.500000  1.0  2.0367
  H  H5  1  0.888800  0.322900  0.557300  1.0  0.0868
  H  H6  1  0.769000  0.677100  0.442700  1.0  0.0869
  H  H7  1  0.696100  0.942700  0.822900  1.0  0.0892
  H  H8  1  0.461700  0.057300  0.177100  1.0  0.0859
  H  H9  1  0.481000  0.057300  0.822900  1.0  0.0865
  H  H10  1  0.361200  0.942700  0.177100  1.0  0.0859
  H  H11  1  0.788300  0.322900  0.442700  1.0  0.0872
  H  H12  1  0.553900  0.677100  0.557300  1.0  0.0863
  H  H13  1  0.113600  0.500000  0.500000  1.0  0.0915
  H  H14  1  0.863600  0.000000  0.000000  1.0  0.0924
  H  H15  1  0.136400  0.000000  0.000000  1.0  0.0931
  H  H16  1  0.386400  0.500000  0.500000  1.0  0.0919
  H  H17  1  0.125000  0.080530  0.441740  1.0  0.2146
  H  H18  1  0.877040  0.080530  0.477680  1.0  0.3644
  H  H19  1  0.476720  0.919840  0.431240  1.0  0.1258
  H  H20  1  0.625000  0.919470  0.518240  1.0  0.3971
  C  C21  1  0.123340  0.277740  0.555980  1.0  0.7373
  C  C22  1  0.903410  0.394760  0.533080  1.0  -0.0909
  C  C23  1  0.018210  0.393370  0.531130  1.0  -0.1688
  C  C24  1  0.957060  0.722260  0.444020  1.0  0.7302
  C  C25  1  0.831250  0.605240  0.466920  1.0  -0.092
  C  C26  1  0.942710  0.606630  0.468870  1.0  -0.166
  C  C27  1  0.929320  0.944020  0.777740  1.0  0.7298
  C  C28  1  0.686490  0.966920  0.894760  1.0  -0.0795
  C  C29  1  0.799340  0.968870  0.893370  1.0  -0.1688
  C  C30  1  0.651080  0.055980  0.222260  1.0  0.7419
  C  C31  1  0.548170  0.033080  0.105240  1.0  -0.0885
  C  C32  1  0.661580  0.031130  0.106630  1.0  -0.1698
  C  C33  1  0.292940  0.055980  0.777740  1.0  0.7304
  C  C34  1  0.418750  0.033080  0.894760  1.0  -0.0786
  C  C35  1  0.307290  0.031130  0.893370  1.0  -0.1708
  C  C36  1  0.126660  0.944020  0.222260  1.0  0.7378
  C  C37  1  0.346590  0.966920  0.105240  1.0  -0.0866
  C  C38  1  0.231790  0.968870  0.106630  1.0  -0.1657
  C  C39  1  0.598920  0.277740  0.444020  1.0  0.7343
  C  C40  1  0.701830  0.394760  0.466920  1.0  -0.0903
  C  C41  1  0.588420  0.393370  0.468870  1.0  -0.1659
  C  C42  1  0.320680  0.722260  0.555980  1.0  0.7269
  C  C43  1  0.563510  0.605240  0.533080  1.0  -0.0922
  C  C44  1  0.450660  0.606630  0.531130  1.0  -0.1668
  C  C45  1  0.811000  0.500000  0.500000  1.0  -0.0002
  C  C46  1  0.036900  0.500000  0.500000  1.0  -0.014
  C  C47  1  0.561000  0.000000  0.000000  1.0  -0.0056
  C  C48  1  0.786900  0.000000  0.000000  1.0  -0.0123
  C  C49  1  0.439000  0.000000  0.000000  1.0  -0.0064
  C  C50  1  0.213100  0.000000  0.000000  1.0  -0.0142
  C  C51  1  0.689000  0.500000  0.500000  1.0  -0.0
  C  C52  1  0.463100  0.500000  0.500000  1.0  -0.0141
  O  O53  1  0.087360  0.194020  0.616040  1.0  -0.6645
  O  O54  1  0.243000  0.270260  0.515880  1.0  -0.6918
  O  O55  1  0.897420  0.805980  0.383960  1.0  -0.6666
  O  O56  1  0.029140  0.729740  0.484120  1.0  -0.697
  O  O57  1  0.953400  0.883960  0.694020  1.0  -0.6876
  O  O58  1  0.008880  0.984120  0.770260  1.0  -0.6992
  O  O59  1  0.531380  0.116040  0.305980  1.0  -0.6627
  O  O60  1  0.763260  0.015880  0.229740  1.0  -0.6562
  O  O61  1  0.352580  0.116040  0.694020  1.0  -0.6745
  O  O62  1  0.220860  0.015880  0.770260  1.0  -0.6853
  O  O63  1  0.162640  0.883960  0.305980  1.0  -0.67
  O  O64  1  0.007000  0.984120  0.229740  1.0  -0.6572
  O  O65  1  0.718620  0.194020  0.383960  1.0  -0.6399
  O  O66  1  0.486740  0.270260  0.484120  1.0  -0.6972
  O  O67  1  0.296600  0.805980  0.616040  1.0  -0.6784
  O  O68  1  0.241120  0.729740  0.515880  1.0  -0.6966
  O  O69  1  0.372960  0.002040  0.502040  1.0  -0.6806
  O  O70  1  0.877040  0.997960  0.497960  1.0  -0.8542
  O  O71  1  0.125000  0.997960  0.502040  1.0  -0.7598
  O  O72  1  0.625000  0.002040  0.497960  1.0  -0.9239
