# generated using pymatgen
data_Zn3H45C65S5(N3O5)2
_symmetry_space_group_name_H-M   'P 1'
_cell_length_a   21.95440000
_cell_length_b   23.89140000
_cell_length_c   17.03980000
_cell_angle_alpha   90.00000000
_cell_angle_beta   106.56800000
_cell_angle_gamma   90.00000000
_symmetry_Int_Tables_number   1
_chemical_formula_structural   Zn3H45C65S5(N3O5)2
_chemical_formula_sum   'Zn12 H180 C260 S20 N24 O40'
_cell_volume   8566.66174370
_cell_formula_units_Z   4
loop_
 _symmetry_equiv_pos_site_id
 _symmetry_equiv_pos_as_xyz
  1  'x, y, z'
loop_
 _atom_site_type_symbol
 _atom_site_label
 _atom_site_symmetry_multiplicity
 _atom_site_fract_x
 _atom_site_fract_y
 _atom_site_fract_z
 _atom_site_occupancy
 _atom_site_charge
  Zn  Zn1  1  0.311520  0.017690  0.045880  1.0  0.8624
  Zn  Zn2  1  0.017860  0.000100  0.279390  1.0  0.6223
  Zn  Zn3  1  0.635720  0.499870  0.896230  1.0  0.6158
  Zn  Zn4  1  0.688480  0.517690  0.454120  1.0  0.8635
  Zn  Zn5  1  0.982140  0.500100  0.220610  1.0  0.8689
  Zn  Zn6  1  0.364280  0.999870  0.603770  1.0  0.8738
  Zn  Zn7  1  0.688480  0.982310  0.954120  1.0  0.863
  Zn  Zn8  1  0.982140  0.999900  0.720610  1.0  0.6212
  Zn  Zn9  1  0.364280  0.500130  0.103770  1.0  0.6144
  Zn  Zn10  1  0.311520  0.482310  0.545880  1.0  0.8645
  Zn  Zn11  1  0.017860  0.499900  0.779390  1.0  0.8689
  Zn  Zn12  1  0.635720  0.000130  0.396230  1.0  0.8741
  H  H13  1  0.071900  0.944900  0.442200  1.0  0.0698
  H  H14  1  0.548000  0.823800  0.288200  1.0  0.091
  H  H15  1  0.231200  0.972600  0.752800  1.0  0.1114
  H  H16  1  0.258700  0.135300  0.793400  1.0  0.1239
  H  H17  1  0.218500  0.035600  0.635300  1.0  0.0917
  H  H18  1  0.220200  0.100500  0.650100  1.0  0.0969
  H  H19  1  0.303300  0.116100  0.929400  1.0  0.0726
  H  H20  1  0.227600  0.906200  0.317800  1.0  0.1066
  H  H21  1  0.067000  0.126700  0.519700  1.0  0.1157
  H  H22  1  0.111500  0.059700  0.208100  1.0  0.0828
  H  H23  1  0.216400  0.055700  0.211900  1.0  0.1046
  H  H24  1  0.200000  0.089200  0.039600  1.0  0.0703
  H  H25  1  0.423800  0.066600  0.408600  1.0  0.121
  H  H26  1  0.784500  0.804500  0.038000  1.0  0.0979
  H  H27  1  0.332100  0.948400  0.393900  1.0  0.0952
  H  H28  1  0.328400  0.013900  0.391600  1.0  0.0957
  H  H29  1  0.871900  0.877900  0.133000  1.0  0.0935
  H  H30  1  0.530600  0.070300  0.425400  1.0  0.0756
  H  H31  1  0.428000  0.902900  0.359700  1.0  0.1297
  H  H32  1  0.273800  0.956900  0.889600  1.0  0.0841
  H  H33  1  0.119300  0.969000  0.574500  1.0  0.1171
  H  H34  1  0.625000  0.739800  0.371400  1.0  0.0929
  H  H35  1  0.213900  0.926300  0.037900  1.0  0.0877
  H  H36  1  0.317600  0.010800  0.249200  1.0  0.0943
  H  H37  1  0.315900  0.945100  0.253400  1.0  0.1
  H  H38  1  0.571500  0.413900  0.623400  1.0  0.1179
  H  H39  1  0.105600  0.917600  0.998300  1.0  0.113
  H  H40  1  0.000400  0.959300  0.941000  1.0  0.0865
  H  H41  1  0.996100  0.024000  0.923700  1.0  0.0938
  H  H42  1  0.565700  0.581000  0.615900  1.0  0.123
  H  H43  1  0.091100  0.083600  0.000700  1.0  0.116
  H  H44  1  0.546600  0.461400  0.489800  1.0  0.0897
  H  H45  1  0.554500  0.526700  0.487400  1.0  0.0942
  H  H46  1  0.122000  0.096200  0.665000  1.0  0.2152
  H  H47  1  0.712200  0.713600  0.967000  1.0  0.2037
  H  H48  1  0.461900  0.896500  0.190000  1.0  0.0925
  H  H49  1  0.537000  0.918000  0.384000  1.0  0.13
  H  H50  1  0.124000  0.033000  0.694000  1.0  0.1008
  H  H51  1  0.434000  0.676000  0.116000  1.0  0.1191
  H  H52  1  0.903000  0.668000  0.217000  1.0  0.0845
  H  H53  1  0.117000  0.912000  0.319000  1.0  0.0892
  H  H54  1  0.607000  0.582000  0.765000  1.0  0.0691
  H  H55  1  0.027000  0.102700  0.390000  1.0  0.0769
  H  H56  1  0.617000  0.416000  0.766000  1.0  0.1054
  H  H57  1  0.078100  0.777100  0.456600  1.0  0.1198
  H  H58  1  0.263900  0.721400  0.386300  1.0  0.1461
  H  H59  1  0.928100  0.444900  0.057800  1.0  0.0798
  H  H60  1  0.452000  0.323800  0.211800  1.0  0.0913
  H  H61  1  0.768800  0.472600  0.747200  1.0  0.1107
  H  H62  1  0.741300  0.635300  0.706600  1.0  0.124
  H  H63  1  0.781500  0.535600  0.864700  1.0  0.1001
  H  H64  1  0.779800  0.600500  0.849900  1.0  0.097
  H  H65  1  0.696700  0.616100  0.570600  1.0  0.0727
  H  H66  1  0.772400  0.406200  0.182200  1.0  0.1123
  H  H67  1  0.933000  0.626700  0.980300  1.0  0.1157
  H  H68  1  0.888500  0.559700  0.291900  1.0  0.0832
  H  H69  1  0.783600  0.555700  0.288100  1.0  0.1043
  H  H70  1  0.800000  0.589200  0.460400  1.0  0.0708
  H  H71  1  0.576200  0.566600  0.091400  1.0  0.1215
  H  H72  1  0.215500  0.304500  0.462000  1.0  0.0981
  H  H73  1  0.667900  0.448400  0.106100  1.0  0.0893
  H  H74  1  0.671600  0.513900  0.108400  1.0  0.0984
  H  H75  1  0.128100  0.377900  0.367000  1.0  0.0923
  H  H76  1  0.469400  0.570300  0.074600  1.0  0.0834
  H  H77  1  0.572000  0.402900  0.140300  1.0  0.1271
  H  H78  1  0.726200  0.456900  0.610400  1.0  0.0755
  H  H79  1  0.880700  0.469000  0.925500  1.0  0.1209
  H  H80  1  0.375000  0.239800  0.128600  1.0  0.0933
  H  H81  1  0.786100  0.426300  0.462100  1.0  0.0883
  H  H82  1  0.682400  0.510800  0.250800  1.0  0.0949
  H  H83  1  0.684100  0.445100  0.246600  1.0  0.0993
  H  H84  1  0.428500  0.913900  0.876600  1.0  0.119
  H  H85  1  0.894400  0.417600  0.501700  1.0  0.107
  H  H86  1  0.999600  0.459300  0.559000  1.0  0.0944
  H  H87  1  0.003900  0.524000  0.576300  1.0  0.0833
  H  H88  1  0.434300  0.081000  0.884100  1.0  0.1226
  H  H89  1  0.908900  0.583600  0.499300  1.0  0.1149
  H  H90  1  0.453400  0.961400  0.010200  1.0  0.0913
  H  H91  1  0.445500  0.026700  0.012600  1.0  0.0937
  H  H92  1  0.878000  0.596200  0.835000  1.0  0.2147
  H  H93  1  0.287800  0.213600  0.533000  1.0  0.2044
  H  H94  1  0.538100  0.396500  0.310000  1.0  0.0934
  H  H95  1  0.463000  0.418000  0.116000  1.0  0.1306
  H  H96  1  0.876000  0.533000  0.806000  1.0  0.0963
  H  H97  1  0.566000  0.176000  0.384000  1.0  0.091
  H  H98  1  0.097000  0.168000  0.283000  1.0  0.0998
  H  H99  1  0.883000  0.412000  0.181000  1.0  0.0885
  H  H100  1  0.393000  0.082000  0.735000  1.0  0.0697
  H  H101  1  0.973000  0.602700  0.110000  1.0  0.0771
  H  H102  1  0.383000  0.916000  0.734000  1.0  0.1005
  H  H103  1  0.928100  0.055100  0.557800  1.0  0.0684
  H  H104  1  0.452000  0.176200  0.711800  1.0  0.0924
  H  H105  1  0.768800  0.027400  0.247200  1.0  0.112
  H  H106  1  0.741300  0.864700  0.206600  1.0  0.1256
  H  H107  1  0.781500  0.964400  0.364700  1.0  0.0916
  H  H108  1  0.779800  0.899500  0.349900  1.0  0.0976
  H  H109  1  0.696700  0.883900  0.070600  1.0  0.0724
  H  H110  1  0.772400  0.093800  0.682200  1.0  0.1063
  H  H111  1  0.933000  0.873300  0.480300  1.0  0.1168
  H  H112  1  0.888500  0.940300  0.791900  1.0  0.0828
  H  H113  1  0.783600  0.944300  0.788100  1.0  0.1046
  H  H114  1  0.800000  0.910800  0.960400  1.0  0.0713
  H  H115  1  0.576200  0.933400  0.591400  1.0  0.1221
  H  H116  1  0.215500  0.195500  0.962000  1.0  0.0979
  H  H117  1  0.667900  0.051600  0.606100  1.0  0.0943
  H  H118  1  0.671600  0.986100  0.608400  1.0  0.0955
  H  H119  1  0.128100  0.122100  0.867000  1.0  0.0934
  H  H120  1  0.469400  0.929700  0.574600  1.0  0.0763
  H  H121  1  0.572000  0.097100  0.640300  1.0  0.1281
  H  H122  1  0.726200  0.043100  0.110400  1.0  0.0818
  H  H123  1  0.880700  0.031000  0.425500  1.0  0.1173
  H  H124  1  0.375000  0.260200  0.628600  1.0  0.0926
  H  H125  1  0.786100  0.073700  0.962100  1.0  0.0882
  H  H126  1  0.682400  0.989200  0.750800  1.0  0.0958
  H  H127  1  0.684100  0.054900  0.746600  1.0  0.0995
  H  H128  1  0.428500  0.586100  0.376600  1.0  0.1159
  H  H129  1  0.894400  0.082400  0.001700  1.0  0.1132
  H  H130  1  0.999600  0.040700  0.059000  1.0  0.0859
  H  H131  1  0.003900  0.976000  0.076300  1.0  0.0933
  H  H132  1  0.434300  0.419000  0.384100  1.0  0.1232
  H  H133  1  0.908900  0.916400  0.999300  1.0  0.1156
  H  H134  1  0.453400  0.538600  0.510200  1.0  0.0895
  H  H135  1  0.445500  0.473300  0.512600  1.0  0.094
  H  H136  1  0.878000  0.903800  0.335000  1.0  0.2171
  H  H137  1  0.287800  0.286400  0.033000  1.0  0.2041
  H  H138  1  0.538100  0.103500  0.810000  1.0  0.0941
  H  H139  1  0.463000  0.082000  0.616000  1.0  0.1277
  H  H140  1  0.876000  0.967000  0.306000  1.0  0.1002
  H  H141  1  0.566000  0.324000  0.884000  1.0  0.1198
  H  H142  1  0.097000  0.332000  0.783000  1.0  0.0852
  H  H143  1  0.883000  0.088000  0.681000  1.0  0.0875
  H  H144  1  0.393000  0.418000  0.235000  1.0  0.0683
  H  H145  1  0.973000  0.897300  0.610000  1.0  0.0764
  H  H146  1  0.383000  0.584000  0.234000  1.0  0.1062
  H  H147  1  0.921900  0.222900  0.543400  1.0  0.1191
  H  H148  1  0.736100  0.278600  0.613700  1.0  0.1461
  H  H149  1  0.071900  0.555100  0.942200  1.0  0.0804
  H  H150  1  0.548000  0.676200  0.788200  1.0  0.0917
  H  H151  1  0.231200  0.527400  0.252800  1.0  0.1104
  H  H152  1  0.258700  0.364700  0.293400  1.0  0.1253
  H  H153  1  0.218500  0.464400  0.135300  1.0  0.0999
  H  H154  1  0.220200  0.399500  0.150100  1.0  0.098
  H  H155  1  0.303300  0.383900  0.429400  1.0  0.0729
  H  H156  1  0.227600  0.593800  0.817800  1.0  0.1132
  H  H157  1  0.067000  0.373300  0.019700  1.0  0.1171
  H  H158  1  0.111500  0.440300  0.708100  1.0  0.0832
  H  H159  1  0.216400  0.444300  0.711900  1.0  0.1043
  H  H160  1  0.200000  0.410800  0.539600  1.0  0.0711
  H  H161  1  0.423800  0.433400  0.908600  1.0  0.122
  H  H162  1  0.784500  0.695500  0.538000  1.0  0.0979
  H  H163  1  0.332100  0.551600  0.893900  1.0  0.0894
  H  H164  1  0.328400  0.486100  0.891600  1.0  0.0996
  H  H165  1  0.871900  0.622100  0.633000  1.0  0.0924
  H  H166  1  0.530600  0.429700  0.925400  1.0  0.0838
  H  H167  1  0.428000  0.597100  0.859700  1.0  0.127
  H  H168  1  0.273800  0.543100  0.389600  1.0  0.0745
  H  H169  1  0.119300  0.531000  0.074500  1.0  0.1206
  H  H170  1  0.625000  0.760200  0.871400  1.0  0.0924
  H  H171  1  0.213900  0.573700  0.537900  1.0  0.0883
  H  H172  1  0.317600  0.489200  0.749200  1.0  0.0942
  H  H173  1  0.315900  0.554900  0.753400  1.0  0.0984
  H  H174  1  0.571500  0.086100  0.123400  1.0  0.1151
  H  H175  1  0.105600  0.582400  0.498300  1.0  0.1066
  H  H176  1  0.000400  0.540700  0.441000  1.0  0.0944
  H  H177  1  0.996100  0.476000  0.423700  1.0  0.0834
  H  H178  1  0.565700  0.919000  0.115900  1.0  0.1231
  H  H179  1  0.091100  0.416400  0.500700  1.0  0.1152
  H  H180  1  0.546600  0.038600  0.989800  1.0  0.0901
  H  H181  1  0.554500  0.973300  0.987400  1.0  0.0934
  H  H182  1  0.122000  0.403800  0.165000  1.0  0.214
  H  H183  1  0.712200  0.786400  0.467000  1.0  0.2036
  H  H184  1  0.461900  0.603500  0.690000  1.0  0.0929
  H  H185  1  0.537000  0.582000  0.884000  1.0  0.1294
  H  H186  1  0.124000  0.467000  0.194000  1.0  0.0949
  H  H187  1  0.434000  0.824000  0.616000  1.0  0.0911
  H  H188  1  0.903000  0.832000  0.717000  1.0  0.0997
  H  H189  1  0.117000  0.588000  0.819000  1.0  0.0885
  H  H190  1  0.607000  0.918000  0.265000  1.0  0.0711
  H  H191  1  0.027000  0.397300  0.890000  1.0  0.0782
  H  H192  1  0.617000  0.084000  0.266000  1.0  0.1002
  C  C193  1  0.880100  0.691660  0.174600  1.0  -0.0282
  C  C194  1  0.543580  0.739560  0.272000  1.0  -0.0465
  C  C195  1  0.512300  0.943000  0.383200  1.0  0.125
  C  C196  1  0.100480  0.050970  0.562500  1.0  0.1314
  C  C197  1  0.391600  0.857810  0.099400  1.0  -0.2064
  C  C198  1  0.071800  0.982400  0.457300  1.0  0.1762
  C  C199  1  0.471800  0.807980  0.192000  1.0  -0.0736
  C  C200  1  0.861200  0.790790  0.135000  1.0  -0.0635
  C  C201  1  0.524900  0.795270  0.255900  1.0  -0.0112
  C  C202  1  0.508400  0.696890  0.222000  1.0  -0.1528
  C  C203  1  0.349300  0.903090  0.056000  1.0  0.6507
  C  C204  1  0.141900  0.943300  0.294100  1.0  0.1484
  C  C205  1  0.456200  0.708380  0.155900  1.0  -0.0019
  C  C206  1  0.980700  0.890900  0.264000  1.0  0.6941
  C  C207  1  0.438800  0.763870  0.142300  1.0  -0.1654
  C  C208  1  0.235100  0.981400  0.267400  1.0  0.1378
  C  C209  1  0.789800  0.720780  0.059200  1.0  -0.0439
  C  C210  1  0.238640  0.055820  0.756500  1.0  0.1273
  C  C211  1  0.133600  0.065500  0.650000  1.0  -0.0975
  C  C212  1  0.244800  0.002850  0.787800  1.0  -0.2213
  C  C213  1  0.684990  0.604440  0.949500  1.0  0.6514
  C  C214  1  0.261300  0.098450  0.811500  1.0  -0.1944
  C  C215  1  0.896290  0.747810  0.186200  1.0  -0.1655
  C  C216  1  0.412700  0.984500  0.381200  1.0  0.1327
  C  C217  1  0.206410  0.065090  0.667000  1.0  -0.2665
  C  C218  1  0.941100  0.843250  0.223900  1.0  -0.2068
  C  C219  1  0.287800  0.086630  0.893700  1.0  0.1739
  C  C220  1  0.205100  0.938400  0.296600  1.0  -0.1561
  C  C221  1  0.069700  0.089500  0.505000  1.0  -0.1664
  C  C222  1  0.733200  0.641350  0.003700  1.0  -0.2219
  C  C223  1  0.135400  0.028740  0.231900  1.0  0.1735
  C  C224  1  0.442900  0.861800  0.165600  1.0  -0.1182
  C  C225  1  0.649500  0.625170  0.388200  1.0  0.6923
  C  C226  1  0.601100  0.661320  0.332200  1.0  -0.2029
  C  C227  1  0.198500  0.026400  0.233800  1.0  -0.2194
  C  C228  1  0.180900  0.054200  0.030500  1.0  0.1418
  C  C229  1  0.042600  0.072500  0.424900  1.0  0.1312
  C  C230  1  0.445400  0.034400  0.401600  1.0  -0.2397
  C  C231  1  0.808000  0.776800  0.071800  1.0  -0.0317
  C  C232  1  0.826600  0.678730  0.110800  1.0  -0.1408
  C  C233  1  0.342100  0.981500  0.366900  1.0  -0.1849
  C  C234  1  0.888700  0.844870  0.159300  1.0  -0.0809
  C  C235  1  0.737600  0.697350  0.999200  1.0  0.0979
  C  C236  1  0.509600  0.036420  0.411400  1.0  0.1693
  C  C237  1  0.447700  0.937500  0.372500  1.0  -0.1532
  C  C238  1  0.270800  0.993550  0.870300  1.0  0.1629
  C  C239  1  0.100100  0.996500  0.537100  1.0  -0.2159
  C  C240  1  0.596400  0.717410  0.333600  1.0  -0.1071
  C  C241  1  0.189000  0.958400  0.029300  1.0  0.1409
  C  C242  1  0.305600  0.979300  0.277500  1.0  -0.2563
  C  C243  1  0.578200  0.448700  0.648800  1.0  -0.1361
  C  C244  1  0.123900  0.953100  0.005700  1.0  -0.1515
  C  C245  1  0.013100  0.995800  0.965100  1.0  -0.2049
  C  C246  1  0.599000  0.547500  0.728000  1.0  0.0908
  C  C247  1  0.574800  0.547400  0.644400  1.0  -0.1304
  C  C248  1  0.564100  0.497300  0.602600  1.0  0.1423
  C  C249  1  0.602100  0.452400  0.732200  1.0  0.1183
  C  C250  1  0.115200  0.051000  0.007000  1.0  -0.2013
  C  C251  1  0.536300  0.496500  0.511500  1.0  -0.251
  C  C252  1  0.085700  0.999600  0.992800  1.0  0.1306
  C  C253  1  0.287700  0.914730  0.563900  1.0  0.6264
  C  C254  1  0.096200  0.630350  0.322300  1.0  -0.0594
  C  C255  1  0.063600  0.581230  0.276600  1.0  0.6423
  C  C256  1  0.252900  0.866230  0.518100  1.0  -0.0947
  C  C257  1  0.224400  0.782400  0.444500  1.0  0.0883
  C  C258  1  0.170800  0.798600  0.463200  1.0  -0.1108
  C  C259  1  0.170200  0.699700  0.379800  1.0  0.0515
  C  C260  1  0.115600  0.717100  0.399800  1.0  -0.0609
  C  C261  1  0.114100  0.766100  0.442400  1.0  -0.0452
  C  C262  1  0.227700  0.732200  0.400400  1.0  0.0352
  C  C263  1  0.119900  0.191660  0.325400  1.0  -0.0318
  C  C264  1  0.456420  0.239560  0.228000  1.0  -0.0469
  C  C265  1  0.487700  0.443000  0.116800  1.0  0.1229
  C  C266  1  0.899520  0.550970  0.937500  1.0  0.1315
  C  C267  1  0.608400  0.357810  0.400600  1.0  -0.2024
  C  C268  1  0.928200  0.482400  0.042700  1.0  0.1697
  C  C269  1  0.528200  0.307980  0.308000  1.0  -0.0763
  C  C270  1  0.138800  0.290790  0.365000  1.0  -0.0518
  C  C271  1  0.475100  0.295270  0.244100  1.0  -0.0132
  C  C272  1  0.491600  0.196890  0.278000  1.0  -0.1485
  C  C273  1  0.650700  0.403090  0.444000  1.0  0.6435
  C  C274  1  0.858100  0.443300  0.205900  1.0  0.1492
  C  C275  1  0.543800  0.208380  0.344100  1.0  -0.0028
  C  C276  1  0.019300  0.390900  0.236000  1.0  0.7073
  C  C277  1  0.561200  0.263870  0.357700  1.0  -0.1656
  C  C278  1  0.764900  0.481400  0.232600  1.0  0.14
  C  C279  1  0.210200  0.220780  0.440800  1.0  -0.0447
  C  C280  1  0.761360  0.555820  0.743500  1.0  0.1305
  C  C281  1  0.866400  0.565500  0.850000  1.0  -0.0865
  C  C282  1  0.755200  0.502850  0.712200  1.0  -0.217
  C  C283  1  0.315010  0.104440  0.550500  1.0  0.652
  C  C284  1  0.738700  0.598450  0.688500  1.0  -0.1959
  C  C285  1  0.103710  0.247810  0.313800  1.0  -0.1637
  C  C286  1  0.587300  0.484500  0.118800  1.0  0.1329
  C  C287  1  0.793590  0.565090  0.833000  1.0  -0.2982
  C  C288  1  0.058900  0.343250  0.276100  1.0  -0.208
  C  C289  1  0.712200  0.586630  0.606300  1.0  0.1744
  C  C290  1  0.794900  0.438400  0.203400  1.0  -0.1668
  C  C291  1  0.930300  0.589500  0.995000  1.0  -0.1691
  C  C292  1  0.266800  0.141350  0.496300  1.0  -0.2202
  C  C293  1  0.864600  0.528740  0.268100  1.0  0.1793
  C  C294  1  0.557100  0.361800  0.334400  1.0  -0.1198
  C  C295  1  0.350500  0.125170  0.111800  1.0  0.6866
  C  C296  1  0.398900  0.161320  0.167800  1.0  -0.2029
  C  C297  1  0.801500  0.526400  0.266200  1.0  -0.2232
  C  C298  1  0.819100  0.554200  0.469500  1.0  0.1429
  C  C299  1  0.957400  0.572500  0.075100  1.0  0.1471
  C  C300  1  0.554600  0.534400  0.098400  1.0  -0.2373
  C  C301  1  0.192000  0.276800  0.428200  1.0  -0.031
  C  C302  1  0.173400  0.178730  0.389200  1.0  -0.1428
  C  C303  1  0.657900  0.481500  0.133100  1.0  -0.1938
  C  C304  1  0.111300  0.344870  0.340700  1.0  -0.0816
  C  C305  1  0.262400  0.197350  0.500800  1.0  0.0973
  C  C306  1  0.490400  0.536420  0.088600  1.0  0.1603
  C  C307  1  0.552300  0.437500  0.127500  1.0  -0.1544
  C  C308  1  0.729200  0.493550  0.629700  1.0  0.1618
  C  C309  1  0.899900  0.496500  0.962900  1.0  -0.223
  C  C310  1  0.403600  0.217410  0.166400  1.0  -0.1086
  C  C311  1  0.811000  0.458400  0.470700  1.0  0.1533
  C  C312  1  0.694400  0.479300  0.222500  1.0  -0.2653
  C  C313  1  0.421800  0.948700  0.851200  1.0  -0.1366
  C  C314  1  0.876100  0.453100  0.494300  1.0  -0.1625
  C  C315  1  0.986900  0.495800  0.534900  1.0  -0.1959
  C  C316  1  0.401000  0.047500  0.772000  1.0  0.0899
  C  C317  1  0.425200  0.047400  0.855600  1.0  -0.1307
  C  C318  1  0.435900  0.997300  0.897400  1.0  0.143
  C  C319  1  0.397900  0.952400  0.767800  1.0  0.0932
  C  C320  1  0.884800  0.551000  0.493000  1.0  -0.1988
  C  C321  1  0.463700  0.996500  0.988500  1.0  -0.2527
  C  C322  1  0.914300  0.499600  0.507200  1.0  0.1276
  C  C323  1  0.119900  0.308340  0.825400  1.0  -0.0311
  C  C324  1  0.456420  0.260440  0.728000  1.0  -0.0462
  C  C325  1  0.487700  0.057000  0.616800  1.0  0.1251
  C  C326  1  0.899520  0.949030  0.437500  1.0  0.131
  C  C327  1  0.608400  0.142190  0.900600  1.0  -0.2074
  C  C328  1  0.928200  0.017600  0.542700  1.0  0.1771
  C  C329  1  0.528200  0.192020  0.808000  1.0  -0.0748
  C  C330  1  0.138800  0.209210  0.865000  1.0  -0.0633
  C  C331  1  0.475100  0.204730  0.744100  1.0  -0.0117
  C  C332  1  0.491600  0.303110  0.778000  1.0  -0.153
  C  C333  1  0.650700  0.096910  0.944000  1.0  0.6508
  C  C334  1  0.858100  0.056700  0.705900  1.0  0.1505
  C  C335  1  0.543800  0.291620  0.844100  1.0  -0.0006
  C  C336  1  0.019300  0.109100  0.736000  1.0  0.693
  C  C337  1  0.561200  0.236130  0.857700  1.0  -0.1653
  C  C338  1  0.764900  0.018600  0.732600  1.0  0.1374
  C  C339  1  0.210200  0.279220  0.940800  1.0  -0.0442
  C  C340  1  0.761360  0.944180  0.243500  1.0  0.1272
  C  C341  1  0.866400  0.934500  0.350000  1.0  -0.0945
  C  C342  1  0.755200  0.997150  0.212200  1.0  -0.222
  C  C343  1  0.315010  0.395560  0.050500  1.0  0.6549
  C  C344  1  0.738700  0.901550  0.188500  1.0  -0.1944
  C  C345  1  0.103710  0.252190  0.813800  1.0  -0.1652
  C  C346  1  0.587300  0.015500  0.618800  1.0  0.1343
  C  C347  1  0.793590  0.934910  0.333000  1.0  -0.2681
  C  C348  1  0.058900  0.156750  0.776100  1.0  -0.2077
  C  C349  1  0.712200  0.913370  0.106300  1.0  0.1731
  C  C350  1  0.794900  0.061600  0.703400  1.0  -0.1574
  C  C351  1  0.930300  0.910500  0.495000  1.0  -0.1667
  C  C352  1  0.266800  0.358650  0.996300  1.0  -0.2212
  C  C353  1  0.864600  0.971260  0.768100  1.0  0.1735
  C  C354  1  0.557100  0.138200  0.834400  1.0  -0.1197
  C  C355  1  0.350500  0.374830  0.611800  1.0  0.6906
  C  C356  1  0.398900  0.338680  0.667800  1.0  -0.2028
  C  C357  1  0.801500  0.973600  0.766200  1.0  -0.2223
  C  C358  1  0.819100  0.945800  0.969500  1.0  0.1404
  C  C359  1  0.957400  0.927500  0.575100  1.0  0.132
  C  C360  1  0.554600  0.965600  0.598400  1.0  -0.2384
  C  C361  1  0.192000  0.223200  0.928200  1.0  -0.0299
  C  C362  1  0.173400  0.321270  0.889200  1.0  -0.142
  C  C363  1  0.657900  0.018500  0.633100  1.0  -0.1835
  C  C364  1  0.111300  0.155130  0.840700  1.0  -0.0797
  C  C365  1  0.262400  0.302650  0.000800  1.0  0.0979
  C  C366  1  0.490400  0.963580  0.588600  1.0  0.1701
  C  C367  1  0.552300  0.062500  0.627500  1.0  -0.1511
  C  C368  1  0.729200  0.006450  0.129700  1.0  0.1624
  C  C369  1  0.899900  0.003500  0.462900  1.0  -0.2159
  C  C370  1  0.403600  0.282590  0.666400  1.0  -0.1086
  C  C371  1  0.811000  0.041600  0.970700  1.0  0.1417
  C  C372  1  0.694400  0.020700  0.722500  1.0  -0.258
  C  C373  1  0.421800  0.551300  0.351200  1.0  -0.1326
  C  C374  1  0.876100  0.046900  0.994300  1.0  -0.1501
  C  C375  1  0.986900  0.004200  0.034900  1.0  -0.2043
  C  C376  1  0.401000  0.452500  0.272000  1.0  0.0911
  C  C377  1  0.425200  0.452600  0.355600  1.0  -0.1305
  C  C378  1  0.435900  0.502700  0.397400  1.0  0.1423
  C  C379  1  0.397900  0.547600  0.267800  1.0  0.1156
  C  C380  1  0.884800  0.949000  0.993000  1.0  -0.1996
  C  C381  1  0.463700  0.503500  0.488500  1.0  -0.2525
  C  C382  1  0.914300  0.000400  0.007200  1.0  0.132
  C  C383  1  0.712300  0.085270  0.436100  1.0  0.6262
  C  C384  1  0.903800  0.369650  0.677700  1.0  -0.0583
  C  C385  1  0.936400  0.418770  0.723400  1.0  0.6414
  C  C386  1  0.747100  0.133770  0.481900  1.0  -0.0979
  C  C387  1  0.775600  0.217600  0.555500  1.0  0.0898
  C  C388  1  0.829200  0.201400  0.536800  1.0  -0.1131
  C  C389  1  0.829800  0.300300  0.620200  1.0  0.0501
  C  C390  1  0.884400  0.282900  0.600200  1.0  -0.0581
  C  C391  1  0.885900  0.233900  0.557600  1.0  -0.0451
  C  C392  1  0.772300  0.267800  0.599600  1.0  0.0387
  C  C393  1  0.880100  0.808340  0.674600  1.0  -0.0307
  C  C394  1  0.543580  0.760440  0.772000  1.0  -0.0469
  C  C395  1  0.512300  0.557000  0.883200  1.0  0.1237
  C  C396  1  0.100480  0.449030  0.062500  1.0  0.1318
  C  C397  1  0.391600  0.642190  0.599400  1.0  -0.2027
  C  C398  1  0.071800  0.517600  0.957300  1.0  0.169
  C  C399  1  0.471800  0.692020  0.692000  1.0  -0.0756
  C  C400  1  0.861200  0.709210  0.635000  1.0  -0.0529
  C  C401  1  0.524900  0.704730  0.755900  1.0  -0.0116
  C  C402  1  0.508400  0.803110  0.722000  1.0  -0.1496
  C  C403  1  0.349300  0.596910  0.556000  1.0  0.6425
  C  C404  1  0.141900  0.556700  0.794100  1.0  0.1479
  C  C405  1  0.456200  0.791620  0.655900  1.0  -0.0045
  C  C406  1  0.980700  0.609100  0.764000  1.0  0.7053
  C  C407  1  0.438800  0.736130  0.642300  1.0  -0.1653
  C  C408  1  0.235100  0.518600  0.767400  1.0  0.1401
  C  C409  1  0.789800  0.779220  0.559200  1.0  -0.0439
  C  C410  1  0.238640  0.444180  0.256500  1.0  0.1291
  C  C411  1  0.133600  0.434500  0.150000  1.0  -0.089
  C  C412  1  0.244800  0.497150  0.287800  1.0  -0.22
  C  C413  1  0.684990  0.895560  0.449500  1.0  0.6518
  C  C414  1  0.261300  0.401550  0.311500  1.0  -0.1952
  C  C415  1  0.896290  0.752190  0.686200  1.0  -0.1646
  C  C416  1  0.412700  0.515500  0.881200  1.0  0.132
  C  C417  1  0.206410  0.434910  0.167000  1.0  -0.2965
  C  C418  1  0.941100  0.656750  0.723900  1.0  -0.2082
  C  C419  1  0.287800  0.413370  0.393700  1.0  0.1751
  C  C420  1  0.205100  0.561600  0.796600  1.0  -0.1663
  C  C421  1  0.069700  0.410500  0.005000  1.0  -0.1691
  C  C422  1  0.733200  0.858650  0.503700  1.0  -0.2209
  C  C423  1  0.135400  0.471260  0.731900  1.0  0.1791
  C  C424  1  0.442900  0.638200  0.665600  1.0  -0.1202
  C  C425  1  0.649500  0.874830  0.888200  1.0  0.6891
  C  C426  1  0.601100  0.838680  0.832200  1.0  -0.2021
  C  C427  1  0.198500  0.473600  0.733800  1.0  -0.2238
  C  C428  1  0.180900  0.445800  0.530500  1.0  0.1433
  C  C429  1  0.042600  0.427500  0.924900  1.0  0.1476
  C  C430  1  0.445400  0.465600  0.901600  1.0  -0.2392
  C  C431  1  0.808000  0.723200  0.571800  1.0  -0.0316
  C  C432  1  0.826600  0.821270  0.610800  1.0  -0.1426
  C  C433  1  0.342100  0.518500  0.866900  1.0  -0.1939
  C  C434  1  0.888700  0.655130  0.659300  1.0  -0.0825
  C  C435  1  0.737600  0.802650  0.499200  1.0  0.0973
  C  C436  1  0.509600  0.463580  0.911400  1.0  0.1599
  C  C437  1  0.447700  0.562500  0.872500  1.0  -0.1544
  C  C438  1  0.270800  0.506450  0.370300  1.0  0.1621
  C  C439  1  0.100100  0.503500  0.037100  1.0  -0.225
  C  C440  1  0.596400  0.782590  0.833600  1.0  -0.1071
  C  C441  1  0.189000  0.541600  0.529300  1.0  0.1536
  C  C442  1  0.305600  0.520700  0.777500  1.0  -0.2643
  C  C443  1  0.578200  0.051300  0.148800  1.0  -0.1339
  C  C444  1  0.123900  0.546900  0.505700  1.0  -0.1653
  C  C445  1  0.013100  0.504200  0.465100  1.0  -0.1958
  C  C446  1  0.599000  0.952500  0.228000  1.0  0.0903
  C  C447  1  0.574800  0.952600  0.144400  1.0  -0.1305
  C  C448  1  0.564100  0.002700  0.102600  1.0  0.1426
  C  C449  1  0.602100  0.047600  0.232200  1.0  0.0943
  C  C450  1  0.115200  0.449000  0.507000  1.0  -0.1965
  C  C451  1  0.536300  0.003500  0.011500  1.0  -0.2514
  C  C452  1  0.085700  0.500400  0.492800  1.0  0.1271
  S  S453  1  0.540500  0.631440  0.254990  1.0  0.1246
  S  S454  1  0.960440  0.775860  0.261290  1.0  0.1093
  S  S455  1  0.793910  0.612930  0.083060  1.0  0.126
  S  S456  1  0.375210  0.789830  0.063740  1.0  0.1286
  S  S457  1  0.172970  0.860650  0.526020  1.0  0.028
  S  S458  1  0.046670  0.670550  0.371820  1.0  0.0449
  S  S459  1  0.459500  0.131440  0.245010  1.0  0.123
  S  S460  1  0.039560  0.275860  0.238710  1.0  0.1108
  S  S461  1  0.206090  0.112930  0.416940  1.0  0.1256
  S  S462  1  0.624790  0.289830  0.436260  1.0  0.1252
  S  S463  1  0.459500  0.368560  0.745010  1.0  0.1254
  S  S464  1  0.039560  0.224140  0.738710  1.0  0.1099
  S  S465  1  0.206090  0.387070  0.916940  1.0  0.1243
  S  S466  1  0.624790  0.210170  0.936260  1.0  0.1265
  S  S467  1  0.827030  0.139350  0.473980  1.0  0.026
  S  S468  1  0.953330  0.329450  0.628180  1.0  0.0458
  S  S469  1  0.540500  0.868560  0.754990  1.0  0.124
  S  S470  1  0.960440  0.724140  0.761290  1.0  0.1117
  S  S471  1  0.793910  0.887070  0.583060  1.0  0.1239
  S  S472  1  0.375210  0.710170  0.563740  1.0  0.1236
  N  N473  1  0.044340  0.019580  0.400300  1.0  -0.3315
  N  N474  1  0.292060  0.035000  0.924100  1.0  -0.3474
  N  N475  1  0.107120  0.987950  0.263200  1.0  -0.3624
  N  N476  1  0.543140  0.991290  0.401500  1.0  -0.33
  N  N477  1  0.217610  0.008960  0.040500  1.0  -0.3274
  N  N478  1  0.612690  0.500860  0.772400  1.0  -0.3124
  N  N479  1  0.955660  0.519580  0.099700  1.0  -0.3278
  N  N480  1  0.707940  0.535000  0.575900  1.0  -0.3498
  N  N481  1  0.892880  0.487950  0.236800  1.0  -0.343
  N  N482  1  0.456860  0.491290  0.098500  1.0  -0.3413
  N  N483  1  0.782390  0.508960  0.459500  1.0  -0.3322
  N  N484  1  0.387310  0.000860  0.727600  1.0  -0.3237
  N  N485  1  0.955660  0.980420  0.599700  1.0  -0.3295
  N  N486  1  0.707940  0.965000  0.075900  1.0  -0.3484
  N  N487  1  0.892880  0.012050  0.736800  1.0  -0.3625
  N  N488  1  0.456860  0.008710  0.598500  1.0  -0.3303
  N  N489  1  0.782390  0.991040  0.959500  1.0  -0.3279
  N  N490  1  0.387310  0.499140  0.227600  1.0  -0.3136
  N  N491  1  0.044340  0.480420  0.900300  1.0  -0.3282
  N  N492  1  0.292060  0.465000  0.424100  1.0  -0.3483
  N  N493  1  0.107120  0.512050  0.763200  1.0  -0.3447
  N  N494  1  0.543140  0.508710  0.901500  1.0  -0.3418
  N  N495  1  0.217610  0.491040  0.540500  1.0  -0.3313
  N  N496  1  0.612690  0.999140  0.272400  1.0  -0.3238
  O  O497  1  0.359600  0.951400  0.090200  1.0  -0.6071
  O  O498  1  0.639390  0.572790  0.379570  1.0  -0.601
  O  O499  1  0.643680  0.624620  0.891400  1.0  -0.562
  O  O500  1  0.690520  0.552590  0.968500  1.0  -0.6235
  O  O501  1  0.307920  0.891750  0.992100  1.0  -0.5202
  O  O502  1  0.696080  0.647260  0.437100  1.0  -0.5709
  O  O503  1  0.967270  0.937220  0.226600  1.0  -0.6003
  O  O504  1  0.023210  0.882820  0.328300  1.0  -0.568
  O  O505  1  0.008110  0.570270  0.283040  1.0  -0.5997
  O  O506  1  0.344310  0.923170  0.557920  1.0  -0.5895
  O  O507  1  0.090070  0.553350  0.234600  1.0  -0.6331
  O  O508  1  0.262070  0.944870  0.603800  1.0  -0.6158
  O  O509  1  0.640400  0.451400  0.409800  1.0  -0.6053
  O  O510  1  0.360610  0.072790  0.120430  1.0  -0.6015
  O  O511  1  0.356320  0.124620  0.608600  1.0  -0.5611
  O  O512  1  0.309480  0.052590  0.531500  1.0  -0.6136
  O  O513  1  0.692080  0.391750  0.507900  1.0  -0.5394
  O  O514  1  0.303920  0.147260  0.062900  1.0  -0.5704
  O  O515  1  0.032730  0.437220  0.273400  1.0  -0.5951
  O  O516  1  0.976790  0.382820  0.171700  1.0  -0.5486
  O  O517  1  0.640400  0.048600  0.909800  1.0  -0.6065
  O  O518  1  0.360610  0.427210  0.620430  1.0  -0.6008
  O  O519  1  0.356320  0.375380  0.108600  1.0  -0.5626
  O  O520  1  0.309480  0.447410  0.031500  1.0  -0.6251
  O  O521  1  0.692080  0.108250  0.007900  1.0  -0.5179
  O  O522  1  0.303920  0.352740  0.562900  1.0  -0.5704
  O  O523  1  0.032730  0.062780  0.773400  1.0  -0.6003
  O  O524  1  0.976790  0.117180  0.671700  1.0  -0.5701
  O  O525  1  0.991890  0.429730  0.716960  1.0  -0.6013
  O  O526  1  0.655690  0.076830  0.442080  1.0  -0.588
  O  O527  1  0.909930  0.446650  0.765400  1.0  -0.6307
  O  O528  1  0.737930  0.055130  0.396200  1.0  -0.6188
  O  O529  1  0.359600  0.548600  0.590200  1.0  -0.6067
  O  O530  1  0.639390  0.927210  0.879570  1.0  -0.6012
  O  O531  1  0.643680  0.875380  0.391400  1.0  -0.5608
  O  O532  1  0.690520  0.947410  0.468500  1.0  -0.6143
  O  O533  1  0.307920  0.608250  0.492100  1.0  -0.5371
  O  O534  1  0.696080  0.852740  0.937100  1.0  -0.5713
  O  O535  1  0.967270  0.562780  0.726600  1.0  -0.5929
  O  O536  1  0.023210  0.617180  0.828300  1.0  -0.5483
