# generated using pymatgen
data_CoH16(C4N)4
_symmetry_space_group_name_H-M   'P 1'
_cell_length_a   7.16350000
_cell_length_b   18.60700000
_cell_length_c   18.60700000
_cell_angle_alpha   90.00000000
_cell_angle_beta   90.00000000
_cell_angle_gamma   90.00000000
_symmetry_Int_Tables_number   1
_chemical_formula_structural   CoH16(C4N)4
_chemical_formula_sum   'Co4 H64 C64 N16'
_cell_volume   2480.15018641
_cell_formula_units_Z   4
loop_
 _symmetry_equiv_pos_site_id
 _symmetry_equiv_pos_as_xyz
  1  'x, y, z'
loop_
 _atom_site_type_symbol
 _atom_site_label
 _atom_site_symmetry_multiplicity
 _atom_site_fract_x
 _atom_site_fract_y
 _atom_site_fract_z
 _atom_site_occupancy
 _atom_site_charge
  Co  Co1  1  0.750000  0.250000  0.750000  1.0  0.7782
  Co  Co2  1  0.250000  0.750000  0.250000  1.0  0.7782
  Co  Co3  1  0.750000  0.750000  0.250000  1.0  0.7773
  Co  Co4  1  0.250000  0.250000  0.750000  1.0  0.7773
  H  H5  1  0.916300  0.391800  0.678400  1.0  0.1236
  H  H6  1  0.816400  0.462700  0.648400  1.0  0.1268
  H  H7  1  0.792900  0.440500  0.731000  1.0  0.1355
  H  H8  1  0.229300  0.476400  0.562300  1.0  0.1018
  H  H9  1  0.916300  0.108200  0.821600  1.0  0.1229
  H  H10  1  0.816400  0.037300  0.851600  1.0  0.1263
  H  H11  1  0.792900  0.059500  0.769000  1.0  0.1374
  H  H12  1  0.229300  0.023600  0.937700  1.0  0.1021
  H  H13  1  0.416300  0.821600  0.391800  1.0  0.1231
  H  H14  1  0.316400  0.851600  0.462700  1.0  0.1272
  H  H15  1  0.292900  0.769000  0.440500  1.0  0.1376
  H  H16  1  0.729300  0.937700  0.476400  1.0  0.1034
  H  H17  1  0.416300  0.678400  0.108200  1.0  0.1237
  H  H18  1  0.316400  0.648400  0.037300  1.0  0.1269
  H  H19  1  0.292900  0.731000  0.059500  1.0  0.1367
  H  H20  1  0.729300  0.562300  0.023600  1.0  0.103
  H  H21  1  0.583700  0.608200  0.178400  1.0  0.1197
  H  H22  1  0.683600  0.537300  0.148400  1.0  0.1261
  H  H23  1  0.707100  0.559500  0.231000  1.0  0.1361
  H  H24  1  0.270700  0.523600  0.062300  1.0  0.1019
  H  H25  1  0.583700  0.891800  0.321600  1.0  0.1218
  H  H26  1  0.683600  0.962700  0.351600  1.0  0.1254
  H  H27  1  0.707100  0.940500  0.269000  1.0  0.1362
  H  H28  1  0.270700  0.976400  0.437700  1.0  0.1029
  H  H29  1  0.083700  0.178400  0.891800  1.0  0.1205
  H  H30  1  0.183600  0.148400  0.962700  1.0  0.1273
  H  H31  1  0.207100  0.231000  0.940500  1.0  0.1359
  H  H32  1  0.770700  0.062300  0.976400  1.0  0.1035
  H  H33  1  0.083700  0.321600  0.608200  1.0  0.1209
  H  H34  1  0.183600  0.351600  0.537300  1.0  0.1265
  H  H35  1  0.207100  0.269000  0.559500  1.0  0.137
  H  H36  1  0.770700  0.437700  0.523600  1.0  0.1034
  H  H37  1  0.083700  0.608200  0.321600  1.0  0.1225
  H  H38  1  0.183600  0.537300  0.351600  1.0  0.1261
  H  H39  1  0.207100  0.559500  0.269000  1.0  0.1373
  H  H40  1  0.770700  0.523600  0.437700  1.0  0.1016
  H  H41  1  0.083700  0.891800  0.178400  1.0  0.1234
  H  H42  1  0.183600  0.962700  0.148400  1.0  0.1264
  H  H43  1  0.207100  0.940500  0.231000  1.0  0.1353
  H  H44  1  0.770700  0.976400  0.062300  1.0  0.101
  H  H45  1  0.583700  0.178400  0.608200  1.0  0.1229
  H  H46  1  0.683600  0.148400  0.537300  1.0  0.1265
  H  H47  1  0.707100  0.231000  0.559500  1.0  0.1364
  H  H48  1  0.270700  0.062300  0.523600  1.0  0.1025
  H  H49  1  0.583700  0.321600  0.891800  1.0  0.1231
  H  H50  1  0.683600  0.351600  0.962700  1.0  0.1266
  H  H51  1  0.707100  0.269000  0.940500  1.0  0.1377
  H  H52  1  0.270700  0.437700  0.976400  1.0  0.1027
  H  H53  1  0.416300  0.391800  0.821600  1.0  0.1229
  H  H54  1  0.316400  0.462700  0.851600  1.0  0.1257
  H  H55  1  0.292900  0.440500  0.769000  1.0  0.1365
  H  H56  1  0.729300  0.476400  0.937700  1.0  0.102
  H  H57  1  0.416300  0.108200  0.678400  1.0  0.1208
  H  H58  1  0.316400  0.037300  0.648400  1.0  0.1264
  H  H59  1  0.292900  0.059500  0.731000  1.0  0.1363
  H  H60  1  0.729300  0.023600  0.562300  1.0  0.1002
  H  H61  1  0.916300  0.821600  0.108200  1.0  0.1227
  H  H62  1  0.816400  0.851600  0.037300  1.0  0.1271
  H  H63  1  0.792900  0.769000  0.059500  1.0  0.1371
  H  H64  1  0.229300  0.937700  0.023600  1.0  0.1022
  H  H65  1  0.916300  0.678400  0.391800  1.0  0.1212
  H  H66  1  0.816400  0.648400  0.462700  1.0  0.1273
  H  H67  1  0.792900  0.731000  0.440500  1.0  0.136
  H  H68  1  0.229300  0.562300  0.476400  1.0  0.1022
  C  C69  1  0.804900  0.422200  0.681800  1.0  -0.4029
  C  C70  1  0.631600  0.377900  0.662600  1.0  0.18
  C  C71  1  0.341600  0.485800  0.536800  1.0  -0.1501
  C  C72  1  0.804900  0.077800  0.818200  1.0  -0.4035
  C  C73  1  0.631600  0.122100  0.837400  1.0  0.18
  C  C74  1  0.341600  0.014200  0.963200  1.0  -0.1511
  C  C75  1  0.304900  0.818200  0.422200  1.0  -0.4048
  C  C76  1  0.131600  0.837400  0.377900  1.0  0.1799
  C  C77  1  0.841600  0.963200  0.485800  1.0  -0.1524
  C  C78  1  0.304900  0.681800  0.077800  1.0  -0.4058
  C  C79  1  0.131600  0.662600  0.122100  1.0  0.1813
  C  C80  1  0.841600  0.536800  0.014200  1.0  -0.1517
  C  C81  1  0.695100  0.577800  0.181800  1.0  -0.402
  C  C82  1  0.868400  0.622100  0.162600  1.0  0.1775
  C  C83  1  0.158400  0.514200  0.036800  1.0  -0.1493
  C  C84  1  0.695100  0.922200  0.318200  1.0  -0.4017
  C  C85  1  0.868400  0.877900  0.337400  1.0  0.1783
  C  C86  1  0.158400  0.985800  0.463200  1.0  -0.1481
  C  C87  1  0.195100  0.181800  0.922200  1.0  -0.4037
  C  C88  1  0.368400  0.162600  0.877900  1.0  0.1784
  C  C89  1  0.658400  0.036800  0.985800  1.0  -0.1505
  C  C90  1  0.195100  0.318200  0.577800  1.0  -0.4042
  C  C91  1  0.368400  0.337400  0.622100  1.0  0.1782
  C  C92  1  0.658400  0.463200  0.514200  1.0  -0.1509
  C  C93  1  0.195100  0.577800  0.318200  1.0  -0.4022
  C  C94  1  0.368400  0.622100  0.337400  1.0  0.1799
  C  C95  1  0.658400  0.514200  0.463200  1.0  -0.1496
  C  C96  1  0.195100  0.922200  0.181800  1.0  -0.4018
  C  C97  1  0.368400  0.877900  0.162600  1.0  0.1796
  C  C98  1  0.658400  0.985800  0.036800  1.0  -0.1483
  C  C99  1  0.695100  0.181800  0.577800  1.0  -0.4047
  C  C100  1  0.868400  0.162600  0.622100  1.0  0.1807
  C  C101  1  0.158400  0.036800  0.514200  1.0  -0.15
  C  C102  1  0.695100  0.318200  0.922200  1.0  -0.4039
  C  C103  1  0.868400  0.337400  0.877900  1.0  0.1795
  C  C104  1  0.158400  0.463200  0.985800  1.0  -0.1506
  C  C105  1  0.304900  0.422200  0.818200  1.0  -0.4028
  C  C106  1  0.131600  0.377900  0.837400  1.0  0.1785
  C  C107  1  0.841600  0.485800  0.963200  1.0  -0.1502
  C  C108  1  0.304900  0.077800  0.681800  1.0  -0.4034
  C  C109  1  0.131600  0.122100  0.662600  1.0  0.1779
  C  C110  1  0.841600  0.014200  0.536800  1.0  -0.1507
  C  C111  1  0.804900  0.818200  0.077800  1.0  -0.4054
  C  C112  1  0.631600  0.837400  0.122100  1.0  0.179
  C  C113  1  0.341600  0.963200  0.014200  1.0  -0.1525
  C  C114  1  0.804900  0.681800  0.422200  1.0  -0.4046
  C  C115  1  0.631600  0.662600  0.377900  1.0  0.1786
  C  C116  1  0.341600  0.536800  0.485800  1.0  -0.1522
  C  C117  1  0.500000  0.390100  0.609900  1.0  -0.1612
  C  C118  1  0.500000  0.446400  0.553600  1.0  0.0755
  C  C119  1  0.500000  0.109900  0.890100  1.0  -0.1635
  C  C120  1  0.500000  0.053600  0.946400  1.0  0.0758
  C  C121  1  0.000000  0.890100  0.390100  1.0  -0.1626
  C  C122  1  0.000000  0.946400  0.446400  1.0  0.0753
  C  C123  1  0.000000  0.609900  0.109900  1.0  -0.1621
  C  C124  1  0.000000  0.553600  0.053600  1.0  0.0761
  C  C125  1  0.500000  0.609900  0.390100  1.0  -0.1635
  C  C126  1  0.500000  0.553600  0.446400  1.0  0.0758
  C  C127  1  0.500000  0.890100  0.109900  1.0  -0.1612
  C  C128  1  0.500000  0.946400  0.053600  1.0  0.0755
  C  C129  1  0.000000  0.109900  0.609900  1.0  -0.1621
  C  C130  1  0.000000  0.053600  0.553600  1.0  0.0761
  C  C131  1  0.000000  0.390100  0.890100  1.0  -0.1626
  C  C132  1  0.000000  0.446400  0.946400  1.0  0.0753
  N  N133  1  0.583800  0.322200  0.703600  1.0  -0.2641
  N  N134  1  0.583800  0.177800  0.796400  1.0  -0.2645
  N  N135  1  0.083800  0.796400  0.322200  1.0  -0.2627
  N  N136  1  0.083800  0.703600  0.177800  1.0  -0.2636
  N  N137  1  0.916200  0.677800  0.203600  1.0  -0.2646
  N  N138  1  0.916200  0.822200  0.296400  1.0  -0.2646
  N  N139  1  0.416200  0.203600  0.822200  1.0  -0.2639
  N  N140  1  0.416200  0.296400  0.677800  1.0  -0.2628
  N  N141  1  0.416200  0.677800  0.296400  1.0  -0.2648
  N  N142  1  0.416200  0.822200  0.203600  1.0  -0.2642
  N  N143  1  0.916200  0.203600  0.677800  1.0  -0.2639
  N  N144  1  0.916200  0.296400  0.822200  1.0  -0.2632
  N  N145  1  0.083800  0.322200  0.796400  1.0  -0.2645
  N  N146  1  0.083800  0.177800  0.703600  1.0  -0.2644
  N  N147  1  0.583800  0.796400  0.177800  1.0  -0.2623
  N  N148  1  0.583800  0.703600  0.322200  1.0  -0.2636
