# generated using pymatgen
data_BaVH4C8NO9
_symmetry_space_group_name_H-M   'P 1'
_cell_length_a   7.21900000
_cell_length_b   10.79500000
_cell_length_c   11.66200000
_cell_angle_alpha   113.68600000
_cell_angle_beta   102.81400000
_cell_angle_gamma   95.06900000
_symmetry_Int_Tables_number   1
_chemical_formula_structural   BaVH4C8NO9
_chemical_formula_sum   'Ba2 V2 H8 C16 N2 O18'
_cell_volume   795.33911202
_cell_formula_units_Z   2
loop_
 _symmetry_equiv_pos_site_id
 _symmetry_equiv_pos_as_xyz
  1  'x, y, z'
loop_
 _atom_site_type_symbol
 _atom_site_label
 _atom_site_symmetry_multiplicity
 _atom_site_fract_x
 _atom_site_fract_y
 _atom_site_fract_z
 _atom_site_occupancy
 _atom_site_charge
  Ba  Ba1  1  0.547850  0.227050  0.615780  1.0  1.6764
  Ba  Ba2  1  0.452150  0.772950  0.384220  1.0  1.6768
  V  V3  1  0.869840  0.749800  0.174640  1.0  1.9938
  V  V4  1  0.130160  0.250200  0.825360  1.0  1.994
  H  H5  1  0.596000  0.730000  0.731500  1.0  0.1151
  H  H6  1  0.760000  0.121500  0.024000  1.0  0.1334
  H  H7  1  0.150000  0.977000  0.424600  1.0  0.4184
  H  H8  1  0.187000  0.953000  0.545000  1.0  0.4257
  H  H9  1  0.404000  0.270000  0.268500  1.0  0.115
  H  H10  1  0.240000  0.878500  0.976000  1.0  0.1341
  H  H11  1  0.850000  0.023000  0.575400  1.0  0.4203
  H  H12  1  0.813000  0.047000  0.455000  1.0  0.4224
  C  C13  1  0.706300  0.597800  0.894100  1.0  0.67
  C  C14  1  0.713300  0.745200  0.914400  1.0  0.1185
  C  C15  1  0.652100  0.792700  0.821600  1.0  -0.0694
  C  C16  1  0.664600  0.934600  0.863000  1.0  -0.1041
  C  C17  1  0.590700  0.988800  0.761700  1.0  0.7001
  C  C18  1  0.741700  0.023900  0.995100  1.0  -0.1037
  C  C19  1  0.803200  0.967800  0.081700  1.0  0.1075
  C  C20  1  0.887900  0.041900  0.227600  1.0  0.6291
  C  C21  1  0.293700  0.402200  0.105900  1.0  0.6689
  C  C22  1  0.286700  0.254800  0.085600  1.0  0.1173
  C  C23  1  0.347900  0.207300  0.178400  1.0  -0.0688
  C  C24  1  0.335400  0.065400  0.137000  1.0  -0.0947
  C  C25  1  0.409300  0.011200  0.238300  1.0  0.7006
  C  C26  1  0.258300  0.976100  0.004900  1.0  -0.1026
  C  C27  1  0.196800  0.032200  0.918300  1.0  0.1068
  C  C28  1  0.112100  0.958100  0.772400  1.0  0.6285
  N  N29  1  0.788200  0.831600  0.039800  1.0  -0.4112
  N  N30  1  0.211800  0.168400  0.960200  1.0  -0.4149
  O  O31  1  0.642300  0.501300  0.786800  1.0  -0.6315
  O  O32  1  0.771600  0.587800  0.003100  1.0  -0.6061
  O  O33  1  0.925400  0.957700  0.280600  1.0  -0.654
  O  O34  1  0.915000  0.166600  0.287200  1.0  -0.5045
  O  O35  1  0.567400  0.909000  0.647400  1.0  -0.695
  O  O36  1  0.560200  0.108100  0.802200  1.0  -0.6351
  O  O37  1  0.740400  0.710200  0.256000  1.0  -0.8305
  O  O38  1  0.086800  0.727200  0.218700  1.0  -0.8381
  O  O39  1  0.242100  0.989700  0.498700  1.0  -0.9119
  O  O40  1  0.357700  0.498700  0.213200  1.0  -0.6295
  O  O41  1  0.228400  0.412200  0.996900  1.0  -0.6048
  O  O42  1  0.074600  0.042300  0.719400  1.0  -0.6504
  O  O43  1  0.085000  0.833400  0.712800  1.0  -0.5079
  O  O44  1  0.432600  0.091000  0.352600  1.0  -0.6943
  O  O45  1  0.439800  0.891900  0.197800  1.0  -0.6289
  O  O46  1  0.259600  0.289800  0.744000  1.0  -0.8287
  O  O47  1  0.913200  0.272800  0.781300  1.0  -0.8376
  O  O48  1  0.757900  0.010300  0.501300  1.0  -0.9144
