# generated using pymatgen
data_CoH2(C5O4)2
_symmetry_space_group_name_H-M   'P 1'
_cell_length_a   16.27200000
_cell_length_b   16.27200000
_cell_length_c   29.93600000
_cell_angle_alpha   90.00000000
_cell_angle_beta   90.00000000
_cell_angle_gamma   90.00000000
_symmetry_Int_Tables_number   1
_chemical_formula_structural   CoH2(C5O4)2
_chemical_formula_sum   'Co16 H32 C160 O128'
_cell_volume   7926.39372902
_cell_formula_units_Z   16
loop_
 _symmetry_equiv_pos_site_id
 _symmetry_equiv_pos_as_xyz
  1  'x, y, z'
loop_
 _atom_site_type_symbol
 _atom_site_label
 _atom_site_symmetry_multiplicity
 _atom_site_fract_x
 _atom_site_fract_y
 _atom_site_fract_z
 _atom_site_occupancy
 _atom_site_charge
  Co  Co1  1  0.720690  0.529310  0.125000  1.0  1.1415
  Co  Co2  1  0.220690  0.029310  0.625000  1.0  1.1415
  Co  Co3  1  0.779310  0.470690  0.625000  1.0  1.1383
  Co  Co4  1  0.279310  0.970690  0.125000  1.0  1.1383
  Co  Co5  1  0.720690  0.470690  0.375000  1.0  1.1413
  Co  Co6  1  0.220690  0.970690  0.875000  1.0  1.1413
  Co  Co7  1  0.779310  0.529310  0.875000  1.0  1.1386
  Co  Co8  1  0.279310  0.029310  0.375000  1.0  1.1386
  Co  Co9  1  0.279310  0.470690  0.875000  1.0  1.1383
  Co  Co10  1  0.779310  0.970690  0.375000  1.0  1.1383
  Co  Co11  1  0.220690  0.529310  0.375000  1.0  1.1415
  Co  Co12  1  0.720690  0.029310  0.875000  1.0  1.1415
  Co  Co13  1  0.279310  0.529310  0.625000  1.0  1.1386
  Co  Co14  1  0.779310  0.029310  0.125000  1.0  1.1386
  Co  Co15  1  0.220690  0.470690  0.125000  1.0  1.1413
  Co  Co16  1  0.720690  0.970690  0.625000  1.0  1.1413
  H  H17  1  0.750000  0.140800  0.000000  1.0  0.1222
  H  H18  1  0.750000  0.422000  0.000000  1.0  0.1242
  H  H19  1  0.250000  0.640800  0.500000  1.0  0.1222
  H  H20  1  0.250000  0.922000  0.500000  1.0  0.1242
  H  H21  1  0.750000  0.859200  0.500000  1.0  0.1222
  H  H22  1  0.750000  0.578000  0.500000  1.0  0.1231
  H  H23  1  0.250000  0.359200  0.000000  1.0  0.1222
  H  H24  1  0.250000  0.078000  0.000000  1.0  0.1231
  H  H25  1  0.109200  0.500000  0.250000  1.0  0.121
  H  H26  1  0.828000  0.500000  0.250000  1.0  0.1248
  H  H27  1  0.609200  0.000000  0.750000  1.0  0.121
  H  H28  1  0.328000  0.000000  0.750000  1.0  0.1248
  H  H29  1  0.390800  0.500000  0.750000  1.0  0.1237
  H  H30  1  0.672000  0.500000  0.750000  1.0  0.1249
  H  H31  1  0.890800  0.000000  0.250000  1.0  0.1237
  H  H32  1  0.172000  0.000000  0.250000  1.0  0.1249
  H  H33  1  0.250000  0.859200  0.000000  1.0  0.1222
  H  H34  1  0.250000  0.578000  0.000000  1.0  0.1231
  H  H35  1  0.750000  0.359200  0.500000  1.0  0.1222
  H  H36  1  0.750000  0.078000  0.500000  1.0  0.1231
  H  H37  1  0.250000  0.140800  0.500000  1.0  0.1222
  H  H38  1  0.250000  0.422000  0.500000  1.0  0.1242
  H  H39  1  0.750000  0.640800  0.000000  1.0  0.1222
  H  H40  1  0.750000  0.922000  0.000000  1.0  0.1242
  H  H41  1  0.890800  0.500000  0.750000  1.0  0.1237
  H  H42  1  0.172000  0.500000  0.750000  1.0  0.1249
  H  H43  1  0.390800  0.000000  0.250000  1.0  0.1237
  H  H44  1  0.672000  0.000000  0.250000  1.0  0.1249
  H  H45  1  0.609200  0.500000  0.250000  1.0  0.121
  H  H46  1  0.328000  0.500000  0.250000  1.0  0.1248
  H  H47  1  0.109200  0.000000  0.750000  1.0  0.121
  H  H48  1  0.828000  0.000000  0.750000  1.0  0.1248
  C  C49  1  0.743630  0.324360  0.040690  1.0  -0.0975
  C  C50  1  0.740440  0.375760  0.082710  1.0  0.7227
  C  C51  1  0.741920  0.238260  0.040720  1.0  -0.0293
  C  C52  1  0.724600  0.185590  0.081440  1.0  0.7231
  C  C53  1  0.243630  0.824360  0.540690  1.0  -0.0975
  C  C54  1  0.240440  0.875760  0.582710  1.0  0.7227
  C  C55  1  0.241920  0.738260  0.540720  1.0  -0.0293
  C  C56  1  0.224600  0.685590  0.581440  1.0  0.7231
  C  C57  1  0.756370  0.675640  0.540690  1.0  -0.0974
  C  C58  1  0.759560  0.624240  0.582710  1.0  0.7228
  C  C59  1  0.758080  0.761740  0.540720  1.0  -0.029
  C  C60  1  0.775400  0.814410  0.581440  1.0  0.7216
  C  C61  1  0.256370  0.175640  0.040690  1.0  -0.0974
  C  C62  1  0.259560  0.124240  0.082710  1.0  0.7228
  C  C63  1  0.258080  0.261740  0.040720  1.0  -0.029
  C  C64  1  0.275400  0.314410  0.081440  1.0  0.7216
  C  C65  1  0.925640  0.493630  0.290690  1.0  -0.0981
  C  C66  1  0.874240  0.490440  0.332710  1.0  0.7229
  C  C67  1  0.011740  0.491920  0.290720  1.0  -0.03
  C  C68  1  0.064410  0.474600  0.331440  1.0  0.7232
  C  C69  1  0.425640  0.993630  0.790690  1.0  -0.0981
  C  C70  1  0.374240  0.990440  0.832710  1.0  0.7229
  C  C71  1  0.511740  0.991920  0.790720  1.0  -0.03
  C  C72  1  0.564410  0.974600  0.831440  1.0  0.7232
  C  C73  1  0.574360  0.506370  0.790690  1.0  -0.0981
  C  C74  1  0.625760  0.509560  0.832710  1.0  0.7228
  C  C75  1  0.488260  0.508080  0.790720  1.0  -0.0297
  C  C76  1  0.435590  0.525400  0.831440  1.0  0.7233
  C  C77  1  0.074360  0.006370  0.290690  1.0  -0.0981
  C  C78  1  0.125760  0.009560  0.332710  1.0  0.7228
  C  C79  1  0.988260  0.008080  0.290720  1.0  -0.0297
  C  C80  1  0.935590  0.025400  0.331440  1.0  0.7233
  C  C81  1  0.756370  0.324360  0.959310  1.0  -0.0978
  C  C82  1  0.759560  0.375760  0.917290  1.0  0.7223
  C  C83  1  0.758080  0.238260  0.959280  1.0  -0.0293
  C  C84  1  0.775400  0.185590  0.918560  1.0  0.7207
  C  C85  1  0.256370  0.824360  0.459310  1.0  -0.0978
  C  C86  1  0.259560  0.875760  0.417290  1.0  0.7223
  C  C87  1  0.258080  0.738260  0.459280  1.0  -0.0293
  C  C88  1  0.275400  0.685590  0.418560  1.0  0.7207
  C  C89  1  0.743630  0.675640  0.459310  1.0  -0.0978
  C  C90  1  0.740440  0.624240  0.417290  1.0  0.7225
  C  C91  1  0.741920  0.761740  0.459280  1.0  -0.0291
  C  C92  1  0.724600  0.814410  0.418560  1.0  0.7221
  C  C93  1  0.243630  0.175640  0.959310  1.0  -0.0978
  C  C94  1  0.240440  0.124240  0.917290  1.0  0.7225
  C  C95  1  0.241920  0.261740  0.959280  1.0  -0.0291
  C  C96  1  0.224600  0.314410  0.918560  1.0  0.7221
  C  C97  1  0.574360  0.493630  0.709310  1.0  -0.0986
  C  C98  1  0.625760  0.490440  0.667290  1.0  0.7223
  C  C99  1  0.488260  0.491920  0.709280  1.0  -0.03
  C  C100  1  0.435590  0.474600  0.668560  1.0  0.7231
  C  C101  1  0.074360  0.993630  0.209310  1.0  -0.0986
  C  C102  1  0.125760  0.990440  0.167290  1.0  0.7223
  C  C103  1  0.988260  0.991920  0.209280  1.0  -0.03
  C  C104  1  0.935590  0.974600  0.168560  1.0  0.7231
  C  C105  1  0.925640  0.506370  0.209310  1.0  -0.0985
  C  C106  1  0.874240  0.509560  0.167290  1.0  0.7225
  C  C107  1  0.011740  0.508080  0.209280  1.0  -0.0302
  C  C108  1  0.064410  0.525400  0.168560  1.0  0.7219
  C  C109  1  0.425640  0.006370  0.709310  1.0  -0.0985
  C  C110  1  0.374240  0.009560  0.667290  1.0  0.7225
  C  C111  1  0.511740  0.008080  0.709280  1.0  -0.0302
  C  C112  1  0.564410  0.025400  0.668560  1.0  0.7219
  C  C113  1  0.256370  0.675640  0.959310  1.0  -0.0973
  C  C114  1  0.259560  0.624240  0.917290  1.0  0.7225
  C  C115  1  0.258080  0.761740  0.959280  1.0  -0.029
  C  C116  1  0.275400  0.814410  0.918560  1.0  0.7201
  C  C117  1  0.756370  0.175640  0.459310  1.0  -0.0973
  C  C118  1  0.759560  0.124240  0.417290  1.0  0.7225
  C  C119  1  0.758080  0.261740  0.459280  1.0  -0.029
  C  C120  1  0.775400  0.314410  0.418560  1.0  0.7201
  C  C121  1  0.243630  0.324360  0.459310  1.0  -0.0974
  C  C122  1  0.240440  0.375760  0.417290  1.0  0.7223
  C  C123  1  0.241920  0.238260  0.459280  1.0  -0.0294
  C  C124  1  0.224600  0.185590  0.418560  1.0  0.7227
  C  C125  1  0.743630  0.824360  0.959310  1.0  -0.0974
  C  C126  1  0.740440  0.875760  0.917290  1.0  0.7223
  C  C127  1  0.741920  0.738260  0.959280  1.0  -0.0294
  C  C128  1  0.724600  0.685590  0.918560  1.0  0.7227
  C  C129  1  0.074360  0.506370  0.709310  1.0  -0.0981
  C  C130  1  0.125760  0.509560  0.667290  1.0  0.7224
  C  C131  1  0.988260  0.508080  0.709280  1.0  -0.0299
  C  C132  1  0.935590  0.525400  0.668560  1.0  0.7231
  C  C133  1  0.574360  0.006370  0.209310  1.0  -0.0981
  C  C134  1  0.625760  0.009560  0.167290  1.0  0.7224
  C  C135  1  0.488260  0.008080  0.209280  1.0  -0.0299
  C  C136  1  0.435590  0.025400  0.168560  1.0  0.7231
  C  C137  1  0.425640  0.493630  0.209310  1.0  -0.098
  C  C138  1  0.374240  0.490440  0.167290  1.0  0.7224
  C  C139  1  0.511740  0.491920  0.209280  1.0  -0.0302
  C  C140  1  0.564410  0.474600  0.168560  1.0  0.7221
  C  C141  1  0.925640  0.993630  0.709310  1.0  -0.098
  C  C142  1  0.874240  0.990440  0.667290  1.0  0.7224
  C  C143  1  0.011740  0.991920  0.709280  1.0  -0.0302
  C  C144  1  0.064410  0.974600  0.668560  1.0  0.7221
  C  C145  1  0.243630  0.675640  0.040690  1.0  -0.098
  C  C146  1  0.240440  0.624240  0.082710  1.0  0.7228
  C  C147  1  0.241920  0.761740  0.040720  1.0  -0.0291
  C  C148  1  0.224600  0.814410  0.081440  1.0  0.7225
  C  C149  1  0.743630  0.175640  0.540690  1.0  -0.098
  C  C150  1  0.740440  0.124240  0.582710  1.0  0.7228
  C  C151  1  0.741920  0.261740  0.540720  1.0  -0.0291
  C  C152  1  0.724600  0.314410  0.581440  1.0  0.7225
  C  C153  1  0.256370  0.324360  0.540690  1.0  -0.098
  C  C154  1  0.259560  0.375760  0.582710  1.0  0.7227
  C  C155  1  0.258080  0.238260  0.540720  1.0  -0.0291
  C  C156  1  0.275400  0.185590  0.581440  1.0  0.7222
  C  C157  1  0.756370  0.824360  0.040690  1.0  -0.098
  C  C158  1  0.759560  0.875760  0.082710  1.0  0.7227
  C  C159  1  0.758080  0.738260  0.040720  1.0  -0.0291
  C  C160  1  0.775400  0.685590  0.081440  1.0  0.7222
  C  C161  1  0.425640  0.506370  0.290690  1.0  -0.0986
  C  C162  1  0.374240  0.509560  0.332710  1.0  0.723
  C  C163  1  0.511740  0.508080  0.290720  1.0  -0.0299
  C  C164  1  0.564410  0.525400  0.331440  1.0  0.7231
  C  C165  1  0.925640  0.006370  0.790690  1.0  -0.0986
  C  C166  1  0.874240  0.009560  0.832710  1.0  0.723
  C  C167  1  0.011740  0.008080  0.790720  1.0  -0.0299
  C  C168  1  0.064410  0.025400  0.831440  1.0  0.7231
  C  C169  1  0.074360  0.493630  0.790690  1.0  -0.0988
  C  C170  1  0.125760  0.490440  0.832710  1.0  0.7227
  C  C171  1  0.988260  0.491920  0.790720  1.0  -0.0298
  C  C172  1  0.935590  0.474600  0.831440  1.0  0.7233
  C  C173  1  0.574360  0.993630  0.290690  1.0  -0.0988
  C  C174  1  0.625760  0.990440  0.332710  1.0  0.7227
  C  C175  1  0.488260  0.991920  0.290720  1.0  -0.0298
  C  C176  1  0.435590  0.974600  0.331440  1.0  0.7233
  C  C177  1  0.750000  0.198000  0.000000  1.0  -0.0094
  C  C178  1  0.750000  0.364900  0.000000  1.0  0.0365
  C  C179  1  0.250000  0.698000  0.500000  1.0  -0.0094
  C  C180  1  0.250000  0.864900  0.500000  1.0  0.0365
  C  C181  1  0.750000  0.802000  0.500000  1.0  -0.0119
  C  C182  1  0.750000  0.635100  0.500000  1.0  0.0383
  C  C183  1  0.250000  0.302000  0.000000  1.0  -0.0119
  C  C184  1  0.250000  0.135100  0.000000  1.0  0.0383
  C  C185  1  0.052000  0.500000  0.250000  1.0  -0.012
  C  C186  1  0.885100  0.500000  0.250000  1.0  0.0344
  C  C187  1  0.552000  0.000000  0.750000  1.0  -0.012
  C  C188  1  0.385100  0.000000  0.750000  1.0  0.0344
  C  C189  1  0.448000  0.500000  0.750000  1.0  -0.0157
  C  C190  1  0.614900  0.500000  0.750000  1.0  0.0379
  C  C191  1  0.948000  0.000000  0.250000  1.0  -0.0157
  C  C192  1  0.114900  0.000000  0.250000  1.0  0.0379
  C  C193  1  0.250000  0.802000  0.000000  1.0  -0.0119
  C  C194  1  0.250000  0.635100  0.000000  1.0  0.0383
  C  C195  1  0.750000  0.302000  0.500000  1.0  -0.0119
  C  C196  1  0.750000  0.135100  0.500000  1.0  0.0383
  C  C197  1  0.250000  0.198000  0.500000  1.0  -0.0094
  C  C198  1  0.250000  0.364900  0.500000  1.0  0.0365
  C  C199  1  0.750000  0.698000  0.000000  1.0  -0.0094
  C  C200  1  0.750000  0.864900  0.000000  1.0  0.0365
  C  C201  1  0.948000  0.500000  0.750000  1.0  -0.0157
  C  C202  1  0.114900  0.500000  0.750000  1.0  0.0379
  C  C203  1  0.448000  0.000000  0.250000  1.0  -0.0157
  C  C204  1  0.614900  0.000000  0.250000  1.0  0.0379
  C  C205  1  0.552000  0.500000  0.250000  1.0  -0.012
  C  C206  1  0.385100  0.500000  0.250000  1.0  0.0344
  C  C207  1  0.052000  0.000000  0.750000  1.0  -0.012
  C  C208  1  0.885100  0.000000  0.750000  1.0  0.0344
  O  O209  1  0.660260  0.195840  0.101760  1.0  -0.4136
  O  O210  1  0.755920  0.345140  0.119250  1.0  -0.4381
  O  O211  1  0.723900  0.451340  0.075920  1.0  -0.5641
  O  O212  1  0.778590  0.130250  0.088840  1.0  -0.6083
  O  O213  1  0.160260  0.695840  0.601760  1.0  -0.4136
  O  O214  1  0.255920  0.845140  0.619250  1.0  -0.4381
  O  O215  1  0.223900  0.951340  0.575920  1.0  -0.5641
  O  O216  1  0.278590  0.630250  0.588840  1.0  -0.6083
  O  O217  1  0.839740  0.804160  0.601760  1.0  -0.4137
  O  O218  1  0.744080  0.654860  0.619250  1.0  -0.4398
  O  O219  1  0.776100  0.548660  0.575920  1.0  -0.5635
  O  O220  1  0.721410  0.869750  0.588840  1.0  -0.6088
  O  O221  1  0.339740  0.304160  0.101760  1.0  -0.4137
  O  O222  1  0.244080  0.154860  0.119250  1.0  -0.4398
  O  O223  1  0.276100  0.048660  0.075920  1.0  -0.5635
  O  O224  1  0.221410  0.369750  0.088840  1.0  -0.6088
  O  O225  1  0.054160  0.410260  0.351760  1.0  -0.4099
  O  O226  1  0.904860  0.505920  0.369250  1.0  -0.4401
  O  O227  1  0.798660  0.473900  0.325920  1.0  -0.5629
  O  O228  1  0.119750  0.528590  0.338840  1.0  -0.6085
  O  O229  1  0.554160  0.910260  0.851760  1.0  -0.4099
  O  O230  1  0.404860  0.005920  0.869250  1.0  -0.4401
  O  O231  1  0.298660  0.973900  0.825920  1.0  -0.5629
  O  O232  1  0.619750  0.028590  0.838840  1.0  -0.6085
  O  O233  1  0.445840  0.589740  0.851760  1.0  -0.4092
  O  O234  1  0.595140  0.494080  0.869250  1.0  -0.4398
  O  O235  1  0.701340  0.526100  0.825920  1.0  -0.5642
  O  O236  1  0.380250  0.471410  0.838840  1.0  -0.609
  O  O237  1  0.945840  0.089740  0.351760  1.0  -0.4092
  O  O238  1  0.095140  0.994080  0.369250  1.0  -0.4398
  O  O239  1  0.201340  0.026100  0.325920  1.0  -0.5642
  O  O240  1  0.880250  0.971410  0.338840  1.0  -0.609
  O  O241  1  0.839740  0.195840  0.898240  1.0  -0.4141
  O  O242  1  0.744080  0.345140  0.880750  1.0  -0.4379
  O  O243  1  0.776100  0.451340  0.924080  1.0  -0.5632
  O  O244  1  0.721410  0.130250  0.911160  1.0  -0.6088
  O  O245  1  0.339740  0.695840  0.398240  1.0  -0.4141
  O  O246  1  0.244080  0.845140  0.380750  1.0  -0.4379
  O  O247  1  0.276100  0.951340  0.424080  1.0  -0.5632
  O  O248  1  0.221410  0.630250  0.411160  1.0  -0.6088
  O  O249  1  0.660260  0.804160  0.398240  1.0  -0.4144
  O  O250  1  0.755920  0.654860  0.380750  1.0  -0.4369
  O  O251  1  0.723900  0.548660  0.424080  1.0  -0.5633
  O  O252  1  0.778590  0.869750  0.411160  1.0  -0.6072
  O  O253  1  0.160260  0.304160  0.898240  1.0  -0.4144
  O  O254  1  0.255920  0.154860  0.880750  1.0  -0.4369
  O  O255  1  0.223900  0.048660  0.924080  1.0  -0.5633
  O  O256  1  0.278590  0.369750  0.911160  1.0  -0.6072
  O  O257  1  0.445840  0.410260  0.648240  1.0  -0.4103
  O  O258  1  0.595140  0.505920  0.630750  1.0  -0.439
  O  O259  1  0.701340  0.473900  0.674080  1.0  -0.5635
  O  O260  1  0.380250  0.528590  0.661160  1.0  -0.6079
  O  O261  1  0.945840  0.910260  0.148240  1.0  -0.4103
  O  O262  1  0.095140  0.005920  0.130750  1.0  -0.439
  O  O263  1  0.201340  0.973900  0.174080  1.0  -0.5635
  O  O264  1  0.880250  0.028590  0.161160  1.0  -0.6079
  O  O265  1  0.054160  0.589740  0.148240  1.0  -0.4106
  O  O266  1  0.904860  0.494080  0.130750  1.0  -0.438
  O  O267  1  0.798660  0.526100  0.174080  1.0  -0.5622
  O  O268  1  0.119750  0.471410  0.161160  1.0  -0.608
  O  O269  1  0.554160  0.089740  0.648240  1.0  -0.4106
  O  O270  1  0.404860  0.994080  0.630750  1.0  -0.438
  O  O271  1  0.298660  0.026100  0.674080  1.0  -0.5622
  O  O272  1  0.619750  0.971410  0.661160  1.0  -0.608
  O  O273  1  0.339740  0.804160  0.898240  1.0  -0.4139
  O  O274  1  0.244080  0.654860  0.880750  1.0  -0.4377
  O  O275  1  0.276100  0.548660  0.924080  1.0  -0.5637
  O  O276  1  0.221410  0.869750  0.911160  1.0  -0.6086
  O  O277  1  0.839740  0.304160  0.398240  1.0  -0.4139
  O  O278  1  0.744080  0.154860  0.380750  1.0  -0.4377
  O  O279  1  0.776100  0.048660  0.424080  1.0  -0.5637
  O  O280  1  0.721410  0.369750  0.411160  1.0  -0.6086
  O  O281  1  0.160260  0.195840  0.398240  1.0  -0.4147
  O  O282  1  0.255920  0.345140  0.380750  1.0  -0.4374
  O  O283  1  0.223900  0.451340  0.424080  1.0  -0.5646
  O  O284  1  0.278590  0.130250  0.411160  1.0  -0.6085
  O  O285  1  0.660260  0.695840  0.898240  1.0  -0.4147
  O  O286  1  0.755920  0.845140  0.880750  1.0  -0.4374
  O  O287  1  0.723900  0.951340  0.924080  1.0  -0.5646
  O  O288  1  0.778590  0.630250  0.911160  1.0  -0.6085
  O  O289  1  0.945840  0.589740  0.648240  1.0  -0.4096
  O  O290  1  0.095140  0.494080  0.630750  1.0  -0.4393
  O  O291  1  0.201340  0.526100  0.674080  1.0  -0.5645
  O  O292  1  0.880250  0.471410  0.661160  1.0  -0.6092
  O  O293  1  0.445840  0.089740  0.148240  1.0  -0.4096
  O  O294  1  0.595140  0.994080  0.130750  1.0  -0.4393
  O  O295  1  0.701340  0.026100  0.174080  1.0  -0.5645
  O  O296  1  0.380250  0.971410  0.161160  1.0  -0.6092
  O  O297  1  0.554160  0.410260  0.148240  1.0  -0.4115
  O  O298  1  0.404860  0.505920  0.130750  1.0  -0.4379
  O  O299  1  0.298660  0.473900  0.174080  1.0  -0.5628
  O  O300  1  0.619750  0.528590  0.161160  1.0  -0.6083
  O  O301  1  0.054160  0.910260  0.648240  1.0  -0.4115
  O  O302  1  0.904860  0.005920  0.630750  1.0  -0.4379
  O  O303  1  0.798660  0.973900  0.674080  1.0  -0.5628
  O  O304  1  0.119750  0.028590  0.661160  1.0  -0.6083
  O  O305  1  0.160260  0.804160  0.101760  1.0  -0.4132
  O  O306  1  0.255920  0.654860  0.119250  1.0  -0.4385
  O  O307  1  0.223900  0.548660  0.075920  1.0  -0.5647
  O  O308  1  0.278590  0.869750  0.088840  1.0  -0.6074
  O  O309  1  0.660260  0.304160  0.601760  1.0  -0.4132
  O  O310  1  0.755920  0.154860  0.619250  1.0  -0.4385
  O  O311  1  0.723900  0.048660  0.575920  1.0  -0.5647
  O  O312  1  0.778590  0.369750  0.588840  1.0  -0.6074
  O  O313  1  0.339740  0.195840  0.601760  1.0  -0.4141
  O  O314  1  0.244080  0.345140  0.619250  1.0  -0.439
  O  O315  1  0.276100  0.451340  0.575920  1.0  -0.5646
  O  O316  1  0.221410  0.130250  0.588840  1.0  -0.6095
  O  O317  1  0.839740  0.695840  0.101760  1.0  -0.4141
  O  O318  1  0.744080  0.845140  0.119250  1.0  -0.439
  O  O319  1  0.776100  0.951340  0.075920  1.0  -0.5646
  O  O320  1  0.721410  0.630250  0.088840  1.0  -0.6095
  O  O321  1  0.554160  0.589740  0.351760  1.0  -0.4099
  O  O322  1  0.404860  0.494080  0.369250  1.0  -0.44
  O  O323  1  0.298660  0.526100  0.325920  1.0  -0.5636
  O  O324  1  0.619750  0.471410  0.338840  1.0  -0.6084
  O  O325  1  0.054160  0.089740  0.851760  1.0  -0.4099
  O  O326  1  0.904860  0.994080  0.869250  1.0  -0.44
  O  O327  1  0.798660  0.026100  0.825920  1.0  -0.5636
  O  O328  1  0.119750  0.971410  0.838840  1.0  -0.6084
  O  O329  1  0.945840  0.410260  0.851760  1.0  -0.4094
  O  O330  1  0.095140  0.505920  0.869250  1.0  -0.4403
  O  O331  1  0.201340  0.473900  0.825920  1.0  -0.5649
  O  O332  1  0.880250  0.528590  0.838840  1.0  -0.6084
  O  O333  1  0.445840  0.910260  0.351760  1.0  -0.4094
  O  O334  1  0.595140  0.005920  0.369250  1.0  -0.4403
  O  O335  1  0.701340  0.973900  0.325920  1.0  -0.5649
  O  O336  1  0.380250  0.028590  0.338840  1.0  -0.6084
