# generated using pymatgen
data_Co2H31C41(N2O7)2
_symmetry_space_group_name_H-M   'P 1'
_cell_length_a   9.39250000
_cell_length_b   10.19770000
_cell_length_c   24.46160000
_cell_angle_alpha   91.92600000
_cell_angle_beta   90.00000000
_cell_angle_gamma   90.00000000
_symmetry_Int_Tables_number   1
_chemical_formula_structural   Co2H31C41(N2O7)2
_chemical_formula_sum   'Co4 H62 C82 N8 O28'
_cell_volume   2341.65483355
_cell_formula_units_Z   2
loop_
 _symmetry_equiv_pos_site_id
 _symmetry_equiv_pos_as_xyz
  1  'x, y, z'
loop_
 _atom_site_type_symbol
 _atom_site_label
 _atom_site_symmetry_multiplicity
 _atom_site_fract_x
 _atom_site_fract_y
 _atom_site_fract_z
 _atom_site_occupancy
 _atom_site_charge
  Co  Co1  1  0.657410  0.251400  0.126800  1.0  0.9241
  Co  Co2  1  0.001300  0.749300  0.377500  1.0  0.9058
  Co  Co3  1  0.342590  0.251400  0.626800  1.0  0.9227
  Co  Co4  1  0.998700  0.749300  0.877500  1.0  0.9056
  H  H5  1  0.898800  0.151500  0.062400  1.0  0.0789
  H  H6  1  0.107700  0.018500  0.070300  1.0  0.1223
  H  H7  1  0.923400  0.870100  0.198000  1.0  0.1323
  H  H8  1  0.741600  0.019000  0.192200  1.0  0.0856
  H  H9  1  0.336500  0.950300  0.113300  1.0  0.1256
  H  H10  1  0.233700  0.865400  0.075000  1.0  0.1066
  H  H11  1  0.225200  0.668800  0.176000  1.0  0.084
  H  H12  1  0.325900  0.563500  0.148300  1.0  0.0791
  H  H13  1  0.965100  0.577800  0.037300  1.0  0.1269
  H  H14  1  0.762600  0.464700  0.056300  1.0  0.0802
  H  H15  1  0.923800  0.330200  0.187800  1.0  0.0553
  H  H16  1  0.117900  0.441300  0.179400  1.0  0.1106
  H  H17  1  0.503200  0.867800  0.163700  1.0  0.0765
  H  H18  1  0.384700  0.823200  0.204900  1.0  0.0887
  H  H19  1  0.600000  0.897900  0.247800  1.0  0.1251
  H  H20  1  0.765200  0.898000  0.329600  1.0  0.086
  H  H21  1  0.903600  0.566000  0.279000  1.0  0.0797
  H  H22  1  0.715900  0.521500  0.226400  1.0  0.1346
  H  H23  1  0.532200  0.640000  0.087100  1.0  0.0902
  H  H24  1  0.408000  0.671900  0.047100  1.0  0.0948
  H  H25  1  0.680200  0.982600  0.018300  1.0  0.1149
  H  H26  1  0.851100  0.961300  0.948800  1.0  0.1293
  H  H27  1  0.772300  0.584000  0.942300  1.0  0.018
  H  H28  1  0.590600  0.606100  0.993200  1.0  0.1185
  H  H29  1  0.402400  0.455900  0.252100  1.0  0.1069
  H  H30  1  0.041800  0.348000  0.326700  1.0  0.1235
  H  H31  1  0.254500  0.088100  0.230300  1.0  0.1158
  H  H32  1  0.026900  0.136900  0.935100  1.0  0.1122
  H  H33  1  0.256300  0.416800  0.014000  1.0  0.1128
  H  H34  1  0.405700  0.047900  0.000600  1.0  0.1105
  H  H35  1  0.964100  0.143100  0.308400  1.0  0.4277
  H  H36  1  0.101200  0.151500  0.562400  1.0  0.0787
  H  H37  1  0.892300  0.018500  0.570300  1.0  0.1222
  H  H38  1  0.076600  0.870100  0.698000  1.0  0.1322
  H  H39  1  0.258400  0.019000  0.692200  1.0  0.0864
  H  H40  1  0.663500  0.950300  0.613300  1.0  0.1254
  H  H41  1  0.766300  0.865400  0.575000  1.0  0.1059
  H  H42  1  0.774800  0.668800  0.676000  1.0  0.0845
  H  H43  1  0.674100  0.563500  0.648300  1.0  0.0806
  H  H44  1  0.034900  0.577800  0.537300  1.0  0.1266
  H  H45  1  0.237400  0.464700  0.556300  1.0  0.0802
  H  H46  1  0.076200  0.330200  0.687800  1.0  0.0553
  H  H47  1  0.882100  0.441300  0.679400  1.0  0.1105
  H  H48  1  0.496800  0.867800  0.663700  1.0  0.0768
  H  H49  1  0.615300  0.823200  0.704900  1.0  0.0897
  H  H50  1  0.400000  0.897900  0.747800  1.0  0.1252
  H  H51  1  0.234800  0.898000  0.829600  1.0  0.0839
  H  H52  1  0.096400  0.566000  0.779000  1.0  0.0793
  H  H53  1  0.284100  0.521500  0.726400  1.0  0.1342
  H  H54  1  0.467800  0.640000  0.587100  1.0  0.0895
  H  H55  1  0.592000  0.671900  0.547100  1.0  0.0948
  H  H56  1  0.319800  0.982600  0.518300  1.0  0.115
  H  H57  1  0.148900  0.961300  0.448800  1.0  0.129
  H  H58  1  0.227700  0.584000  0.442300  1.0  0.0175
  H  H59  1  0.409400  0.606100  0.493200  1.0  0.1189
  H  H60  1  0.597600  0.455900  0.752100  1.0  0.1071
  H  H61  1  0.958200  0.348000  0.826700  1.0  0.1244
  H  H62  1  0.745500  0.088100  0.730300  1.0  0.1163
  H  H63  1  0.973100  0.136900  0.435100  1.0  0.1122
  H  H64  1  0.743700  0.416800  0.514000  1.0  0.1132
  H  H65  1  0.594300  0.047900  0.500600  1.0  0.1103
  H  H66  1  0.035900  0.143100  0.808400  1.0  0.4279
  C  C67  1  0.909000  0.099000  0.092400  1.0  0.1391
  C  C68  1  0.039000  0.024000  0.097800  1.0  -0.1833
  C  C69  1  0.054000  0.962000  0.144900  1.0  0.2903
  C  C70  1  0.928900  0.939100  0.174200  1.0  -0.1698
  C  C71  1  0.816000  0.020000  0.167000  1.0  0.144
  C  C72  1  0.275000  0.874000  0.111300  1.0  -0.0282
  C  C73  1  0.361700  0.737000  0.128400  1.0  0.1542
  C  C74  1  0.272000  0.642900  0.142100  1.0  -0.0166
  C  C75  1  0.055000  0.549000  0.115500  1.0  0.1898
  C  C76  1  0.953000  0.537000  0.070500  1.0  -0.1627
  C  C77  1  0.836000  0.461000  0.081600  1.0  0.1733
  C  C78  1  0.928000  0.385000  0.158200  1.0  0.19
  C  C79  1  0.043000  0.454000  0.155200  1.0  -0.2414
  C  C80  1  0.446000  0.794000  0.175100  1.0  0.051
  C  C81  1  0.631000  0.707000  0.233100  1.0  0.2916
  C  C82  1  0.649000  0.823000  0.258000  1.0  -0.117
  C  C83  1  0.761000  0.823000  0.306900  1.0  0.1794
  C  C84  1  0.830000  0.626900  0.279400  1.0  0.1789
  C  C85  1  0.726000  0.603000  0.243800  1.0  -0.1996
  C  C86  1  0.465000  0.707000  0.077300  1.0  0.0118
  C  C87  1  0.637000  0.795000  0.021100  1.0  0.3395
  C  C88  1  0.703000  0.900000  0.003400  1.0  -0.1914
  C  C89  1  0.805900  0.888100  0.962400  1.0  0.113
  C  C90  1  0.754000  0.666900  0.957700  1.0  0.1605
  C  C91  1  0.654000  0.675000  0.989600  1.0  -0.1869
  C  C92  1  0.494000  0.241000  0.202000  1.0  0.4302
  C  C93  1  0.347400  0.267000  0.235500  1.0  -0.1414
  C  C94  1  0.334500  0.392300  0.259100  1.0  -0.0142
  C  C95  1  0.220000  0.422700  0.293300  1.0  -0.1503
  C  C96  1  0.118400  0.327700  0.303800  1.0  -0.1232
  C  C97  1  0.131300  0.202300  0.280300  1.0  0.2525
  C  C98  1  0.245800  0.171900  0.246100  1.0  -0.0878
  C  C99  1  0.177000  0.567000  0.312900  1.0  0.5347
  C  C100  1  0.200000  0.940000  0.942900  1.0  0.6582
  C  C101  1  0.213600  0.070900  0.964800  1.0  -0.0617
  C  C102  1  0.108100  0.162400  0.954400  1.0  -0.1232
  C  C103  1  0.124100  0.292000  0.972800  1.0  0.2577
  C  C104  1  0.245600  0.330100  0.001700  1.0  -0.0984
  C  C105  1  0.351100  0.238600  0.012100  1.0  -0.072
  C  C106  1  0.335100  0.109100  0.993600  1.0  -0.1247
  C  C107  1  0.464300  0.277700  0.048300  1.0  0.5297
  C  C108  1  0.091000  0.099000  0.592400  1.0  0.1409
  C  C109  1  0.961000  0.024000  0.597800  1.0  -0.1846
  C  C110  1  0.946000  0.962000  0.644900  1.0  0.2905
  C  C111  1  0.071100  0.939100  0.674200  1.0  -0.1699
  C  C112  1  0.184000  0.020000  0.667000  1.0  0.1455
  C  C113  1  0.725000  0.874000  0.611300  1.0  -0.0292
  C  C114  1  0.638300  0.737000  0.628400  1.0  0.1531
  C  C115  1  0.728000  0.642900  0.642100  1.0  -0.0167
  C  C116  1  0.945000  0.549000  0.615500  1.0  0.1909
  C  C117  1  0.047000  0.537000  0.570500  1.0  -0.1619
  C  C118  1  0.164000  0.461000  0.581600  1.0  0.173
  C  C119  1  0.072000  0.385000  0.658200  1.0  0.1901
  C  C120  1  0.957000  0.454000  0.655200  1.0  -0.2416
  C  C121  1  0.554000  0.794000  0.675100  1.0  0.0501
  C  C122  1  0.369000  0.707000  0.733100  1.0  0.2915
  C  C123  1  0.351000  0.823000  0.758000  1.0  -0.1145
  C  C124  1  0.239000  0.823000  0.806900  1.0  0.1788
  C  C125  1  0.170000  0.626900  0.779400  1.0  0.1801
  C  C126  1  0.274000  0.603000  0.743800  1.0  -0.1993
  C  C127  1  0.535000  0.707000  0.577300  1.0  0.0129
  C  C128  1  0.363000  0.795000  0.521100  1.0  0.3393
  C  C129  1  0.297000  0.900000  0.503400  1.0  -0.1896
  C  C130  1  0.194100  0.888100  0.462400  1.0  0.1129
  C  C131  1  0.246000  0.666900  0.457700  1.0  0.1601
  C  C132  1  0.346000  0.675000  0.489600  1.0  -0.1861
  C  C133  1  0.506000  0.241000  0.702000  1.0  0.4277
  C  C134  1  0.652600  0.267000  0.735500  1.0  -0.1424
  C  C135  1  0.665500  0.392300  0.759100  1.0  -0.0158
  C  C136  1  0.780000  0.422700  0.793300  1.0  -0.1497
  C  C137  1  0.881600  0.327700  0.803800  1.0  -0.123
  C  C138  1  0.868700  0.202300  0.780300  1.0  0.2519
  C  C139  1  0.754200  0.171900  0.746100  1.0  -0.0877
  C  C140  1  0.823000  0.567000  0.812900  1.0  0.536
  C  C141  1  0.800000  0.940000  0.442900  1.0  0.6587
  C  C142  1  0.786400  0.070900  0.464800  1.0  -0.0609
  C  C143  1  0.891900  0.162400  0.454400  1.0  -0.123
  C  C144  1  0.875900  0.292000  0.472800  1.0  0.258
  C  C145  1  0.754400  0.330100  0.501700  1.0  -0.0981
  C  C146  1  0.648900  0.238600  0.512100  1.0  -0.0713
  C  C147  1  0.664900  0.109100  0.493600  1.0  -0.1234
  C  C148  1  0.535700  0.277700  0.548300  1.0  0.5307
  N  N149  1  0.807100  0.094700  0.128100  1.0  -0.2748
  N  N150  1  0.813100  0.381200  0.124300  1.0  -0.32
  N  N151  1  0.843000  0.730500  0.317100  1.0  -0.2186
  N  N152  1  0.838000  0.761500  0.942900  1.0  -0.3349
  N  N153  1  0.192900  0.094700  0.628100  1.0  -0.2761
  N  N154  1  0.186900  0.381200  0.624300  1.0  -0.3202
  N  N155  1  0.157000  0.730500  0.817100  1.0  -0.2201
  N  N156  1  0.162000  0.761500  0.442900  1.0  -0.3325
  O  O157  1  0.162600  0.880500  0.154700  1.0  -0.337
  O  O158  1  0.171800  0.617000  0.102900  1.0  -0.2655
  O  O159  1  0.536500  0.684800  0.191000  1.0  -0.286
  O  O160  1  0.539700  0.814300  0.059500  1.0  -0.262
  O  O161  1  0.580000  0.307000  0.202200  1.0  -0.5564
  O  O162  1  0.468100  0.134500  0.168500  1.0  -0.6143
  O  O163  1  0.026000  0.110400  0.288800  1.0  -0.5274
  O  O164  1  0.092800  0.582600  0.346700  1.0  -0.5862
  O  O165  1  0.300900  0.642100  0.305200  1.0  -0.5761
  O  O166  1  0.098200  0.914500  0.908600  1.0  -0.6339
  O  O167  1  0.243500  0.843700  0.971600  1.0  -0.5365
  O  O168  1  0.025000  0.384700  0.963600  1.0  -0.5476
  O  O169  1  0.477000  0.395000  0.067800  1.0  -0.569
  O  O170  1  0.595000  0.219000  0.048000  1.0  -0.6154
  O  O171  1  0.837400  0.880500  0.654700  1.0  -0.3379
  O  O172  1  0.828200  0.617000  0.602900  1.0  -0.2648
  O  O173  1  0.463500  0.684800  0.691000  1.0  -0.2872
  O  O174  1  0.460300  0.814300  0.559500  1.0  -0.2618
  O  O175  1  0.420000  0.307000  0.702200  1.0  -0.5562
  O  O176  1  0.531900  0.134500  0.668500  1.0  -0.6147
  O  O177  1  0.974000  0.110400  0.788800  1.0  -0.5269
  O  O178  1  0.907200  0.582600  0.846700  1.0  -0.5859
  O  O179  1  0.699100  0.642100  0.805200  1.0  -0.5754
  O  O180  1  0.901800  0.914500  0.408600  1.0  -0.6342
  O  O181  1  0.756500  0.843700  0.471600  1.0  -0.536
  O  O182  1  0.975000  0.384700  0.463600  1.0  -0.5478
  O  O183  1  0.523000  0.395000  0.567800  1.0  -0.5689
  O  O184  1  0.405000  0.219000  0.548000  1.0  -0.6162
