# generated using pymatgen
data_InH2(C5O4)2
_symmetry_space_group_name_H-M   'P 1'
_cell_length_a   9.03800000
_cell_length_b   9.03800000
_cell_length_c   18.97500000
_cell_angle_alpha   90.00000000
_cell_angle_beta   90.00000000
_cell_angle_gamma   120.00000000
_symmetry_Int_Tables_number   1
_chemical_formula_structural   InH2(C5O4)2
_chemical_formula_sum   'In3 H6 C30 O24'
_cell_volume   1342.32318110
_cell_formula_units_Z   3
loop_
 _symmetry_equiv_pos_site_id
 _symmetry_equiv_pos_as_xyz
  1  'x, y, z'
loop_
 _atom_site_type_symbol
 _atom_site_label
 _atom_site_symmetry_multiplicity
 _atom_site_fract_x
 _atom_site_fract_y
 _atom_site_fract_z
 _atom_site_occupancy
 _atom_site_charge
  In  In1  1  0.000000  0.000000  0.166670  1.0  1.5009
  In  In2  1  0.000000  0.000000  0.833330  1.0  1.5009
  In  In3  1  0.000000  0.000000  0.500000  1.0  1.4994
  H  H4  1  0.500000  0.000000  0.121500  1.0  0.1194
  H  H5  1  0.000000  0.500000  0.788170  1.0  0.1194
  H  H6  1  0.500000  0.500000  0.454830  1.0  0.1193
  H  H7  1  0.000000  0.500000  0.545170  1.0  0.119
  H  H8  1  0.500000  0.000000  0.878500  1.0  0.119
  H  H9  1  0.500000  0.500000  0.211830  1.0  0.119
  C  C10  1  0.769200  0.998400  0.077800  1.0  0.7156
  C  C11  1  0.631100  0.996900  0.038100  1.0  -0.0176
  C  C12  1  0.001600  0.770800  0.744470  1.0  0.7189
  C  C13  1  0.003100  0.634200  0.704770  1.0  -0.018
  C  C14  1  0.229200  0.230800  0.411130  1.0  0.7174
  C  C15  1  0.365800  0.368900  0.371430  1.0  -0.0188
  C  C16  1  0.230800  0.001600  0.077800  1.0  0.7142
  C  C17  1  0.368900  0.003100  0.038100  1.0  -0.0178
  C  C18  1  0.998400  0.229200  0.744470  1.0  0.7184
  C  C19  1  0.996900  0.365800  0.704770  1.0  -0.0186
  C  C20  1  0.770800  0.769200  0.411130  1.0  0.7174
  C  C21  1  0.634200  0.631100  0.371430  1.0  -0.0183
  C  C22  1  0.998400  0.769200  0.588870  1.0  0.7161
  C  C23  1  0.996900  0.631100  0.628570  1.0  -0.0189
  C  C24  1  0.770800  0.001600  0.922200  1.0  0.7146
  C  C25  1  0.634200  0.003100  0.961900  1.0  -0.0178
  C  C26  1  0.230800  0.229200  0.255530  1.0  0.7179
  C  C27  1  0.368900  0.365800  0.295230  1.0  -0.0185
  C  C28  1  0.001600  0.230800  0.588870  1.0  0.7162
  C  C29  1  0.003100  0.368900  0.628570  1.0  -0.0187
  C  C30  1  0.229200  0.998400  0.922200  1.0  0.7133
  C  C31  1  0.365800  0.996900  0.961900  1.0  -0.0181
  C  C32  1  0.769200  0.770800  0.255530  1.0  0.7172
  C  C33  1  0.631100  0.634200  0.295230  1.0  -0.0188
  C  C34  1  0.500000  0.000000  0.071500  1.0  -0.0052
  C  C35  1  0.000000  0.500000  0.738170  1.0  -0.0052
  C  C36  1  0.500000  0.500000  0.404830  1.0  -0.0052
  C  C37  1  0.000000  0.500000  0.595170  1.0  -0.0025
  C  C38  1  0.500000  0.000000  0.928500  1.0  -0.0025
  C  C39  1  0.500000  0.500000  0.261830  1.0  -0.0025
  O  O40  1  0.853500  0.112000  0.125200  1.0  -0.5563
  O  O41  1  0.813700  0.887700  0.069500  1.0  -0.5721
  O  O42  1  0.888000  0.741500  0.791870  1.0  -0.5567
  O  O43  1  0.112300  0.926000  0.736170  1.0  -0.5755
  O  O44  1  0.258500  0.146500  0.458530  1.0  -0.5567
  O  O45  1  0.074000  0.186300  0.402830  1.0  -0.5745
  O  O46  1  0.146500  0.888000  0.125200  1.0  -0.5554
  O  O47  1  0.186300  0.112300  0.069500  1.0  -0.5729
  O  O48  1  0.112000  0.258500  0.791870  1.0  -0.5579
  O  O49  1  0.887700  0.074000  0.736170  1.0  -0.5751
  O  O50  1  0.741500  0.853500  0.458530  1.0  -0.5554
  O  O51  1  0.926000  0.813700  0.402830  1.0  -0.5737
  O  O52  1  0.112000  0.853500  0.541470  1.0  -0.5563
  O  O53  1  0.887700  0.813700  0.597170  1.0  -0.5754
  O  O54  1  0.741500  0.888000  0.874800  1.0  -0.556
  O  O55  1  0.926000  0.112300  0.930500  1.0  -0.5745
  O  O56  1  0.146500  0.258500  0.208130  1.0  -0.5563
  O  O57  1  0.186300  0.074000  0.263830  1.0  -0.5772
  O  O58  1  0.888000  0.146500  0.541470  1.0  -0.5549
  O  O59  1  0.112300  0.186300  0.597170  1.0  -0.5749
  O  O60  1  0.258500  0.112000  0.874800  1.0  -0.5547
  O  O61  1  0.074000  0.887700  0.930500  1.0  -0.5733
  O  O62  1  0.853500  0.741500  0.208130  1.0  -0.557
  O  O63  1  0.813700  0.926000  0.263830  1.0  -0.5776
