# generated using pymatgen
data_CdH20C34(N3O4)2
_symmetry_space_group_name_H-M   'P 1'
_cell_length_a   15.21400000
_cell_length_b   15.21400000
_cell_length_c   19.68600000
_cell_angle_alpha   90.00000000
_cell_angle_beta   90.00000000
_cell_angle_gamma   120.00000000
_symmetry_Int_Tables_number   1
_chemical_formula_structural   CdH20C34(N3O4)2
_chemical_formula_sum   'Cd3 H60 C102 N18 O24'
_cell_volume   3946.16223740
_cell_formula_units_Z   3
loop_
 _symmetry_equiv_pos_site_id
 _symmetry_equiv_pos_as_xyz
  1  'x, y, z'
loop_
 _atom_site_type_symbol
 _atom_site_label
 _atom_site_symmetry_multiplicity
 _atom_site_fract_x
 _atom_site_fract_y
 _atom_site_fract_z
 _atom_site_occupancy
 _atom_site_charge
  Cd  Cd1  1  0.143650  0.000000  0.166670  1.0  0.8738
  Cd  Cd2  1  0.000000  0.143650  0.833330  1.0  0.8745
  Cd  Cd3  1  0.856350  0.856350  0.500000  1.0  0.8747
  H  H4  1  0.690700  0.572400  0.239200  1.0  0.1209
  H  H5  1  0.721600  0.482000  0.321500  1.0  0.1302
  H  H6  1  0.820000  0.730600  0.205000  1.0  0.1218
  H  H7  1  0.285400  0.938600  0.256000  1.0  0.0927
  H  H8  1  0.434600  0.934100  0.256800  1.0  0.1318
  H  H9  1  0.998900  0.096800  0.992800  1.0  0.0861
  H  H10  1  0.913000  0.073100  0.093000  1.0  0.1325
  H  H11  1  0.684000  0.052200  0.987400  1.0  0.1112
  H  H12  1  0.781100  0.096500  0.891900  1.0  0.1101
  H  H13  1  0.410520  0.879510  0.562670  1.0  0.1798
  H  H14  1  0.427600  0.118300  0.905870  1.0  0.1214
  H  H15  1  0.518000  0.239600  0.988170  1.0  0.1287
  H  H16  1  0.269400  0.089400  0.871670  1.0  0.1216
  H  H17  1  0.061400  0.346800  0.922670  1.0  0.0916
  H  H18  1  0.065900  0.500500  0.923470  1.0  0.132
  H  H19  1  0.903200  0.902100  0.659470  1.0  0.0838
  H  H20  1  0.926900  0.839900  0.759670  1.0  0.1324
  H  H21  1  0.947800  0.631800  0.654070  1.0  0.1098
  H  H22  1  0.903500  0.684600  0.558570  1.0  0.1095
  H  H23  1  0.120490  0.531010  0.229340  1.0  0.1797
  H  H24  1  0.881700  0.309300  0.572530  1.0  0.1211
  H  H25  1  0.760400  0.278400  0.654830  1.0  0.1299
  H  H26  1  0.910600  0.180000  0.538330  1.0  0.122
  H  H27  1  0.653200  0.714600  0.589330  1.0  0.0926
  H  H28  1  0.499500  0.565400  0.590130  1.0  0.1315
  H  H29  1  0.097900  0.001100  0.326130  1.0  0.0852
  H  H30  1  0.160100  0.087000  0.426330  1.0  0.132
  H  H31  1  0.368200  0.316000  0.320730  1.0  0.1102
  H  H32  1  0.315400  0.218900  0.225230  1.0  0.1102
  H  H33  1  0.468990  0.589480  0.896010  1.0  0.1828
  H  H34  1  0.572400  0.690700  0.760800  1.0  0.1226
  H  H35  1  0.482000  0.721600  0.678500  1.0  0.1301
  H  H36  1  0.730600  0.820000  0.795000  1.0  0.1234
  H  H37  1  0.938600  0.285400  0.744000  1.0  0.0931
  H  H38  1  0.934100  0.434600  0.743200  1.0  0.1315
  H  H39  1  0.096800  0.998900  0.007200  1.0  0.0841
  H  H40  1  0.073100  0.913000  0.907000  1.0  0.132
  H  H41  1  0.052200  0.684000  0.012600  1.0  0.1104
  H  H42  1  0.096500  0.781100  0.108100  1.0  0.1097
  H  H43  1  0.879510  0.410520  0.437330  1.0  0.1812
  H  H44  1  0.118300  0.427600  0.094130  1.0  0.1216
  H  H45  1  0.239600  0.518000  0.011830  1.0  0.1308
  H  H46  1  0.089400  0.269400  0.128330  1.0  0.1232
  H  H47  1  0.346800  0.061400  0.077330  1.0  0.093
  H  H48  1  0.500500  0.065900  0.076530  1.0  0.1326
  H  H49  1  0.902100  0.903200  0.340530  1.0  0.0852
  H  H50  1  0.839900  0.926900  0.240330  1.0  0.1322
  H  H51  1  0.631800  0.947800  0.345930  1.0  0.1103
  H  H52  1  0.684600  0.903500  0.441430  1.0  0.1099
  H  H53  1  0.531010  0.120490  0.770660  1.0  0.1807
  H  H54  1  0.309300  0.881700  0.427470  1.0  0.1221
  H  H55  1  0.278400  0.760400  0.345170  1.0  0.1293
  H  H56  1  0.180000  0.910600  0.461670  1.0  0.122
  H  H57  1  0.714600  0.653200  0.410670  1.0  0.0916
  H  H58  1  0.565400  0.499500  0.409870  1.0  0.1309
  H  H59  1  0.001100  0.097900  0.673870  1.0  0.0824
  H  H60  1  0.087000  0.160100  0.573670  1.0  0.132
  H  H61  1  0.316000  0.368200  0.679270  1.0  0.1087
  H  H62  1  0.218900  0.315400  0.774770  1.0  0.1097
  H  H63  1  0.589480  0.468990  0.103990  1.0  0.182
  C  C64  1  0.754900  0.599600  0.258500  1.0  -0.0863
  C  C65  1  0.773400  0.545400  0.307800  1.0  -0.1034
  C  C66  1  0.869500  0.586100  0.336500  1.0  -0.0468
  C  C67  1  0.946900  0.680800  0.316000  1.0  0.1072
  C  C68  1  0.928400  0.735000  0.266700  1.0  -0.1436
  C  C69  1  0.832400  0.694400  0.238000  1.0  -0.0351
  C  C70  1  0.873000  0.513000  0.378000  1.0  0.3421
  C  C71  1  0.006000  0.829300  0.233800  1.0  0.7015
  C  C72  1  0.329200  0.963500  0.219000  1.0  0.1832
  C  C73  1  0.418700  0.961600  0.219800  1.0  -0.1132
  C  C74  1  0.934800  0.090400  0.992000  1.0  0.1705
  C  C75  1  0.882100  0.071500  0.051900  1.0  -0.137
  C  C76  1  0.780200  0.049700  0.050200  1.0  -0.0085
  C  C77  1  0.749200  0.061800  0.990600  1.0  -0.1056
  C  C78  1  0.807000  0.087600  0.932500  1.0  0.1577
  C  C79  1  0.721000  0.022700  0.112000  1.0  0.494
  C  C80  1  0.400400  0.155300  0.925170  1.0  -0.0859
  C  C81  1  0.454600  0.228000  0.974470  1.0  -0.1056
  C  C82  1  0.413900  0.283400  0.003170  1.0  -0.0497
  C  C83  1  0.319200  0.266100  0.982670  1.0  0.1084
  C  C84  1  0.265000  0.193400  0.933370  1.0  -0.1439
  C  C85  1  0.305600  0.138000  0.904670  1.0  -0.033
  C  C86  1  0.487000  0.360000  0.044670  1.0  0.3417
  C  C87  1  0.170700  0.176700  0.900470  1.0  0.7004
  C  C88  1  0.036500  0.365700  0.885670  1.0  0.181
  C  C89  1  0.038400  0.457100  0.886470  1.0  -0.1116
  C  C90  1  0.909600  0.844400  0.658670  1.0  0.1728
  C  C91  1  0.928500  0.810600  0.718570  1.0  -0.1378
  C  C92  1  0.950300  0.730500  0.716870  1.0  -0.0094
  C  C93  1  0.938200  0.687400  0.657270  1.0  -0.1036
  C  C94  1  0.912400  0.719400  0.599170  1.0  0.1572
  C  C95  1  0.977300  0.698300  0.778670  1.0  0.4942
  C  C96  1  0.844700  0.245100  0.591830  1.0  -0.0824
  C  C97  1  0.772000  0.226600  0.641130  1.0  -0.1052
  C  C98  1  0.716600  0.130500  0.669830  1.0  -0.0485
  C  C99  1  0.733900  0.053100  0.649330  1.0  0.1078
  C  C100  1  0.806600  0.071600  0.600030  1.0  -0.1435
  C  C101  1  0.862000  0.167600  0.571330  1.0  -0.0394
  C  C102  1  0.640000  0.127000  0.711330  1.0  0.3358
  C  C103  1  0.823300  0.994000  0.567130  1.0  0.7015
  C  C104  1  0.634300  0.670800  0.552330  1.0  0.1827
  C  C105  1  0.542900  0.581300  0.553130  1.0  -0.112
  C  C106  1  0.155600  0.065200  0.325330  1.0  0.1709
  C  C107  1  0.189400  0.117900  0.385230  1.0  -0.1386
  C  C108  1  0.269500  0.219800  0.383530  1.0  -0.0084
  C  C109  1  0.312600  0.250800  0.323930  1.0  -0.1071
  C  C110  1  0.280600  0.193000  0.265830  1.0  0.1562
  C  C111  1  0.301700  0.279000  0.445330  1.0  0.4943
  C  C112  1  0.599600  0.754900  0.741500  1.0  -0.0839
  C  C113  1  0.545400  0.773400  0.692200  1.0  -0.1043
  C  C114  1  0.586100  0.869500  0.663500  1.0  -0.0475
  C  C115  1  0.680800  0.946900  0.684000  1.0  0.1066
  C  C116  1  0.735000  0.928400  0.733300  1.0  -0.1428
  C  C117  1  0.694400  0.832400  0.762000  1.0  -0.0394
  C  C118  1  0.513000  0.873000  0.622000  1.0  0.3327
  C  C119  1  0.829300  0.006000  0.766200  1.0  0.7017
  C  C120  1  0.963500  0.329200  0.781000  1.0  0.1821
  C  C121  1  0.961600  0.418700  0.780200  1.0  -0.1104
  C  C122  1  0.090400  0.934800  0.008000  1.0  0.1708
  C  C123  1  0.071500  0.882100  0.948100  1.0  -0.1383
  C  C124  1  0.049700  0.780200  0.949800  1.0  -0.0077
  C  C125  1  0.061800  0.749200  0.009400  1.0  -0.1067
  C  C126  1  0.087600  0.807000  0.067500  1.0  0.1571
  C  C127  1  0.022700  0.721000  0.888000  1.0  0.4947
  C  C128  1  0.155300  0.400400  0.074830  1.0  -0.0881
  C  C129  1  0.228000  0.454600  0.025530  1.0  -0.1045
  C  C130  1  0.283400  0.413900  0.996830  1.0  -0.0477
  C  C131  1  0.266100  0.319200  0.017330  1.0  0.1067
  C  C132  1  0.193400  0.265000  0.066630  1.0  -0.1441
  C  C133  1  0.138000  0.305600  0.095330  1.0  -0.0379
  C  C134  1  0.360000  0.487000  0.955330  1.0  0.3385
  C  C135  1  0.176700  0.170700  0.099530  1.0  0.7013
  C  C136  1  0.365700  0.036500  0.114330  1.0  0.1836
  C  C137  1  0.457100  0.038400  0.113530  1.0  -0.111
  C  C138  1  0.844400  0.909600  0.341330  1.0  0.1709
  C  C139  1  0.810600  0.928500  0.281430  1.0  -0.1357
  C  C140  1  0.730500  0.950300  0.283130  1.0  -0.0083
  C  C141  1  0.687400  0.938200  0.342730  1.0  -0.1055
  C  C142  1  0.719400  0.912400  0.400830  1.0  0.1576
  C  C143  1  0.698300  0.977300  0.221330  1.0  0.4948
  C  C144  1  0.245100  0.844700  0.408170  1.0  -0.0854
  C  C145  1  0.226600  0.772000  0.358870  1.0  -0.1059
  C  C146  1  0.130500  0.716600  0.330170  1.0  -0.0481
  C  C147  1  0.053100  0.733900  0.350670  1.0  0.1072
  C  C148  1  0.071600  0.806600  0.399970  1.0  -0.1431
  C  C149  1  0.167600  0.862000  0.428670  1.0  -0.0344
  C  C150  1  0.127000  0.640000  0.288670  1.0  0.34
  C  C151  1  0.994000  0.823300  0.432870  1.0  0.7006
  C  C152  1  0.670800  0.634300  0.447670  1.0  0.1819
  C  C153  1  0.581300  0.542900  0.446870  1.0  -0.1102
  C  C154  1  0.065200  0.155600  0.674670  1.0  0.1729
  C  C155  1  0.117900  0.189400  0.614770  1.0  -0.1367
  C  C156  1  0.219800  0.269500  0.616470  1.0  -0.0086
  C  C157  1  0.250800  0.312600  0.676070  1.0  -0.1033
  C  C158  1  0.193000  0.280600  0.734170  1.0  0.1572
  C  C159  1  0.279000  0.301700  0.554670  1.0  0.4946
  C  C160  1  0.580500  0.000000  0.166670  1.0  0.4976
  C  C161  1  0.483400  0.000000  0.166670  1.0  -0.0146
  C  C162  1  0.000000  0.580500  0.833330  1.0  0.498
  C  C163  1  0.000000  0.483400  0.833330  1.0  -0.0129
  C  C164  1  0.419500  0.419500  0.500000  1.0  0.4987
  C  C165  1  0.516600  0.516600  0.500000  1.0  -0.0112
  N  N166  1  0.898900  0.099800  0.934200  1.0  -0.3001
  N  N167  1  0.635600  0.026200  0.109300  1.0  -0.4965
  N  N168  1  0.900200  0.799100  0.600870  1.0  -0.3005
  N  N169  1  0.973800  0.609400  0.775970  1.0  -0.4953
  N  N170  1  0.200900  0.101100  0.267530  1.0  -0.3037
  N  N171  1  0.390600  0.364400  0.442630  1.0  -0.4957
  N  N172  1  0.099800  0.898900  0.065800  1.0  -0.3021
  N  N173  1  0.026200  0.635600  0.890700  1.0  -0.4967
  N  N174  1  0.799100  0.900200  0.399130  1.0  -0.2994
  N  N175  1  0.609400  0.973800  0.224030  1.0  -0.4977
  N  N176  1  0.101100  0.200900  0.732470  1.0  -0.3003
  N  N177  1  0.364400  0.390600  0.557370  1.0  -0.4963
  N  N178  1  0.305500  0.000000  0.166670  1.0  -0.3135
  N  N179  1  0.756700  0.000000  0.166670  1.0  -0.4418
  N  N180  1  0.000000  0.305500  0.833330  1.0  -0.3179
  N  N181  1  0.000000  0.756700  0.833330  1.0  -0.4396
  N  N182  1  0.694500  0.694500  0.500000  1.0  -0.3193
  N  N183  1  0.243300  0.243300  0.500000  1.0  -0.4406
  O  O184  1  0.092000  0.846500  0.231500  1.0  -0.581
  O  O185  1  0.908000  0.552000  0.430000  1.0  -0.4444
  O  O186  1  0.851000  0.418000  0.387000  1.0  -0.4867
  O  O187  1  0.982300  0.886900  0.213000  1.0  -0.576
  O  O188  1  0.153500  0.245500  0.898170  1.0  -0.5815
  O  O189  1  0.448000  0.356000  0.096670  1.0  -0.4463
  O  O190  1  0.582000  0.433000  0.053670  1.0  -0.49
  O  O191  1  0.113100  0.095400  0.879670  1.0  -0.5758
  O  O192  1  0.754500  0.908000  0.564830  1.0  -0.5806
  O  O193  1  0.644000  0.092000  0.763330  1.0  -0.4462
  O  O194  1  0.567000  0.149000  0.720330  1.0  -0.4897
  O  O195  1  0.904600  0.017700  0.546330  1.0  -0.5752
  O  O196  1  0.846500  0.092000  0.768500  1.0  -0.581
  O  O197  1  0.552000  0.908000  0.570000  1.0  -0.4494
  O  O198  1  0.418000  0.851000  0.613000  1.0  -0.4881
  O  O199  1  0.886900  0.982300  0.787000  1.0  -0.5743
  O  O200  1  0.245500  0.153500  0.101830  1.0  -0.5807
  O  O201  1  0.356000  0.448000  0.903330  1.0  -0.4491
  O  O202  1  0.433000  0.582000  0.946330  1.0  -0.4838
  O  O203  1  0.095400  0.113100  0.120330  1.0  -0.5756
  O  O204  1  0.908000  0.754500  0.435170  1.0  -0.5799
  O  O205  1  0.092000  0.644000  0.236670  1.0  -0.4457
  O  O206  1  0.149000  0.567000  0.279670  1.0  -0.4876
  O  O207  1  0.017700  0.904600  0.453670  1.0  -0.5759
