# generated using pymatgen
data_CuH8C8(NO3)2
_symmetry_space_group_name_H-M   'P 1'
_cell_length_a   8.91140000
_cell_length_b   11.39000000
_cell_length_c   13.21370000
_cell_angle_alpha   115.53000000
_cell_angle_beta   92.99550000
_cell_angle_gamma   90.00000000
_symmetry_Int_Tables_number   1
_chemical_formula_structural   CuH8C8(NO3)2
_chemical_formula_sum   'Cu3 H24 C24 N6 O18'
_cell_volume   1208.21527899
_cell_formula_units_Z   3
loop_
 _symmetry_equiv_pos_site_id
 _symmetry_equiv_pos_as_xyz
  1  'x, y, z'
loop_
 _atom_site_type_symbol
 _atom_site_label
 _atom_site_symmetry_multiplicity
 _atom_site_fract_x
 _atom_site_fract_y
 _atom_site_fract_z
 _atom_site_occupancy
 _atom_site_charge
  Cu  Cu1  1  0.000000  0.000000  0.000000  1.0  0.568
  Cu  Cu2  1  0.627770  0.030320  0.060640  1.0  0.9459
  Cu  Cu3  1  0.372230  0.969680  0.939360  1.0  0.948
  H  H4  1  0.950700  0.154600  0.447000  1.0  0.1132
  H  H5  1  0.755800  0.661700  0.766600  1.0  0.1541
  H  H6  1  0.681800  0.597100  0.835800  1.0  0.1464
  H  H7  1  0.456000  0.561700  0.709400  1.0  0.1017
  H  H8  1  0.559900  0.595400  0.632600  1.0  0.1025
  H  H9  1  0.750100  0.085800  0.308800  1.0  0.1441
  H  H10  1  0.049300  0.707600  0.553000  1.0  0.1148
  H  H11  1  0.244200  0.895100  0.233400  1.0  0.1566
  H  H12  1  0.318200  0.761300  0.164200  1.0  0.1453
  H  H13  1  0.544000  0.852300  0.290600  1.0  0.1014
  H  H14  1  0.440100  0.962800  0.367400  1.0  0.1009
  H  H15  1  0.249900  0.777000  0.691200  1.0  0.1447
  H  H16  1  0.049300  0.845400  0.553000  1.0  0.1164
  H  H17  1  0.244200  0.338300  0.233400  1.0  0.1558
  H  H18  1  0.318200  0.402900  0.164200  1.0  0.1448
  H  H19  1  0.544000  0.438300  0.290600  1.0  0.1013
  H  H20  1  0.440100  0.404600  0.367400  1.0  0.1026
  H  H21  1  0.249900  0.914200  0.691200  1.0  0.1428
  H  H22  1  0.950700  0.292400  0.447000  1.0  0.1138
  H  H23  1  0.755800  0.104900  0.766600  1.0  0.1553
  H  H24  1  0.681800  0.238700  0.835800  1.0  0.1456
  H  H25  1  0.456000  0.147700  0.709400  1.0  0.1025
  H  H26  1  0.559900  0.037200  0.632600  1.0  0.1002
  H  H27  1  0.750100  0.223000  0.308800  1.0  0.1445
  C  C28  1  0.593600  0.775800  0.866600  1.0  0.736
  C  C29  1  0.660900  0.645200  0.791600  1.0  -0.352
  C  C30  1  0.558600  0.560300  0.687600  1.0  0.0768
  C  C31  1  0.718300  0.387400  0.558600  1.0  0.6144
  C  C32  1  0.406400  0.909200  0.133400  1.0  0.7382
  C  C33  1  0.339100  0.853600  0.208400  1.0  -0.3553
  C  C34  1  0.441400  0.872700  0.312400  1.0  0.0772
  C  C35  1  0.281700  0.828800  0.441400  1.0  0.612
  C  C36  1  0.406400  0.224200  0.133400  1.0  0.7369
  C  C37  1  0.339100  0.354800  0.208400  1.0  -0.3517
  C  C38  1  0.441400  0.439700  0.312400  1.0  0.0769
  C  C39  1  0.281700  0.612600  0.441400  1.0  0.6135
  C  C40  1  0.593600  0.090800  0.866600  1.0  0.7373
  C  C41  1  0.660900  0.146400  0.791600  1.0  -0.3535
  C  C42  1  0.558600  0.127300  0.687600  1.0  0.0772
  C  C43  1  0.718300  0.171200  0.558600  1.0  0.6122
  C  C44  1  0.925700  0.112600  0.225200  1.0  0.691
  C  C45  1  0.812100  0.158500  0.317000  1.0  -0.3642
  C  C46  1  0.887500  0.218100  0.436200  1.0  0.0736
  C  C47  1  0.559200  0.341900  0.683800  1.0  0.5651
  C  C48  1  0.074300  0.887400  0.774800  1.0  0.6984
  C  C49  1  0.187900  0.841500  0.683000  1.0  -0.3665
  C  C50  1  0.112500  0.781900  0.563800  1.0  0.0739
  C  C51  1  0.440800  0.658100  0.316200  1.0  0.5679
  N  N52  1  0.611100  0.423400  0.637000  1.0  -0.305
  N  N53  1  0.388900  0.786400  0.363000  1.0  -0.3107
  N  N54  1  0.388900  0.576600  0.363000  1.0  -0.3044
  N  N55  1  0.611100  0.213600  0.637000  1.0  -0.3092
  N  N56  1  0.769600  0.260900  0.521800  1.0  -0.3127
  N  N57  1  0.230400  0.739100  0.478200  1.0  -0.3129
  O  O58  1  0.677400  0.852600  0.950200  1.0  -0.5816
  O  O59  1  0.461000  0.799070  0.845140  1.0  -0.5459
  O  O60  1  0.763700  0.462900  0.522200  1.0  -0.5162
  O  O61  1  0.322600  0.902400  0.049800  1.0  -0.583
  O  O62  1  0.539000  0.953930  0.154860  1.0  -0.5434
  O  O63  1  0.236300  0.940700  0.477800  1.0  -0.5155
  O  O64  1  0.322600  0.147400  0.049800  1.0  -0.582
  O  O65  1  0.539000  0.200930  0.154860  1.0  -0.5456
  O  O66  1  0.236300  0.537100  0.477800  1.0  -0.5163
  O  O67  1  0.677400  0.097600  0.950200  1.0  -0.583
  O  O68  1  0.461000  0.046070  0.845140  1.0  -0.5439
  O  O69  1  0.763700  0.059300  0.522200  1.0  -0.5144
  O  O70  1  0.862900  0.061500  0.123000  1.0  -0.6443
  O  O71  1  0.063400  0.122700  0.245400  1.0  -0.5267
  O  O72  1  0.471700  0.380200  0.760400  1.0  -0.49
  O  O73  1  0.137100  0.938500  0.877000  1.0  -0.6445
  O  O74  1  0.936600  0.877300  0.754600  1.0  -0.5275
  O  O75  1  0.528300  0.619800  0.239600  1.0  -0.4895
