# generated using pymatgen
data_CuH8C8(NO3)2
_symmetry_space_group_name_H-M   'P 1'
_cell_length_a   11.70900000
_cell_length_b   12.62600000
_cell_length_c   13.19490000
_cell_angle_alpha   103.48200000
_cell_angle_beta   116.34000000
_cell_angle_gamma   90.00000000
_symmetry_Int_Tables_number   1
_chemical_formula_structural   CuH8C8(NO3)2
_chemical_formula_sum   'Cu3 H24 C24 N6 O18'
_cell_volume   1687.98455743
_cell_formula_units_Z   3
loop_
 _symmetry_equiv_pos_site_id
 _symmetry_equiv_pos_as_xyz
  1  'x, y, z'
loop_
 _atom_site_type_symbol
 _atom_site_label
 _atom_site_symmetry_multiplicity
 _atom_site_fract_x
 _atom_site_fract_y
 _atom_site_fract_z
 _atom_site_occupancy
 _atom_site_charge
  Cu  Cu1  1  0.986470  0.094560  0.972940  1.0  0.8825
  Cu  Cu2  1  0.013530  0.905440  0.027060  1.0  0.8808
  Cu  Cu3  1  0.000000  0.500000  0.000000  1.0  0.5701
  H  H4  1  0.932500  0.156900  0.731000  1.0  0.1282
  H  H5  1  0.753500  0.301500  0.641000  1.0  0.1003
  H  H6  1  0.823400  0.956200  0.248400  1.0  0.0968
  H  H7  1  0.945800  0.024100  0.358200  1.0  0.1131
  H  H8  1  0.911700  0.176400  0.287600  1.0  0.1442
  H  H9  1  0.775900  0.123000  0.187800  1.0  0.145
  H  H10  1  0.201500  0.843100  0.269000  1.0  0.1294
  H  H11  1  0.112500  0.698500  0.359000  1.0  0.1038
  H  H12  1  0.575000  0.043800  0.751600  1.0  0.0983
  H  H13  1  0.587600  0.975900  0.641800  1.0  0.1215
  H  H14  1  0.624100  0.823600  0.712400  1.0  0.1414
  H  H15  1  0.588100  0.877000  0.812200  1.0  0.1468
  H  H16  1  0.067500  0.843100  0.269000  1.0  0.129
  H  H17  1  0.246500  0.698500  0.359000  1.0  0.1004
  H  H18  1  0.176600  0.043800  0.751600  1.0  0.0978
  H  H19  1  0.054200  0.975900  0.641800  1.0  0.1138
  H  H20  1  0.088300  0.823600  0.712400  1.0  0.1433
  H  H21  1  0.224100  0.877000  0.812200  1.0  0.1407
  H  H22  1  0.798500  0.156900  0.731000  1.0  0.1294
  H  H23  1  0.887500  0.301500  0.641000  1.0  0.1041
  H  H24  1  0.425000  0.956200  0.248400  1.0  0.0967
  H  H25  1  0.412400  0.024100  0.358200  1.0  0.1204
  H  H26  1  0.375900  0.176400  0.287600  1.0  0.1424
  H  H27  1  0.411900  0.123000  0.187800  1.0  0.1459
  C  C28  1  0.840690  0.136400  0.472180  1.0  0.5115
  C  C29  1  0.859100  0.028700  0.301000  1.0  0.1077
  C  C30  1  0.862800  0.107900  0.232600  1.0  -0.3954
  C  C31  1  0.920080  0.069500  0.149960  1.0  0.7679
  C  C32  1  0.368510  0.863600  0.527820  1.0  0.5147
  C  C33  1  0.558100  0.971300  0.699000  1.0  0.1081
  C  C34  1  0.630200  0.892100  0.767400  1.0  -0.3918
  C  C35  1  0.770120  0.930500  0.850040  1.0  0.7611
  C  C36  1  0.159310  0.863600  0.527820  1.0  0.5133
  C  C37  1  0.140900  0.971300  0.699000  1.0  0.1092
  C  C38  1  0.137200  0.892100  0.767400  1.0  -0.3939
  C  C39  1  0.079920  0.930500  0.850040  1.0  0.7661
  C  C40  1  0.631490  0.136400  0.472180  1.0  0.5131
  C  C41  1  0.441900  0.028700  0.301000  1.0  0.1085
  C  C42  1  0.369800  0.107900  0.232600  1.0  -0.3879
  C  C43  1  0.229880  0.069500  0.149960  1.0  0.7609
  C  C44  1  0.927000  0.286700  0.854000  1.0  0.7049
  C  C45  1  0.868300  0.203300  0.736600  1.0  -0.3346
  C  C46  1  0.818100  0.255400  0.636200  1.0  0.1113
  C  C47  1  0.651400  0.029100  0.302800  1.0  0.5776
  C  C48  1  0.073000  0.713300  0.146000  1.0  0.7079
  C  C49  1  0.131700  0.796700  0.263400  1.0  -0.332
  C  C50  1  0.181900  0.744600  0.363800  1.0  0.113
  C  C51  1  0.348600  0.970900  0.697200  1.0  0.576
  N  N52  1  0.780830  0.064800  0.361660  1.0  -0.2914
  N  N53  1  0.419170  0.935200  0.638340  1.0  -0.3002
  N  N54  1  0.219170  0.935200  0.638340  1.0  -0.2919
  N  N55  1  0.580830  0.064800  0.361660  1.0  -0.2985
  N  N56  1  0.761500  0.171200  0.523000  1.0  -0.2875
  N  N57  1  0.238500  0.828800  0.477000  1.0  -0.2885
  O  O58  1  0.950710  0.974200  0.140220  1.0  -0.5617
  O  O59  1  0.929670  0.133400  0.095540  1.0  -0.5542
  O  O60  1  0.953640  0.166200  0.520280  1.0  -0.4644
  O  O61  1  0.810490  0.025800  0.859780  1.0  -0.5644
  O  O62  1  0.834130  0.866600  0.904460  1.0  -0.5569
  O  O63  1  0.433360  0.833800  0.479720  1.0  -0.4674
  O  O64  1  0.049290  0.025800  0.859780  1.0  -0.5631
  O  O65  1  0.070330  0.866600  0.904460  1.0  -0.555
  O  O66  1  0.046360  0.833800  0.479720  1.0  -0.463
  O  O67  1  0.189510  0.974200  0.140220  1.0  -0.5634
  O  O68  1  0.165870  0.133400  0.095540  1.0  -0.5547
  O  O69  1  0.566640  0.166200  0.520280  1.0  -0.4665
  O  O70  1  0.972890  0.252600  0.945780  1.0  -0.5908
  O  O71  1  0.928200  0.385600  0.856400  1.0  -0.5787
  O  O72  1  0.602300  0.972400  0.204600  1.0  -0.4664
  O  O73  1  0.027110  0.747400  0.054220  1.0  -0.5877
  O  O74  1  0.071800  0.614400  0.143600  1.0  -0.5805
  O  O75  1  0.397700  0.027600  0.795400  1.0  -0.4658
