# generated using pymatgen
data_CdH24C22(NO)4
_symmetry_space_group_name_H-M   'P 1'
_cell_length_a   13.31200000
_cell_length_b   7.31600000
_cell_length_c   14.87000000
_cell_angle_alpha   90.00000000
_cell_angle_beta   91.31500000
_cell_angle_gamma   90.00000000
_symmetry_Int_Tables_number   1
_chemical_formula_structural   CdH24C22(NO)4
_chemical_formula_sum   'Cd2 H48 C44 N8 O8'
_cell_volume   1447.81669912
_cell_formula_units_Z   2
loop_
 _symmetry_equiv_pos_site_id
 _symmetry_equiv_pos_as_xyz
  1  'x, y, z'
loop_
 _atom_site_type_symbol
 _atom_site_label
 _atom_site_symmetry_multiplicity
 _atom_site_fract_x
 _atom_site_fract_y
 _atom_site_fract_z
 _atom_site_occupancy
 _atom_site_charge
  Cd  Cd1  1  0.979590  0.183860  0.185410  1.0  0.9621
  Cd  Cd2  1  0.479590  0.816140  0.685410  1.0  0.9621
  H  H3  1  0.208800  0.208200  0.370800  1.0  0.1014
  H  H4  1  0.359900  0.550000  0.544700  1.0  0.095
  H  H5  1  0.686100  0.214400  0.369500  1.0  0.0763
  H  H6  1  0.774800  0.240300  0.439600  1.0  0.08
  H  H7  1  0.755200  0.510300  0.560900  1.0  0.0887
  H  H8  1  0.245800  0.772500  0.504800  1.0  0.076
  H  H9  1  0.035000  0.859600  0.495300  1.0  0.0986
  H  H10  1  0.106600  0.451700  0.331200  1.0  0.0638
  H  H11  1  0.256700  0.192400  0.647700  1.0  0.0993
  H  H12  1  0.356600  0.155500  0.702500  1.0  0.1209
  H  H13  1  0.340000  0.343600  0.653900  1.0  0.0976
  H  H14  1  0.506600  0.890800  0.466100  1.0  0.098
  H  H15  1  0.411000  0.109800  0.365100  1.0  0.1864
  H  H16  1  0.713500  0.499700  0.307800  1.0  0.0891
  H  H17  1  0.836500  0.701000  0.355300  1.0  0.073
  H  H18  1  0.868900  0.568400  0.434100  1.0  0.0788
  H  H19  1  0.960400  0.109700  0.413600  1.0  0.1186
  H  H20  1  0.154800  0.868200  0.176000  1.0  0.1277
  H  H21  1  0.081600  0.701700  0.185300  1.0  0.1116
  H  H22  1  0.188100  0.696700  0.232400  1.0  0.106
  H  H23  1  0.630000  0.293500  0.512600  1.0  0.0858
  H  H24  1  0.591900  0.428700  0.437700  1.0  0.0821
  H  H25  1  0.750600  0.800000  0.487300  1.0  0.09
  H  H26  1  0.668900  0.723400  0.419300  1.0  0.0769
  H  H27  1  0.708800  0.791800  0.870800  1.0  0.1013
  H  H28  1  0.859900  0.450000  0.044700  1.0  0.0949
  H  H29  1  0.186100  0.785600  0.869500  1.0  0.0763
  H  H30  1  0.274800  0.759700  0.939600  1.0  0.08
  H  H31  1  0.255200  0.489700  0.060900  1.0  0.0884
  H  H32  1  0.745800  0.227500  0.004800  1.0  0.0764
  H  H33  1  0.535000  0.140400  0.995300  1.0  0.0983
  H  H34  1  0.606600  0.548300  0.831200  1.0  0.0644
  H  H35  1  0.756700  0.807600  0.147700  1.0  0.0993
  H  H36  1  0.856600  0.844500  0.202500  1.0  0.1209
  H  H37  1  0.840000  0.656400  0.153900  1.0  0.0954
  H  H38  1  0.006600  0.109200  0.966100  1.0  0.0981
  H  H39  1  0.911000  0.890200  0.865100  1.0  0.1862
  H  H40  1  0.213500  0.500300  0.807800  1.0  0.0886
  H  H41  1  0.336500  0.299000  0.855300  1.0  0.0733
  H  H42  1  0.368900  0.431600  0.934100  1.0  0.0785
  H  H43  1  0.460400  0.890300  0.913600  1.0  0.1184
  H  H44  1  0.654800  0.131800  0.676000  1.0  0.1267
  H  H45  1  0.581600  0.298300  0.685300  1.0  0.1118
  H  H46  1  0.688100  0.303300  0.732400  1.0  0.1062
  H  H47  1  0.130000  0.706500  0.012600  1.0  0.0846
  H  H48  1  0.091900  0.571300  0.937700  1.0  0.0824
  H  H49  1  0.250600  0.200000  0.987300  1.0  0.0934
  H  H50  1  0.168900  0.276600  0.919300  1.0  0.077
  C  C51  1  0.217600  0.322500  0.397200  1.0  -0.2018
  C  C52  1  0.370100  0.146600  0.575600  1.0  0.4921
  C  C53  1  0.166200  0.637000  0.408300  1.0  0.1764
  C  C54  1  0.307800  0.529800  0.503100  1.0  -0.1881
  C  C55  1  0.721800  0.303600  0.406400  1.0  -0.114
  C  C56  1  0.837200  0.365000  0.284700  1.0  0.6279
  C  C57  1  0.696400  0.550300  0.525300  1.0  -0.146
  C  C58  1  0.241700  0.659000  0.476400  1.0  -0.1038
  C  C59  1  0.044800  0.884000  0.434700  1.0  0.1019
  C  C60  1  0.157400  0.471000  0.374200  1.0  -0.1169
  C  C61  1  0.327800  0.214500  0.650300  1.0  -0.4153
  C  C62  1  0.288600  0.355000  0.459400  1.0  0.1662
  C  C63  1  0.459900  0.977000  0.484300  1.0  0.0175
  C  C64  1  0.409300  0.100600  0.427400  1.0  -0.0766
  C  C65  1  0.768600  0.450300  0.345200  1.0  -0.0909
  C  C66  1  0.812600  0.608800  0.396500  1.0  -0.1409
  C  C67  1  0.000200  0.018000  0.389700  1.0  -0.0588
  C  C68  1  0.087700  0.862000  0.301800  1.0  0.3334
  C  C69  1  0.614400  0.639000  0.589200  1.0  0.6446
  C  C70  1  0.132000  0.774000  0.215500  1.0  -0.4009
  C  C71  1  0.651200  0.387000  0.470800  1.0  -0.1596
  C  C72  1  0.726600  0.690600  0.456900  1.0  -0.1583
  C  C73  1  0.717600  0.677500  0.897200  1.0  -0.2015
  C  C74  1  0.870100  0.853400  0.075600  1.0  0.4921
  C  C75  1  0.666200  0.363000  0.908300  1.0  0.1762
  C  C76  1  0.807800  0.470200  0.003100  1.0  -0.1878
  C  C77  1  0.221800  0.696400  0.906400  1.0  -0.1177
  C  C78  1  0.337200  0.635000  0.784700  1.0  0.6276
  C  C79  1  0.196400  0.449700  0.025300  1.0  -0.1458
  C  C80  1  0.741700  0.341000  0.976400  1.0  -0.1048
  C  C81  1  0.544800  0.116000  0.934700  1.0  0.1024
  C  C82  1  0.657400  0.529000  0.874200  1.0  -0.117
  C  C83  1  0.827800  0.785500  0.150300  1.0  -0.4154
  C  C84  1  0.788600  0.645000  0.959400  1.0  0.1663
  C  C85  1  0.959900  0.023000  0.984300  1.0  0.0173
  C  C86  1  0.909300  0.899400  0.927400  1.0  -0.0779
  C  C87  1  0.268600  0.549700  0.845200  1.0  -0.0912
  C  C88  1  0.312600  0.391200  0.896500  1.0  -0.1419
  C  C89  1  0.500200  0.982000  0.889700  1.0  -0.058
  C  C90  1  0.587700  0.138000  0.801800  1.0  0.3337
  C  C91  1  0.114400  0.361000  0.089200  1.0  0.6447
  C  C92  1  0.632000  0.226000  0.715500  1.0  -0.4007
  C  C93  1  0.151200  0.613000  0.970800  1.0  -0.1602
  C  C94  1  0.226600  0.309400  0.956900  1.0  -0.1561
  N  N95  1  0.100500  0.795600  0.387200  1.0  0.0077
  N  N96  1  0.024100  0.996700  0.299700  1.0  -0.4433
  N  N97  1  0.430400  0.002500  0.569600  1.0  -0.3585
  N  N98  1  0.352100  0.213300  0.491900  1.0  -0.1866
  N  N99  1  0.600500  0.204400  0.887200  1.0  0.0075
  N  N100  1  0.524100  0.003300  0.799700  1.0  -0.4428
  N  N101  1  0.930400  0.997500  0.069600  1.0  -0.3582
  N  N102  1  0.852100  0.786700  0.991900  1.0  -0.1868
  O  O103  1  0.529000  0.600600  0.582100  1.0  -0.5898
  O  O104  1  0.931800  0.410700  0.288000  1.0  -0.6187
  O  O105  1  0.650700  0.758000  0.643000  1.0  -0.6442
  O  O106  1  0.812900  0.249000  0.227300  1.0  -0.6358
  O  O107  1  0.029000  0.399400  0.082100  1.0  -0.5906
  O  O108  1  0.431800  0.589300  0.788000  1.0  -0.6186
  O  O109  1  0.150700  0.242000  0.143000  1.0  -0.644
  O  O110  1  0.312900  0.751000  0.727300  1.0  -0.6362
