# generated using pymatgen
data_Mn3H10C22(N2O5)2
_symmetry_space_group_name_H-M   'P 1'
_cell_length_a   25.46140000
_cell_length_b   25.46140000
_cell_length_c   14.26280000
_cell_angle_alpha   90.00000000
_cell_angle_beta   90.00000000
_cell_angle_gamma   120.00000000
_symmetry_Int_Tables_number   1
_chemical_formula_structural   Mn3H10C22(N2O5)2
_chemical_formula_sum   'Mn27 H90 C198 N36 O90'
_cell_volume   8007.55598148
_cell_formula_units_Z   9
loop_
 _symmetry_equiv_pos_site_id
 _symmetry_equiv_pos_as_xyz
  1  'x, y, z'
loop_
 _atom_site_type_symbol
 _atom_site_label
 _atom_site_symmetry_multiplicity
 _atom_site_fract_x
 _atom_site_fract_y
 _atom_site_fract_z
 _atom_site_occupancy
 _atom_site_charge
  Mn  Mn1  1  0.080620  0.402070  0.188010  1.0  1.065
  Mn  Mn2  1  0.747290  0.735400  0.521340  1.0  1.0651
  Mn  Mn3  1  0.413950  0.068740  0.854680  1.0  1.065
  Mn  Mn4  1  0.597930  0.678550  0.188010  1.0  1.0628
  Mn  Mn5  1  0.264600  0.011880  0.521340  1.0  1.0628
  Mn  Mn6  1  0.931260  0.345220  0.854680  1.0  1.0628
  Mn  Mn7  1  0.321450  0.919380  0.188010  1.0  1.0651
  Mn  Mn8  1  0.988120  0.252710  0.521340  1.0  1.0651
  Mn  Mn9  1  0.654780  0.586050  0.854680  1.0  1.0651
  Mn  Mn10  1  0.919380  0.597930  0.811990  1.0  1.0632
  Mn  Mn11  1  0.586050  0.931260  0.145320  1.0  1.0632
  Mn  Mn12  1  0.252710  0.264600  0.478660  1.0  1.0633
  Mn  Mn13  1  0.402070  0.321450  0.811990  1.0  1.0622
  Mn  Mn14  1  0.068740  0.654780  0.145320  1.0  1.0623
  Mn  Mn15  1  0.735400  0.988120  0.478660  1.0  1.0623
  Mn  Mn16  1  0.678550  0.080620  0.811990  1.0  1.0644
  Mn  Mn17  1  0.345220  0.413950  0.145320  1.0  1.0644
  Mn  Mn18  1  0.011880  0.747290  0.478660  1.0  1.0643
  Mn  Mn19  1  0.000000  0.500000  0.500000  1.0  1.2139
  Mn  Mn20  1  0.666667  0.833330  0.833330  1.0  1.2162
  Mn  Mn21  1  0.333333  0.166670  0.166670  1.0  1.2162
  Mn  Mn22  1  0.500000  0.500000  0.500000  1.0  1.2139
  Mn  Mn23  1  0.166670  0.833330  0.833330  1.0  1.2139
  Mn  Mn24  1  0.833330  0.166670  0.166670  1.0  1.2136
  Mn  Mn25  1  0.500000  0.000000  0.500000  1.0  1.2139
  Mn  Mn26  1  0.166670  0.333333  0.833330  1.0  1.2161
  Mn  Mn27  1  0.833330  0.666667  0.166670  1.0  1.2163
  H  H28  1  0.163400  0.550300  0.787400  1.0  0.1055
  H  H29  1  0.056400  0.566200  0.978100  1.0  0.0942
  H  H30  1  0.207700  0.523300  0.902700  1.0  0.1001
  H  H31  1  0.177300  0.517900  0.058200  1.0  0.0981
  H  H32  1  0.079400  0.555700  0.753300  1.0  0.4479
  H  H33  1  0.830070  0.883630  0.120730  1.0  0.1055
  H  H34  1  0.723070  0.899530  0.311430  1.0  0.0943
  H  H35  1  0.874370  0.856630  0.236030  1.0  0.0966
  H  H36  1  0.843970  0.851230  0.391530  1.0  0.0981
  H  H37  1  0.746070  0.889030  0.086630  1.0  0.4479
  H  H38  1  0.496730  0.216970  0.454070  1.0  0.1055
  H  H39  1  0.389730  0.232870  0.644770  1.0  0.0942
  H  H40  1  0.541030  0.189970  0.569370  1.0  0.1001
  H  H41  1  0.510630  0.184570  0.724870  1.0  0.0981
  H  H42  1  0.412730  0.222370  0.419970  1.0  0.4479
  H  H43  1  0.449700  0.613100  0.787400  1.0  0.1058
  H  H44  1  0.433800  0.490200  0.978100  1.0  0.0928
  H  H45  1  0.476700  0.684400  0.902700  1.0  0.1005
  H  H46  1  0.482100  0.659400  0.058200  1.0  0.0997
  H  H47  1  0.444300  0.523700  0.753300  1.0  0.4491
  H  H48  1  0.116370  0.946430  0.120730  1.0  0.1051
  H  H49  1  0.100470  0.823530  0.311430  1.0  0.0929
  H  H50  1  0.143370  0.017730  0.236030  1.0  0.0971
  H  H51  1  0.148770  0.992730  0.391530  1.0  0.0989
  H  H52  1  0.110970  0.857030  0.086630  1.0  0.4491
  H  H53  1  0.783030  0.279770  0.454070  1.0  0.1058
  H  H54  1  0.767130  0.156870  0.644770  1.0  0.0928
  H  H55  1  0.810030  0.351070  0.569370  1.0  0.1005
  H  H56  1  0.815430  0.326070  0.724870  1.0  0.0997
  H  H57  1  0.777630  0.190370  0.419970  1.0  0.4491
  H  H58  1  0.386900  0.836600  0.787400  1.0  0.1054
  H  H59  1  0.509800  0.943600  0.978100  1.0  0.0919
  H  H60  1  0.315600  0.792300  0.902700  1.0  0.0976
  H  H61  1  0.340600  0.822700  0.058200  1.0  0.0996
  H  H62  1  0.476300  0.920600  0.753300  1.0  0.4482
  H  H63  1  0.053570  0.169930  0.120730  1.0  0.1057
  H  H64  1  0.176470  0.276930  0.311430  1.0  0.0918
  H  H65  1  0.982270  0.125630  0.236030  1.0  0.101
  H  H66  1  0.007270  0.156030  0.391530  1.0  0.1009
  H  H67  1  0.142970  0.253930  0.086630  1.0  0.4482
  H  H68  1  0.720230  0.503270  0.454070  1.0  0.1054
  H  H69  1  0.843130  0.610270  0.644770  1.0  0.0919
  H  H70  1  0.648930  0.458970  0.569370  1.0  0.0976
  H  H71  1  0.673930  0.489370  0.724870  1.0  0.0996
  H  H72  1  0.809630  0.587270  0.419970  1.0  0.4479
  H  H73  1  0.836600  0.449700  0.212600  1.0  0.106
  H  H74  1  0.943600  0.433800  0.021900  1.0  0.0937
  H  H75  1  0.792300  0.476700  0.097300  1.0  0.1001
  H  H76  1  0.822700  0.482100  0.941800  1.0  0.0983
  H  H77  1  0.920600  0.444300  0.246700  1.0  0.4436
  H  H78  1  0.503270  0.783030  0.545930  1.0  0.106
  H  H79  1  0.610270  0.767130  0.355230  1.0  0.0937
  H  H80  1  0.458970  0.810030  0.430630  1.0  0.1001
  H  H81  1  0.489370  0.815430  0.275130  1.0  0.0983
  H  H82  1  0.587270  0.777630  0.580030  1.0  0.4435
  H  H83  1  0.169930  0.116370  0.879270  1.0  0.106
  H  H84  1  0.276930  0.100470  0.688570  1.0  0.0937
  H  H85  1  0.125630  0.143370  0.763970  1.0  0.0958
  H  H86  1  0.156030  0.148770  0.608470  1.0  0.0983
  H  H87  1  0.253930  0.110970  0.913370  1.0  0.4436
  H  H88  1  0.550300  0.386900  0.212600  1.0  0.1068
  H  H89  1  0.566200  0.509800  0.021900  1.0  0.0929
  H  H90  1  0.523300  0.315600  0.097300  1.0  0.1003
  H  H91  1  0.517900  0.340600  0.941800  1.0  0.0996
  H  H92  1  0.555700  0.476300  0.246700  1.0  0.4441
  H  H93  1  0.216970  0.720230  0.545930  1.0  0.1068
  H  H94  1  0.232870  0.843130  0.355230  1.0  0.0929
  H  H95  1  0.189970  0.648930  0.430630  1.0  0.1003
  H  H96  1  0.184570  0.673930  0.275130  1.0  0.0996
  H  H97  1  0.222370  0.809630  0.580030  1.0  0.4441
  H  H98  1  0.883630  0.053570  0.879270  1.0  0.1055
  H  H99  1  0.899530  0.176470  0.688570  1.0  0.093
  H  H100  1  0.856630  0.982270  0.763970  1.0  0.096
  H  H101  1  0.851230  0.007270  0.608470  1.0  0.0989
  H  H102  1  0.889030  0.142970  0.913370  1.0  0.4441
  H  H103  1  0.613100  0.163400  0.212600  1.0  0.1058
  H  H104  1  0.490200  0.056400  0.021900  1.0  0.0916
  H  H105  1  0.684400  0.207700  0.097300  1.0  0.0978
  H  H106  1  0.659400  0.177300  0.941800  1.0  0.1002
  H  H107  1  0.523700  0.079400  0.246700  1.0  0.4429
  H  H108  1  0.279770  0.496730  0.545930  1.0  0.1058
  H  H109  1  0.156870  0.389730  0.355230  1.0  0.0916
  H  H110  1  0.351070  0.541030  0.430630  1.0  0.0978
  H  H111  1  0.326070  0.510630  0.275130  1.0  0.1002
  H  H112  1  0.190370  0.412730  0.580030  1.0  0.4426
  H  H113  1  0.946430  0.830070  0.879270  1.0  0.1069
  H  H114  1  0.823530  0.723070  0.688570  1.0  0.0915
  H  H115  1  0.017730  0.874370  0.763970  1.0  0.1015
  H  H116  1  0.992730  0.843970  0.608470  1.0  0.1013
  H  H117  1  0.857030  0.746070  0.913370  1.0  0.4429
  C  C118  1  0.094700  0.537130  0.133200  1.0  0.4221
  C  C119  1  0.114400  0.542130  0.034500  1.0  -0.0858
  C  C120  1  0.065500  0.464000  0.354200  1.0  0.7133
  C  C121  1  0.072940  0.505150  0.275500  1.0  -0.012
  C  C122  1  0.150800  0.547700  0.849300  1.0  -0.1946
  C  C123  1  0.086800  0.557500  0.963400  1.0  -0.1249
  C  C124  1  0.104700  0.559900  0.871500  1.0  0.3054
  C  C125  1  0.177300  0.532000  0.917800  1.0  -0.0987
  C  C126  1  0.159100  0.528900  0.011500  1.0  -0.0957
  C  C127  1  0.066060  0.555690  0.265100  1.0  -0.0069
  C  C128  1  0.047700  0.589810  0.327900  1.0  0.6916
  C  C129  1  0.761370  0.870460  0.466530  1.0  0.4221
  C  C130  1  0.781070  0.875460  0.367830  1.0  -0.0858
  C  C131  1  0.732170  0.797330  0.687530  1.0  0.7133
  C  C132  1  0.739610  0.838480  0.608830  1.0  -0.012
  C  C133  1  0.817470  0.881030  0.182630  1.0  -0.1946
  C  C134  1  0.753470  0.890830  0.296730  1.0  -0.1241
  C  C135  1  0.771370  0.893230  0.204830  1.0  0.3054
  C  C136  1  0.843970  0.865330  0.251130  1.0  -0.0988
  C  C137  1  0.825770  0.862230  0.344830  1.0  -0.0958
  C  C138  1  0.732730  0.889020  0.598430  1.0  -0.0069
  C  C139  1  0.714370  0.923140  0.661230  1.0  0.6916
  C  C140  1  0.428030  0.203800  0.799870  1.0  0.4221
  C  C141  1  0.447730  0.208800  0.701170  1.0  -0.0858
  C  C142  1  0.398830  0.130670  0.020870  1.0  0.7133
  C  C143  1  0.406270  0.171820  0.942170  1.0  -0.012
  C  C144  1  0.484130  0.214370  0.515970  1.0  -0.1946
  C  C145  1  0.420130  0.224170  0.630070  1.0  -0.1249
  C  C146  1  0.438030  0.226570  0.538170  1.0  0.3054
  C  C147  1  0.510630  0.198670  0.584470  1.0  -0.0987
  C  C148  1  0.492430  0.195570  0.678170  1.0  -0.0957
  C  C149  1  0.399390  0.222360  0.931770  1.0  -0.0069
  C  C150  1  0.381030  0.256480  0.994570  1.0  0.6916
  C  C151  1  0.462870  0.557570  0.133200  1.0  0.4213
  C  C152  1  0.457870  0.572270  0.034500  1.0  -0.0859
  C  C153  1  0.536000  0.601500  0.354200  1.0  0.7118
  C  C154  1  0.494850  0.567790  0.275500  1.0  -0.0143
  C  C155  1  0.452300  0.603100  0.849300  1.0  -0.1947
  C  C156  1  0.442500  0.529300  0.963400  1.0  -0.1247
  C  C157  1  0.440100  0.544800  0.871500  1.0  0.3029
  C  C158  1  0.468000  0.645300  0.917800  1.0  -0.1006
  C  C159  1  0.471100  0.630200  0.011500  1.0  -0.0928
  C  C160  1  0.444310  0.510370  0.265100  1.0  -0.0064
  C  C161  1  0.410190  0.457890  0.327900  1.0  0.6927
  C  C162  1  0.129540  0.890900  0.466530  1.0  0.4213
  C  C163  1  0.124540  0.905600  0.367830  1.0  -0.0858
  C  C164  1  0.202670  0.934830  0.687530  1.0  0.7118
  C  C165  1  0.161520  0.901120  0.608830  1.0  -0.0143
  C  C166  1  0.118970  0.936430  0.182630  1.0  -0.1947
  C  C167  1  0.109170  0.862630  0.296730  1.0  -0.1239
  C  C168  1  0.106770  0.878130  0.204830  1.0  0.3029
  C  C169  1  0.134670  0.978630  0.251130  1.0  -0.1006
  C  C170  1  0.137770  0.963530  0.344830  1.0  -0.0927
  C  C171  1  0.110980  0.843700  0.598430  1.0  -0.0065
  C  C172  1  0.076860  0.791220  0.661230  1.0  0.6927
  C  C173  1  0.796200  0.224240  0.799870  1.0  0.4213
  C  C174  1  0.791200  0.238940  0.701170  1.0  -0.0859
  C  C175  1  0.869330  0.268170  0.020870  1.0  0.7118
  C  C176  1  0.828180  0.234460  0.942170  1.0  -0.0143
  C  C177  1  0.785630  0.269770  0.515970  1.0  -0.1947
  C  C178  1  0.775830  0.195970  0.630070  1.0  -0.1239
  C  C179  1  0.773430  0.211470  0.538170  1.0  0.3029
  C  C180  1  0.801330  0.311970  0.584470  1.0  -0.1006
  C  C181  1  0.804430  0.296870  0.678170  1.0  -0.0927
  C  C182  1  0.777640  0.177040  0.931770  1.0  -0.0065
  C  C183  1  0.743520  0.124560  0.994570  1.0  0.6927
  C  C184  1  0.442430  0.905300  0.133200  1.0  0.4235
  C  C185  1  0.427730  0.885600  0.034500  1.0  -0.0858
  C  C186  1  0.398500  0.934500  0.354200  1.0  0.711
  C  C187  1  0.432210  0.927060  0.275500  1.0  -0.0146
  C  C188  1  0.396900  0.849200  0.849300  1.0  -0.1961
  C  C189  1  0.470700  0.913200  0.963400  1.0  -0.1239
  C  C190  1  0.455200  0.895300  0.871500  1.0  0.3038
  C  C191  1  0.354700  0.822700  0.917800  1.0  -0.1007
  C  C192  1  0.369800  0.840900  0.011500  1.0  -0.0952
  C  C193  1  0.489630  0.933940  0.265100  1.0  -0.0064
  C  C194  1  0.542110  0.952300  0.327900  1.0  0.6897
  C  C195  1  0.109100  0.238630  0.466530  1.0  0.4235
  C  C196  1  0.094400  0.218930  0.367830  1.0  -0.0857
  C  C197  1  0.065170  0.267830  0.687530  1.0  0.711
  C  C198  1  0.098880  0.260390  0.608830  1.0  -0.0146
  C  C199  1  0.063570  0.182530  0.182630  1.0  -0.1961
  C  C200  1  0.137370  0.246530  0.296730  1.0  -0.1246
  C  C201  1  0.121870  0.228630  0.204830  1.0  0.3038
  C  C202  1  0.021370  0.156030  0.251130  1.0  -0.1006
  C  C203  1  0.036470  0.174230  0.344830  1.0  -0.0952
  C  C204  1  0.156300  0.267270  0.598430  1.0  -0.0063
  C  C205  1  0.208780  0.285630  0.661230  1.0  0.6897
  C  C206  1  0.775760  0.571970  0.799870  1.0  0.4235
  C  C207  1  0.761060  0.552270  0.701170  1.0  -0.0858
  C  C208  1  0.731830  0.601170  0.020870  1.0  0.711
  C  C209  1  0.765540  0.593730  0.942170  1.0  -0.0146
  C  C210  1  0.730230  0.515870  0.515970  1.0  -0.1961
  C  C211  1  0.804030  0.579870  0.630070  1.0  -0.1239
  C  C212  1  0.788530  0.561970  0.538170  1.0  0.3038
  C  C213  1  0.688030  0.489370  0.584470  1.0  -0.1007
  C  C214  1  0.703130  0.507570  0.678170  1.0  -0.0952
  C  C215  1  0.822960  0.600610  0.931770  1.0  -0.0064
  C  C216  1  0.875440  0.618970  0.994570  1.0  0.6896
  C  C217  1  0.905300  0.462870  0.866800  1.0  0.4206
  C  C218  1  0.885600  0.457870  0.965500  1.0  -0.085
  C  C219  1  0.934500  0.536000  0.645800  1.0  0.7115
  C  C220  1  0.927060  0.494850  0.724500  1.0  -0.0117
  C  C221  1  0.849200  0.452300  0.150700  1.0  -0.1948
  C  C222  1  0.913200  0.442500  0.036600  1.0  -0.1225
  C  C223  1  0.895300  0.440100  0.128500  1.0  0.3038
  C  C224  1  0.822700  0.468000  0.082200  1.0  -0.1005
  C  C225  1  0.840900  0.471100  0.988500  1.0  -0.095
  C  C226  1  0.933940  0.444310  0.734900  1.0  -0.0075
  C  C227  1  0.952300  0.410190  0.672100  1.0  0.6904
  C  C228  1  0.571970  0.796200  0.200130  1.0  0.4206
  C  C229  1  0.552270  0.791200  0.298830  1.0  -0.085
  C  C230  1  0.601170  0.869330  0.979130  1.0  0.7115
  C  C231  1  0.593730  0.828180  0.057830  1.0  -0.0117
  C  C232  1  0.515870  0.785630  0.484030  1.0  -0.1948
  C  C233  1  0.579870  0.775830  0.369930  1.0  -0.1225
  C  C234  1  0.561970  0.773430  0.461830  1.0  0.3038
  C  C235  1  0.489370  0.801330  0.415530  1.0  -0.1005
  C  C236  1  0.507570  0.804430  0.321830  1.0  -0.095
  C  C237  1  0.600610  0.777640  0.068230  1.0  -0.0075
  C  C238  1  0.618970  0.743520  0.005430  1.0  0.6904
  C  C239  1  0.238630  0.129540  0.533470  1.0  0.4206
  C  C240  1  0.218930  0.124540  0.632170  1.0  -0.0851
  C  C241  1  0.267830  0.202670  0.312470  1.0  0.7115
  C  C242  1  0.260390  0.161520  0.391170  1.0  -0.0117
  C  C243  1  0.182530  0.118970  0.817370  1.0  -0.1948
  C  C244  1  0.246530  0.109170  0.703270  1.0  -0.1217
  C  C245  1  0.228630  0.106770  0.795170  1.0  0.3038
  C  C246  1  0.156030  0.134670  0.748870  1.0  -0.1005
  C  C247  1  0.174230  0.137770  0.655170  1.0  -0.0948
  C  C248  1  0.267270  0.110980  0.401570  1.0  -0.0075
  C  C249  1  0.285630  0.076860  0.338770  1.0  0.6904
  C  C250  1  0.537130  0.442430  0.866800  1.0  0.4221
  C  C251  1  0.542130  0.427730  0.965500  1.0  -0.084
  C  C252  1  0.464000  0.398500  0.645800  1.0  0.7104
  C  C253  1  0.505150  0.432210  0.724500  1.0  -0.0127
  C  C254  1  0.547700  0.396900  0.150700  1.0  -0.1954
  C  C255  1  0.557500  0.470700  0.036600  1.0  -0.1258
  C  C256  1  0.559900  0.455200  0.128500  1.0  0.3034
  C  C257  1  0.532000  0.354700  0.082200  1.0  -0.0983
  C  C258  1  0.528900  0.369800  0.988500  1.0  -0.0948
  C  C259  1  0.555690  0.489630  0.734900  1.0  -0.0065
  C  C260  1  0.589810  0.542110  0.672100  1.0  0.6928
  C  C261  1  0.203800  0.775760  0.200130  1.0  0.4221
  C  C262  1  0.208800  0.761060  0.298830  1.0  -0.084
  C  C263  1  0.130670  0.731830  0.979130  1.0  0.7104
  C  C264  1  0.171820  0.765540  0.057830  1.0  -0.0127
  C  C265  1  0.214370  0.730230  0.484030  1.0  -0.1954
  C  C266  1  0.224170  0.804030  0.369930  1.0  -0.125
  C  C267  1  0.226570  0.788530  0.461830  1.0  0.3034
  C  C268  1  0.198670  0.688030  0.415530  1.0  -0.0983
  C  C269  1  0.195570  0.703130  0.321830  1.0  -0.0947
  C  C270  1  0.222360  0.822960  0.068230  1.0  -0.0065
  C  C271  1  0.256480  0.875440  0.005430  1.0  0.6928
  C  C272  1  0.870460  0.109100  0.533470  1.0  0.4221
  C  C273  1  0.875460  0.094400  0.632170  1.0  -0.0839
  C  C274  1  0.797330  0.065170  0.312470  1.0  0.7104
  C  C275  1  0.838480  0.098880  0.391170  1.0  -0.0127
  C  C276  1  0.881030  0.063570  0.817370  1.0  -0.1954
  C  C277  1  0.890830  0.137370  0.703270  1.0  -0.125
  C  C278  1  0.893230  0.121870  0.795170  1.0  0.3034
  C  C279  1  0.865330  0.021370  0.748870  1.0  -0.0983
  C  C280  1  0.862230  0.036470  0.655170  1.0  -0.0947
  C  C281  1  0.889020  0.156300  0.401570  1.0  -0.0066
  C  C282  1  0.923140  0.208780  0.338770  1.0  0.6928
  C  C283  1  0.557570  0.094700  0.866800  1.0  0.4227
  C  C284  1  0.572270  0.114400  0.965500  1.0  -0.0849
  C  C285  1  0.601500  0.065500  0.645800  1.0  0.7096
  C  C286  1  0.567790  0.072940  0.724500  1.0  -0.0133
  C  C287  1  0.603100  0.150800  0.150700  1.0  -0.1961
  C  C288  1  0.529300  0.086800  0.036600  1.0  -0.1227
  C  C289  1  0.544800  0.104700  0.128500  1.0  0.3031
  C  C290  1  0.645300  0.177300  0.082200  1.0  -0.0995
  C  C291  1  0.630200  0.159100  0.988500  1.0  -0.0963
  C  C292  1  0.510370  0.066060  0.734900  1.0  -0.0068
  C  C293  1  0.457890  0.047700  0.672100  1.0  0.6899
  C  C294  1  0.224240  0.428030  0.200130  1.0  0.4227
  C  C295  1  0.238940  0.447730  0.298830  1.0  -0.0849
  C  C296  1  0.268170  0.398830  0.979130  1.0  0.7096
  C  C297  1  0.234460  0.406270  0.057830  1.0  -0.0133
  C  C298  1  0.269770  0.484130  0.484030  1.0  -0.1961
  C  C299  1  0.195970  0.420130  0.369930  1.0  -0.1227
  C  C300  1  0.211470  0.438030  0.461830  1.0  0.3031
  C  C301  1  0.311970  0.510630  0.415530  1.0  -0.0995
  C  C302  1  0.296870  0.492430  0.321830  1.0  -0.0963
  C  C303  1  0.177040  0.399390  0.068230  1.0  -0.0068
  C  C304  1  0.124560  0.381030  0.005430  1.0  0.6899
  C  C305  1  0.890900  0.761370  0.533470  1.0  0.4227
  C  C306  1  0.905600  0.781070  0.632170  1.0  -0.0848
  C  C307  1  0.934830  0.732170  0.312470  1.0  0.7096
  C  C308  1  0.901120  0.739610  0.391170  1.0  -0.0133
  C  C309  1  0.936430  0.817470  0.817370  1.0  -0.1961
  C  C310  1  0.862630  0.753470  0.703270  1.0  -0.1234
  C  C311  1  0.878130  0.771370  0.795170  1.0  0.3032
  C  C312  1  0.978630  0.843970  0.748870  1.0  -0.0995
  C  C313  1  0.963530  0.825770  0.655170  1.0  -0.0962
  C  C314  1  0.843700  0.732730  0.401570  1.0  -0.0067
  C  C315  1  0.791220  0.714370  0.338770  1.0  0.6899
  N  N316  1  0.090960  0.493460  0.190800  1.0  -0.4572
  N  N317  1  0.080100  0.575570  0.173900  1.0  -0.4941
  N  N318  1  0.757630  0.826790  0.524130  1.0  -0.4572
  N  N319  1  0.746770  0.908900  0.507230  1.0  -0.4937
  N  N320  1  0.424290  0.160130  0.857470  1.0  -0.4572
  N  N321  1  0.413430  0.242240  0.840570  1.0  -0.4941
  N  N322  1  0.506540  0.597500  0.190800  1.0  -0.4584
  N  N323  1  0.424430  0.504530  0.173900  1.0  -0.4949
  N  N324  1  0.173210  0.930830  0.524130  1.0  -0.4584
  N  N325  1  0.091100  0.837860  0.507230  1.0  -0.4948
  N  N326  1  0.839870  0.264170  0.857470  1.0  -0.4584
  N  N327  1  0.757760  0.171200  0.840570  1.0  -0.4949
  N  N328  1  0.402500  0.909040  0.190800  1.0  -0.4597
  N  N329  1  0.495470  0.919900  0.173900  1.0  -0.4953
  N  N330  1  0.069170  0.242370  0.524130  1.0  -0.4597
  N  N331  1  0.162140  0.253230  0.507230  1.0  -0.4949
  N  N332  1  0.735830  0.575710  0.857470  1.0  -0.4597
  N  N333  1  0.828800  0.586570  0.840570  1.0  -0.4953
  N  N334  1  0.909040  0.506540  0.809200  1.0  -0.4598
  N  N335  1  0.919900  0.424430  0.826100  1.0  -0.4939
  N  N336  1  0.575710  0.839870  0.142530  1.0  -0.4598
  N  N337  1  0.586570  0.757760  0.159430  1.0  -0.4939
  N  N338  1  0.242370  0.173210  0.475870  1.0  -0.4598
  N  N339  1  0.253230  0.091100  0.492770  1.0  -0.4935
  N  N340  1  0.493460  0.402500  0.809200  1.0  -0.458
  N  N341  1  0.575570  0.495470  0.826100  1.0  -0.4942
  N  N342  1  0.160130  0.735830  0.142530  1.0  -0.458
  N  N343  1  0.242240  0.828800  0.159430  1.0  -0.4942
  N  N344  1  0.826790  0.069170  0.475870  1.0  -0.458
  N  N345  1  0.908900  0.162140  0.492770  1.0  -0.4941
  N  N346  1  0.597500  0.090960  0.809200  1.0  -0.4609
  N  N347  1  0.504530  0.080100  0.826100  1.0  -0.4966
  N  N348  1  0.264170  0.424290  0.142530  1.0  -0.4609
  N  N349  1  0.171200  0.413430  0.159430  1.0  -0.4966
  N  N350  1  0.930830  0.757630  0.475870  1.0  -0.461
  N  N351  1  0.837860  0.746770  0.492770  1.0  -0.4962
  O  O352  1  0.068080  0.417270  0.333830  1.0  -0.6177
  O  O353  1  0.059100  0.476360  0.436800  1.0  -0.6452
  O  O354  1  0.032200  0.574860  0.410800  1.0  -0.6812
  O  O355  1  0.081000  0.575200  0.800000  1.0  -0.5071
  O  O356  1  0.047290  0.635240  0.291600  1.0  -0.6191
  O  O357  1  0.734750  0.750600  0.667160  1.0  -0.6173
  O  O358  1  0.725770  0.809690  0.770130  1.0  -0.6452
  O  O359  1  0.698870  0.908190  0.744130  1.0  -0.6812
  O  O360  1  0.747670  0.908530  0.133330  1.0  -0.5072
  O  O361  1  0.713960  0.968570  0.624930  1.0  -0.6192
  O  O362  1  0.401410  0.083940  0.000500  1.0  -0.6176
  O  O363  1  0.392430  0.143030  0.103470  1.0  -0.6452
  O  O364  1  0.365530  0.241530  0.077470  1.0  -0.6812
  O  O365  1  0.414330  0.241870  0.466670  1.0  -0.5072
  O  O366  1  0.380620  0.301910  0.958270  1.0  -0.6191
  O  O367  1  0.582730  0.650810  0.333830  1.0  -0.6177
  O  O368  1  0.523640  0.582740  0.436800  1.0  -0.6448
  O  O369  1  0.425140  0.457340  0.410800  1.0  -0.6821
  O  O370  1  0.424800  0.505800  0.800000  1.0  -0.5075
  O  O371  1  0.364760  0.412050  0.291600  1.0  -0.6166
  O  O372  1  0.249400  0.984140  0.667160  1.0  -0.6174
  O  O373  1  0.190310  0.916070  0.770130  1.0  -0.6448
  O  O374  1  0.091810  0.790670  0.744130  1.0  -0.6821
  O  O375  1  0.091470  0.839130  0.133330  1.0  -0.5074
  O  O376  1  0.031430  0.745380  0.624930  1.0  -0.6167
  O  O377  1  0.916060  0.317480  0.000500  1.0  -0.6174
  O  O378  1  0.856970  0.249410  0.103470  1.0  -0.6448
  O  O379  1  0.758470  0.124010  0.077470  1.0  -0.6821
  O  O380  1  0.758130  0.172470  0.466670  1.0  -0.5074
  O  O381  1  0.698090  0.078720  0.958270  1.0  -0.6166
  O  O382  1  0.349190  0.931920  0.333830  1.0  -0.615
  O  O383  1  0.417260  0.940900  0.436800  1.0  -0.6465
  O  O384  1  0.542660  0.967800  0.410800  1.0  -0.6822
  O  O385  1  0.494200  0.919000  0.800000  1.0  -0.5092
  O  O386  1  0.587950  0.952710  0.291600  1.0  -0.6163
  O  O387  1  0.015860  0.265250  0.667160  1.0  -0.6147
  O  O388  1  0.083930  0.274230  0.770130  1.0  -0.6465
  O  O389  1  0.209330  0.301130  0.744130  1.0  -0.6822
  O  O390  1  0.160870  0.252330  0.133330  1.0  -0.5092
  O  O391  1  0.254620  0.286040  0.624930  1.0  -0.6168
  O  O392  1  0.682520  0.598590  0.000500  1.0  -0.6152
  O  O393  1  0.750590  0.607570  0.103470  1.0  -0.6465
  O  O394  1  0.875990  0.634470  0.077470  1.0  -0.6822
  O  O395  1  0.827530  0.585670  0.466670  1.0  -0.5092
  O  O396  1  0.921280  0.619380  0.958270  1.0  -0.6165
  O  O397  1  0.931920  0.582730  0.666170  1.0  -0.6153
  O  O398  1  0.940900  0.523640  0.563200  1.0  -0.6436
  O  O399  1  0.967800  0.425140  0.589200  1.0  -0.6823
  O  O400  1  0.919000  0.424800  0.200000  1.0  -0.5102
  O  O401  1  0.952710  0.364760  0.708400  1.0  -0.6142
  O  O402  1  0.598590  0.916060  0.999500  1.0  -0.6153
  O  O403  1  0.607570  0.856970  0.896530  1.0  -0.6436
  O  O404  1  0.634470  0.758470  0.922530  1.0  -0.6823
  O  O405  1  0.585670  0.758130  0.533330  1.0  -0.5102
  O  O406  1  0.619380  0.698090  0.041730  1.0  -0.6142
  O  O407  1  0.265250  0.249400  0.332840  1.0  -0.6152
  O  O408  1  0.274230  0.190310  0.229870  1.0  -0.6436
  O  O409  1  0.301130  0.091810  0.255870  1.0  -0.6823
  O  O410  1  0.252330  0.091470  0.866670  1.0  -0.5102
  O  O411  1  0.286040  0.031430  0.375070  1.0  -0.6143
  O  O412  1  0.417270  0.349190  0.666170  1.0  -0.6184
  O  O413  1  0.476360  0.417260  0.563200  1.0  -0.643
  O  O414  1  0.574860  0.542660  0.589200  1.0  -0.6862
  O  O415  1  0.575200  0.494200  0.200000  1.0  -0.5076
  O  O416  1  0.635240  0.587950  0.708400  1.0  -0.6173
  O  O417  1  0.083940  0.682520  0.999500  1.0  -0.6181
  O  O418  1  0.143030  0.750590  0.896530  1.0  -0.643
  O  O419  1  0.241530  0.875990  0.922530  1.0  -0.6862
  O  O420  1  0.241870  0.827530  0.533330  1.0  -0.5076
  O  O421  1  0.301910  0.921280  0.041730  1.0  -0.6172
  O  O422  1  0.750600  0.015860  0.332840  1.0  -0.6184
  O  O423  1  0.809690  0.083930  0.229870  1.0  -0.643
  O  O424  1  0.908190  0.209330  0.255870  1.0  -0.6862
  O  O425  1  0.908530  0.160870  0.866670  1.0  -0.5077
  O  O426  1  0.968570  0.254620  0.375070  1.0  -0.6173
  O  O427  1  0.650810  0.068080  0.666170  1.0  -0.6163
  O  O428  1  0.582740  0.059100  0.563200  1.0  -0.6438
  O  O429  1  0.457340  0.032200  0.589200  1.0  -0.6828
  O  O430  1  0.505800  0.081000  0.200000  1.0  -0.5113
  O  O431  1  0.412050  0.047290  0.708400  1.0  -0.6181
  O  O432  1  0.317480  0.401410  0.999500  1.0  -0.6166
  O  O433  1  0.249410  0.392430  0.896530  1.0  -0.6438
  O  O434  1  0.124010  0.365530  0.922530  1.0  -0.6828
  O  O435  1  0.172470  0.414330  0.533330  1.0  -0.5113
  O  O436  1  0.078720  0.380620  0.041730  1.0  -0.6183
  O  O437  1  0.984140  0.734750  0.332840  1.0  -0.6163
  O  O438  1  0.916070  0.725770  0.229870  1.0  -0.6438
  O  O439  1  0.790670  0.698870  0.255870  1.0  -0.6828
  O  O440  1  0.839130  0.747670  0.866670  1.0  -0.5113
  O  O441  1  0.745380  0.713960  0.375070  1.0  -0.6184
