# generated using pymatgen
data_Eu2H9(C5O2)6
_symmetry_space_group_name_H-M   'P 1'
_cell_length_a   18.47970000
_cell_length_b   18.47970000
_cell_length_c   18.63200000
_cell_angle_alpha   86.37720000
_cell_angle_beta   86.37720000
_cell_angle_gamma   70.36350000
_symmetry_Int_Tables_number   1
_chemical_formula_structural   Eu2H9(C5O2)6
_chemical_formula_sum   'Eu8 H36 C120 O48'
_cell_volume   5974.84076591
_cell_formula_units_Z   4
loop_
 _symmetry_equiv_pos_site_id
 _symmetry_equiv_pos_as_xyz
  1  'x, y, z'
loop_
 _atom_site_type_symbol
 _atom_site_label
 _atom_site_symmetry_multiplicity
 _atom_site_fract_x
 _atom_site_fract_y
 _atom_site_fract_z
 _atom_site_occupancy
 _atom_site_charge
  Eu  Eu1  1  0.898780  0.545470  0.567560  1.0  2.1273
  Eu  Eu2  1  0.352450  0.008790  0.520160  1.0  2.0038
  Eu  Eu3  1  0.454530  0.101220  0.932440  1.0  2.1261
  Eu  Eu4  1  0.991210  0.647550  0.979840  1.0  1.991
  Eu  Eu5  1  0.101220  0.454530  0.432440  1.0  2.1248
  Eu  Eu6  1  0.647550  0.991210  0.479840  1.0  1.9841
  Eu  Eu7  1  0.545470  0.898780  0.067560  1.0  2.1289
  Eu  Eu8  1  0.008790  0.352450  0.020160  1.0  2.0084
  H  H9  1  0.673500  0.767900  0.505900  1.0  0.0902
  H  H10  1  0.451400  0.791200  0.550500  1.0  0.0921
  H  H11  1  0.616300  0.593100  0.600400  1.0  0.1111
  H  H12  1  0.035800  0.561600  0.735500  1.0  0.097
  H  H13  1  0.217800  0.545800  0.599600  1.0  0.1059
  H  H14  1  0.208800  0.624200  0.795600  1.0  0.1039
  H  H15  1  0.134000  0.263800  0.532200  1.0  0.101
  H  H16  1  0.933300  0.286500  0.639500  1.0  0.1108
  H  H17  1  0.103800  0.082600  0.645200  1.0  0.1119
  H  H18  1  0.232100  0.326500  0.994100  1.0  0.0894
  H  H19  1  0.208800  0.548600  0.949500  1.0  0.0916
  H  H20  1  0.406900  0.383700  0.899600  1.0  0.109
  H  H21  1  0.438400  0.964200  0.764500  1.0  0.0977
  H  H22  1  0.454200  0.782200  0.900400  1.0  0.1058
  H  H23  1  0.375800  0.791200  0.704400  1.0  0.1042
  H  H24  1  0.736200  0.866000  0.967800  1.0  0.1015
  H  H25  1  0.713500  0.066700  0.860500  1.0  0.1115
  H  H26  1  0.917400  0.896200  0.854800  1.0  0.1119
  H  H27  1  0.326500  0.232100  0.494100  1.0  0.0895
  H  H28  1  0.548600  0.208800  0.449500  1.0  0.0927
  H  H29  1  0.383700  0.406900  0.399600  1.0  0.11
  H  H30  1  0.964200  0.438400  0.264500  1.0  0.0975
  H  H31  1  0.782200  0.454200  0.400400  1.0  0.106
  H  H32  1  0.791200  0.375800  0.204400  1.0  0.1043
  H  H33  1  0.866000  0.736200  0.467800  1.0  0.1013
  H  H34  1  0.066700  0.713500  0.360500  1.0  0.1105
  H  H35  1  0.896200  0.917400  0.354800  1.0  0.1117
  H  H36  1  0.767900  0.673500  0.005900  1.0  0.0897
  H  H37  1  0.791200  0.451400  0.050500  1.0  0.0922
  H  H38  1  0.593100  0.616300  0.100400  1.0  0.1094
  H  H39  1  0.561600  0.035800  0.235500  1.0  0.0972
  H  H40  1  0.545800  0.217800  0.099600  1.0  0.1055
  H  H41  1  0.624200  0.208800  0.295600  1.0  0.1036
  H  H42  1  0.263800  0.134000  0.032200  1.0  0.1012
  H  H43  1  0.286500  0.933300  0.139500  1.0  0.1117
  H  H44  1  0.082600  0.103800  0.145200  1.0  0.112
  C  C45  1  0.537200  0.874800  0.495500  1.0  0.7198
  C  C46  1  0.558500  0.793900  0.522200  1.0  -0.1854
  C  C47  1  0.635700  0.747500  0.523300  1.0  0.024
  C  C48  1  0.657000  0.672800  0.549700  1.0  -0.1581
  C  C49  1  0.739800  0.624800  0.551000  1.0  0.6716
  C  C50  1  0.503200  0.761400  0.551000  1.0  -0.1039
  C  C51  1  0.522800  0.689000  0.579200  1.0  0.0685
  C  C52  1  0.601800  0.642800  0.579900  1.0  -0.0415
  C  C53  1  0.464300  0.661100  0.609900  1.0  -0.0205
  C  C54  1  0.410500  0.642500  0.632800  1.0  0.0804
  C  C55  1  0.085800  0.516800  0.601700  1.0  0.7865
  C  C56  1  0.120500  0.546100  0.656000  1.0  -0.1515
  C  C57  1  0.083400  0.567400  0.724600  1.0  0.023
  C  C58  1  0.115800  0.596000  0.774800  1.0  -0.1742
  C  C59  1  0.075100  0.617300  0.847800  1.0  0.6891
  C  C60  1  0.191200  0.559000  0.643500  1.0  -0.0999
  C  C61  1  0.222600  0.590400  0.693200  1.0  0.0428
  C  C62  1  0.186300  0.606500  0.760400  1.0  -0.0592
  C  C63  1  0.291500  0.606700  0.675700  1.0  -0.0169
  C  C64  1  0.348800  0.623600  0.655800  1.0  0.0284
  C  C65  1  0.995900  0.370300  0.558600  1.0  0.7677
  C  C66  1  0.027800  0.287200  0.581800  1.0  -0.1754
  C  C67  1  0.102500  0.241900  0.560000  1.0  0.0058
  C  C68  1  0.128700  0.164500  0.580400  1.0  -0.1507
  C  C69  1  0.206700  0.114300  0.557400  1.0  0.4277
  C  C70  1  0.982500  0.256100  0.624600  1.0  -0.0792
  C  C71  1  0.010600  0.177600  0.646400  1.0  0.0193
  C  C72  1  0.084000  0.133200  0.627200  1.0  -0.1039
  C  C73  1  0.962000  0.143600  0.693800  1.0  0.0154
  C  C74  1  0.926900  0.111100  0.727300  1.0  0.2114
  C  C75  1  0.125200  0.462800  0.004500  1.0  0.7222
  C  C76  1  0.206100  0.441500  0.977800  1.0  -0.1862
  C  C77  1  0.252500  0.364300  0.976700  1.0  0.0259
  C  C78  1  0.327200  0.343000  0.950300  1.0  -0.1584
  C  C79  1  0.375200  0.260200  0.949000  1.0  0.6731
  C  C80  1  0.238600  0.496800  0.949000  1.0  -0.1025
  C  C81  1  0.311000  0.477200  0.920800  1.0  0.0658
  C  C82  1  0.357200  0.398200  0.920100  1.0  -0.041
  C  C83  1  0.338900  0.535700  0.890100  1.0  -0.0186
  C  C84  1  0.357500  0.589500  0.867200  1.0  0.084
  C  C85  1  0.483200  0.914200  0.898300  1.0  0.7892
  C  C86  1  0.453900  0.879500  0.844000  1.0  -0.1515
  C  C87  1  0.432600  0.916600  0.775400  1.0  0.0237
  C  C88  1  0.404000  0.884200  0.725200  1.0  -0.1742
  C  C89  1  0.382700  0.924900  0.652200  1.0  0.6882
  C  C90  1  0.441000  0.808800  0.856500  1.0  -0.0984
  C  C91  1  0.409600  0.777400  0.806800  1.0  0.0421
  C  C92  1  0.393500  0.813700  0.739600  1.0  -0.0597
  C  C93  1  0.393300  0.708500  0.824300  1.0  -0.0177
  C  C94  1  0.376400  0.651200  0.844200  1.0  0.0309
  C  C95  1  0.629700  0.004100  0.941400  1.0  0.7666
  C  C96  1  0.712800  0.972200  0.918200  1.0  -0.175
  C  C97  1  0.758100  0.897500  0.940000  1.0  0.0063
  C  C98  1  0.835500  0.871300  0.919600  1.0  -0.1507
  C  C99  1  0.885700  0.793300  0.942600  1.0  0.4314
  C  C100  1  0.743900  0.017500  0.875400  1.0  -0.0787
  C  C101  1  0.822400  0.989400  0.853600  1.0  0.0202
  C  C102  1  0.866800  0.916000  0.872800  1.0  -0.1037
  C  C103  1  0.856400  0.038000  0.806200  1.0  0.0151
  C  C104  1  0.888900  0.073100  0.772700  1.0  0.2102
  C  C105  1  0.462800  0.125200  0.504500  1.0  0.7217
  C  C106  1  0.441500  0.206100  0.477800  1.0  -0.1856
  C  C107  1  0.364300  0.252500  0.476700  1.0  0.0238
  C  C108  1  0.343000  0.327200  0.450300  1.0  -0.1582
  C  C109  1  0.260200  0.375200  0.449000  1.0  0.6699
  C  C110  1  0.496800  0.238600  0.449000  1.0  -0.1043
  C  C111  1  0.477200  0.311000  0.420800  1.0  0.0666
  C  C112  1  0.398200  0.357200  0.420100  1.0  -0.0405
  C  C113  1  0.535700  0.338900  0.390100  1.0  -0.0195
  C  C114  1  0.589500  0.357500  0.367200  1.0  0.0804
  C  C115  1  0.914200  0.483200  0.398300  1.0  0.789
  C  C116  1  0.879500  0.453900  0.344000  1.0  -0.1515
  C  C117  1  0.916600  0.432600  0.275400  1.0  0.0251
  C  C118  1  0.884200  0.404000  0.225200  1.0  -0.1742
  C  C119  1  0.924900  0.382700  0.152200  1.0  0.688
  C  C120  1  0.808800  0.441000  0.356500  1.0  -0.0999
  C  C121  1  0.777400  0.409600  0.306800  1.0  0.0412
  C  C122  1  0.813700  0.393500  0.239600  1.0  -0.0586
  C  C123  1  0.708500  0.393300  0.324300  1.0  -0.0173
  C  C124  1  0.651200  0.376400  0.344200  1.0  0.03
  C  C125  1  0.004100  0.629700  0.441400  1.0  0.768
  C  C126  1  0.972200  0.712800  0.418200  1.0  -0.1753
  C  C127  1  0.897500  0.758100  0.440000  1.0  0.0059
  C  C128  1  0.871300  0.835500  0.419600  1.0  -0.1508
  C  C129  1  0.793300  0.885700  0.442600  1.0  0.4263
  C  C130  1  0.017500  0.743900  0.375400  1.0  -0.0789
  C  C131  1  0.989400  0.822400  0.353600  1.0  0.0212
  C  C132  1  0.916000  0.866800  0.372800  1.0  -0.104
  C  C133  1  0.038000  0.856400  0.306200  1.0  0.0154
  C  C134  1  0.073100  0.888900  0.272700  1.0  0.2099
  C  C135  1  0.874800  0.537200  0.995500  1.0  0.7205
  C  C136  1  0.793900  0.558500  0.022200  1.0  -0.1867
  C  C137  1  0.747500  0.635700  0.023300  1.0  0.026
  C  C138  1  0.672800  0.657000  0.049700  1.0  -0.1584
  C  C139  1  0.624800  0.739800  0.051000  1.0  0.6735
  C  C140  1  0.761400  0.503200  0.051000  1.0  -0.1025
  C  C141  1  0.689000  0.522800  0.079200  1.0  0.066
  C  C142  1  0.642800  0.601800  0.079900  1.0  -0.0443
  C  C143  1  0.661100  0.464300  0.109900  1.0  -0.0195
  C  C144  1  0.642500  0.410500  0.132800  1.0  0.0819
  C  C145  1  0.516800  0.085800  0.101700  1.0  0.7876
  C  C146  1  0.546100  0.120500  0.156000  1.0  -0.1511
  C  C147  1  0.567400  0.083400  0.224600  1.0  0.0244
  C  C148  1  0.596000  0.115800  0.274800  1.0  -0.1751
  C  C149  1  0.617300  0.075100  0.347800  1.0  0.6883
  C  C150  1  0.559000  0.191200  0.143500  1.0  -0.1001
  C  C151  1  0.590400  0.222600  0.193200  1.0  0.0433
  C  C152  1  0.606500  0.186300  0.260400  1.0  -0.0591
  C  C153  1  0.606700  0.291500  0.175700  1.0  -0.0187
  C  C154  1  0.623600  0.348800  0.155800  1.0  0.0303
  C  C155  1  0.370300  0.995900  0.058600  1.0  0.7662
  C  C156  1  0.287200  0.027800  0.081800  1.0  -0.1759
  C  C157  1  0.241900  0.102500  0.060000  1.0  0.0061
  C  C158  1  0.164500  0.128700  0.080400  1.0  -0.1497
  C  C159  1  0.114300  0.206700  0.057400  1.0  0.4306
  C  C160  1  0.256100  0.982500  0.124600  1.0  -0.0775
  C  C161  1  0.177600  0.010600  0.146400  1.0  0.0203
  C  C162  1  0.133200  0.084000  0.127200  1.0  -0.1037
  C  C163  1  0.143600  0.962000  0.193800  1.0  0.0139
  C  C164  1  0.111100  0.926900  0.227300  1.0  0.2106
  O  O165  1  0.465400  0.911800  0.491500  1.0  -0.7486
  O  O166  1  0.588000  0.900800  0.474300  1.0  -0.7135
  O  O167  1  0.788300  0.653500  0.523000  1.0  -0.6989
  O  O168  1  0.759200  0.558000  0.578000  1.0  -0.6935
  O  O169  1  0.122400  0.497600  0.545400  1.0  -0.6933
  O  O170  1  0.018600  0.513800  0.618200  1.0  -0.732
  O  O171  1  0.098300  0.650100  0.889000  1.0  -0.5596
  O  O172  1  0.016000  0.597400  0.862300  1.0  -0.6165
  O  O173  1  0.933200  0.409200  0.586200  1.0  -0.6684
  O  O174  1  0.033300  0.396500  0.512100  1.0  -0.7911
  O  O175  1  0.244000  0.131600  0.508500  1.0  -0.5756
  O  O176  1  0.237200  0.055000  0.593400  1.0  -0.6152
  O  O177  1  0.088200  0.534600  0.008500  1.0  -0.7471
  O  O178  1  0.099200  0.412000  0.025700  1.0  -0.7144
  O  O179  1  0.346500  0.211700  0.977000  1.0  -0.7004
  O  O180  1  0.442000  0.240800  0.922000  1.0  -0.7023
  O  O181  1  0.502400  0.877600  0.954600  1.0  -0.6902
  O  O182  1  0.486200  0.981400  0.881800  1.0  -0.731
  O  O183  1  0.349900  0.901700  0.611000  1.0  -0.5609
  O  O184  1  0.402600  0.984000  0.637700  1.0  -0.6154
  O  O185  1  0.590800  0.066800  0.913800  1.0  -0.6671
  O  O186  1  0.603500  0.966700  0.987900  1.0  -0.7948
  O  O187  1  0.868400  0.756000  0.991500  1.0  -0.5757
  O  O188  1  0.945000  0.762800  0.906600  1.0  -0.6138
  O  O189  1  0.534600  0.088200  0.508500  1.0  -0.7487
  O  O190  1  0.412000  0.099200  0.525700  1.0  -0.7138
  O  O191  1  0.211700  0.346500  0.477000  1.0  -0.6981
  O  O192  1  0.240800  0.442000  0.422000  1.0  -0.6994
  O  O193  1  0.877600  0.502400  0.454600  1.0  -0.6969
  O  O194  1  0.981400  0.486200  0.381800  1.0  -0.733
  O  O195  1  0.901700  0.349900  0.111000  1.0  -0.5611
  O  O196  1  0.984000  0.402600  0.137700  1.0  -0.6161
  O  O197  1  0.066800  0.590800  0.413800  1.0  -0.6681
  O  O198  1  0.966700  0.603500  0.487900  1.0  -0.7912
  O  O199  1  0.756000  0.868400  0.491500  1.0  -0.5736
  O  O200  1  0.762800  0.945000  0.406600  1.0  -0.6146
  O  O201  1  0.911800  0.465400  0.991500  1.0  -0.7484
  O  O202  1  0.900800  0.588000  0.974300  1.0  -0.7149
  O  O203  1  0.653500  0.788300  0.023000  1.0  -0.7016
  O  O204  1  0.558000  0.759200  0.078000  1.0  -0.7028
  O  O205  1  0.497600  0.122400  0.045400  1.0  -0.694
  O  O206  1  0.513800  0.018600  0.118200  1.0  -0.7305
  O  O207  1  0.650100  0.098300  0.389000  1.0  -0.5611
  O  O208  1  0.597400  0.016000  0.362300  1.0  -0.6166
  O  O209  1  0.409200  0.933200  0.086200  1.0  -0.6668
  O  O210  1  0.396500  0.033300  0.012100  1.0  -0.7945
  O  O211  1  0.131600  0.244000  0.008500  1.0  -0.5791
  O  O212  1  0.055000  0.237200  0.093400  1.0  -0.6136
