# generated using pymatgen
data_Yb2H9(C5O2)6
_symmetry_space_group_name_H-M   'P 1'
_cell_length_a   29.85410000
_cell_length_b   20.94590000
_cell_length_c   19.37890000
_cell_angle_alpha   90.00000000
_cell_angle_beta   94.07100000
_cell_angle_gamma   90.00000000
_symmetry_Int_Tables_number   1
_chemical_formula_structural   Yb2H9(C5O2)6
_chemical_formula_sum   'Yb16 H72 C240 O96'
_cell_volume   12087.45729847
_cell_formula_units_Z   8
loop_
 _symmetry_equiv_pos_site_id
 _symmetry_equiv_pos_as_xyz
  1  'x, y, z'
loop_
 _atom_site_type_symbol
 _atom_site_label
 _atom_site_symmetry_multiplicity
 _atom_site_fract_x
 _atom_site_fract_y
 _atom_site_fract_z
 _atom_site_occupancy
 _atom_site_charge
  Yb  Yb1  1  0.276930  0.175800  0.057120  1.0  1.5257
  Yb  Yb2  1  0.182180  0.829120  0.963050  1.0  1.4663
  Yb  Yb3  1  0.776930  0.675800  0.057120  1.0  1.5257
  Yb  Yb4  1  0.682180  0.329120  0.963050  1.0  1.4663
  Yb  Yb5  1  0.723070  0.175800  0.442880  1.0  1.5255
  Yb  Yb6  1  0.817820  0.829120  0.536950  1.0  1.4715
  Yb  Yb7  1  0.223070  0.675800  0.442880  1.0  1.5255
  Yb  Yb8  1  0.317820  0.329120  0.536950  1.0  1.4715
  Yb  Yb9  1  0.723070  0.824200  0.942880  1.0  1.5265
  Yb  Yb10  1  0.817820  0.170880  0.036950  1.0  1.4711
  Yb  Yb11  1  0.223070  0.324200  0.942880  1.0  1.5265
  Yb  Yb12  1  0.317820  0.670880  0.036950  1.0  1.4711
  Yb  Yb13  1  0.276930  0.824200  0.557120  1.0  1.5263
  Yb  Yb14  1  0.182180  0.170880  0.463050  1.0  1.4659
  Yb  Yb15  1  0.776930  0.324200  0.557120  1.0  1.5263
  Yb  Yb16  1  0.682180  0.670880  0.463050  1.0  1.4659
  H  H17  1  0.394900  0.013600  0.094300  1.0  0.1264
  H  H18  1  0.375400  0.826300  0.056600  1.0  0.1159
  H  H19  1  0.278700  0.951800  0.997700  1.0  0.1171
  H  H20  1  0.585700  0.790600  0.291900  1.0  0.1086
  H  H21  1  0.703900  0.735900  0.229400  1.0  0.1132
  H  H22  1  0.618100  0.830400  0.098000  1.0  0.122
  H  H23  1  0.198800  0.067000  0.961100  1.0  0.1174
  H  H24  1  0.109600  0.182400  0.860400  1.0  0.1316
  H  H25  1  0.094900  0.990800  0.848400  1.0  0.1173
  H  H26  1  0.894900  0.513600  0.094300  1.0  0.1264
  H  H27  1  0.875400  0.326300  0.056600  1.0  0.1159
  H  H28  1  0.778700  0.451800  0.997700  1.0  0.117
  H  H29  1  0.085700  0.290600  0.291900  1.0  0.1086
  H  H30  1  0.203900  0.235900  0.229400  1.0  0.1132
  H  H31  1  0.118100  0.330400  0.098000  1.0  0.122
  H  H32  1  0.698800  0.567000  0.961100  1.0  0.1174
  H  H33  1  0.609600  0.682400  0.860400  1.0  0.1316
  H  H34  1  0.594900  0.490800  0.848400  1.0  0.1173
  H  H35  1  0.605100  0.013600  0.405700  1.0  0.1266
  H  H36  1  0.624600  0.826300  0.443400  1.0  0.1149
  H  H37  1  0.721300  0.951800  0.502300  1.0  0.1169
  H  H38  1  0.414300  0.790600  0.208100  1.0  0.1084
  H  H39  1  0.296100  0.735900  0.270600  1.0  0.1125
  H  H40  1  0.381900  0.830400  0.402000  1.0  0.1223
  H  H41  1  0.801200  0.067000  0.538900  1.0  0.1167
  H  H42  1  0.890400  0.182400  0.639600  1.0  0.1315
  H  H43  1  0.905100  0.990800  0.651600  1.0  0.1169
  H  H44  1  0.105100  0.513600  0.405700  1.0  0.1266
  H  H45  1  0.124600  0.326300  0.443400  1.0  0.1149
  H  H46  1  0.221300  0.451800  0.502300  1.0  0.1172
  H  H47  1  0.914300  0.290600  0.208100  1.0  0.1084
  H  H48  1  0.796100  0.235900  0.270600  1.0  0.1125
  H  H49  1  0.881900  0.330400  0.402000  1.0  0.1223
  H  H50  1  0.301200  0.567000  0.538900  1.0  0.1167
  H  H51  1  0.390400  0.682400  0.639600  1.0  0.1315
  H  H52  1  0.405100  0.490800  0.651600  1.0  0.1169
  H  H53  1  0.605100  0.986400  0.905700  1.0  0.1262
  H  H54  1  0.624600  0.173700  0.943400  1.0  0.1155
  H  H55  1  0.721300  0.048200  0.002300  1.0  0.1168
  H  H56  1  0.414300  0.209400  0.708100  1.0  0.1084
  H  H57  1  0.296100  0.264100  0.770600  1.0  0.1124
  H  H58  1  0.381900  0.169600  0.902000  1.0  0.1224
  H  H59  1  0.801200  0.933000  0.038900  1.0  0.1169
  H  H60  1  0.890400  0.817600  0.139600  1.0  0.1313
  H  H61  1  0.905100  0.009200  0.151600  1.0  0.1176
  H  H62  1  0.105100  0.486400  0.905700  1.0  0.1262
  H  H63  1  0.124600  0.673700  0.943400  1.0  0.1155
  H  H64  1  0.221300  0.548200  0.002300  1.0  0.1168
  H  H65  1  0.914300  0.709400  0.708100  1.0  0.1084
  H  H66  1  0.796100  0.764100  0.770600  1.0  0.1124
  H  H67  1  0.881900  0.669600  0.902000  1.0  0.1224
  H  H68  1  0.301200  0.433000  0.038900  1.0  0.117
  H  H69  1  0.390400  0.317600  0.139600  1.0  0.1313
  H  H70  1  0.405100  0.509200  0.151600  1.0  0.1176
  H  H71  1  0.394900  0.986400  0.594300  1.0  0.1261
  H  H72  1  0.375400  0.173700  0.556600  1.0  0.1158
  H  H73  1  0.278700  0.048200  0.497700  1.0  0.1168
  H  H74  1  0.585700  0.209400  0.791900  1.0  0.1083
  H  H75  1  0.703900  0.264100  0.729400  1.0  0.1137
  H  H76  1  0.618100  0.169600  0.598000  1.0  0.1223
  H  H77  1  0.198800  0.933000  0.461100  1.0  0.1173
  H  H78  1  0.109600  0.817600  0.360400  1.0  0.1312
  H  H79  1  0.094900  0.009200  0.348400  1.0  0.1178
  H  H80  1  0.894900  0.486400  0.594300  1.0  0.1261
  H  H81  1  0.875400  0.673700  0.556600  1.0  0.1158
  H  H82  1  0.778700  0.548200  0.497700  1.0  0.1168
  H  H83  1  0.085700  0.709400  0.791900  1.0  0.1083
  H  H84  1  0.203900  0.764100  0.729400  1.0  0.1137
  H  H85  1  0.118100  0.669600  0.598000  1.0  0.1223
  H  H86  1  0.698800  0.433000  0.461100  1.0  0.1173
  H  H87  1  0.609600  0.317600  0.360400  1.0  0.1312
  H  H88  1  0.594900  0.509200  0.348400  1.0  0.1178
  C  C89  1  0.316700  0.060100  0.044700  1.0  0.6829
  C  C90  1  0.334000  0.993700  0.046800  1.0  -0.1515
  C  C91  1  0.376800  0.980500  0.076600  1.0  -0.0253
  C  C92  1  0.392800  0.917400  0.080300  1.0  0.0111
  C  C93  1  0.365100  0.868200  0.054000  1.0  -0.0514
  C  C94  1  0.322600  0.881100  0.023900  1.0  -0.1442
  C  C95  1  0.306900  0.943300  0.019100  1.0  0.0369
  C  C96  1  0.294100  0.826300  0.995500  1.0  0.7666
  C  C97  1  0.436800  0.903500  0.111300  1.0  -0.0342
  C  C98  1  0.473200  0.886600  0.134100  1.0  0.0119
  C  C99  1  0.514900  0.864400  0.157800  1.0  0.0522
  C  C100  1  0.551200  0.843700  0.177100  1.0  0.0597
  C  C101  1  0.592900  0.816000  0.192000  1.0  0.059
  C  C102  1  0.605500  0.788300  0.257000  1.0  -0.0664
  C  C103  1  0.645900  0.758200  0.270100  1.0  -0.1442
  C  C104  1  0.676300  0.755700  0.219800  1.0  0.0288
  C  C105  1  0.666100  0.782600  0.154200  1.0  -0.1514
  C  C106  1  0.625000  0.812300  0.141300  1.0  -0.073
  C  C107  1  0.658200  0.728200  0.338700  1.0  0.6773
  C  C108  1  0.698400  0.778500  0.099300  1.0  0.8023
  C  C109  1  0.163900  0.953800  0.926300  1.0  0.6542
  C  C110  1  0.148700  0.019100  0.907600  1.0  -0.0996
  C  C111  1  0.172900  0.072300  0.932300  1.0  0.0245
  C  C112  1  0.158200  0.132700  0.913800  1.0  -0.1488
  C  C113  1  0.119300  0.141500  0.872500  1.0  -0.0663
  C  C114  1  0.094600  0.088700  0.848900  1.0  0.0535
  C  C115  1  0.110500  0.026400  0.865800  1.0  -0.0375
  C  C116  1  0.184700  0.191600  0.938000  1.0  0.7661
  C  C117  1  0.054100  0.095600  0.805100  1.0  -0.0743
  C  C118  1  0.020200  0.097600  0.770900  1.0  0.0788
  C  C119  1  0.816700  0.560100  0.044700  1.0  0.6798
  C  C120  1  0.834000  0.493700  0.046800  1.0  -0.1515
  C  C121  1  0.876800  0.480500  0.076600  1.0  -0.0251
  C  C122  1  0.892800  0.417400  0.080300  1.0  0.0111
  C  C123  1  0.865100  0.368200  0.054000  1.0  -0.0514
  C  C124  1  0.822600  0.381100  0.023900  1.0  -0.1442
  C  C125  1  0.806900  0.443300  0.019100  1.0  0.0369
  C  C126  1  0.794100  0.326300  0.995500  1.0  0.7666
  C  C127  1  0.936800  0.403500  0.111300  1.0  -0.0347
  C  C128  1  0.973200  0.386600  0.134100  1.0  0.0119
  C  C129  1  0.014900  0.364400  0.157800  1.0  0.0522
  C  C130  1  0.051200  0.343700  0.177100  1.0  0.0597
  C  C131  1  0.092900  0.316000  0.192000  1.0  0.059
  C  C132  1  0.105500  0.288300  0.257000  1.0  -0.0664
  C  C133  1  0.145900  0.258200  0.270100  1.0  -0.1442
  C  C134  1  0.176300  0.255700  0.219800  1.0  0.0288
  C  C135  1  0.166100  0.282600  0.154200  1.0  -0.1514
  C  C136  1  0.125000  0.312300  0.141300  1.0  -0.073
  C  C137  1  0.158200  0.228200  0.338700  1.0  0.6773
  C  C138  1  0.198400  0.278500  0.099300  1.0  0.8023
  C  C139  1  0.663900  0.453800  0.926300  1.0  0.6542
  C  C140  1  0.648700  0.519100  0.907600  1.0  -0.0996
  C  C141  1  0.672900  0.572300  0.932300  1.0  0.0245
  C  C142  1  0.658200  0.632700  0.913800  1.0  -0.1488
  C  C143  1  0.619300  0.641500  0.872500  1.0  -0.0663
  C  C144  1  0.594600  0.588700  0.848900  1.0  0.0535
  C  C145  1  0.610500  0.526400  0.865800  1.0  -0.0375
  C  C146  1  0.684700  0.691600  0.938000  1.0  0.7661
  C  C147  1  0.554100  0.595600  0.805100  1.0  -0.0743
  C  C148  1  0.520200  0.597600  0.770900  1.0  0.0788
  C  C149  1  0.683300  0.060100  0.455300  1.0  0.6797
  C  C150  1  0.666000  0.993700  0.453200  1.0  -0.1512
  C  C151  1  0.623200  0.980500  0.423400  1.0  -0.026
  C  C152  1  0.607200  0.917400  0.419700  1.0  0.0111
  C  C153  1  0.634900  0.868200  0.446000  1.0  -0.0524
  C  C154  1  0.677400  0.881100  0.476100  1.0  -0.1439
  C  C155  1  0.693100  0.943300  0.480900  1.0  0.0384
  C  C156  1  0.705900  0.826300  0.504500  1.0  0.7731
  C  C157  1  0.563200  0.903500  0.388700  1.0  -0.0414
  C  C158  1  0.526800  0.886600  0.365900  1.0  0.0126
  C  C159  1  0.485100  0.864400  0.342200  1.0  0.0507
  C  C160  1  0.448800  0.843700  0.322900  1.0  0.0617
  C  C161  1  0.407100  0.816000  0.308000  1.0  0.0594
  C  C162  1  0.394500  0.788300  0.243000  1.0  -0.0679
  C  C163  1  0.354100  0.758200  0.229900  1.0  -0.1451
  C  C164  1  0.323700  0.755700  0.280200  1.0  0.0263
  C  C165  1  0.333900  0.782600  0.345800  1.0  -0.1519
  C  C166  1  0.375000  0.812300  0.358700  1.0  -0.0727
  C  C167  1  0.341800  0.728200  0.161300  1.0  0.6765
  C  C168  1  0.301600  0.778500  0.400700  1.0  0.8032
  C  C169  1  0.836100  0.953800  0.573700  1.0  0.6539
  C  C170  1  0.851300  0.019100  0.592400  1.0  -0.0995
  C  C171  1  0.827100  0.072300  0.567700  1.0  0.0279
  C  C172  1  0.841800  0.132700  0.586200  1.0  -0.1481
  C  C173  1  0.880700  0.141500  0.627500  1.0  -0.0665
  C  C174  1  0.905400  0.088700  0.651100  1.0  0.0541
  C  C175  1  0.889500  0.026400  0.634200  1.0  -0.0374
  C  C176  1  0.815300  0.191600  0.562000  1.0  0.7667
  C  C177  1  0.945900  0.095600  0.694900  1.0  -0.0715
  C  C178  1  0.979800  0.097600  0.729100  1.0  0.0795
  C  C179  1  0.183300  0.560100  0.455300  1.0  0.6779
  C  C180  1  0.166000  0.493700  0.453200  1.0  -0.1512
  C  C181  1  0.123200  0.480500  0.423400  1.0  -0.0259
  C  C182  1  0.107200  0.417400  0.419700  1.0  0.0111
  C  C183  1  0.134900  0.368200  0.446000  1.0  -0.0524
  C  C184  1  0.177400  0.381100  0.476100  1.0  -0.1439
  C  C185  1  0.193100  0.443300  0.480900  1.0  0.0384
  C  C186  1  0.205900  0.326300  0.504500  1.0  0.7731
  C  C187  1  0.063200  0.403500  0.388700  1.0  -0.0407
  C  C188  1  0.026800  0.386600  0.365900  1.0  0.0126
  C  C189  1  0.985100  0.364400  0.342200  1.0  0.0507
  C  C190  1  0.948800  0.343700  0.322900  1.0  0.0617
  C  C191  1  0.907100  0.316000  0.308000  1.0  0.0594
  C  C192  1  0.894500  0.288300  0.243000  1.0  -0.0679
  C  C193  1  0.854100  0.258200  0.229900  1.0  -0.1451
  C  C194  1  0.823700  0.255700  0.280200  1.0  0.0263
  C  C195  1  0.833900  0.282600  0.345800  1.0  -0.1519
  C  C196  1  0.875000  0.312300  0.358700  1.0  -0.0727
  C  C197  1  0.841800  0.228200  0.161300  1.0  0.6765
  C  C198  1  0.801600  0.278500  0.400700  1.0  0.8032
  C  C199  1  0.336100  0.453800  0.573700  1.0  0.6539
  C  C200  1  0.351300  0.519100  0.592400  1.0  -0.0995
  C  C201  1  0.327100  0.572300  0.567700  1.0  0.0279
  C  C202  1  0.341800  0.632700  0.586200  1.0  -0.1481
  C  C203  1  0.380700  0.641500  0.627500  1.0  -0.0665
  C  C204  1  0.405400  0.588700  0.651100  1.0  0.0541
  C  C205  1  0.389500  0.526400  0.634200  1.0  -0.0374
  C  C206  1  0.315300  0.691600  0.562000  1.0  0.7667
  C  C207  1  0.445900  0.595600  0.694900  1.0  -0.0715
  C  C208  1  0.479800  0.597600  0.729100  1.0  0.0795
  C  C209  1  0.683300  0.939900  0.955300  1.0  0.6782
  C  C210  1  0.666000  0.006300  0.953200  1.0  -0.1518
  C  C211  1  0.623200  0.019500  0.923400  1.0  -0.0191
  C  C212  1  0.607200  0.082600  0.919700  1.0  0.0107
  C  C213  1  0.634900  0.131800  0.946000  1.0  -0.0507
  C  C214  1  0.677400  0.118900  0.976100  1.0  -0.1436
  C  C215  1  0.693100  0.056700  0.980900  1.0  0.0383
  C  C216  1  0.705900  0.173700  0.004500  1.0  0.7689
  C  C217  1  0.563200  0.096500  0.888700  1.0  -0.0414
  C  C218  1  0.526800  0.113400  0.865900  1.0  0.0124
  C  C219  1  0.485100  0.135600  0.842200  1.0  0.0513
  C  C220  1  0.448800  0.156300  0.822900  1.0  0.0621
  C  C221  1  0.407100  0.184000  0.808000  1.0  0.0598
  C  C222  1  0.394500  0.211700  0.743000  1.0  -0.0683
  C  C223  1  0.354100  0.241800  0.729900  1.0  -0.1447
  C  C224  1  0.323700  0.244300  0.780200  1.0  0.0267
  C  C225  1  0.333900  0.217400  0.845800  1.0  -0.1518
  C  C226  1  0.375000  0.187700  0.858700  1.0  -0.0716
  C  C227  1  0.341800  0.271800  0.661300  1.0  0.6769
  C  C228  1  0.301600  0.221500  0.900700  1.0  0.8031
  C  C229  1  0.836100  0.046200  0.073700  1.0  0.6521
  C  C230  1  0.851300  0.980900  0.092400  1.0  -0.0992
  C  C231  1  0.827100  0.927700  0.067700  1.0  0.0235
  C  C232  1  0.841800  0.867300  0.086200  1.0  -0.1481
  C  C233  1  0.880700  0.858500  0.127500  1.0  -0.0658
  C  C234  1  0.905400  0.911300  0.151100  1.0  0.054
  C  C235  1  0.889500  0.973600  0.134200  1.0  -0.0375
  C  C236  1  0.815300  0.808400  0.062000  1.0  0.7677
  C  C237  1  0.945900  0.904400  0.194900  1.0  -0.0713
  C  C238  1  0.979800  0.902400  0.229100  1.0  0.0827
  C  C239  1  0.183300  0.439900  0.955300  1.0  0.6782
  C  C240  1  0.166000  0.506300  0.953200  1.0  -0.1518
  C  C241  1  0.123200  0.519500  0.923400  1.0  -0.0191
  C  C242  1  0.107200  0.582600  0.919700  1.0  0.0107
  C  C243  1  0.134900  0.631800  0.946000  1.0  -0.0507
  C  C244  1  0.177400  0.618900  0.976100  1.0  -0.1436
  C  C245  1  0.193100  0.556700  0.980900  1.0  0.0383
  C  C246  1  0.205900  0.673700  0.004500  1.0  0.7689
  C  C247  1  0.063200  0.596500  0.888700  1.0  -0.0414
  C  C248  1  0.026800  0.613400  0.865900  1.0  0.0124
  C  C249  1  0.985100  0.635600  0.842200  1.0  0.0513
  C  C250  1  0.948800  0.656300  0.822900  1.0  0.0621
  C  C251  1  0.907100  0.684000  0.808000  1.0  0.0598
  C  C252  1  0.894500  0.711700  0.743000  1.0  -0.0683
  C  C253  1  0.854100  0.741800  0.729900  1.0  -0.1447
  C  C254  1  0.823700  0.744300  0.780200  1.0  0.0267
  C  C255  1  0.833900  0.717400  0.845800  1.0  -0.1518
  C  C256  1  0.875000  0.687700  0.858700  1.0  -0.0716
  C  C257  1  0.841800  0.771800  0.661300  1.0  0.6769
  C  C258  1  0.801600  0.721500  0.900700  1.0  0.8031
  C  C259  1  0.336100  0.546200  0.073700  1.0  0.6519
  C  C260  1  0.351300  0.480900  0.092400  1.0  -0.0992
  C  C261  1  0.327100  0.427700  0.067700  1.0  0.0235
  C  C262  1  0.341800  0.367300  0.086200  1.0  -0.1481
  C  C263  1  0.380700  0.358500  0.127500  1.0  -0.0658
  C  C264  1  0.405400  0.411300  0.151100  1.0  0.054
  C  C265  1  0.389500  0.473600  0.134200  1.0  -0.0375
  C  C266  1  0.315300  0.308400  0.062000  1.0  0.7677
  C  C267  1  0.445900  0.404400  0.194900  1.0  -0.0713
  C  C268  1  0.479800  0.402400  0.229100  1.0  0.079
  C  C269  1  0.316700  0.939900  0.544700  1.0  0.6782
  C  C270  1  0.334000  0.006300  0.546800  1.0  -0.1522
  C  C271  1  0.376800  0.019500  0.576600  1.0  -0.0184
  C  C272  1  0.392800  0.082600  0.580300  1.0  0.0113
  C  C273  1  0.365100  0.131800  0.554000  1.0  -0.0519
  C  C274  1  0.322600  0.118900  0.523900  1.0  -0.1434
  C  C275  1  0.306900  0.056700  0.519100  1.0  0.037
  C  C276  1  0.294100  0.173700  0.495500  1.0  0.7678
  C  C277  1  0.436800  0.096500  0.611300  1.0  -0.0386
  C  C278  1  0.473200  0.113400  0.634100  1.0  0.0122
  C  C279  1  0.514900  0.135600  0.657800  1.0  0.0526
  C  C280  1  0.551200  0.156300  0.677100  1.0  0.0598
  C  C281  1  0.592900  0.184000  0.692000  1.0  0.0591
  C  C282  1  0.605500  0.211700  0.757000  1.0  -0.0668
  C  C283  1  0.645900  0.241800  0.770100  1.0  -0.1442
  C  C284  1  0.676300  0.244300  0.719800  1.0  0.0287
  C  C285  1  0.666100  0.217400  0.654200  1.0  -0.1514
  C  C286  1  0.625000  0.187700  0.641300  1.0  -0.0727
  C  C287  1  0.658200  0.271800  0.838700  1.0  0.6769
  C  C288  1  0.698400  0.221500  0.599300  1.0  0.8023
  C  C289  1  0.163900  0.046200  0.426300  1.0  0.6512
  C  C290  1  0.148700  0.980900  0.407600  1.0  -0.0993
  C  C291  1  0.172900  0.927700  0.432300  1.0  0.024
  C  C292  1  0.158200  0.867300  0.413800  1.0  -0.1489
  C  C293  1  0.119300  0.858500  0.372500  1.0  -0.0662
  C  C294  1  0.094600  0.911300  0.348900  1.0  0.0516
  C  C295  1  0.110500  0.973600  0.365800  1.0  -0.0372
  C  C296  1  0.184700  0.808400  0.438000  1.0  0.7682
  C  C297  1  0.054100  0.904400  0.305100  1.0  -0.0743
  C  C298  1  0.020200  0.902400  0.270900  1.0  0.0789
  C  C299  1  0.816700  0.439900  0.544700  1.0  0.6782
  C  C300  1  0.834000  0.506300  0.546800  1.0  -0.1522
  C  C301  1  0.876800  0.519500  0.576600  1.0  -0.0184
  C  C302  1  0.892800  0.582600  0.580300  1.0  0.0113
  C  C303  1  0.865100  0.631800  0.554000  1.0  -0.0519
  C  C304  1  0.822600  0.618900  0.523900  1.0  -0.1434
  C  C305  1  0.806900  0.556700  0.519100  1.0  0.037
  C  C306  1  0.794100  0.673700  0.495500  1.0  0.7678
  C  C307  1  0.936800  0.596500  0.611300  1.0  -0.0386
  C  C308  1  0.973200  0.613400  0.634100  1.0  0.0122
  C  C309  1  0.014900  0.635600  0.657800  1.0  0.0526
  C  C310  1  0.051200  0.656300  0.677100  1.0  0.0598
  C  C311  1  0.092900  0.684000  0.692000  1.0  0.0591
  C  C312  1  0.105500  0.711700  0.757000  1.0  -0.0668
  C  C313  1  0.145900  0.741800  0.770100  1.0  -0.1442
  C  C314  1  0.176300  0.744300  0.719800  1.0  0.0287
  C  C315  1  0.166100  0.717400  0.654200  1.0  -0.1514
  C  C316  1  0.125000  0.687700  0.641300  1.0  -0.0727
  C  C317  1  0.158200  0.771800  0.838700  1.0  0.6769
  C  C318  1  0.198400  0.721500  0.599300  1.0  0.8023
  C  C319  1  0.663900  0.546200  0.426300  1.0  0.6523
  C  C320  1  0.648700  0.480900  0.407600  1.0  -0.0993
  C  C321  1  0.672900  0.427700  0.432300  1.0  0.0234
  C  C322  1  0.658200  0.367300  0.413800  1.0  -0.1489
  C  C323  1  0.619300  0.358500  0.372500  1.0  -0.0662
  C  C324  1  0.594600  0.411300  0.348900  1.0  0.0516
  C  C325  1  0.610500  0.473600  0.365800  1.0  -0.0372
  C  C326  1  0.684700  0.308400  0.438000  1.0  0.7682
  C  C327  1  0.554100  0.404400  0.305100  1.0  -0.0743
  C  C328  1  0.520200  0.402400  0.270900  1.0  0.0788
  O  O329  1  0.339900  0.104800  0.070400  1.0  -0.6107
  O  O330  1  0.277400  0.070700  0.019400  1.0  -0.5846
  O  O331  1  0.257000  0.839900  0.966700  1.0  -0.6787
  O  O332  1  0.308300  0.771400  0.003400  1.0  -0.7097
  O  O333  1  0.629080  0.723900  0.381900  1.0  -0.5569
  O  O334  1  0.697160  0.708600  0.352900  1.0  -0.5908
  O  O335  1  0.689460  0.808100  0.044600  1.0  -0.6759
  O  O336  1  0.731910  0.743300  0.111300  1.0  -0.6855
  O  O337  1  0.191200  0.943100  0.974900  1.0  -0.4967
  O  O338  1  0.148900  0.907700  0.891900  1.0  -0.5876
  O  O339  1  0.216600  0.184400  0.981500  1.0  -0.7431
  O  O340  1  0.173250  0.243400  0.912400  1.0  -0.6387
  O  O341  1  0.839900  0.604800  0.070400  1.0  -0.6112
  O  O342  1  0.777400  0.570700  0.019400  1.0  -0.5846
  O  O343  1  0.757000  0.339900  0.966700  1.0  -0.6787
  O  O344  1  0.808300  0.271400  0.003400  1.0  -0.7097
  O  O345  1  0.129080  0.223900  0.381900  1.0  -0.5569
  O  O346  1  0.197160  0.208600  0.352900  1.0  -0.5908
  O  O347  1  0.189460  0.308100  0.044600  1.0  -0.6759
  O  O348  1  0.231910  0.243300  0.111300  1.0  -0.6855
  O  O349  1  0.691200  0.443100  0.974900  1.0  -0.4967
  O  O350  1  0.648900  0.407700  0.891900  1.0  -0.5876
  O  O351  1  0.716600  0.684400  0.981500  1.0  -0.7431
  O  O352  1  0.673250  0.743400  0.912400  1.0  -0.6387
  O  O353  1  0.660100  0.104800  0.429600  1.0  -0.6116
  O  O354  1  0.722600  0.070700  0.480600  1.0  -0.5853
  O  O355  1  0.743000  0.839900  0.533300  1.0  -0.6774
  O  O356  1  0.691700  0.771400  0.496600  1.0  -0.7099
  O  O357  1  0.370920  0.723900  0.118100  1.0  -0.5579
  O  O358  1  0.302840  0.708600  0.147100  1.0  -0.5885
  O  O359  1  0.310540  0.808100  0.455400  1.0  -0.6769
  O  O360  1  0.268090  0.743300  0.388700  1.0  -0.6857
  O  O361  1  0.808800  0.943100  0.525100  1.0  -0.4978
  O  O362  1  0.851100  0.907700  0.608100  1.0  -0.5874
  O  O363  1  0.783400  0.184400  0.518500  1.0  -0.7435
  O  O364  1  0.826750  0.243400  0.587600  1.0  -0.638
  O  O365  1  0.160100  0.604800  0.429600  1.0  -0.6125
  O  O366  1  0.222600  0.570700  0.480600  1.0  -0.5853
  O  O367  1  0.243000  0.339900  0.533300  1.0  -0.6774
  O  O368  1  0.191700  0.271400  0.496600  1.0  -0.7099
  O  O369  1  0.870920  0.223900  0.118100  1.0  -0.5579
  O  O370  1  0.802840  0.208600  0.147100  1.0  -0.5885
  O  O371  1  0.810540  0.308100  0.455400  1.0  -0.6769
  O  O372  1  0.768090  0.243300  0.388700  1.0  -0.6857
  O  O373  1  0.308800  0.443100  0.525100  1.0  -0.4978
  O  O374  1  0.351100  0.407700  0.608100  1.0  -0.5874
  O  O375  1  0.283400  0.684400  0.518500  1.0  -0.7435
  O  O376  1  0.326750  0.743400  0.587600  1.0  -0.638
  O  O377  1  0.660100  0.895200  0.929600  1.0  -0.6115
  O  O378  1  0.722600  0.929300  0.980600  1.0  -0.5851
  O  O379  1  0.743000  0.160100  0.033300  1.0  -0.679
  O  O380  1  0.691700  0.228600  0.996600  1.0  -0.7107
  O  O381  1  0.370920  0.276100  0.618100  1.0  -0.5578
  O  O382  1  0.302840  0.291400  0.647100  1.0  -0.5891
  O  O383  1  0.310540  0.191900  0.955400  1.0  -0.6767
  O  O384  1  0.268090  0.256700  0.888700  1.0  -0.6851
  O  O385  1  0.808800  0.056900  0.025100  1.0  -0.4977
  O  O386  1  0.851100  0.092300  0.108100  1.0  -0.5875
  O  O387  1  0.783400  0.815600  0.018500  1.0  -0.7429
  O  O388  1  0.826750  0.756600  0.087600  1.0  -0.6381
  O  O389  1  0.160100  0.395200  0.929600  1.0  -0.6115
  O  O390  1  0.222600  0.429300  0.980600  1.0  -0.5851
  O  O391  1  0.243000  0.660100  0.033300  1.0  -0.679
  O  O392  1  0.191700  0.728600  0.996600  1.0  -0.7107
  O  O393  1  0.870920  0.776100  0.618100  1.0  -0.5578
  O  O394  1  0.802840  0.791400  0.647100  1.0  -0.5891
  O  O395  1  0.810540  0.691900  0.955400  1.0  -0.6767
  O  O396  1  0.768090  0.756700  0.888700  1.0  -0.6851
  O  O397  1  0.308800  0.556900  0.025100  1.0  -0.4981
  O  O398  1  0.351100  0.592300  0.108100  1.0  -0.5875
  O  O399  1  0.283400  0.315600  0.018500  1.0  -0.7429
  O  O400  1  0.326750  0.256600  0.087600  1.0  -0.6381
  O  O401  1  0.339900  0.895200  0.570400  1.0  -0.6117
  O  O402  1  0.277400  0.929300  0.519400  1.0  -0.5847
  O  O403  1  0.257000  0.160100  0.466700  1.0  -0.6788
  O  O404  1  0.308300  0.228600  0.503400  1.0  -0.7097
  O  O405  1  0.629080  0.276100  0.881900  1.0  -0.5572
  O  O406  1  0.697160  0.291400  0.852900  1.0  -0.5914
  O  O407  1  0.689460  0.191900  0.544600  1.0  -0.6797
  O  O408  1  0.731910  0.256700  0.611300  1.0  -0.6853
  O  O409  1  0.191200  0.056900  0.474900  1.0  -0.4967
  O  O410  1  0.148900  0.092300  0.391900  1.0  -0.5873
  O  O411  1  0.216600  0.815600  0.481500  1.0  -0.7435
  O  O412  1  0.173250  0.756600  0.412400  1.0  -0.6361
  O  O413  1  0.839900  0.395200  0.570400  1.0  -0.6117
  O  O414  1  0.777400  0.429300  0.519400  1.0  -0.5847
  O  O415  1  0.757000  0.660100  0.466700  1.0  -0.6788
  O  O416  1  0.808300  0.728600  0.503400  1.0  -0.7097
  O  O417  1  0.129080  0.776100  0.881900  1.0  -0.5572
  O  O418  1  0.197160  0.791400  0.852900  1.0  -0.5914
  O  O419  1  0.189460  0.691900  0.544600  1.0  -0.6797
  O  O420  1  0.231910  0.756700  0.611300  1.0  -0.6853
  O  O421  1  0.691200  0.556900  0.474900  1.0  -0.4968
  O  O422  1  0.648900  0.592300  0.391900  1.0  -0.5873
  O  O423  1  0.716600  0.315600  0.481500  1.0  -0.7435
  O  O424  1  0.673250  0.256600  0.412400  1.0  -0.6361
