# generated using pymatgen
data_Dy2H9(C5O2)6
_symmetry_space_group_name_H-M   'P 1'
_cell_length_a   29.95370000
_cell_length_b   21.13980000
_cell_length_c   19.43850000
_cell_angle_alpha   90.00000000
_cell_angle_beta   93.98000000
_cell_angle_gamma   90.00000000
_symmetry_Int_Tables_number   1
_chemical_formula_structural   Dy2H9(C5O2)6
_chemical_formula_sum   'Dy16 H72 C240 O96'
_cell_volume   12279.06965371
_cell_formula_units_Z   8
loop_
 _symmetry_equiv_pos_site_id
 _symmetry_equiv_pos_as_xyz
  1  'x, y, z'
loop_
 _atom_site_type_symbol
 _atom_site_label
 _atom_site_symmetry_multiplicity
 _atom_site_fract_x
 _atom_site_fract_y
 _atom_site_fract_z
 _atom_site_occupancy
 _atom_site_charge
  Dy  Dy1  1  0.276530  0.174570  0.058850  1.0  2.2511
  Dy  Dy2  1  0.181230  0.830300  0.963480  1.0  2.0833
  Dy  Dy3  1  0.776530  0.674570  0.058850  1.0  2.2511
  Dy  Dy4  1  0.681230  0.330300  0.963480  1.0  2.0833
  Dy  Dy5  1  0.723470  0.174570  0.441150  1.0  2.2508
  Dy  Dy6  1  0.818770  0.830300  0.536520  1.0  2.0963
  Dy  Dy7  1  0.223470  0.674570  0.441150  1.0  2.2508
  Dy  Dy8  1  0.318770  0.330300  0.536520  1.0  2.0963
  Dy  Dy9  1  0.723470  0.825430  0.941150  1.0  2.2511
  Dy  Dy10  1  0.818770  0.169700  0.036520  1.0  2.0961
  Dy  Dy11  1  0.223470  0.325430  0.941150  1.0  2.2511
  Dy  Dy12  1  0.318770  0.669700  0.036520  1.0  2.0961
  Dy  Dy13  1  0.276530  0.825430  0.558850  1.0  2.2517
  Dy  Dy14  1  0.181230  0.169700  0.463480  1.0  2.0837
  Dy  Dy15  1  0.776530  0.325430  0.558850  1.0  2.2517
  Dy  Dy16  1  0.681230  0.669700  0.463480  1.0  2.0837
  H  H17  1  0.394100  0.010800  0.097000  1.0  0.1076
  H  H18  1  0.374700  0.825400  0.058700  1.0  0.0821
  H  H19  1  0.279500  0.949100  0.996200  1.0  0.1009
  H  H20  1  0.583900  0.789700  0.291200  1.0  0.0874
  H  H21  1  0.702400  0.734900  0.226700  1.0  0.0926
  H  H22  1  0.616100  0.830100  0.097600  1.0  0.1056
  H  H23  1  0.197900  0.067700  0.962100  1.0  0.0956
  H  H24  1  0.106900  0.183400  0.863300  1.0  0.1056
  H  H25  1  0.092300  0.993600  0.850600  1.0  0.0855
  H  H26  1  0.894100  0.510800  0.097000  1.0  0.1076
  H  H27  1  0.874700  0.325400  0.058700  1.0  0.0821
  H  H28  1  0.779500  0.449100  0.996200  1.0  0.1009
  H  H29  1  0.083900  0.289700  0.291200  1.0  0.0874
  H  H30  1  0.202400  0.234900  0.226700  1.0  0.0926
  H  H31  1  0.116100  0.330100  0.097600  1.0  0.1056
  H  H32  1  0.697900  0.567700  0.962100  1.0  0.0956
  H  H33  1  0.606900  0.683400  0.863300  1.0  0.1056
  H  H34  1  0.592300  0.493600  0.850600  1.0  0.0855
  H  H35  1  0.605900  0.010800  0.403000  1.0  0.1076
  H  H36  1  0.625300  0.825400  0.441300  1.0  0.0823
  H  H37  1  0.720500  0.949100  0.503800  1.0  0.1003
  H  H38  1  0.416100  0.789700  0.208800  1.0  0.0873
  H  H39  1  0.297600  0.734900  0.273300  1.0  0.0918
  H  H40  1  0.383900  0.830100  0.402400  1.0  0.1049
  H  H41  1  0.802100  0.067700  0.537900  1.0  0.0952
  H  H42  1  0.893100  0.183400  0.636700  1.0  0.1059
  H  H43  1  0.907700  0.993600  0.649400  1.0  0.0857
  H  H44  1  0.105900  0.510800  0.403000  1.0  0.1076
  H  H45  1  0.125300  0.325400  0.441300  1.0  0.0823
  H  H46  1  0.220500  0.449100  0.503800  1.0  0.1003
  H  H47  1  0.916100  0.289700  0.208800  1.0  0.0873
  H  H48  1  0.797600  0.234900  0.273300  1.0  0.0918
  H  H49  1  0.883900  0.330100  0.402400  1.0  0.1049
  H  H50  1  0.302100  0.567700  0.537900  1.0  0.0952
  H  H51  1  0.393100  0.683400  0.636700  1.0  0.1059
  H  H52  1  0.407700  0.493600  0.649400  1.0  0.0857
  H  H53  1  0.605900  0.989200  0.903000  1.0  0.1072
  H  H54  1  0.625300  0.174600  0.941300  1.0  0.082
  H  H55  1  0.720500  0.050900  0.003800  1.0  0.1006
  H  H56  1  0.416100  0.210300  0.708800  1.0  0.0872
  H  H57  1  0.297600  0.265100  0.773300  1.0  0.0918
  H  H58  1  0.383900  0.169900  0.902400  1.0  0.1048
  H  H59  1  0.802100  0.932300  0.037900  1.0  0.0952
  H  H60  1  0.893100  0.816600  0.136700  1.0  0.1063
  H  H61  1  0.907700  0.006400  0.149400  1.0  0.0861
  H  H62  1  0.105900  0.489200  0.903000  1.0  0.1072
  H  H63  1  0.125300  0.674600  0.941300  1.0  0.082
  H  H64  1  0.220500  0.550900  0.003800  1.0  0.1006
  H  H65  1  0.916100  0.710300  0.708800  1.0  0.0872
  H  H66  1  0.797600  0.765100  0.773300  1.0  0.0918
  H  H67  1  0.883900  0.669900  0.902400  1.0  0.1048
  H  H68  1  0.302100  0.432300  0.037900  1.0  0.0952
  H  H69  1  0.393100  0.316600  0.136700  1.0  0.1063
  H  H70  1  0.407700  0.506400  0.149400  1.0  0.0861
  H  H71  1  0.394100  0.989200  0.597000  1.0  0.1072
  H  H72  1  0.374700  0.174600  0.558700  1.0  0.0818
  H  H73  1  0.279500  0.050900  0.496200  1.0  0.1007
  H  H74  1  0.583900  0.210300  0.791200  1.0  0.0875
  H  H75  1  0.702400  0.265100  0.726700  1.0  0.0926
  H  H76  1  0.616100  0.169900  0.597600  1.0  0.1059
  H  H77  1  0.197900  0.932300  0.462100  1.0  0.0953
  H  H78  1  0.106900  0.816600  0.363300  1.0  0.1055
  H  H79  1  0.092300  0.006400  0.350600  1.0  0.0864
  H  H80  1  0.894100  0.489200  0.597000  1.0  0.1072
  H  H81  1  0.874700  0.674600  0.558700  1.0  0.0818
  H  H82  1  0.779500  0.550900  0.496200  1.0  0.1007
  H  H83  1  0.083900  0.710300  0.791200  1.0  0.0875
  H  H84  1  0.202400  0.765100  0.726700  1.0  0.0926
  H  H85  1  0.116100  0.669900  0.597600  1.0  0.1059
  H  H86  1  0.697900  0.432300  0.462100  1.0  0.0953
  H  H87  1  0.606900  0.316600  0.363300  1.0  0.1055
  H  H88  1  0.592300  0.506400  0.350600  1.0  0.0864
  C  C89  1  0.317200  0.057500  0.043800  1.0  0.6655
  C  C90  1  0.334200  0.990900  0.046400  1.0  -0.1882
  C  C91  1  0.376700  0.977900  0.078100  1.0  -0.0973
  C  C92  1  0.393100  0.916200  0.081700  1.0  0.0269
  C  C93  1  0.364800  0.867000  0.055200  1.0  -0.1035
  C  C94  1  0.323900  0.879200  0.025100  1.0  -0.1739
  C  C95  1  0.307500  0.941100  0.018500  1.0  -0.0139
  C  C96  1  0.294500  0.825700  0.995600  1.0  0.7623
  C  C97  1  0.436000  0.902400  0.112000  1.0  -0.0174
  C  C98  1  0.472500  0.885500  0.133400  1.0  0.0281
  C  C99  1  0.514300  0.863600  0.157400  1.0  0.0025
  C  C100  1  0.550200  0.841500  0.175300  1.0  0.0318
  C  C101  1  0.592100  0.815300  0.193300  1.0  0.0637
  C  C102  1  0.603800  0.787700  0.256500  1.0  -0.0899
  C  C103  1  0.644500  0.757100  0.269300  1.0  -0.1642
  C  C104  1  0.675100  0.755300  0.217900  1.0  0.0159
  C  C105  1  0.665400  0.783800  0.153400  1.0  -0.1746
  C  C106  1  0.623700  0.812500  0.140700  1.0  -0.0781
  C  C107  1  0.656900  0.727500  0.338700  1.0  0.6719
  C  C108  1  0.698300  0.779400  0.100700  1.0  0.773
  C  C109  1  0.162000  0.955300  0.927000  1.0  0.5905
  C  C110  1  0.147700  0.019600  0.907200  1.0  -0.1395
  C  C111  1  0.172300  0.073200  0.932700  1.0  0.0259
  C  C112  1  0.158000  0.134800  0.913200  1.0  -0.1436
  C  C113  1  0.117700  0.142900  0.873300  1.0  -0.0722
  C  C114  1  0.093200  0.089400  0.848100  1.0  0.0623
  C  C115  1  0.108700  0.028700  0.866400  1.0  -0.0531
  C  C116  1  0.054500  0.096500  0.803600  1.0  -0.0463
  C  C117  1  0.019000  0.098100  0.771800  1.0  -0.0442
  C  C118  1  0.183500  0.190300  0.937800  1.0  0.7405
  C  C119  1  0.817200  0.557500  0.043800  1.0  0.6655
  C  C120  1  0.834200  0.490900  0.046400  1.0  -0.1882
  C  C121  1  0.876700  0.477900  0.078100  1.0  -0.0973
  C  C122  1  0.893100  0.416200  0.081700  1.0  0.0269
  C  C123  1  0.864800  0.367000  0.055200  1.0  -0.1035
  C  C124  1  0.823900  0.379200  0.025100  1.0  -0.1739
  C  C125  1  0.807500  0.441100  0.018500  1.0  -0.0139
  C  C126  1  0.794500  0.325700  0.995600  1.0  0.7623
  C  C127  1  0.936000  0.402400  0.112000  1.0  -0.0174
  C  C128  1  0.972500  0.385500  0.133400  1.0  0.0281
  C  C129  1  0.014300  0.363600  0.157400  1.0  0.0025
  C  C130  1  0.050200  0.341500  0.175300  1.0  0.0318
  C  C131  1  0.092100  0.315300  0.193300  1.0  0.0637
  C  C132  1  0.103800  0.287700  0.256500  1.0  -0.0899
  C  C133  1  0.144500  0.257100  0.269300  1.0  -0.1642
  C  C134  1  0.175100  0.255300  0.217900  1.0  0.0159
  C  C135  1  0.165400  0.283800  0.153400  1.0  -0.1746
  C  C136  1  0.123700  0.312500  0.140700  1.0  -0.0781
  C  C137  1  0.156900  0.227500  0.338700  1.0  0.6719
  C  C138  1  0.198300  0.279400  0.100700  1.0  0.773
  C  C139  1  0.662000  0.455300  0.927000  1.0  0.5905
  C  C140  1  0.647700  0.519600  0.907200  1.0  -0.1395
  C  C141  1  0.672300  0.573200  0.932700  1.0  0.0259
  C  C142  1  0.658000  0.634800  0.913200  1.0  -0.1436
  C  C143  1  0.617700  0.642900  0.873300  1.0  -0.0722
  C  C144  1  0.593200  0.589400  0.848100  1.0  0.0623
  C  C145  1  0.608700  0.528700  0.866400  1.0  -0.0531
  C  C146  1  0.554500  0.596500  0.803600  1.0  -0.0463
  C  C147  1  0.519000  0.598100  0.771800  1.0  -0.0442
  C  C148  1  0.683500  0.690300  0.937800  1.0  0.7405
  C  C149  1  0.682800  0.057500  0.456200  1.0  0.6654
  C  C150  1  0.665800  0.990900  0.453600  1.0  -0.1879
  C  C151  1  0.623300  0.977900  0.421900  1.0  -0.0982
  C  C152  1  0.606900  0.916200  0.418300  1.0  0.0275
  C  C153  1  0.635200  0.867000  0.444800  1.0  -0.1052
  C  C154  1  0.676100  0.879200  0.474900  1.0  -0.1735
  C  C155  1  0.692500  0.941100  0.481500  1.0  -0.0143
  C  C156  1  0.705500  0.825700  0.504400  1.0  0.7635
  C  C157  1  0.564000  0.902400  0.388000  1.0  -0.0197
  C  C158  1  0.527500  0.885500  0.366600  1.0  0.0291
  C  C159  1  0.485700  0.863600  0.342600  1.0  0.0024
  C  C160  1  0.449800  0.841500  0.324700  1.0  0.0337
  C  C161  1  0.407900  0.815300  0.306700  1.0  0.0644
  C  C162  1  0.396200  0.787700  0.243500  1.0  -0.0909
  C  C163  1  0.355500  0.757100  0.230700  1.0  -0.165
  C  C164  1  0.324900  0.755300  0.282100  1.0  0.0139
  C  C165  1  0.334600  0.783800  0.346600  1.0  -0.1748
  C  C166  1  0.376300  0.812500  0.359300  1.0  -0.077
  C  C167  1  0.343100  0.727500  0.161300  1.0  0.6715
  C  C168  1  0.301700  0.779400  0.399300  1.0  0.7751
  C  C169  1  0.838000  0.955300  0.573000  1.0  0.5906
  C  C170  1  0.852300  0.019600  0.592800  1.0  -0.1405
  C  C171  1  0.827700  0.073200  0.567300  1.0  0.0255
  C  C172  1  0.842000  0.134800  0.586800  1.0  -0.1434
  C  C173  1  0.882300  0.142900  0.626700  1.0  -0.0717
  C  C174  1  0.906800  0.089400  0.651900  1.0  0.0631
  C  C175  1  0.891300  0.028700  0.633600  1.0  -0.0515
  C  C176  1  0.945500  0.096500  0.696400  1.0  -0.0447
  C  C177  1  0.981000  0.098100  0.728200  1.0  -0.0443
  C  C178  1  0.816500  0.190300  0.562200  1.0  0.7413
  C  C179  1  0.182800  0.557500  0.456200  1.0  0.6654
  C  C180  1  0.165800  0.490900  0.453600  1.0  -0.1879
  C  C181  1  0.123300  0.477900  0.421900  1.0  -0.0982
  C  C182  1  0.106900  0.416200  0.418300  1.0  0.0275
  C  C183  1  0.135200  0.367000  0.444800  1.0  -0.1052
  C  C184  1  0.176100  0.379200  0.474900  1.0  -0.1735
  C  C185  1  0.192500  0.441100  0.481500  1.0  -0.0143
  C  C186  1  0.205500  0.325700  0.504400  1.0  0.7635
  C  C187  1  0.064000  0.402400  0.388000  1.0  -0.0197
  C  C188  1  0.027500  0.385500  0.366600  1.0  0.0291
  C  C189  1  0.985700  0.363600  0.342600  1.0  0.0024
  C  C190  1  0.949800  0.341500  0.324700  1.0  0.0337
  C  C191  1  0.907900  0.315300  0.306700  1.0  0.0644
  C  C192  1  0.896200  0.287700  0.243500  1.0  -0.0909
  C  C193  1  0.855500  0.257100  0.230700  1.0  -0.165
  C  C194  1  0.824900  0.255300  0.282100  1.0  0.0139
  C  C195  1  0.834600  0.283800  0.346600  1.0  -0.1748
  C  C196  1  0.876300  0.312500  0.359300  1.0  -0.077
  C  C197  1  0.843100  0.227500  0.161300  1.0  0.6715
  C  C198  1  0.801700  0.279400  0.399300  1.0  0.7751
  C  C199  1  0.338000  0.455300  0.573000  1.0  0.5906
  C  C200  1  0.352300  0.519600  0.592800  1.0  -0.1405
  C  C201  1  0.327700  0.573200  0.567300  1.0  0.0255
  C  C202  1  0.342000  0.634800  0.586800  1.0  -0.1434
  C  C203  1  0.382300  0.642900  0.626700  1.0  -0.0717
  C  C204  1  0.406800  0.589400  0.651900  1.0  0.0631
  C  C205  1  0.391300  0.528700  0.633600  1.0  -0.0515
  C  C206  1  0.445500  0.596500  0.696400  1.0  -0.0447
  C  C207  1  0.481000  0.598100  0.728200  1.0  -0.0443
  C  C208  1  0.316500  0.690300  0.562200  1.0  0.7413
  C  C209  1  0.682800  0.942500  0.956200  1.0  0.6658
  C  C210  1  0.665800  0.009100  0.953600  1.0  -0.1876
  C  C211  1  0.623300  0.022100  0.921900  1.0  -0.0978
  C  C212  1  0.606900  0.083800  0.918300  1.0  0.0274
  C  C213  1  0.635200  0.133000  0.944800  1.0  -0.1046
  C  C214  1  0.676100  0.120800  0.974900  1.0  -0.1735
  C  C215  1  0.692500  0.058900  0.981500  1.0  -0.0145
  C  C216  1  0.705500  0.174300  0.004400  1.0  0.7623
  C  C217  1  0.564000  0.097600  0.888000  1.0  -0.0193
  C  C218  1  0.527500  0.114500  0.866600  1.0  0.0284
  C  C219  1  0.485700  0.136400  0.842600  1.0  0.0034
  C  C220  1  0.449800  0.158500  0.824700  1.0  0.0342
  C  C221  1  0.407900  0.184700  0.806700  1.0  0.0646
  C  C222  1  0.396200  0.212300  0.743500  1.0  -0.0907
  C  C223  1  0.355500  0.242900  0.730700  1.0  -0.1647
  C  C224  1  0.324900  0.244700  0.782100  1.0  0.0139
  C  C225  1  0.334600  0.216200  0.846600  1.0  -0.1748
  C  C226  1  0.376300  0.187500  0.859300  1.0  -0.0766
  C  C227  1  0.343100  0.272500  0.661300  1.0  0.6718
  C  C228  1  0.301700  0.220600  0.899300  1.0  0.7748
  C  C229  1  0.838000  0.044700  0.073000  1.0  0.589
  C  C230  1  0.852300  0.980400  0.092800  1.0  -0.1402
  C  C231  1  0.827700  0.926800  0.067300  1.0  0.0255
  C  C232  1  0.842000  0.865200  0.086800  1.0  -0.1435
  C  C233  1  0.882300  0.857100  0.126700  1.0  -0.071
  C  C234  1  0.906800  0.910600  0.151900  1.0  0.0634
  C  C235  1  0.891300  0.971300  0.133600  1.0  -0.052
  C  C236  1  0.945500  0.903500  0.196400  1.0  -0.0444
  C  C237  1  0.981000  0.901900  0.228200  1.0  -0.0442
  C  C238  1  0.816500  0.809700  0.062200  1.0  0.7413
  C  C239  1  0.182800  0.442500  0.956200  1.0  0.6658
  C  C240  1  0.165800  0.509100  0.953600  1.0  -0.1876
  C  C241  1  0.123300  0.522100  0.921900  1.0  -0.0978
  C  C242  1  0.106900  0.583800  0.918300  1.0  0.0274
  C  C243  1  0.135200  0.633000  0.944800  1.0  -0.1046
  C  C244  1  0.176100  0.620800  0.974900  1.0  -0.1735
  C  C245  1  0.192500  0.558900  0.981500  1.0  -0.0145
  C  C246  1  0.205500  0.674300  0.004400  1.0  0.7623
  C  C247  1  0.064000  0.597600  0.888000  1.0  -0.0193
  C  C248  1  0.027500  0.614500  0.866600  1.0  0.0284
  C  C249  1  0.985700  0.636400  0.842600  1.0  0.0034
  C  C250  1  0.949800  0.658500  0.824700  1.0  0.0342
  C  C251  1  0.907900  0.684700  0.806700  1.0  0.0646
  C  C252  1  0.896200  0.712300  0.743500  1.0  -0.0907
  C  C253  1  0.855500  0.742900  0.730700  1.0  -0.1647
  C  C254  1  0.824900  0.744700  0.782100  1.0  0.0139
  C  C255  1  0.834600  0.716200  0.846600  1.0  -0.1748
  C  C256  1  0.876300  0.687500  0.859300  1.0  -0.0766
  C  C257  1  0.843100  0.772500  0.661300  1.0  0.6718
  C  C258  1  0.801700  0.720600  0.899300  1.0  0.7748
  C  C259  1  0.338000  0.544700  0.073000  1.0  0.589
  C  C260  1  0.352300  0.480400  0.092800  1.0  -0.1402
  C  C261  1  0.327700  0.426800  0.067300  1.0  0.0255
  C  C262  1  0.342000  0.365200  0.086800  1.0  -0.1435
  C  C263  1  0.382300  0.357100  0.126700  1.0  -0.071
  C  C264  1  0.406800  0.410600  0.151900  1.0  0.0634
  C  C265  1  0.391300  0.471300  0.133600  1.0  -0.052
  C  C266  1  0.445500  0.403500  0.196400  1.0  -0.0444
  C  C267  1  0.481000  0.401900  0.228200  1.0  -0.0442
  C  C268  1  0.316500  0.309700  0.062200  1.0  0.7413
  C  C269  1  0.317200  0.942500  0.543800  1.0  0.6659
  C  C270  1  0.334200  0.009100  0.546400  1.0  -0.1882
  C  C271  1  0.376700  0.022100  0.578100  1.0  -0.0967
  C  C272  1  0.393100  0.083800  0.581700  1.0  0.0272
  C  C273  1  0.364800  0.133000  0.555200  1.0  -0.1045
  C  C274  1  0.323900  0.120800  0.525100  1.0  -0.1734
  C  C275  1  0.307500  0.058900  0.518500  1.0  -0.0139
  C  C276  1  0.294500  0.174300  0.495600  1.0  0.7623
  C  C277  1  0.436000  0.097600  0.612000  1.0  -0.0173
  C  C278  1  0.472500  0.114500  0.633400  1.0  0.0277
  C  C279  1  0.514300  0.136400  0.657400  1.0  0.0035
  C  C280  1  0.550200  0.158500  0.675300  1.0  0.0324
  C  C281  1  0.592100  0.184700  0.693300  1.0  0.0634
  C  C282  1  0.603800  0.212300  0.756500  1.0  -0.0892
  C  C283  1  0.644500  0.242900  0.769300  1.0  -0.1643
  C  C284  1  0.675100  0.244700  0.717900  1.0  0.0155
  C  C285  1  0.665400  0.216200  0.653400  1.0  -0.1746
  C  C286  1  0.623700  0.187500  0.640700  1.0  -0.078
  C  C287  1  0.656900  0.272500  0.838700  1.0  0.672
  C  C288  1  0.698300  0.220600  0.600700  1.0  0.7729
  C  C289  1  0.162000  0.044700  0.427000  1.0  0.5889
  C  C290  1  0.147700  0.980400  0.407200  1.0  -0.1394
  C  C291  1  0.172300  0.926800  0.432700  1.0  0.0259
  C  C292  1  0.158000  0.865200  0.413200  1.0  -0.1434
  C  C293  1  0.117700  0.857100  0.373300  1.0  -0.0714
  C  C294  1  0.093200  0.910600  0.348100  1.0  0.0622
  C  C295  1  0.108700  0.971300  0.366400  1.0  -0.0523
  C  C296  1  0.054500  0.903500  0.303600  1.0  -0.0464
  C  C297  1  0.019000  0.901900  0.271800  1.0  -0.0443
  C  C298  1  0.183500  0.809700  0.437800  1.0  0.7404
  C  C299  1  0.817200  0.442500  0.543800  1.0  0.6659
  C  C300  1  0.834200  0.509100  0.546400  1.0  -0.1882
  C  C301  1  0.876700  0.522100  0.578100  1.0  -0.0967
  C  C302  1  0.893100  0.583800  0.581700  1.0  0.0272
  C  C303  1  0.864800  0.633000  0.555200  1.0  -0.1045
  C  C304  1  0.823900  0.620800  0.525100  1.0  -0.1734
  C  C305  1  0.807500  0.558900  0.518500  1.0  -0.0139
  C  C306  1  0.794500  0.674300  0.495600  1.0  0.7623
  C  C307  1  0.936000  0.597600  0.612000  1.0  -0.0173
  C  C308  1  0.972500  0.614500  0.633400  1.0  0.0277
  C  C309  1  0.014300  0.636400  0.657400  1.0  0.0035
  C  C310  1  0.050200  0.658500  0.675300  1.0  0.0324
  C  C311  1  0.092100  0.684700  0.693300  1.0  0.0634
  C  C312  1  0.103800  0.712300  0.756500  1.0  -0.0892
  C  C313  1  0.144500  0.742900  0.769300  1.0  -0.1643
  C  C314  1  0.175100  0.744700  0.717900  1.0  0.0155
  C  C315  1  0.165400  0.716200  0.653400  1.0  -0.1746
  C  C316  1  0.123700  0.687500  0.640700  1.0  -0.078
  C  C317  1  0.156900  0.772500  0.838700  1.0  0.672
  C  C318  1  0.198300  0.720600  0.600700  1.0  0.7729
  C  C319  1  0.662000  0.544700  0.427000  1.0  0.5889
  C  C320  1  0.647700  0.480400  0.407200  1.0  -0.1394
  C  C321  1  0.672300  0.426800  0.432700  1.0  0.0259
  C  C322  1  0.658000  0.365200  0.413200  1.0  -0.1434
  C  C323  1  0.617700  0.357100  0.373300  1.0  -0.0714
  C  C324  1  0.593200  0.410600  0.348100  1.0  0.0622
  C  C325  1  0.608700  0.471300  0.366400  1.0  -0.0523
  C  C326  1  0.554500  0.403500  0.303600  1.0  -0.0464
  C  C327  1  0.519000  0.401900  0.271800  1.0  -0.0443
  C  C328  1  0.683500  0.309700  0.437800  1.0  0.7404
  O  O329  1  0.340300  0.101400  0.073000  1.0  -0.7184
  O  O330  1  0.280000  0.069000  0.015500  1.0  -0.6449
  O  O331  1  0.257300  0.840100  0.968900  1.0  -0.7266
  O  O332  1  0.309200  0.771800  0.001600  1.0  -0.7171
  O  O333  1  0.627800  0.722900  0.381300  1.0  -0.5849
  O  O334  1  0.695920  0.708500  0.351500  1.0  -0.6032
  O  O335  1  0.688860  0.808800  0.044700  1.0  -0.723
  O  O336  1  0.731270  0.745500  0.113200  1.0  -0.7106
  O  O337  1  0.146200  0.909700  0.893000  1.0  -0.6203
  O  O338  1  0.191000  0.944900  0.973700  1.0  -0.5303
  O  O339  1  0.215600  0.184100  0.981400  1.0  -0.7881
  O  O340  1  0.171150  0.243900  0.912200  1.0  -0.6944
  O  O341  1  0.840300  0.601400  0.073000  1.0  -0.7176
  O  O342  1  0.780000  0.569000  0.015500  1.0  -0.6449
  O  O343  1  0.757300  0.340100  0.968900  1.0  -0.7266
  O  O344  1  0.809200  0.271800  0.001600  1.0  -0.7171
  O  O345  1  0.127800  0.222900  0.381300  1.0  -0.5849
  O  O346  1  0.195920  0.208500  0.351500  1.0  -0.6032
  O  O347  1  0.188860  0.308800  0.044700  1.0  -0.7232
  O  O348  1  0.231270  0.245500  0.113200  1.0  -0.7106
  O  O349  1  0.646200  0.409700  0.893000  1.0  -0.6203
  O  O350  1  0.691000  0.444900  0.973700  1.0  -0.5303
  O  O351  1  0.715600  0.684100  0.981400  1.0  -0.7879
  O  O352  1  0.671150  0.743900  0.912200  1.0  -0.6956
  O  O353  1  0.659700  0.101400  0.427000  1.0  -0.723
  O  O354  1  0.720000  0.069000  0.484500  1.0  -0.6448
  O  O355  1  0.742700  0.840100  0.531100  1.0  -0.7242
  O  O356  1  0.690800  0.771800  0.498400  1.0  -0.7181
  O  O357  1  0.372200  0.722900  0.118700  1.0  -0.587
  O  O358  1  0.304080  0.708500  0.148500  1.0  -0.6022
  O  O359  1  0.311140  0.808800  0.455300  1.0  -0.7235
  O  O360  1  0.268730  0.745500  0.386800  1.0  -0.7108
  O  O361  1  0.853800  0.909700  0.607000  1.0  -0.6192
  O  O362  1  0.809000  0.944900  0.526300  1.0  -0.5322
  O  O363  1  0.784400  0.184100  0.518600  1.0  -0.7887
  O  O364  1  0.828850  0.243900  0.587800  1.0  -0.6929
  O  O365  1  0.159700  0.601400  0.427000  1.0  -0.7221
  O  O366  1  0.220000  0.569000  0.484500  1.0  -0.6448
  O  O367  1  0.242700  0.340100  0.531100  1.0  -0.7242
  O  O368  1  0.190800  0.271800  0.498400  1.0  -0.7181
  O  O369  1  0.872200  0.222900  0.118700  1.0  -0.587
  O  O370  1  0.804080  0.208500  0.148500  1.0  -0.6022
  O  O371  1  0.811140  0.308800  0.455300  1.0  -0.7237
  O  O372  1  0.768730  0.245500  0.386800  1.0  -0.7108
  O  O373  1  0.353800  0.409700  0.607000  1.0  -0.6192
  O  O374  1  0.309000  0.444900  0.526300  1.0  -0.5322
  O  O375  1  0.284400  0.684100  0.518600  1.0  -0.7885
  O  O376  1  0.328850  0.743900  0.587800  1.0  -0.694
  O  O377  1  0.659700  0.898600  0.927000  1.0  -0.7217
  O  O378  1  0.720000  0.931000  0.984500  1.0  -0.6439
  O  O379  1  0.742700  0.159900  0.031100  1.0  -0.7245
  O  O380  1  0.690800  0.228200  0.998400  1.0  -0.7195
  O  O381  1  0.372200  0.277100  0.618700  1.0  -0.5869
  O  O382  1  0.304080  0.291500  0.648500  1.0  -0.6029
  O  O383  1  0.311140  0.191200  0.955300  1.0  -0.7227
  O  O384  1  0.268730  0.254500  0.886800  1.0  -0.7102
  O  O385  1  0.853800  0.090300  0.107000  1.0  -0.6201
  O  O386  1  0.809000  0.055100  0.026300  1.0  -0.5318
  O  O387  1  0.784400  0.815900  0.018600  1.0  -0.7887
  O  O388  1  0.828850  0.756100  0.087800  1.0  -0.6952
  O  O389  1  0.159700  0.398600  0.927000  1.0  -0.7211
  O  O390  1  0.220000  0.431000  0.984500  1.0  -0.6439
  O  O391  1  0.242700  0.659900  0.031100  1.0  -0.7245
  O  O392  1  0.190800  0.728200  0.998400  1.0  -0.7195
  O  O393  1  0.872200  0.777100  0.618700  1.0  -0.5869
  O  O394  1  0.804080  0.791500  0.648500  1.0  -0.6029
  O  O395  1  0.811140  0.691200  0.955300  1.0  -0.7231
  O  O396  1  0.768730  0.754500  0.886800  1.0  -0.7102
  O  O397  1  0.353800  0.590300  0.107000  1.0  -0.6201
  O  O398  1  0.309000  0.555100  0.026300  1.0  -0.5318
  O  O399  1  0.284400  0.315900  0.018600  1.0  -0.7885
  O  O400  1  0.328850  0.256100  0.087800  1.0  -0.6977
  O  O401  1  0.340300  0.898600  0.573000  1.0  -0.7186
  O  O402  1  0.280000  0.931000  0.515500  1.0  -0.6447
  O  O403  1  0.257300  0.159900  0.468900  1.0  -0.7268
  O  O404  1  0.309200  0.228200  0.501600  1.0  -0.7185
  O  O405  1  0.627800  0.277100  0.881300  1.0  -0.5853
  O  O406  1  0.695920  0.291500  0.851500  1.0  -0.6039
  O  O407  1  0.688860  0.191200  0.544700  1.0  -0.7222
  O  O408  1  0.731270  0.254500  0.613200  1.0  -0.7106
  O  O409  1  0.146200  0.090300  0.393000  1.0  -0.6222
  O  O410  1  0.191000  0.055100  0.473700  1.0  -0.5304
  O  O411  1  0.215600  0.815900  0.481400  1.0  -0.7892
  O  O412  1  0.171150  0.756100  0.412200  1.0  -0.6953
  O  O413  1  0.840300  0.398600  0.573000  1.0  -0.7182
  O  O414  1  0.780000  0.431000  0.515500  1.0  -0.6447
  O  O415  1  0.757300  0.659900  0.468900  1.0  -0.7268
  O  O416  1  0.809200  0.728200  0.501600  1.0  -0.7185
  O  O417  1  0.127800  0.777100  0.881300  1.0  -0.5853
  O  O418  1  0.195920  0.791500  0.851500  1.0  -0.6039
  O  O419  1  0.188860  0.691200  0.544700  1.0  -0.7225
  O  O420  1  0.231270  0.754500  0.613200  1.0  -0.7106
  O  O421  1  0.646200  0.590300  0.393000  1.0  -0.6222
  O  O422  1  0.691000  0.555100  0.473700  1.0  -0.5304
  O  O423  1  0.715600  0.315900  0.481400  1.0  -0.789
  O  O424  1  0.671150  0.256100  0.412200  1.0  -0.6978
