# generated using pymatgen
data_Er2H9(C5O2)6
_symmetry_space_group_name_H-M   'P 1'
_cell_length_a   29.92580000
_cell_length_b   21.04180000
_cell_length_c   19.43260000
_cell_angle_alpha   90.00000000
_cell_angle_beta   94.00000000
_cell_angle_gamma   90.00000000
_symmetry_Int_Tables_number   1
_chemical_formula_structural   Er2H9(C5O2)6
_chemical_formula_sum   'Er16 H72 C240 O96'
_cell_volume   12206.75867113
_cell_formula_units_Z   8
loop_
 _symmetry_equiv_pos_site_id
 _symmetry_equiv_pos_as_xyz
  1  'x, y, z'
loop_
 _atom_site_type_symbol
 _atom_site_label
 _atom_site_symmetry_multiplicity
 _atom_site_fract_x
 _atom_site_fract_y
 _atom_site_fract_z
 _atom_site_occupancy
 _atom_site_charge
  Er  Er1  1  0.276590  0.175000  0.057660  1.0  1.5288
  Er  Er2  1  0.181990  0.829990  0.962550  1.0  1.4898
  Er  Er3  1  0.776590  0.675000  0.057660  1.0  1.5288
  Er  Er4  1  0.681990  0.329990  0.962550  1.0  1.4898
  Er  Er5  1  0.723410  0.175000  0.442340  1.0  1.5285
  Er  Er6  1  0.818010  0.829990  0.537450  1.0  1.4925
  Er  Er7  1  0.223410  0.675000  0.442340  1.0  1.5285
  Er  Er8  1  0.318010  0.329990  0.537450  1.0  1.4925
  Er  Er9  1  0.723410  0.825000  0.942340  1.0  1.5291
  Er  Er10  1  0.818010  0.170010  0.037450  1.0  1.4921
  Er  Er11  1  0.223410  0.325000  0.942340  1.0  1.5291
  Er  Er12  1  0.318010  0.670010  0.037450  1.0  1.4921
  Er  Er13  1  0.276590  0.825000  0.557660  1.0  1.5291
  Er  Er14  1  0.181990  0.170010  0.462550  1.0  1.4914
  Er  Er15  1  0.776590  0.325000  0.557660  1.0  1.5291
  Er  Er16  1  0.681990  0.670010  0.462550  1.0  1.4914
  H  H17  1  0.394400  0.011100  0.095800  1.0  0.1262
  H  H18  1  0.375300  0.825500  0.054700  1.0  0.1129
  H  H19  1  0.280000  0.950000  0.995600  1.0  0.1127
  H  H20  1  0.584700  0.791300  0.292100  1.0  0.1137
  H  H21  1  0.701600  0.732900  0.226800  1.0  0.1096
  H  H22  1  0.615000  0.830800  0.099000  1.0  0.1258
  H  H23  1  0.198900  0.067400  0.958900  1.0  0.1196
  H  H24  1  0.109000  0.183900  0.860900  1.0  0.1271
  H  H25  1  0.094100  0.991000  0.849200  1.0  0.1167
  H  H26  1  0.894400  0.511100  0.095800  1.0  0.1262
  H  H27  1  0.875300  0.325500  0.054700  1.0  0.1129
  H  H28  1  0.780000  0.450000  0.995600  1.0  0.1127
  H  H29  1  0.084700  0.291300  0.292100  1.0  0.1137
  H  H30  1  0.201600  0.232900  0.226800  1.0  0.1096
  H  H31  1  0.115000  0.330800  0.099000  1.0  0.1258
  H  H32  1  0.698900  0.567400  0.958900  1.0  0.1196
  H  H33  1  0.609000  0.683900  0.860900  1.0  0.1271
  H  H34  1  0.594100  0.491000  0.849200  1.0  0.1167
  H  H35  1  0.605600  0.011100  0.404200  1.0  0.126
  H  H36  1  0.624700  0.825500  0.445300  1.0  0.1127
  H  H37  1  0.720000  0.950000  0.504400  1.0  0.1123
  H  H38  1  0.415300  0.791300  0.207900  1.0  0.1136
  H  H39  1  0.298400  0.732900  0.273200  1.0  0.1097
  H  H40  1  0.385000  0.830800  0.401000  1.0  0.1264
  H  H41  1  0.801100  0.067400  0.541100  1.0  0.1193
  H  H42  1  0.891000  0.183900  0.639100  1.0  0.1273
  H  H43  1  0.905900  0.991000  0.650800  1.0  0.1165
  H  H44  1  0.105600  0.511100  0.404200  1.0  0.126
  H  H45  1  0.124700  0.325500  0.445300  1.0  0.1127
  H  H46  1  0.220000  0.450000  0.504400  1.0  0.1123
  H  H47  1  0.915300  0.291300  0.207900  1.0  0.1136
  H  H48  1  0.798400  0.232900  0.273200  1.0  0.1097
  H  H49  1  0.885000  0.330800  0.401000  1.0  0.1264
  H  H50  1  0.301100  0.567400  0.541100  1.0  0.1193
  H  H51  1  0.391000  0.683900  0.639100  1.0  0.1273
  H  H52  1  0.405900  0.491000  0.650800  1.0  0.1165
  H  H53  1  0.605600  0.988900  0.904200  1.0  0.1257
  H  H54  1  0.624700  0.174500  0.945300  1.0  0.1125
  H  H55  1  0.720000  0.050000  0.004400  1.0  0.1126
  H  H56  1  0.415300  0.208700  0.707900  1.0  0.1137
  H  H57  1  0.298400  0.267100  0.773200  1.0  0.1097
  H  H58  1  0.385000  0.169200  0.901000  1.0  0.1266
  H  H59  1  0.801100  0.932600  0.041100  1.0  0.1195
  H  H60  1  0.891000  0.816100  0.139100  1.0  0.1269
  H  H61  1  0.905900  0.009000  0.150800  1.0  0.1171
  H  H62  1  0.105600  0.488900  0.904200  1.0  0.1257
  H  H63  1  0.124700  0.674500  0.945300  1.0  0.1125
  H  H64  1  0.220000  0.550000  0.004400  1.0  0.1126
  H  H65  1  0.915300  0.708700  0.707900  1.0  0.1137
  H  H66  1  0.798400  0.767100  0.773200  1.0  0.1097
  H  H67  1  0.885000  0.669200  0.901000  1.0  0.1266
  H  H68  1  0.301100  0.432600  0.041100  1.0  0.1195
  H  H69  1  0.391000  0.316100  0.139100  1.0  0.1269
  H  H70  1  0.405900  0.509000  0.150800  1.0  0.1171
  H  H71  1  0.394400  0.988900  0.595800  1.0  0.1259
  H  H72  1  0.375300  0.174500  0.554700  1.0  0.1127
  H  H73  1  0.280000  0.050000  0.495600  1.0  0.1125
  H  H74  1  0.584700  0.208700  0.792100  1.0  0.1133
  H  H75  1  0.701600  0.267100  0.726800  1.0  0.1099
  H  H76  1  0.615000  0.169200  0.599000  1.0  0.1264
  H  H77  1  0.198900  0.932600  0.458900  1.0  0.1194
  H  H78  1  0.109000  0.816100  0.360900  1.0  0.1266
  H  H79  1  0.094100  0.009000  0.349200  1.0  0.1172
  H  H80  1  0.894400  0.488900  0.595800  1.0  0.1259
  H  H81  1  0.875300  0.674500  0.554700  1.0  0.1127
  H  H82  1  0.780000  0.550000  0.495600  1.0  0.1125
  H  H83  1  0.084700  0.708700  0.792100  1.0  0.1133
  H  H84  1  0.201600  0.767100  0.726800  1.0  0.1099
  H  H85  1  0.115000  0.669200  0.599000  1.0  0.1264
  H  H86  1  0.698900  0.432600  0.458900  1.0  0.1194
  H  H87  1  0.609000  0.316100  0.360900  1.0  0.1266
  H  H88  1  0.594100  0.509000  0.349200  1.0  0.1172
  C  C89  1  0.317200  0.058500  0.043100  1.0  0.6876
  C  C90  1  0.333700  0.991500  0.046600  1.0  -0.1576
  C  C91  1  0.376600  0.978100  0.077400  1.0  -0.0998
  C  C92  1  0.392600  0.916900  0.080800  1.0  0.0219
  C  C93  1  0.364800  0.867100  0.053000  1.0  -0.0354
  C  C94  1  0.323100  0.879700  0.023900  1.0  -0.1109
  C  C95  1  0.307800  0.941600  0.018300  1.0  0.006
  C  C96  1  0.294600  0.826000  0.995000  1.0  0.7866
  C  C97  1  0.436000  0.901700  0.111300  1.0  -0.0502
  C  C98  1  0.472900  0.885800  0.133100  1.0  0.0219
  C  C99  1  0.514100  0.865200  0.158600  1.0  0.0497
  C  C100  1  0.550100  0.844100  0.176800  1.0  -0.0482
  C  C101  1  0.593500  0.814600  0.192300  1.0  -0.0221
  C  C102  1  0.604500  0.788400  0.257400  1.0  -0.0203
  C  C103  1  0.645600  0.758000  0.269300  1.0  -0.1673
  C  C104  1  0.674900  0.755100  0.218200  1.0  0.0287
  C  C105  1  0.666400  0.784300  0.153000  1.0  -0.1415
  C  C106  1  0.623200  0.812900  0.141800  1.0  -0.0942
  C  C107  1  0.657900  0.728500  0.338400  1.0  0.6773
  C  C108  1  0.698400  0.778800  0.100200  1.0  0.7962
  C  C109  1  0.163100  0.954400  0.925300  1.0  0.6512
  C  C110  1  0.147400  0.019400  0.907200  1.0  -0.0998
  C  C111  1  0.172500  0.072900  0.931300  1.0  0.0323
  C  C112  1  0.157500  0.134100  0.913300  1.0  -0.1273
  C  C113  1  0.118700  0.143100  0.872600  1.0  -0.0605
  C  C114  1  0.093800  0.089900  0.848600  1.0  -0.0146
  C  C115  1  0.109800  0.026500  0.866200  1.0  -0.0159
  C  C116  1  0.184000  0.191600  0.937400  1.0  0.7751
  C  C117  1  0.053800  0.095800  0.803200  1.0  0.1625
  C  C118  1  0.019800  0.098000  0.772100  1.0  0.2157
  C  C119  1  0.817200  0.558500  0.043100  1.0  0.6876
  C  C120  1  0.833700  0.491500  0.046600  1.0  -0.1576
  C  C121  1  0.876600  0.478100  0.077400  1.0  -0.0998
  C  C122  1  0.892600  0.416900  0.080800  1.0  0.0219
  C  C123  1  0.864800  0.367100  0.053000  1.0  -0.0354
  C  C124  1  0.823100  0.379700  0.023900  1.0  -0.1109
  C  C125  1  0.807800  0.441600  0.018300  1.0  0.006
  C  C126  1  0.794600  0.326000  0.995000  1.0  0.7866
  C  C127  1  0.936000  0.401700  0.111300  1.0  -0.0502
  C  C128  1  0.972900  0.385800  0.133100  1.0  0.0219
  C  C129  1  0.014100  0.365200  0.158600  1.0  0.0497
  C  C130  1  0.050100  0.344100  0.176800  1.0  -0.0482
  C  C131  1  0.093500  0.314600  0.192300  1.0  -0.0221
  C  C132  1  0.104500  0.288400  0.257400  1.0  -0.0203
  C  C133  1  0.145600  0.258000  0.269300  1.0  -0.1673
  C  C134  1  0.174900  0.255100  0.218200  1.0  0.0287
  C  C135  1  0.166400  0.284300  0.153000  1.0  -0.1415
  C  C136  1  0.123200  0.312900  0.141800  1.0  -0.0942
  C  C137  1  0.157900  0.228500  0.338400  1.0  0.6773
  C  C138  1  0.198400  0.278800  0.100200  1.0  0.7962
  C  C139  1  0.663100  0.454400  0.925300  1.0  0.6512
  C  C140  1  0.647400  0.519400  0.907200  1.0  -0.0998
  C  C141  1  0.672500  0.572900  0.931300  1.0  0.0323
  C  C142  1  0.657500  0.634100  0.913300  1.0  -0.1273
  C  C143  1  0.618700  0.643100  0.872600  1.0  -0.0605
  C  C144  1  0.593800  0.589900  0.848600  1.0  -0.0146
  C  C145  1  0.609800  0.526500  0.866200  1.0  -0.0159
  C  C146  1  0.684000  0.691600  0.937400  1.0  0.7751
  C  C147  1  0.553800  0.595800  0.803200  1.0  0.1625
  C  C148  1  0.519800  0.598000  0.772100  1.0  0.2157
  C  C149  1  0.682800  0.058500  0.456900  1.0  0.6875
  C  C150  1  0.666300  0.991500  0.453400  1.0  -0.1576
  C  C151  1  0.623400  0.978100  0.422600  1.0  -0.1005
  C  C152  1  0.607400  0.916900  0.419200  1.0  0.0208
  C  C153  1  0.635200  0.867100  0.447000  1.0  -0.0366
  C  C154  1  0.676900  0.879700  0.476100  1.0  -0.1105
  C  C155  1  0.692200  0.941600  0.481700  1.0  0.007
  C  C156  1  0.705400  0.826000  0.505000  1.0  0.7889
  C  C157  1  0.564000  0.901700  0.388700  1.0  -0.0542
  C  C158  1  0.527100  0.885800  0.366900  1.0  0.0231
  C  C159  1  0.485900  0.865200  0.341400  1.0  0.0482
  C  C160  1  0.449900  0.844100  0.323200  1.0  -0.0467
  C  C161  1  0.406500  0.814600  0.307700  1.0  -0.02
  C  C162  1  0.395500  0.788400  0.242600  1.0  -0.0209
  C  C163  1  0.354400  0.758000  0.230700  1.0  -0.1682
  C  C164  1  0.325100  0.755100  0.281800  1.0  0.0284
  C  C165  1  0.333600  0.784300  0.347000  1.0  -0.1416
  C  C166  1  0.376800  0.812900  0.358200  1.0  -0.0901
  C  C167  1  0.342100  0.728500  0.161600  1.0  0.6771
  C  C168  1  0.301600  0.778800  0.399800  1.0  0.7964
  C  C169  1  0.836900  0.954400  0.574700  1.0  0.6514
  C  C170  1  0.852600  0.019400  0.592800  1.0  -0.1006
  C  C171  1  0.827500  0.072900  0.568700  1.0  0.0311
  C  C172  1  0.842500  0.134100  0.586700  1.0  -0.1266
  C  C173  1  0.881300  0.143100  0.627400  1.0  -0.0599
  C  C174  1  0.906200  0.089900  0.651400  1.0  -0.0139
  C  C175  1  0.890200  0.026500  0.633800  1.0  -0.0148
  C  C176  1  0.816000  0.191600  0.562600  1.0  0.7752
  C  C177  1  0.946200  0.095800  0.696800  1.0  0.1645
  C  C178  1  0.980200  0.098000  0.727900  1.0  0.2155
  C  C179  1  0.182800  0.558500  0.456900  1.0  0.6875
  C  C180  1  0.166300  0.491500  0.453400  1.0  -0.1576
  C  C181  1  0.123400  0.478100  0.422600  1.0  -0.1005
  C  C182  1  0.107400  0.416900  0.419200  1.0  0.0208
  C  C183  1  0.135200  0.367100  0.447000  1.0  -0.0366
  C  C184  1  0.176900  0.379700  0.476100  1.0  -0.1105
  C  C185  1  0.192200  0.441600  0.481700  1.0  0.007
  C  C186  1  0.205400  0.326000  0.505000  1.0  0.7889
  C  C187  1  0.064000  0.401700  0.388700  1.0  -0.0542
  C  C188  1  0.027100  0.385800  0.366900  1.0  0.0231
  C  C189  1  0.985900  0.365200  0.341400  1.0  0.0482
  C  C190  1  0.949900  0.344100  0.323200  1.0  -0.0467
  C  C191  1  0.906500  0.314600  0.307700  1.0  -0.02
  C  C192  1  0.895500  0.288400  0.242600  1.0  -0.0209
  C  C193  1  0.854400  0.258000  0.230700  1.0  -0.1682
  C  C194  1  0.825100  0.255100  0.281800  1.0  0.0284
  C  C195  1  0.833600  0.284300  0.347000  1.0  -0.1416
  C  C196  1  0.876800  0.312900  0.358200  1.0  -0.0901
  C  C197  1  0.842100  0.228500  0.161600  1.0  0.6771
  C  C198  1  0.801600  0.278800  0.399800  1.0  0.7964
  C  C199  1  0.336900  0.454400  0.574700  1.0  0.6514
  C  C200  1  0.352600  0.519400  0.592800  1.0  -0.1006
  C  C201  1  0.327500  0.572900  0.568700  1.0  0.0311
  C  C202  1  0.342500  0.634100  0.586700  1.0  -0.1266
  C  C203  1  0.381300  0.643100  0.627400  1.0  -0.0599
  C  C204  1  0.406200  0.589900  0.651400  1.0  -0.0139
  C  C205  1  0.390200  0.526500  0.633800  1.0  -0.0148
  C  C206  1  0.316000  0.691600  0.562600  1.0  0.7752
  C  C207  1  0.446200  0.595800  0.696800  1.0  0.1645
  C  C208  1  0.480200  0.598000  0.727900  1.0  0.2155
  C  C209  1  0.682800  0.941500  0.956900  1.0  0.6884
  C  C210  1  0.666300  0.008500  0.953400  1.0  -0.1576
  C  C211  1  0.623400  0.021900  0.922600  1.0  -0.0986
  C  C212  1  0.607400  0.083100  0.919200  1.0  0.0203
  C  C213  1  0.635200  0.132900  0.947000  1.0  -0.0354
  C  C214  1  0.676900  0.120300  0.976100  1.0  -0.1109
  C  C215  1  0.692200  0.058400  0.981700  1.0  0.0075
  C  C216  1  0.705400  0.174000  0.005000  1.0  0.7866
  C  C217  1  0.564000  0.098300  0.888700  1.0  -0.0539
  C  C218  1  0.527100  0.114200  0.866900  1.0  0.0234
  C  C219  1  0.485900  0.134800  0.841400  1.0  0.049
  C  C220  1  0.449900  0.155900  0.823200  1.0  -0.0466
  C  C221  1  0.406500  0.185400  0.807700  1.0  -0.0192
  C  C222  1  0.395500  0.211600  0.742600  1.0  -0.021
  C  C223  1  0.354400  0.242000  0.730700  1.0  -0.1677
  C  C224  1  0.325100  0.244900  0.781800  1.0  0.0284
  C  C225  1  0.333600  0.215700  0.847000  1.0  -0.1418
  C  C226  1  0.376800  0.187100  0.858200  1.0  -0.0889
  C  C227  1  0.342100  0.271500  0.661600  1.0  0.677
  C  C228  1  0.301600  0.221200  0.899800  1.0  0.7963
  C  C229  1  0.836900  0.045600  0.074700  1.0  0.6513
  C  C230  1  0.852600  0.980600  0.092800  1.0  -0.1001
  C  C231  1  0.827500  0.927100  0.068700  1.0  0.0308
  C  C232  1  0.842500  0.865900  0.086700  1.0  -0.1269
  C  C233  1  0.881300  0.856900  0.127400  1.0  -0.059
  C  C234  1  0.906200  0.910100  0.151400  1.0  -0.0137
  C  C235  1  0.890200  0.973500  0.133800  1.0  -0.0152
  C  C236  1  0.816000  0.808400  0.062600  1.0  0.7751
  C  C237  1  0.946200  0.904200  0.196800  1.0  0.1644
  C  C238  1  0.980200  0.902000  0.227900  1.0  0.2151
  C  C239  1  0.182800  0.441500  0.956900  1.0  0.6884
  C  C240  1  0.166300  0.508500  0.953400  1.0  -0.1576
  C  C241  1  0.123400  0.521900  0.922600  1.0  -0.0986
  C  C242  1  0.107400  0.583100  0.919200  1.0  0.0203
  C  C243  1  0.135200  0.632900  0.947000  1.0  -0.0354
  C  C244  1  0.176900  0.620300  0.976100  1.0  -0.1109
  C  C245  1  0.192200  0.558400  0.981700  1.0  0.0075
  C  C246  1  0.205400  0.674000  0.005000  1.0  0.7866
  C  C247  1  0.064000  0.598300  0.888700  1.0  -0.0539
  C  C248  1  0.027100  0.614200  0.866900  1.0  0.0234
  C  C249  1  0.985900  0.634800  0.841400  1.0  0.049
  C  C250  1  0.949900  0.655900  0.823200  1.0  -0.0466
  C  C251  1  0.906500  0.685400  0.807700  1.0  -0.0192
  C  C252  1  0.895500  0.711600  0.742600  1.0  -0.021
  C  C253  1  0.854400  0.742000  0.730700  1.0  -0.1677
  C  C254  1  0.825100  0.744900  0.781800  1.0  0.0284
  C  C255  1  0.833600  0.715700  0.847000  1.0  -0.1418
  C  C256  1  0.876800  0.687100  0.858200  1.0  -0.0889
  C  C257  1  0.842100  0.771500  0.661600  1.0  0.677
  C  C258  1  0.801600  0.721200  0.899800  1.0  0.7963
  C  C259  1  0.336900  0.545600  0.074700  1.0  0.6513
  C  C260  1  0.352600  0.480600  0.092800  1.0  -0.1001
  C  C261  1  0.327500  0.427100  0.068700  1.0  0.0308
  C  C262  1  0.342500  0.365900  0.086700  1.0  -0.1269
  C  C263  1  0.381300  0.356900  0.127400  1.0  -0.059
  C  C264  1  0.406200  0.410100  0.151400  1.0  -0.0137
  C  C265  1  0.390200  0.473500  0.133800  1.0  -0.0152
  C  C266  1  0.316000  0.308400  0.062600  1.0  0.7751
  C  C267  1  0.446200  0.404200  0.196800  1.0  0.1644
  C  C268  1  0.480200  0.402000  0.227900  1.0  0.2151
  C  C269  1  0.317200  0.941500  0.543100  1.0  0.689
  C  C270  1  0.333700  0.008500  0.546600  1.0  -0.1579
  C  C271  1  0.376600  0.021900  0.577400  1.0  -0.098
  C  C272  1  0.392600  0.083100  0.580800  1.0  0.0216
  C  C273  1  0.364800  0.132900  0.553000  1.0  -0.0365
  C  C274  1  0.323100  0.120300  0.523900  1.0  -0.1106
  C  C275  1  0.307800  0.058400  0.518300  1.0  0.0064
  C  C276  1  0.294600  0.174000  0.495000  1.0  0.7862
  C  C277  1  0.436000  0.098300  0.611300  1.0  -0.0499
  C  C278  1  0.472900  0.114200  0.633100  1.0  0.0223
  C  C279  1  0.514100  0.134800  0.658600  1.0  0.0506
  C  C280  1  0.550100  0.155900  0.676800  1.0  -0.0479
  C  C281  1  0.593500  0.185400  0.692300  1.0  -0.0229
  C  C282  1  0.604500  0.211600  0.757400  1.0  -0.0203
  C  C283  1  0.645600  0.242000  0.769300  1.0  -0.1674
  C  C284  1  0.674900  0.244900  0.718200  1.0  0.0289
  C  C285  1  0.666400  0.215700  0.653000  1.0  -0.1416
  C  C286  1  0.623200  0.187100  0.641800  1.0  -0.0936
  C  C287  1  0.657900  0.271500  0.838400  1.0  0.6772
  C  C288  1  0.698400  0.221200  0.600200  1.0  0.796
  C  C289  1  0.163100  0.045600  0.425300  1.0  0.6506
  C  C290  1  0.147400  0.980600  0.407200  1.0  -0.0995
  C  C291  1  0.172500  0.927100  0.431300  1.0  0.032
  C  C292  1  0.157500  0.865900  0.413300  1.0  -0.1273
  C  C293  1  0.118700  0.856900  0.372600  1.0  -0.0608
  C  C294  1  0.093800  0.910100  0.348600  1.0  -0.0143
  C  C295  1  0.109800  0.973500  0.366200  1.0  -0.015
  C  C296  1  0.184000  0.808400  0.437400  1.0  0.7748
  C  C297  1  0.053800  0.904200  0.303200  1.0  0.1623
  C  C298  1  0.019800  0.902000  0.272100  1.0  0.2154
  C  C299  1  0.817200  0.441500  0.543100  1.0  0.689
  C  C300  1  0.833700  0.508500  0.546600  1.0  -0.1579
  C  C301  1  0.876600  0.521900  0.577400  1.0  -0.098
  C  C302  1  0.892600  0.583100  0.580800  1.0  0.0216
  C  C303  1  0.864800  0.632900  0.553000  1.0  -0.0365
  C  C304  1  0.823100  0.620300  0.523900  1.0  -0.1106
  C  C305  1  0.807800  0.558400  0.518300  1.0  0.0064
  C  C306  1  0.794600  0.674000  0.495000  1.0  0.7862
  C  C307  1  0.936000  0.598300  0.611300  1.0  -0.0499
  C  C308  1  0.972900  0.614200  0.633100  1.0  0.0223
  C  C309  1  0.014100  0.634800  0.658600  1.0  0.0506
  C  C310  1  0.050100  0.655900  0.676800  1.0  -0.0479
  C  C311  1  0.093500  0.685400  0.692300  1.0  -0.0229
  C  C312  1  0.104500  0.711600  0.757400  1.0  -0.0203
  C  C313  1  0.145600  0.742000  0.769300  1.0  -0.1674
  C  C314  1  0.174900  0.744900  0.718200  1.0  0.0289
  C  C315  1  0.166400  0.715700  0.653000  1.0  -0.1416
  C  C316  1  0.123200  0.687100  0.641800  1.0  -0.0936
  C  C317  1  0.157900  0.771500  0.838400  1.0  0.6772
  C  C318  1  0.198400  0.721200  0.600200  1.0  0.796
  C  C319  1  0.663100  0.545600  0.425300  1.0  0.6506
  C  C320  1  0.647400  0.480600  0.407200  1.0  -0.0995
  C  C321  1  0.672500  0.427100  0.431300  1.0  0.032
  C  C322  1  0.657500  0.365900  0.413300  1.0  -0.1273
  C  C323  1  0.618700  0.356900  0.372600  1.0  -0.0608
  C  C324  1  0.593800  0.410100  0.348600  1.0  -0.0143
  C  C325  1  0.609800  0.473500  0.366200  1.0  -0.015
  C  C326  1  0.684000  0.308400  0.437400  1.0  0.7748
  C  C327  1  0.553800  0.404200  0.303200  1.0  0.1623
  C  C328  1  0.519800  0.402000  0.272100  1.0  0.2154
  O  O329  1  0.279100  0.069700  0.016800  1.0  -0.6234
  O  O330  1  0.339700  0.102600  0.070800  1.0  -0.6187
  O  O331  1  0.258200  0.840000  0.966200  1.0  -0.6983
  O  O332  1  0.309100  0.771700  0.002300  1.0  -0.6918
  O  O333  1  0.628530  0.723000  0.381600  1.0  -0.5377
  O  O334  1  0.697030  0.709600  0.351800  1.0  -0.591
  O  O335  1  0.688970  0.807500  0.044900  1.0  -0.6858
  O  O336  1  0.731440  0.743200  0.111600  1.0  -0.6924
  O  O337  1  0.147200  0.908900  0.891500  1.0  -0.6
  O  O338  1  0.190800  0.943900  0.973800  1.0  -0.517
  O  O339  1  0.216600  0.184500  0.980700  1.0  -0.7744
  O  O340  1  0.171700  0.244200  0.912200  1.0  -0.7024
  O  O341  1  0.779100  0.569700  0.016800  1.0  -0.6234
  O  O342  1  0.839700  0.602600  0.070800  1.0  -0.6187
  O  O343  1  0.758200  0.340000  0.966200  1.0  -0.6983
  O  O344  1  0.809100  0.271700  0.002300  1.0  -0.6918
  O  O345  1  0.128530  0.223000  0.381600  1.0  -0.5377
  O  O346  1  0.197030  0.209600  0.351800  1.0  -0.591
  O  O347  1  0.188970  0.307500  0.044900  1.0  -0.6861
  O  O348  1  0.231440  0.243200  0.111600  1.0  -0.6928
  O  O349  1  0.647200  0.408900  0.891500  1.0  -0.6
  O  O350  1  0.690800  0.443900  0.973800  1.0  -0.517
  O  O351  1  0.716600  0.684500  0.980700  1.0  -0.7744
  O  O352  1  0.671700  0.744200  0.912200  1.0  -0.7031
  O  O353  1  0.720900  0.069700  0.483200  1.0  -0.6234
  O  O354  1  0.660300  0.102600  0.429200  1.0  -0.6198
  O  O355  1  0.741800  0.840000  0.533800  1.0  -0.6967
  O  O356  1  0.690900  0.771700  0.497700  1.0  -0.6923
  O  O357  1  0.371470  0.723000  0.118400  1.0  -0.5389
  O  O358  1  0.302970  0.709600  0.148200  1.0  -0.5895
  O  O359  1  0.311030  0.807500  0.455100  1.0  -0.6865
  O  O360  1  0.268560  0.743200  0.388400  1.0  -0.6931
  O  O361  1  0.852800  0.908900  0.608500  1.0  -0.5987
  O  O362  1  0.809200  0.943900  0.526200  1.0  -0.5196
  O  O363  1  0.783400  0.184500  0.519300  1.0  -0.7749
  O  O364  1  0.828300  0.244200  0.587800  1.0  -0.7002
  O  O365  1  0.220900  0.569700  0.483200  1.0  -0.6234
  O  O366  1  0.160300  0.602600  0.429200  1.0  -0.6198
  O  O367  1  0.241800  0.340000  0.533800  1.0  -0.6967
  O  O368  1  0.190900  0.271700  0.497700  1.0  -0.6923
  O  O369  1  0.871470  0.223000  0.118400  1.0  -0.5389
  O  O370  1  0.802970  0.209600  0.148200  1.0  -0.5895
  O  O371  1  0.811030  0.307500  0.455100  1.0  -0.6867
  O  O372  1  0.768560  0.243200  0.388400  1.0  -0.6934
  O  O373  1  0.352800  0.408900  0.608500  1.0  -0.5987
  O  O374  1  0.309200  0.443900  0.526200  1.0  -0.5196
  O  O375  1  0.283400  0.684500  0.519300  1.0  -0.7749
  O  O376  1  0.328300  0.744200  0.587800  1.0  -0.701
  O  O377  1  0.720900  0.930300  0.983200  1.0  -0.6232
  O  O378  1  0.660300  0.897400  0.929200  1.0  -0.6193
  O  O379  1  0.741800  0.160000  0.033800  1.0  -0.6968
  O  O380  1  0.690900  0.228300  0.997700  1.0  -0.6932
  O  O381  1  0.371470  0.277000  0.618400  1.0  -0.5381
  O  O382  1  0.302970  0.290400  0.648200  1.0  -0.5903
  O  O383  1  0.311030  0.192500  0.955100  1.0  -0.6859
  O  O384  1  0.268560  0.256800  0.888400  1.0  -0.6934
  O  O385  1  0.852800  0.091100  0.108500  1.0  -0.6011
  O  O386  1  0.809200  0.056100  0.026200  1.0  -0.5193
  O  O387  1  0.783400  0.815500  0.019300  1.0  -0.7745
  O  O388  1  0.828300  0.755800  0.087800  1.0  -0.702
  O  O389  1  0.220900  0.430300  0.983200  1.0  -0.6232
  O  O390  1  0.160300  0.397400  0.929200  1.0  -0.6201
  O  O391  1  0.241800  0.660000  0.033800  1.0  -0.6968
  O  O392  1  0.190900  0.728300  0.997700  1.0  -0.6932
  O  O393  1  0.871470  0.777000  0.618400  1.0  -0.5381
  O  O394  1  0.802970  0.790400  0.648200  1.0  -0.5903
  O  O395  1  0.811030  0.692500  0.955100  1.0  -0.6859
  O  O396  1  0.768560  0.756800  0.888400  1.0  -0.6937
  O  O397  1  0.352800  0.591100  0.108500  1.0  -0.6011
  O  O398  1  0.309200  0.556100  0.026200  1.0  -0.5193
  O  O399  1  0.283400  0.315500  0.019300  1.0  -0.7745
  O  O400  1  0.328300  0.255800  0.087800  1.0  -0.7033
  O  O401  1  0.279100  0.930300  0.516800  1.0  -0.6237
  O  O402  1  0.339700  0.897400  0.570800  1.0  -0.6192
  O  O403  1  0.258200  0.160000  0.466200  1.0  -0.6984
  O  O404  1  0.309100  0.228300  0.502300  1.0  -0.6915
  O  O405  1  0.628530  0.277000  0.881600  1.0  -0.5378
  O  O406  1  0.697030  0.290400  0.851800  1.0  -0.5915
  O  O407  1  0.688970  0.192500  0.544900  1.0  -0.6855
  O  O408  1  0.731440  0.256800  0.611600  1.0  -0.6928
  O  O409  1  0.147200  0.091100  0.391500  1.0  -0.6024
  O  O410  1  0.190800  0.056100  0.473800  1.0  -0.517
  O  O411  1  0.216600  0.815500  0.480700  1.0  -0.7752
  O  O412  1  0.171700  0.755800  0.412200  1.0  -0.7026
  O  O413  1  0.779100  0.430300  0.516800  1.0  -0.6237
  O  O414  1  0.839700  0.397400  0.570800  1.0  -0.62
  O  O415  1  0.758200  0.660000  0.466200  1.0  -0.6984
  O  O416  1  0.809100  0.728300  0.502300  1.0  -0.6915
  O  O417  1  0.128530  0.777000  0.881600  1.0  -0.5378
  O  O418  1  0.197030  0.790400  0.851800  1.0  -0.5915
  O  O419  1  0.188970  0.692500  0.544900  1.0  -0.6856
  O  O420  1  0.231440  0.756800  0.611600  1.0  -0.6933
  O  O421  1  0.647200  0.591100  0.391500  1.0  -0.6024
  O  O422  1  0.690800  0.556100  0.473800  1.0  -0.517
  O  O423  1  0.716600  0.315500  0.480700  1.0  -0.7752
  O  O424  1  0.671700  0.255800  0.412200  1.0  -0.7038
