# generated using pymatgen
data_Eu2H9(C5O2)6
_symmetry_space_group_name_H-M   'P 1'
_cell_length_a   30.00580000
_cell_length_b   21.24400000
_cell_length_c   19.59430000
_cell_angle_alpha   90.00000000
_cell_angle_beta   93.87000000
_cell_angle_gamma   90.00000000
_symmetry_Int_Tables_number   1
_chemical_formula_structural   Eu2H9(C5O2)6
_chemical_formula_sum   'Eu16 H72 C240 O96'
_cell_volume   12461.77275075
_cell_formula_units_Z   8
loop_
 _symmetry_equiv_pos_site_id
 _symmetry_equiv_pos_as_xyz
  1  'x, y, z'
loop_
 _atom_site_type_symbol
 _atom_site_label
 _atom_site_symmetry_multiplicity
 _atom_site_fract_x
 _atom_site_fract_y
 _atom_site_fract_z
 _atom_site_occupancy
 _atom_site_charge
  Eu  Eu1  1  0.276130  0.325950  0.558020  1.0  2.1309
  Eu  Eu2  1  0.180830  0.668400  0.462430  1.0  1.9712
  Eu  Eu3  1  0.776130  0.825950  0.558020  1.0  2.1309
  Eu  Eu4  1  0.680830  0.168400  0.462430  1.0  1.9712
  Eu  Eu5  1  0.723870  0.325950  0.941980  1.0  2.1275
  Eu  Eu6  1  0.819170  0.668400  0.037570  1.0  1.9852
  Eu  Eu7  1  0.223870  0.825950  0.941980  1.0  2.1275
  Eu  Eu8  1  0.319170  0.168400  0.037570  1.0  1.9852
  Eu  Eu9  1  0.723870  0.674050  0.441980  1.0  2.1272
  Eu  Eu10  1  0.819170  0.331600  0.537570  1.0  1.9855
  Eu  Eu11  1  0.223870  0.174050  0.441980  1.0  2.1272
  Eu  Eu12  1  0.319170  0.831600  0.537570  1.0  1.9855
  Eu  Eu13  1  0.276130  0.674050  0.058020  1.0  2.1302
  Eu  Eu14  1  0.180830  0.331600  0.962430  1.0  1.9718
  Eu  Eu15  1  0.776130  0.174050  0.058020  1.0  2.1302
  Eu  Eu16  1  0.680830  0.831600  0.962430  1.0  1.9718
  H  H17  1  0.394100  0.489700  0.595800  1.0  0.1138
  H  H18  1  0.375700  0.674500  0.558400  1.0  0.1033
  H  H19  1  0.280100  0.550800  0.498500  1.0  0.0958
  H  H20  1  0.616200  0.668000  0.599400  1.0  0.1136
  H  H21  1  0.702300  0.762700  0.727100  1.0  0.1024
  H  H22  1  0.582600  0.712000  0.790100  1.0  0.1009
  H  H23  1  0.198500  0.429700  0.457600  1.0  0.1027
  H  H24  1  0.107200  0.316200  0.361000  1.0  0.116
  H  H25  1  0.093600  0.505300  0.347900  1.0  0.1123
  H  H26  1  0.894100  0.989700  0.595800  1.0  0.1138
  H  H27  1  0.875700  0.174500  0.558400  1.0  0.1033
  H  H28  1  0.780100  0.050800  0.498500  1.0  0.0958
  H  H29  1  0.116200  0.168000  0.599400  1.0  0.1136
  H  H30  1  0.202300  0.262700  0.727100  1.0  0.1024
  H  H31  1  0.082600  0.212000  0.790100  1.0  0.1009
  H  H32  1  0.698500  0.929700  0.457600  1.0  0.1027
  H  H33  1  0.607200  0.816200  0.361000  1.0  0.116
  H  H34  1  0.593600  0.005300  0.347900  1.0  0.1123
  H  H35  1  0.605900  0.489700  0.904200  1.0  0.1135
  H  H36  1  0.624300  0.674500  0.941600  1.0  0.1037
  H  H37  1  0.719900  0.550800  0.001500  1.0  0.096
  H  H38  1  0.383800  0.668000  0.900600  1.0  0.1134
  H  H39  1  0.297700  0.762700  0.772900  1.0  0.1018
  H  H40  1  0.417400  0.712000  0.709900  1.0  0.1018
  H  H41  1  0.801500  0.429700  0.042400  1.0  0.1026
  H  H42  1  0.892800  0.316200  0.139000  1.0  0.1165
  H  H43  1  0.906400  0.505300  0.152100  1.0  0.1125
  H  H44  1  0.105900  0.989700  0.904200  1.0  0.1135
  H  H45  1  0.124300  0.174500  0.941600  1.0  0.1037
  H  H46  1  0.219900  0.050800  0.001500  1.0  0.096
  H  H47  1  0.883800  0.168000  0.900600  1.0  0.1134
  H  H48  1  0.797700  0.262700  0.772900  1.0  0.1018
  H  H49  1  0.917400  0.212000  0.709900  1.0  0.1018
  H  H50  1  0.301500  0.929700  0.042400  1.0  0.1026
  H  H51  1  0.392800  0.816200  0.139000  1.0  0.1165
  H  H52  1  0.406400  0.005300  0.152100  1.0  0.1125
  H  H53  1  0.605900  0.510300  0.404200  1.0  0.114
  H  H54  1  0.624300  0.325500  0.441600  1.0  0.103
  H  H55  1  0.719900  0.449200  0.501500  1.0  0.0959
  H  H56  1  0.383800  0.332000  0.400600  1.0  0.1132
  H  H57  1  0.297700  0.237300  0.272900  1.0  0.1021
  H  H58  1  0.417400  0.288000  0.209900  1.0  0.1016
  H  H59  1  0.801500  0.570300  0.542400  1.0  0.1024
  H  H60  1  0.892800  0.683800  0.639000  1.0  0.1161
  H  H61  1  0.906400  0.494700  0.652100  1.0  0.1115
  H  H62  1  0.105900  0.010300  0.404200  1.0  0.114
  H  H63  1  0.124300  0.825500  0.441600  1.0  0.103
  H  H64  1  0.219900  0.949200  0.501500  1.0  0.0959
  H  H65  1  0.883800  0.832000  0.400600  1.0  0.1132
  H  H66  1  0.797700  0.737300  0.272900  1.0  0.1021
  H  H67  1  0.917400  0.788000  0.209900  1.0  0.1016
  H  H68  1  0.301500  0.070300  0.542400  1.0  0.1024
  H  H69  1  0.392800  0.183800  0.639000  1.0  0.1161
  H  H70  1  0.406400  0.994700  0.652100  1.0  0.1115
  H  H71  1  0.394100  0.510300  0.095800  1.0  0.114
  H  H72  1  0.375700  0.325500  0.058400  1.0  0.1038
  H  H73  1  0.280100  0.449200  0.998500  1.0  0.0962
  H  H74  1  0.616200  0.332000  0.099400  1.0  0.1132
  H  H75  1  0.702300  0.237300  0.227100  1.0  0.1024
  H  H76  1  0.582600  0.288000  0.290100  1.0  0.1012
  H  H77  1  0.198500  0.570300  0.957600  1.0  0.103
  H  H78  1  0.107200  0.683800  0.861000  1.0  0.1158
  H  H79  1  0.093600  0.494700  0.847900  1.0  0.1115
  H  H80  1  0.894100  0.010300  0.095800  1.0  0.114
  H  H81  1  0.875700  0.825500  0.058400  1.0  0.1038
  H  H82  1  0.780100  0.949200  0.998500  1.0  0.0962
  H  H83  1  0.116200  0.832000  0.099400  1.0  0.1132
  H  H84  1  0.202300  0.737300  0.227100  1.0  0.1024
  H  H85  1  0.082600  0.788000  0.290100  1.0  0.1012
  H  H86  1  0.698500  0.070300  0.957600  1.0  0.103
  H  H87  1  0.607200  0.183800  0.861000  1.0  0.1158
  H  H88  1  0.593600  0.994700  0.847900  1.0  0.1115
  C  C89  1  0.317810  0.443790  0.542900  1.0  0.6559
  C  C90  1  0.334800  0.509570  0.546300  1.0  -0.1637
  C  C91  1  0.376580  0.522400  0.577400  1.0  -0.0289
  C  C92  1  0.392660  0.584520  0.581400  1.0  0.016
  C  C93  1  0.365500  0.633200  0.555100  1.0  -0.0868
  C  C94  1  0.323260  0.620760  0.523800  1.0  -0.1643
  C  C95  1  0.308150  0.559340  0.519400  1.0  0.0226
  C  C96  1  0.295360  0.674000  0.495300  1.0  0.7449
  C  C97  1  0.435820  0.598700  0.612800  1.0  -0.0047
  C  C98  1  0.471880  0.615400  0.636200  1.0  -0.0007
  C  C99  1  0.513460  0.635800  0.659000  1.0  -0.0026
  C  C100  1  0.549960  0.656300  0.678000  1.0  -0.0082
  C  C101  1  0.592350  0.684400  0.693500  1.0  -0.0
  C  C102  1  0.623260  0.686600  0.641700  1.0  -0.0705
  C  C103  1  0.664250  0.716900  0.654800  1.0  -0.1435
  C  C104  1  0.674610  0.743800  0.718200  1.0  0.0277
  C  C105  1  0.643950  0.743000  0.769500  1.0  -0.1742
  C  C106  1  0.603050  0.713000  0.756400  1.0  -0.1046
  C  C107  1  0.696920  0.720520  0.601000  1.0  0.7862
  C  C108  1  0.655950  0.772700  0.836800  1.0  0.6617
  C  C109  1  0.162530  0.542500  0.424600  1.0  0.6126
  C  C110  1  0.148190  0.477200  0.406200  1.0  -0.153
  C  C111  1  0.172200  0.424700  0.430200  1.0  0.0276
  C  C112  1  0.156740  0.364430  0.413100  1.0  -0.1604
  C  C113  1  0.117440  0.356440  0.372300  1.0  -0.0205
  C  C114  1  0.093450  0.409200  0.348600  1.0  0.0397
  C  C115  1  0.109200  0.470100  0.364800  1.0  -0.0491
  C  C116  1  0.182230  0.306600  0.436600  1.0  0.7638
  C  C117  1  0.053300  0.402700  0.304200  1.0  -0.0433
  C  C118  1  0.019670  0.400400  0.270400  1.0  0.1194
  C  C119  1  0.817810  0.943790  0.542900  1.0  0.6559
  C  C120  1  0.834800  0.009570  0.546300  1.0  -0.1637
  C  C121  1  0.876580  0.022400  0.577400  1.0  -0.0289
  C  C122  1  0.892660  0.084520  0.581400  1.0  0.016
  C  C123  1  0.865500  0.133200  0.555100  1.0  -0.0868
  C  C124  1  0.823260  0.120760  0.523800  1.0  -0.1643
  C  C125  1  0.808150  0.059340  0.519400  1.0  0.0226
  C  C126  1  0.795360  0.174000  0.495300  1.0  0.7449
  C  C127  1  0.935820  0.098700  0.612800  1.0  -0.0047
  C  C128  1  0.971880  0.115400  0.636200  1.0  -0.0007
  C  C129  1  0.013460  0.135800  0.659000  1.0  -0.0026
  C  C130  1  0.049960  0.156300  0.678000  1.0  -0.0082
  C  C131  1  0.092350  0.184400  0.693500  1.0  -0.0
  C  C132  1  0.123260  0.186600  0.641700  1.0  -0.0705
  C  C133  1  0.164250  0.216900  0.654800  1.0  -0.1435
  C  C134  1  0.174610  0.243800  0.718200  1.0  0.0277
  C  C135  1  0.143950  0.243000  0.769500  1.0  -0.1742
  C  C136  1  0.103050  0.213000  0.756400  1.0  -0.1046
  C  C137  1  0.196920  0.220520  0.601000  1.0  0.7862
  C  C138  1  0.155950  0.272700  0.836800  1.0  0.6617
  C  C139  1  0.662530  0.042500  0.424600  1.0  0.6126
  C  C140  1  0.648190  0.977200  0.406200  1.0  -0.153
  C  C141  1  0.672200  0.924700  0.430200  1.0  0.0276
  C  C142  1  0.656740  0.864430  0.413100  1.0  -0.1604
  C  C143  1  0.617440  0.856440  0.372300  1.0  -0.0205
  C  C144  1  0.593450  0.909200  0.348600  1.0  0.0397
  C  C145  1  0.609200  0.970100  0.364800  1.0  -0.0491
  C  C146  1  0.682230  0.806600  0.436600  1.0  0.7638
  C  C147  1  0.553300  0.902700  0.304200  1.0  -0.0433
  C  C148  1  0.519670  0.900400  0.270400  1.0  0.1194
  C  C149  1  0.682190  0.443790  0.957100  1.0  0.6562
  C  C150  1  0.665200  0.509570  0.953700  1.0  -0.1634
  C  C151  1  0.623420  0.522400  0.922600  1.0  -0.0312
  C  C152  1  0.607340  0.584520  0.918600  1.0  0.016
  C  C153  1  0.634500  0.633200  0.944900  1.0  -0.0856
  C  C154  1  0.676740  0.620760  0.976200  1.0  -0.1647
  C  C155  1  0.691850  0.559340  0.980600  1.0  0.0231
  C  C156  1  0.704640  0.674000  0.004700  1.0  0.7448
  C  C157  1  0.564180  0.598700  0.887200  1.0  -0.0063
  C  C158  1  0.528120  0.615400  0.863800  1.0  -0.0016
  C  C159  1  0.486540  0.635800  0.841000  1.0  -0.0024
  C  C160  1  0.450040  0.656300  0.822000  1.0  -0.0072
  C  C161  1  0.407650  0.684400  0.806500  1.0  0.0029
  C  C162  1  0.376740  0.686600  0.858300  1.0  -0.0683
  C  C163  1  0.335750  0.716900  0.845200  1.0  -0.1438
  C  C164  1  0.325390  0.743800  0.781800  1.0  0.0264
  C  C165  1  0.356050  0.743000  0.730500  1.0  -0.1739
  C  C166  1  0.396950  0.713000  0.743600  1.0  -0.1049
  C  C167  1  0.303080  0.720520  0.899000  1.0  0.7876
  C  C168  1  0.344050  0.772700  0.663200  1.0  0.6623
  C  C169  1  0.837470  0.542500  0.075400  1.0  0.6127
  C  C170  1  0.851810  0.477200  0.093800  1.0  -0.153
  C  C171  1  0.827800  0.424700  0.069800  1.0  0.0267
  C  C172  1  0.843260  0.364430  0.086900  1.0  -0.1608
  C  C173  1  0.882560  0.356440  0.127700  1.0  -0.0199
  C  C174  1  0.906550  0.409200  0.151400  1.0  0.0417
  C  C175  1  0.890800  0.470100  0.135200  1.0  -0.0478
  C  C176  1  0.817770  0.306600  0.063400  1.0  0.7653
  C  C177  1  0.946700  0.402700  0.195800  1.0  -0.0421
  C  C178  1  0.980330  0.400400  0.229600  1.0  0.1196
  C  C179  1  0.182190  0.943790  0.957100  1.0  0.6562
  C  C180  1  0.165200  0.009570  0.953700  1.0  -0.1634
  C  C181  1  0.123420  0.022400  0.922600  1.0  -0.0312
  C  C182  1  0.107340  0.084520  0.918600  1.0  0.016
  C  C183  1  0.134500  0.133200  0.944900  1.0  -0.0856
  C  C184  1  0.176740  0.120760  0.976200  1.0  -0.1647
  C  C185  1  0.191850  0.059340  0.980600  1.0  0.0231
  C  C186  1  0.204640  0.174000  0.004700  1.0  0.7448
  C  C187  1  0.064180  0.098700  0.887200  1.0  -0.0063
  C  C188  1  0.028120  0.115400  0.863800  1.0  -0.0016
  C  C189  1  0.986540  0.135800  0.841000  1.0  -0.0024
  C  C190  1  0.950040  0.156300  0.822000  1.0  -0.0072
  C  C191  1  0.907650  0.184400  0.806500  1.0  0.0029
  C  C192  1  0.876740  0.186600  0.858300  1.0  -0.0683
  C  C193  1  0.835750  0.216900  0.845200  1.0  -0.1438
  C  C194  1  0.825390  0.243800  0.781800  1.0  0.0264
  C  C195  1  0.856050  0.243000  0.730500  1.0  -0.1739
  C  C196  1  0.896950  0.213000  0.743600  1.0  -0.1049
  C  C197  1  0.803080  0.220520  0.899000  1.0  0.7876
  C  C198  1  0.844050  0.272700  0.663200  1.0  0.6623
  C  C199  1  0.337470  0.042500  0.075400  1.0  0.6127
  C  C200  1  0.351810  0.977200  0.093800  1.0  -0.153
  C  C201  1  0.327800  0.924700  0.069800  1.0  0.0267
  C  C202  1  0.343260  0.864430  0.086900  1.0  -0.1608
  C  C203  1  0.382560  0.856440  0.127700  1.0  -0.0199
  C  C204  1  0.406550  0.909200  0.151400  1.0  0.0417
  C  C205  1  0.390800  0.970100  0.135200  1.0  -0.0478
  C  C206  1  0.317770  0.806600  0.063400  1.0  0.7653
  C  C207  1  0.446700  0.902700  0.195800  1.0  -0.0421
  C  C208  1  0.480330  0.900400  0.229600  1.0  0.1196
  C  C209  1  0.682190  0.556210  0.457100  1.0  0.6547
  C  C210  1  0.665200  0.490430  0.453700  1.0  -0.1631
  C  C211  1  0.623420  0.477600  0.422600  1.0  -0.0307
  C  C212  1  0.607340  0.415480  0.418600  1.0  0.0162
  C  C213  1  0.634500  0.366800  0.444900  1.0  -0.0875
  C  C214  1  0.676740  0.379240  0.476200  1.0  -0.1646
  C  C215  1  0.691850  0.440660  0.480600  1.0  0.0234
  C  C216  1  0.704640  0.326000  0.504700  1.0  0.7445
  C  C217  1  0.564180  0.401300  0.387200  1.0  -0.0063
  C  C218  1  0.528120  0.384600  0.363800  1.0  -0.0016
  C  C219  1  0.486540  0.364200  0.341000  1.0  -0.0031
  C  C220  1  0.450040  0.343700  0.322000  1.0  -0.0072
  C  C221  1  0.407650  0.315600  0.306500  1.0  0.0031
  C  C222  1  0.376740  0.313400  0.358300  1.0  -0.0693
  C  C223  1  0.335750  0.283100  0.345200  1.0  -0.1438
  C  C224  1  0.325390  0.256200  0.281800  1.0  0.0263
  C  C225  1  0.356050  0.257000  0.230500  1.0  -0.1746
  C  C226  1  0.396950  0.287000  0.243600  1.0  -0.1047
  C  C227  1  0.303080  0.279480  0.399000  1.0  0.7877
  C  C228  1  0.344050  0.227300  0.163200  1.0  0.6625
  C  C229  1  0.837470  0.457500  0.575400  1.0  0.6144
  C  C230  1  0.851810  0.522800  0.593800  1.0  -0.1533
  C  C231  1  0.827800  0.575300  0.569800  1.0  0.0268
  C  C232  1  0.843260  0.635570  0.586900  1.0  -0.1605
  C  C233  1  0.882560  0.643560  0.627700  1.0  -0.0209
  C  C234  1  0.906550  0.590800  0.651400  1.0  0.0417
  C  C235  1  0.890800  0.529900  0.635200  1.0  -0.047
  C  C236  1  0.817770  0.693400  0.563400  1.0  0.765
  C  C237  1  0.946700  0.597300  0.695800  1.0  -0.042
  C  C238  1  0.980330  0.599600  0.729600  1.0  0.1195
  C  C239  1  0.182190  0.056210  0.457100  1.0  0.6547
  C  C240  1  0.165200  0.990430  0.453700  1.0  -0.1631
  C  C241  1  0.123420  0.977600  0.422600  1.0  -0.0307
  C  C242  1  0.107340  0.915480  0.418600  1.0  0.0162
  C  C243  1  0.134500  0.866800  0.444900  1.0  -0.0875
  C  C244  1  0.176740  0.879240  0.476200  1.0  -0.1646
  C  C245  1  0.191850  0.940660  0.480600  1.0  0.0234
  C  C246  1  0.204640  0.826000  0.504700  1.0  0.7445
  C  C247  1  0.064180  0.901300  0.387200  1.0  -0.0063
  C  C248  1  0.028120  0.884600  0.363800  1.0  -0.0016
  C  C249  1  0.986540  0.864200  0.341000  1.0  -0.0031
  C  C250  1  0.950040  0.843700  0.322000  1.0  -0.0072
  C  C251  1  0.907650  0.815600  0.306500  1.0  0.0031
  C  C252  1  0.876740  0.813400  0.358300  1.0  -0.0693
  C  C253  1  0.835750  0.783100  0.345200  1.0  -0.1438
  C  C254  1  0.825390  0.756200  0.281800  1.0  0.0263
  C  C255  1  0.856050  0.757000  0.230500  1.0  -0.1746
  C  C256  1  0.896950  0.787000  0.243600  1.0  -0.1047
  C  C257  1  0.803080  0.779480  0.399000  1.0  0.7877
  C  C258  1  0.844050  0.727300  0.163200  1.0  0.6625
  C  C259  1  0.337470  0.957500  0.575400  1.0  0.6144
  C  C260  1  0.351810  0.022800  0.593800  1.0  -0.1533
  C  C261  1  0.327800  0.075300  0.569800  1.0  0.0268
  C  C262  1  0.343260  0.135570  0.586900  1.0  -0.1605
  C  C263  1  0.382560  0.143560  0.627700  1.0  -0.0209
  C  C264  1  0.406550  0.090800  0.651400  1.0  0.0417
  C  C265  1  0.390800  0.029900  0.635200  1.0  -0.047
  C  C266  1  0.317770  0.193400  0.563400  1.0  0.765
  C  C267  1  0.446700  0.097300  0.695800  1.0  -0.042
  C  C268  1  0.480330  0.099600  0.729600  1.0  0.1195
  C  C269  1  0.317810  0.556210  0.042900  1.0  0.6544
  C  C270  1  0.334800  0.490430  0.046300  1.0  -0.1632
  C  C271  1  0.376580  0.477600  0.077400  1.0  -0.0288
  C  C272  1  0.392660  0.415480  0.081400  1.0  0.0159
  C  C273  1  0.365500  0.366800  0.055100  1.0  -0.0865
  C  C274  1  0.323260  0.379240  0.023800  1.0  -0.1648
  C  C275  1  0.308150  0.440660  0.019400  1.0  0.0228
  C  C276  1  0.295360  0.326000  0.995300  1.0  0.7443
  C  C277  1  0.435820  0.401300  0.112800  1.0  -0.0049
  C  C278  1  0.471880  0.384600  0.136200  1.0  -0.0009
  C  C279  1  0.513460  0.364200  0.159000  1.0  -0.0031
  C  C280  1  0.549960  0.343700  0.178000  1.0  -0.0082
  C  C281  1  0.592350  0.315600  0.193500  1.0  0.0008
  C  C282  1  0.623260  0.313400  0.141700  1.0  -0.0707
  C  C283  1  0.664250  0.283100  0.154800  1.0  -0.1436
  C  C284  1  0.674610  0.256200  0.218200  1.0  0.0279
  C  C285  1  0.643950  0.257000  0.269500  1.0  -0.1744
  C  C286  1  0.603050  0.287000  0.256400  1.0  -0.1046
  C  C287  1  0.696920  0.279480  0.101000  1.0  0.7862
  C  C288  1  0.655950  0.227300  0.336800  1.0  0.662
  C  C289  1  0.162530  0.457500  0.924600  1.0  0.6148
  C  C290  1  0.148190  0.522800  0.906200  1.0  -0.1532
  C  C291  1  0.172200  0.575300  0.930200  1.0  0.0278
  C  C292  1  0.156740  0.635570  0.913100  1.0  -0.1604
  C  C293  1  0.117440  0.643560  0.872300  1.0  -0.0209
  C  C294  1  0.093450  0.590800  0.848600  1.0  0.04
  C  C295  1  0.109200  0.529900  0.864800  1.0  -0.0492
  C  C296  1  0.182230  0.693400  0.936600  1.0  0.7637
  C  C297  1  0.053300  0.597300  0.804200  1.0  -0.0434
  C  C298  1  0.019670  0.599600  0.770400  1.0  0.1192
  C  C299  1  0.817810  0.056210  0.042900  1.0  0.6544
  C  C300  1  0.834800  0.990430  0.046300  1.0  -0.1632
  C  C301  1  0.876580  0.977600  0.077400  1.0  -0.0288
  C  C302  1  0.892660  0.915480  0.081400  1.0  0.0159
  C  C303  1  0.865500  0.866800  0.055100  1.0  -0.0865
  C  C304  1  0.823260  0.879240  0.023800  1.0  -0.1648
  C  C305  1  0.808150  0.940660  0.019400  1.0  0.0228
  C  C306  1  0.795360  0.826000  0.995300  1.0  0.7443
  C  C307  1  0.935820  0.901300  0.112800  1.0  -0.0049
  C  C308  1  0.971880  0.884600  0.136200  1.0  -0.0009
  C  C309  1  0.013460  0.864200  0.159000  1.0  -0.0031
  C  C310  1  0.049960  0.843700  0.178000  1.0  -0.0082
  C  C311  1  0.092350  0.815600  0.193500  1.0  0.0008
  C  C312  1  0.123260  0.813400  0.141700  1.0  -0.0707
  C  C313  1  0.164250  0.783100  0.154800  1.0  -0.1436
  C  C314  1  0.174610  0.756200  0.218200  1.0  0.0279
  C  C315  1  0.143950  0.757000  0.269500  1.0  -0.1744
  C  C316  1  0.103050  0.787000  0.256400  1.0  -0.1046
  C  C317  1  0.196920  0.779480  0.101000  1.0  0.7862
  C  C318  1  0.155950  0.727300  0.336800  1.0  0.662
  C  C319  1  0.662530  0.957500  0.924600  1.0  0.6148
  C  C320  1  0.648190  0.022800  0.906200  1.0  -0.1532
  C  C321  1  0.672200  0.075300  0.930200  1.0  0.0278
  C  C322  1  0.656740  0.135570  0.913100  1.0  -0.1604
  C  C323  1  0.617440  0.143560  0.872300  1.0  -0.0209
  C  C324  1  0.593450  0.090800  0.848600  1.0  0.04
  C  C325  1  0.609200  0.029900  0.864800  1.0  -0.0492
  C  C326  1  0.682230  0.193400  0.936600  1.0  0.7637
  C  C327  1  0.553300  0.097300  0.804200  1.0  -0.0434
  C  C328  1  0.519670  0.099600  0.770400  1.0  0.1192
  O  O329  1  0.340490  0.400410  0.571240  1.0  -0.6958
  O  O330  1  0.279890  0.433020  0.513100  1.0  -0.6519
  O  O331  1  0.257590  0.661230  0.468200  1.0  -0.7355
  O  O332  1  0.310480  0.729210  0.501370  1.0  -0.7459
  O  O333  1  0.688090  0.690710  0.545800  1.0  -0.7278
  O  O334  1  0.730660  0.754020  0.613760  1.0  -0.7385
  O  O335  1  0.627180  0.777080  0.879950  1.0  -0.6168
  O  O336  1  0.695230  0.792290  0.850190  1.0  -0.6229
  O  O337  1  0.191910  0.552500  0.470500  1.0  -0.537
  O  O338  1  0.145950  0.587100  0.391200  1.0  -0.6432
  O  O339  1  0.215280  0.312920  0.478770  1.0  -0.8234
  O  O340  1  0.170000  0.254850  0.411330  1.0  -0.6309
  O  O341  1  0.840490  0.900410  0.571240  1.0  -0.6952
  O  O342  1  0.779890  0.933020  0.513100  1.0  -0.6519
  O  O343  1  0.757590  0.161230  0.468200  1.0  -0.7355
  O  O344  1  0.810480  0.229210  0.501370  1.0  -0.7459
  O  O345  1  0.188090  0.190710  0.545800  1.0  -0.7279
  O  O346  1  0.230660  0.254020  0.613760  1.0  -0.7393
  O  O347  1  0.127180  0.277080  0.879950  1.0  -0.6168
  O  O348  1  0.195230  0.292290  0.850190  1.0  -0.6229
  O  O349  1  0.691910  0.052500  0.470500  1.0  -0.537
  O  O350  1  0.645950  0.087100  0.391200  1.0  -0.6432
  O  O351  1  0.715280  0.812920  0.478770  1.0  -0.8233
  O  O352  1  0.670000  0.754850  0.411330  1.0  -0.6311
  O  O353  1  0.659510  0.400410  0.928760  1.0  -0.6966
  O  O354  1  0.720110  0.433020  0.986900  1.0  -0.6508
  O  O355  1  0.742410  0.661230  0.031800  1.0  -0.7335
  O  O356  1  0.689520  0.729210  0.998630  1.0  -0.747
  O  O357  1  0.311910  0.690710  0.954200  1.0  -0.7277
  O  O358  1  0.269340  0.754020  0.886240  1.0  -0.7384
  O  O359  1  0.372820  0.777080  0.620050  1.0  -0.6183
  O  O360  1  0.304770  0.792290  0.649810  1.0  -0.6226
  O  O361  1  0.808090  0.552500  0.029500  1.0  -0.5385
  O  O362  1  0.854050  0.587100  0.108800  1.0  -0.6411
  O  O363  1  0.784720  0.312920  0.021230  1.0  -0.8222
  O  O364  1  0.830000  0.254850  0.088670  1.0  -0.6319
  O  O365  1  0.159510  0.900410  0.928760  1.0  -0.696
  O  O366  1  0.220110  0.933020  0.986900  1.0  -0.6508
  O  O367  1  0.242410  0.161230  0.031800  1.0  -0.7335
  O  O368  1  0.189520  0.229210  0.998630  1.0  -0.747
  O  O369  1  0.811910  0.190710  0.954200  1.0  -0.7277
  O  O370  1  0.769340  0.254020  0.886240  1.0  -0.7391
  O  O371  1  0.872820  0.277080  0.620050  1.0  -0.6183
  O  O372  1  0.804770  0.292290  0.649810  1.0  -0.6226
  O  O373  1  0.308090  0.052500  0.029500  1.0  -0.5385
  O  O374  1  0.354050  0.087100  0.108800  1.0  -0.6411
  O  O375  1  0.284720  0.812920  0.021230  1.0  -0.8219
  O  O376  1  0.330000  0.754850  0.088670  1.0  -0.6322
  O  O377  1  0.659510  0.599590  0.428760  1.0  -0.6993
  O  O378  1  0.720110  0.566980  0.486900  1.0  -0.6507
  O  O379  1  0.742410  0.338770  0.531800  1.0  -0.7333
  O  O380  1  0.689520  0.270790  0.498630  1.0  -0.7455
  O  O381  1  0.311910  0.309290  0.454200  1.0  -0.7275
  O  O382  1  0.269340  0.245980  0.386240  1.0  -0.7388
  O  O383  1  0.372820  0.222920  0.120050  1.0  -0.6185
  O  O384  1  0.304770  0.207710  0.149810  1.0  -0.625
  O  O385  1  0.808090  0.447500  0.529500  1.0  -0.5388
  O  O386  1  0.854050  0.412900  0.608800  1.0  -0.6407
  O  O387  1  0.784720  0.687080  0.521230  1.0  -0.8233
  O  O388  1  0.830000  0.745150  0.588670  1.0  -0.6316
  O  O389  1  0.159510  0.099590  0.428760  1.0  -0.6991
  O  O390  1  0.220110  0.066980  0.486900  1.0  -0.6507
  O  O391  1  0.242410  0.838770  0.531800  1.0  -0.7333
  O  O392  1  0.189520  0.770790  0.498630  1.0  -0.7455
  O  O393  1  0.811910  0.809290  0.454200  1.0  -0.7277
  O  O394  1  0.769340  0.745980  0.386240  1.0  -0.7395
  O  O395  1  0.872820  0.722920  0.120050  1.0  -0.6185
  O  O396  1  0.804770  0.707710  0.149810  1.0  -0.625
  O  O397  1  0.308090  0.947500  0.529500  1.0  -0.5388
  O  O398  1  0.354050  0.912900  0.608800  1.0  -0.6407
  O  O399  1  0.284720  0.187080  0.521230  1.0  -0.8231
  O  O400  1  0.330000  0.245150  0.588670  1.0  -0.6317
  O  O401  1  0.340490  0.599590  0.071240  1.0  -0.6962
  O  O402  1  0.279890  0.566980  0.013100  1.0  -0.6516
  O  O403  1  0.257590  0.338770  0.968200  1.0  -0.7354
  O  O404  1  0.310480  0.270790  0.001370  1.0  -0.7451
  O  O405  1  0.688090  0.309290  0.045800  1.0  -0.7273
  O  O406  1  0.730660  0.245980  0.113760  1.0  -0.7392
  O  O407  1  0.627180  0.222920  0.379950  1.0  -0.6172
  O  O408  1  0.695230  0.207710  0.350190  1.0  -0.6252
  O  O409  1  0.191910  0.447500  0.970500  1.0  -0.5369
  O  O410  1  0.145950  0.412900  0.891200  1.0  -0.6423
  O  O411  1  0.215280  0.687080  0.978770  1.0  -0.8234
  O  O412  1  0.170000  0.745150  0.911330  1.0  -0.6327
  O  O413  1  0.840490  0.099590  0.071240  1.0  -0.6962
  O  O414  1  0.779890  0.066980  0.013100  1.0  -0.6516
  O  O415  1  0.757590  0.838770  0.968200  1.0  -0.7354
  O  O416  1  0.810480  0.770790  0.001370  1.0  -0.7451
  O  O417  1  0.188090  0.809290  0.045800  1.0  -0.7276
  O  O418  1  0.230660  0.745980  0.113760  1.0  -0.7399
  O  O419  1  0.127180  0.722920  0.379950  1.0  -0.6172
  O  O420  1  0.195230  0.707710  0.350190  1.0  -0.6252
  O  O421  1  0.691910  0.947500  0.970500  1.0  -0.5369
  O  O422  1  0.645950  0.912900  0.891200  1.0  -0.6423
  O  O423  1  0.715280  0.187080  0.978770  1.0  -0.8231
  O  O424  1  0.670000  0.245150  0.911330  1.0  -0.633
