# generated using pymatgen
data_Co3H34C44S3(NO3)4
_symmetry_space_group_name_H-M   'P 1'
_cell_length_a   15.09200000
_cell_length_b   16.74400000
_cell_length_c   22.51800000
_cell_angle_alpha   90.00000000
_cell_angle_beta   90.00000000
_cell_angle_gamma   90.00000000
_symmetry_Int_Tables_number   1
_chemical_formula_structural   Co3H34C44S3(NO3)4
_chemical_formula_sum   'Co12 H136 C176 S12 N16 O48'
_cell_volume   5690.30868806
_cell_formula_units_Z   4
loop_
 _symmetry_equiv_pos_site_id
 _symmetry_equiv_pos_as_xyz
  1  'x, y, z'
loop_
 _atom_site_type_symbol
 _atom_site_label
 _atom_site_symmetry_multiplicity
 _atom_site_fract_x
 _atom_site_fract_y
 _atom_site_fract_z
 _atom_site_occupancy
 _atom_site_charge
  Co  Co1  1  0.266120  0.273960  0.381950  1.0  0.9008
  Co  Co2  1  0.733880  0.226040  0.381950  1.0  0.901
  Co  Co3  1  0.266120  0.726040  0.118050  1.0  0.9007
  Co  Co4  1  0.733880  0.773960  0.118050  1.0  0.9008
  Co  Co5  1  0.733880  0.726040  0.618050  1.0  0.9007
  Co  Co6  1  0.266120  0.773960  0.618050  1.0  0.9009
  Co  Co7  1  0.733880  0.273960  0.881950  1.0  0.9009
  Co  Co8  1  0.266120  0.226040  0.881950  1.0  0.9009
  Co  Co9  1  0.500000  0.250000  0.402680  1.0  1.1946
  Co  Co10  1  0.500000  0.750000  0.097320  1.0  1.1936
  Co  Co11  1  0.500000  0.750000  0.597320  1.0  1.1936
  Co  Co12  1  0.500000  0.250000  0.902680  1.0  1.1946
  H  H13  1  0.558200  0.437400  0.278600  1.0  0.1069
  H  H14  1  0.494700  0.421400  0.561400  1.0  0.1229
  H  H15  1  0.470000  0.553000  0.605500  1.0  0.1088
  H  H16  1  0.092300  0.283900  0.452300  1.0  0.0566
  H  H17  1  0.969100  0.355800  0.462000  1.0  0.1216
  H  H18  1  0.041000  0.478600  0.327400  1.0  0.1161
  H  H19  1  0.164400  0.400000  0.318500  1.0  0.0787
  H  H20  1  0.870100  0.456800  0.426300  1.0  0.1001
  H  H21  1  0.933800  0.523500  0.449300  1.0  0.1013
  H  H22  1  0.947200  0.572200  0.356700  1.0  0.0476
  H  H23  1  0.887600  0.504500  0.332200  1.0  0.0448
  H  H24  1  0.834500  0.637000  0.389700  1.0  0.1013
  H  H25  1  0.770900  0.566200  0.374700  1.0  0.0889
  H  H26  1  0.675900  0.612800  0.302400  1.0  0.1343
  H  H27  1  0.651200  0.678600  0.216500  1.0  0.075
  H  H28  1  0.900200  0.711200  0.190900  1.0  0.0603
  H  H29  1  0.932600  0.649200  0.277800  1.0  0.1243
  H  H30  1  0.441800  0.062600  0.278600  1.0  0.107
  H  H31  1  0.505300  0.078600  0.561400  1.0  0.1239
  H  H32  1  0.530000  0.947000  0.605500  1.0  0.1085
  H  H33  1  0.907700  0.216100  0.452300  1.0  0.0563
  H  H34  1  0.030900  0.144200  0.462000  1.0  0.1215
  H  H35  1  0.959000  0.021400  0.327400  1.0  0.1158
  H  H36  1  0.835600  0.100000  0.318500  1.0  0.0783
  H  H37  1  0.129900  0.043200  0.426300  1.0  0.0999
  H  H38  1  0.066200  0.976500  0.449300  1.0  0.1019
  H  H39  1  0.052800  0.927800  0.356700  1.0  0.0466
  H  H40  1  0.112400  0.995500  0.332200  1.0  0.0442
  H  H41  1  0.165500  0.863000  0.389700  1.0  0.1013
  H  H42  1  0.229100  0.933800  0.374700  1.0  0.0881
  H  H43  1  0.324100  0.887200  0.302400  1.0  0.1355
  H  H44  1  0.348800  0.821400  0.216500  1.0  0.0752
  H  H45  1  0.099800  0.788800  0.190900  1.0  0.0602
  H  H46  1  0.067400  0.850800  0.277800  1.0  0.1237
  H  H47  1  0.558200  0.562600  0.221400  1.0  0.109
  H  H48  1  0.494700  0.578600  0.938600  1.0  0.1241
  H  H49  1  0.470000  0.447000  0.894500  1.0  0.1084
  H  H50  1  0.092300  0.716100  0.047700  1.0  0.0567
  H  H51  1  0.969100  0.644200  0.038000  1.0  0.1209
  H  H52  1  0.041000  0.521400  0.172600  1.0  0.1159
  H  H53  1  0.164400  0.600000  0.181500  1.0  0.0779
  H  H54  1  0.870100  0.543200  0.073700  1.0  0.1001
  H  H55  1  0.933800  0.476500  0.050700  1.0  0.0984
  H  H56  1  0.947200  0.427800  0.143300  1.0  0.0461
  H  H57  1  0.887600  0.495500  0.167800  1.0  0.0451
  H  H58  1  0.834500  0.363000  0.110300  1.0  0.1008
  H  H59  1  0.770900  0.433800  0.125300  1.0  0.0887
  H  H60  1  0.675900  0.387200  0.197600  1.0  0.1344
  H  H61  1  0.651200  0.321400  0.283500  1.0  0.0753
  H  H62  1  0.900200  0.288800  0.309100  1.0  0.0599
  H  H63  1  0.932600  0.350800  0.222200  1.0  0.1246
  H  H64  1  0.441800  0.937400  0.221400  1.0  0.1091
  H  H65  1  0.505300  0.921400  0.938600  1.0  0.1232
  H  H66  1  0.530000  0.053000  0.894500  1.0  0.108
  H  H67  1  0.907700  0.783900  0.047700  1.0  0.0565
  H  H68  1  0.030900  0.855800  0.038000  1.0  0.1207
  H  H69  1  0.959000  0.978600  0.172600  1.0  0.1161
  H  H70  1  0.835600  0.900000  0.181500  1.0  0.078
  H  H71  1  0.129900  0.956800  0.073700  1.0  0.0992
  H  H72  1  0.066200  0.023500  0.050700  1.0  0.0989
  H  H73  1  0.052800  0.072200  0.143300  1.0  0.0479
  H  H74  1  0.112400  0.004500  0.167800  1.0  0.0443
  H  H75  1  0.165500  0.137000  0.110300  1.0  0.1022
  H  H76  1  0.229100  0.066200  0.125300  1.0  0.0886
  H  H77  1  0.324100  0.112800  0.197600  1.0  0.1353
  H  H78  1  0.348800  0.178600  0.283500  1.0  0.0753
  H  H79  1  0.099800  0.211200  0.309100  1.0  0.0599
  H  H80  1  0.067400  0.149200  0.222200  1.0  0.1243
  H  H81  1  0.441800  0.562600  0.721400  1.0  0.1093
  H  H82  1  0.505300  0.578600  0.438600  1.0  0.1243
  H  H83  1  0.530000  0.447000  0.394500  1.0  0.1081
  H  H84  1  0.907700  0.716100  0.547700  1.0  0.0567
  H  H85  1  0.030900  0.644200  0.538000  1.0  0.1208
  H  H86  1  0.959000  0.521400  0.672600  1.0  0.116
  H  H87  1  0.835600  0.600000  0.681500  1.0  0.0778
  H  H88  1  0.129900  0.543200  0.573700  1.0  0.0996
  H  H89  1  0.066200  0.476500  0.550700  1.0  0.099
  H  H90  1  0.052800  0.427800  0.643300  1.0  0.0471
  H  H91  1  0.112400  0.495500  0.667800  1.0  0.0442
  H  H92  1  0.165500  0.363000  0.610300  1.0  0.1007
  H  H93  1  0.229100  0.433800  0.625300  1.0  0.0883
  H  H94  1  0.324100  0.387200  0.697600  1.0  0.1354
  H  H95  1  0.348800  0.321400  0.783500  1.0  0.0754
  H  H96  1  0.099800  0.288800  0.809100  1.0  0.0599
  H  H97  1  0.067400  0.350800  0.722200  1.0  0.124
  H  H98  1  0.558200  0.937400  0.721400  1.0  0.109
  H  H99  1  0.494700  0.921400  0.438600  1.0  0.1232
  H  H100  1  0.470000  0.053000  0.394500  1.0  0.1083
  H  H101  1  0.092300  0.783900  0.547700  1.0  0.0564
  H  H102  1  0.969100  0.855800  0.538000  1.0  0.1207
  H  H103  1  0.041000  0.978600  0.672600  1.0  0.1157
  H  H104  1  0.164400  0.900000  0.681500  1.0  0.0779
  H  H105  1  0.870100  0.956800  0.573700  1.0  0.0988
  H  H106  1  0.933800  0.023500  0.550700  1.0  0.0988
  H  H107  1  0.947200  0.072200  0.643300  1.0  0.0478
  H  H108  1  0.887600  0.004500  0.667800  1.0  0.0452
  H  H109  1  0.834500  0.137000  0.610300  1.0  0.102
  H  H110  1  0.770900  0.066200  0.625300  1.0  0.0892
  H  H111  1  0.675900  0.112800  0.697600  1.0  0.1343
  H  H112  1  0.651200  0.178600  0.783500  1.0  0.0753
  H  H113  1  0.900200  0.211200  0.809100  1.0  0.0597
  H  H114  1  0.932600  0.149200  0.722200  1.0  0.1245
  H  H115  1  0.441800  0.437400  0.778600  1.0  0.1086
  H  H116  1  0.505300  0.421400  0.061400  1.0  0.1229
  H  H117  1  0.530000  0.553000  0.105500  1.0  0.1087
  H  H118  1  0.907700  0.283900  0.952300  1.0  0.057
  H  H119  1  0.030900  0.355800  0.962000  1.0  0.1217
  H  H120  1  0.959000  0.478600  0.827400  1.0  0.1162
  H  H121  1  0.835600  0.400000  0.818500  1.0  0.0784
  H  H122  1  0.129900  0.456800  0.926300  1.0  0.1003
  H  H123  1  0.066200  0.523500  0.949300  1.0  0.1011
  H  H124  1  0.052800  0.572200  0.856700  1.0  0.0476
  H  H125  1  0.112400  0.504500  0.832200  1.0  0.044
  H  H126  1  0.165500  0.637000  0.889700  1.0  0.1013
  H  H127  1  0.229100  0.566200  0.874700  1.0  0.088
  H  H128  1  0.324100  0.612800  0.802400  1.0  0.1352
  H  H129  1  0.348800  0.678600  0.716500  1.0  0.0751
  H  H130  1  0.099800  0.711200  0.690900  1.0  0.0605
  H  H131  1  0.067400  0.649200  0.777800  1.0  0.1241
  H  H132  1  0.558200  0.062600  0.778600  1.0  0.1086
  H  H133  1  0.494700  0.078600  0.061400  1.0  0.1236
  H  H134  1  0.470000  0.947000  0.105500  1.0  0.1087
  H  H135  1  0.092300  0.216100  0.952300  1.0  0.0562
  H  H136  1  0.969100  0.144200  0.962000  1.0  0.1214
  H  H137  1  0.041000  0.021400  0.827400  1.0  0.1159
  H  H138  1  0.164400  0.100000  0.818500  1.0  0.0785
  H  H139  1  0.870100  0.043200  0.926300  1.0  0.1002
  H  H140  1  0.933800  0.976500  0.949300  1.0  0.1015
  H  H141  1  0.947200  0.927800  0.856700  1.0  0.0458
  H  H142  1  0.887600  0.995500  0.832200  1.0  0.0452
  H  H143  1  0.834500  0.863000  0.889700  1.0  0.1014
  H  H144  1  0.770900  0.933800  0.874700  1.0  0.0885
  H  H145  1  0.675900  0.887200  0.802400  1.0  0.1343
  H  H146  1  0.651200  0.821400  0.716500  1.0  0.0749
  H  H147  1  0.900200  0.788800  0.690900  1.0  0.0602
  H  H148  1  0.932600  0.850800  0.777800  1.0  0.1245
  C  C149  1  0.400000  0.367800  0.315800  1.0  0.7052
  C  C150  1  0.424200  0.438900  0.281100  1.0  -0.1838
  C  C151  1  0.506900  0.464100  0.267100  1.0  -0.0777
  C  C152  1  0.378800  0.359800  0.474600  1.0  0.7083
  C  C153  1  0.382000  0.431300  0.513800  1.0  -0.1867
  C  C154  1  0.446000  0.453300  0.552500  1.0  -0.0775
  C  C155  1  0.431900  0.529500  0.578100  1.0  -0.0464
  C  C156  1  0.355800  0.564700  0.558000  1.0  -0.2064
  C  C157  1  0.321700  0.644200  0.574900  1.0  0.686
  C  C158  1  0.085100  0.327000  0.426700  1.0  0.1805
  C  C159  1  0.011400  0.372100  0.434500  1.0  -0.2415
  C  C160  1  0.998500  0.435100  0.405800  1.0  0.2003
  C  C161  1  0.053600  0.441200  0.356700  1.0  -0.2503
  C  C162  1  0.127000  0.392400  0.350900  1.0  0.1728
  C  C163  1  0.920700  0.489400  0.415600  1.0  -0.1987
  C  C164  1  0.895000  0.540600  0.365500  1.0  -0.032
  C  C165  1  0.823900  0.593900  0.361800  1.0  -0.1959
  C  C166  1  0.805800  0.629500  0.303300  1.0  0.1853
  C  C167  1  0.723200  0.635000  0.281800  1.0  -0.2393
  C  C168  1  0.709500  0.673600  0.229300  1.0  0.1973
  C  C169  1  0.853700  0.693000  0.214400  1.0  0.1819
  C  C170  1  0.873800  0.656300  0.266600  1.0  -0.2672
  C  C171  1  0.600000  0.132200  0.315800  1.0  0.7053
  C  C172  1  0.575800  0.061100  0.281100  1.0  -0.1833
  C  C173  1  0.493100  0.035900  0.267100  1.0  -0.0776
  C  C174  1  0.621200  0.140200  0.474600  1.0  0.7072
  C  C175  1  0.618000  0.068700  0.513800  1.0  -0.1866
  C  C176  1  0.554000  0.046700  0.552500  1.0  -0.0782
  C  C177  1  0.568100  0.970500  0.578100  1.0  -0.0467
  C  C178  1  0.644200  0.935300  0.558000  1.0  -0.207
  C  C179  1  0.678300  0.855800  0.574900  1.0  0.6868
  C  C180  1  0.914900  0.173000  0.426700  1.0  0.1799
  C  C181  1  0.988600  0.127900  0.434500  1.0  -0.2392
  C  C182  1  0.001500  0.064900  0.405800  1.0  0.2007
  C  C183  1  0.946400  0.058800  0.356700  1.0  -0.2484
  C  C184  1  0.873000  0.107600  0.350900  1.0  0.1717
  C  C185  1  0.079300  0.010600  0.415600  1.0  -0.1974
  C  C186  1  0.105000  0.959400  0.365500  1.0  -0.0313
  C  C187  1  0.176100  0.906100  0.361800  1.0  -0.1941
  C  C188  1  0.194200  0.870500  0.303300  1.0  0.1851
  C  C189  1  0.276800  0.865000  0.281800  1.0  -0.2383
  C  C190  1  0.290500  0.826400  0.229300  1.0  0.1966
  C  C191  1  0.146300  0.807000  0.214400  1.0  0.1818
  C  C192  1  0.126200  0.843700  0.266600  1.0  -0.2657
  C  C193  1  0.400000  0.632200  0.184200  1.0  0.7051
  C  C194  1  0.424200  0.561100  0.218900  1.0  -0.1844
  C  C195  1  0.506900  0.535900  0.232900  1.0  -0.0773
  C  C196  1  0.378800  0.640200  0.025400  1.0  0.7094
  C  C197  1  0.382000  0.568700  0.986200  1.0  -0.187
  C  C198  1  0.446000  0.546700  0.947500  1.0  -0.0772
  C  C199  1  0.431900  0.470500  0.921900  1.0  -0.0468
  C  C200  1  0.355800  0.435300  0.942000  1.0  -0.2077
  C  C201  1  0.321700  0.355800  0.925100  1.0  0.6856
  C  C202  1  0.085100  0.673000  0.073300  1.0  0.18
  C  C203  1  0.011400  0.627900  0.065500  1.0  -0.2417
  C  C204  1  0.998500  0.564900  0.094200  1.0  0.2013
  C  C205  1  0.053600  0.558800  0.143300  1.0  -0.2479
  C  C206  1  0.127000  0.607600  0.149100  1.0  0.1728
  C  C207  1  0.920700  0.510600  0.084400  1.0  -0.1982
  C  C208  1  0.895000  0.459400  0.134500  1.0  -0.0314
  C  C209  1  0.823900  0.406100  0.138200  1.0  -0.1936
  C  C210  1  0.805800  0.370500  0.196700  1.0  0.1831
  C  C211  1  0.723200  0.365000  0.218200  1.0  -0.2383
  C  C212  1  0.709500  0.326400  0.270700  1.0  0.1977
  C  C213  1  0.853700  0.307000  0.285600  1.0  0.1833
  C  C214  1  0.873800  0.343700  0.233400  1.0  -0.2661
  C  C215  1  0.600000  0.867800  0.184200  1.0  0.7043
  C  C216  1  0.575800  0.938900  0.218900  1.0  -0.1846
  C  C217  1  0.493100  0.964100  0.232900  1.0  -0.0775
  C  C218  1  0.621200  0.859800  0.025400  1.0  0.7088
  C  C219  1  0.618000  0.931300  0.986200  1.0  -0.186
  C  C220  1  0.554000  0.953300  0.947500  1.0  -0.077
  C  C221  1  0.568100  0.029500  0.921900  1.0  -0.0461
  C  C222  1  0.644200  0.064700  0.942000  1.0  -0.2074
  C  C223  1  0.678300  0.144200  0.925100  1.0  0.6867
  C  C224  1  0.914900  0.827000  0.073300  1.0  0.1801
  C  C225  1  0.988600  0.872100  0.065500  1.0  -0.2409
  C  C226  1  0.001500  0.935100  0.094200  1.0  0.2011
  C  C227  1  0.946400  0.941200  0.143300  1.0  -0.2481
  C  C228  1  0.873000  0.892400  0.149100  1.0  0.1718
  C  C229  1  0.079300  0.989400  0.084400  1.0  -0.1977
  C  C230  1  0.105000  0.040600  0.134500  1.0  -0.0317
  C  C231  1  0.176100  0.093900  0.138200  1.0  -0.1943
  C  C232  1  0.194200  0.129500  0.196700  1.0  0.185
  C  C233  1  0.276800  0.135000  0.218200  1.0  -0.2373
  C  C234  1  0.290500  0.173600  0.270700  1.0  0.1963
  C  C235  1  0.146300  0.193000  0.285600  1.0  0.1829
  C  C236  1  0.126200  0.156300  0.233400  1.0  -0.2671
  C  C237  1  0.600000  0.632200  0.684200  1.0  0.7049
  C  C238  1  0.575800  0.561100  0.718900  1.0  -0.1835
  C  C239  1  0.493100  0.535900  0.732900  1.0  -0.0774
  C  C240  1  0.621200  0.640200  0.525400  1.0  0.7088
  C  C241  1  0.618000  0.568700  0.486200  1.0  -0.1868
  C  C242  1  0.554000  0.546700  0.447500  1.0  -0.0775
  C  C243  1  0.568100  0.470500  0.421900  1.0  -0.0467
  C  C244  1  0.644200  0.435300  0.442000  1.0  -0.2072
  C  C245  1  0.678300  0.355800  0.425100  1.0  0.6867
  C  C246  1  0.914900  0.673000  0.573300  1.0  0.1801
  C  C247  1  0.988600  0.627900  0.565500  1.0  -0.2407
  C  C248  1  0.001500  0.564900  0.594200  1.0  0.2009
  C  C249  1  0.946400  0.558800  0.643300  1.0  -0.2466
  C  C250  1  0.873000  0.607600  0.649100  1.0  0.172
  C  C251  1  0.079300  0.510600  0.584400  1.0  -0.1973
  C  C252  1  0.105000  0.459400  0.634500  1.0  -0.0316
  C  C253  1  0.176100  0.406100  0.638200  1.0  -0.1949
  C  C254  1  0.194200  0.370500  0.696700  1.0  0.1837
  C  C255  1  0.276800  0.365000  0.718200  1.0  -0.237
  C  C256  1  0.290500  0.326400  0.770700  1.0  0.1966
  C  C257  1  0.146300  0.307000  0.785600  1.0  0.1834
  C  C258  1  0.126200  0.343700  0.733400  1.0  -0.2663
  C  C259  1  0.400000  0.867800  0.684200  1.0  0.7046
  C  C260  1  0.424200  0.938900  0.718900  1.0  -0.1838
  C  C261  1  0.506900  0.964100  0.732900  1.0  -0.0777
  C  C262  1  0.378800  0.859800  0.525400  1.0  0.7092
  C  C263  1  0.382000  0.931300  0.486200  1.0  -0.1865
  C  C264  1  0.446000  0.953300  0.447500  1.0  -0.0777
  C  C265  1  0.431900  0.029500  0.421900  1.0  -0.0466
  C  C266  1  0.355800  0.064700  0.442000  1.0  -0.2077
  C  C267  1  0.321700  0.144200  0.425100  1.0  0.6855
  C  C268  1  0.085100  0.827000  0.573300  1.0  0.1804
  C  C269  1  0.011400  0.872100  0.565500  1.0  -0.2419
  C  C270  1  0.998500  0.935100  0.594200  1.0  0.2013
  C  C271  1  0.053600  0.941200  0.643300  1.0  -0.2495
  C  C272  1  0.127000  0.892400  0.649100  1.0  0.1729
  C  C273  1  0.920700  0.989400  0.584400  1.0  -0.1987
  C  C274  1  0.895000  0.040600  0.634500  1.0  -0.0318
  C  C275  1  0.823900  0.093900  0.638200  1.0  -0.1943
  C  C276  1  0.805800  0.129500  0.696700  1.0  0.1841
  C  C277  1  0.723200  0.135000  0.718200  1.0  -0.2385
  C  C278  1  0.709500  0.173600  0.770700  1.0  0.1973
  C  C279  1  0.853700  0.193000  0.785600  1.0  0.1833
  C  C280  1  0.873800  0.156300  0.733400  1.0  -0.2666
  C  C281  1  0.600000  0.367800  0.815800  1.0  0.7048
  C  C282  1  0.575800  0.438900  0.781100  1.0  -0.1845
  C  C283  1  0.493100  0.464100  0.767100  1.0  -0.0774
  C  C284  1  0.621200  0.359800  0.974600  1.0  0.7078
  C  C285  1  0.618000  0.431300  0.013800  1.0  -0.186
  C  C286  1  0.554000  0.453300  0.052500  1.0  -0.077
  C  C287  1  0.568100  0.529500  0.078100  1.0  -0.046
  C  C288  1  0.644200  0.564700  0.058000  1.0  -0.2068
  C  C289  1  0.678300  0.644200  0.074900  1.0  0.6862
  C  C290  1  0.914900  0.327000  0.926700  1.0  0.1795
  C  C291  1  0.988600  0.372100  0.934500  1.0  -0.2398
  C  C292  1  0.001500  0.435100  0.905800  1.0  0.2002
  C  C293  1  0.946400  0.441200  0.856700  1.0  -0.2491
  C  C294  1  0.873000  0.392400  0.850900  1.0  0.1723
  C  C295  1  0.079300  0.489400  0.915600  1.0  -0.1978
  C  C296  1  0.105000  0.540600  0.865500  1.0  -0.0315
  C  C297  1  0.176100  0.593900  0.861800  1.0  -0.1953
  C  C298  1  0.194200  0.629500  0.803300  1.0  0.1863
  C  C299  1  0.276800  0.635000  0.781800  1.0  -0.2387
  C  C300  1  0.290500  0.673600  0.729300  1.0  0.1964
  C  C301  1  0.146300  0.693000  0.714400  1.0  0.1816
  C  C302  1  0.126200  0.656300  0.766600  1.0  -0.2675
  C  C303  1  0.400000  0.132200  0.815800  1.0  0.7055
  C  C304  1  0.424200  0.061100  0.781100  1.0  -0.1843
  C  C305  1  0.506900  0.035900  0.767100  1.0  -0.0775
  C  C306  1  0.378800  0.140200  0.974600  1.0  0.7079
  C  C307  1  0.382000  0.068700  0.013800  1.0  -0.1869
  C  C308  1  0.446000  0.046700  0.052500  1.0  -0.0776
  C  C309  1  0.431900  0.970500  0.078100  1.0  -0.0466
  C  C310  1  0.355800  0.935300  0.058000  1.0  -0.2071
  C  C311  1  0.321700  0.855800  0.074900  1.0  0.6864
  C  C312  1  0.085100  0.173000  0.926700  1.0  0.1806
  C  C313  1  0.011400  0.127900  0.934500  1.0  -0.241
  C  C314  1  0.998500  0.064900  0.905800  1.0  0.2012
  C  C315  1  0.053600  0.058800  0.856700  1.0  -0.2489
  C  C316  1  0.127000  0.107600  0.850900  1.0  0.1721
  C  C317  1  0.920700  0.010600  0.915600  1.0  -0.1984
  C  C318  1  0.895000  0.959400  0.865500  1.0  -0.0316
  C  C319  1  0.823900  0.906100  0.861800  1.0  -0.1934
  C  C320  1  0.805800  0.870500  0.803300  1.0  0.1843
  C  C321  1  0.723200  0.865000  0.781800  1.0  -0.239
  C  C322  1  0.709500  0.826400  0.729300  1.0  0.1971
  C  C323  1  0.853700  0.807000  0.714400  1.0  0.1819
  C  C324  1  0.873800  0.843700  0.766600  1.0  -0.266
  S  S325  1  0.301480  0.503990  0.507790  1.0  0.1242
  S  S326  1  0.698520  0.996010  0.507790  1.0  0.1248
  S  S327  1  0.301480  0.496010  0.992210  1.0  0.124
  S  S328  1  0.698520  0.003990  0.992210  1.0  0.1245
  S  S329  1  0.698520  0.496010  0.492210  1.0  0.125
  S  S330  1  0.301480  0.003990  0.492210  1.0  0.1235
  S  S331  1  0.698520  0.503990  0.007790  1.0  0.1238
  S  S332  1  0.301480  0.996010  0.007790  1.0  0.1247
  S  S333  1  0.344630  0.500000  0.250000  1.0  0.1174
  S  S334  1  0.655370  0.000000  0.250000  1.0  0.1119
  S  S335  1  0.655370  0.500000  0.750000  1.0  0.1119
  S  S336  1  0.344630  0.000000  0.750000  1.0  0.1174
  N  N337  1  0.145600  0.337600  0.388000  1.0  -0.3172
  N  N338  1  0.771700  0.704500  0.195000  1.0  -0.3511
  N  N339  1  0.854400  0.162400  0.388000  1.0  -0.3168
  N  N340  1  0.228300  0.795500  0.195000  1.0  -0.3521
  N  N341  1  0.145600  0.662400  0.112000  1.0  -0.3169
  N  N342  1  0.771700  0.295500  0.305000  1.0  -0.3519
  N  N343  1  0.854400  0.837600  0.112000  1.0  -0.3176
  N  N344  1  0.228300  0.204500  0.305000  1.0  -0.3503
  N  N345  1  0.854400  0.662400  0.612000  1.0  -0.3169
  N  N346  1  0.228300  0.295500  0.805000  1.0  -0.351
  N  N347  1  0.145600  0.837600  0.612000  1.0  -0.3171
  N  N348  1  0.771700  0.204500  0.805000  1.0  -0.3513
  N  N349  1  0.854400  0.337600  0.888000  1.0  -0.3176
  N  N350  1  0.228300  0.704500  0.695000  1.0  -0.3508
  N  N351  1  0.145600  0.162400  0.888000  1.0  -0.3168
  N  N352  1  0.771700  0.795500  0.695000  1.0  -0.3523
  O  O353  1  0.462300  0.328500  0.336400  1.0  -0.6025
  O  O354  1  0.318600  0.354200  0.323100  1.0  -0.5958
  O  O355  1  0.450800  0.322600  0.468400  1.0  -0.6031
  O  O356  1  0.305200  0.344000  0.452200  1.0  -0.6017
  O  O357  1  0.373300  0.690600  0.604000  1.0  -0.641
  O  O358  1  0.243200  0.664300  0.563600  1.0  -0.5731
  O  O359  1  0.537700  0.171500  0.336400  1.0  -0.6032
  O  O360  1  0.681400  0.145800  0.323100  1.0  -0.5954
  O  O361  1  0.549200  0.177400  0.468400  1.0  -0.6023
  O  O362  1  0.694800  0.156000  0.452200  1.0  -0.6014
  O  O363  1  0.626700  0.809400  0.604000  1.0  -0.6415
  O  O364  1  0.756800  0.835700  0.563600  1.0  -0.5748
  O  O365  1  0.462300  0.671500  0.163600  1.0  -0.6037
  O  O366  1  0.318600  0.645800  0.176900  1.0  -0.596
  O  O367  1  0.450800  0.677400  0.031600  1.0  -0.6027
  O  O368  1  0.305200  0.656000  0.047800  1.0  -0.602
  O  O369  1  0.373300  0.309400  0.896000  1.0  -0.6407
  O  O370  1  0.243200  0.335700  0.936400  1.0  -0.576
  O  O371  1  0.537700  0.828500  0.163600  1.0  -0.6028
  O  O372  1  0.681400  0.854200  0.176900  1.0  -0.595
  O  O373  1  0.549200  0.822600  0.031600  1.0  -0.6029
  O  O374  1  0.694800  0.844000  0.047800  1.0  -0.6014
  O  O375  1  0.626700  0.190600  0.896000  1.0  -0.6398
  O  O376  1  0.756800  0.164300  0.936400  1.0  -0.5755
  O  O377  1  0.537700  0.671500  0.663600  1.0  -0.6033
  O  O378  1  0.681400  0.645800  0.676900  1.0  -0.5953
  O  O379  1  0.549200  0.677400  0.531600  1.0  -0.6023
  O  O380  1  0.694800  0.656000  0.547800  1.0  -0.6013
  O  O381  1  0.626700  0.309400  0.396000  1.0  -0.6406
  O  O382  1  0.756800  0.335700  0.436400  1.0  -0.5755
  O  O383  1  0.462300  0.828500  0.663600  1.0  -0.6032
  O  O384  1  0.318600  0.854200  0.676900  1.0  -0.5957
  O  O385  1  0.450800  0.822600  0.531600  1.0  -0.6028
  O  O386  1  0.305200  0.844000  0.547800  1.0  -0.6021
  O  O387  1  0.373300  0.190600  0.396000  1.0  -0.6401
  O  O388  1  0.243200  0.164300  0.436400  1.0  -0.5758
  O  O389  1  0.537700  0.328500  0.836400  1.0  -0.6022
  O  O390  1  0.681400  0.354200  0.823100  1.0  -0.5948
  O  O391  1  0.549200  0.322600  0.968400  1.0  -0.6027
  O  O392  1  0.694800  0.344000  0.952200  1.0  -0.6015
  O  O393  1  0.626700  0.690600  0.104000  1.0  -0.6408
  O  O394  1  0.756800  0.664300  0.063600  1.0  -0.5745
  O  O395  1  0.462300  0.171500  0.836400  1.0  -0.6034
  O  O396  1  0.318600  0.145800  0.823100  1.0  -0.5965
  O  O397  1  0.450800  0.177400  0.968400  1.0  -0.6027
  O  O398  1  0.305200  0.156000  0.952200  1.0  -0.6016
  O  O399  1  0.373300  0.809400  0.104000  1.0  -0.6416
  O  O400  1  0.243200  0.835700  0.063600  1.0  -0.5737
