# generated using pymatgen
data_Mn16H95(C3O)64
_symmetry_space_group_name_H-M   'P 1'
_cell_length_a   16.04600000
_cell_length_b   18.33400000
_cell_length_c   23.70600000
_cell_angle_alpha   90.00000000
_cell_angle_beta   90.00000000
_cell_angle_gamma   90.00000000
_symmetry_Int_Tables_number   1
_chemical_formula_structural   Mn16H95(C3O)64
_chemical_formula_sum   'Mn16 H95 C192 O64'
_cell_volume   6974.00565098
_cell_formula_units_Z   1
loop_
 _symmetry_equiv_pos_site_id
 _symmetry_equiv_pos_as_xyz
  1  'x, y, z'
loop_
 _atom_site_type_symbol
 _atom_site_label
 _atom_site_symmetry_multiplicity
 _atom_site_fract_x
 _atom_site_fract_y
 _atom_site_fract_z
 _atom_site_occupancy
 _atom_site_charge
  Mn  Mn1  1  0.185400  0.823000  0.598100  1.0  1.1266
  Mn  Mn2  1  0.998700  0.705100  0.581000  1.0  1.2099
  Mn  Mn3  1  0.814600  0.677000  0.098100  1.0  1.1268
  Mn  Mn4  1  0.001300  0.794900  0.081000  1.0  1.2096
  Mn  Mn5  1  0.685400  0.177000  0.901900  1.0  1.1278
  Mn  Mn6  1  0.498700  0.294900  0.919000  1.0  1.2087
  Mn  Mn7  1  0.314600  0.323000  0.401900  1.0  1.1267
  Mn  Mn8  1  0.501300  0.205100  0.419000  1.0  1.2111
  Mn  Mn9  1  0.814600  0.177000  0.401900  1.0  1.127
  Mn  Mn10  1  0.001300  0.294900  0.419000  1.0  1.2096
  Mn  Mn11  1  0.185400  0.323000  0.901900  1.0  1.1273
  Mn  Mn12  1  0.998700  0.205100  0.919000  1.0  1.2052
  Mn  Mn13  1  0.314600  0.823000  0.098100  1.0  1.1263
  Mn  Mn14  1  0.501300  0.705100  0.081000  1.0  1.2111
  Mn  Mn15  1  0.685400  0.677000  0.598100  1.0  1.127
  Mn  Mn16  1  0.498700  0.794900  0.581000  1.0  1.2091
  H  H17  1  0.916250  0.730000  0.726940  1.0  0.1117
  H  H18  1  0.152010  0.825760  0.782560  1.0  0.1078
  H  H19  1  0.111770  0.806760  0.883450  1.0  0.1066
  H  H20  1  0.013120  0.759390  0.953990  1.0  0.0794
  H  H21  1  0.774620  0.667510  0.899870  1.0  0.1092
  H  H22  1  0.815370  0.683810  0.798940  1.0  0.1054
  H  H23  1  0.076850  0.574760  0.676290  1.0  0.1053
  H  H24  1  0.339930  0.636170  0.665920  1.0  0.1154
  H  H25  1  0.443910  0.570190  0.726310  1.0  0.1033
  H  H26  1  0.475490  0.475820  0.799360  1.0  0.0978
  H  H27  1  0.212220  0.416250  0.807940  1.0  0.0911
  H  H28  1  0.110230  0.480020  0.748650  1.0  0.1076
  H  H29  1  0.083750  0.770000  0.226940  1.0  0.1165
  H  H30  1  0.847990  0.674240  0.282560  1.0  0.108
  H  H31  1  0.888230  0.693240  0.383450  1.0  0.107
  H  H32  1  0.986880  0.740610  0.453990  1.0  0.0774
  H  H33  1  0.225380  0.832490  0.399870  1.0  0.1092
  H  H34  1  0.184630  0.816190  0.298940  1.0  0.1045
  H  H35  1  0.923150  0.925240  0.176290  1.0  0.1054
  H  H36  1  0.660070  0.863830  0.165920  1.0  0.114
  H  H37  1  0.556090  0.929810  0.226310  1.0  0.1006
  H  H38  1  0.524510  0.024180  0.299360  1.0  0.0985
  H  H39  1  0.787780  0.083750  0.307940  1.0  0.0924
  H  H40  1  0.889770  0.019980  0.248650  1.0  0.1077
  H  H41  1  0.416250  0.270000  0.773060  1.0  0.1133
  H  H42  1  0.652010  0.174240  0.717440  1.0  0.1065
  H  H43  1  0.611770  0.193240  0.616550  1.0  0.1064
  H  H44  1  0.513120  0.240610  0.546010  1.0  0.0791
  H  H45  1  0.274620  0.332490  0.600130  1.0  0.1092
  H  H46  1  0.315370  0.316190  0.701060  1.0  0.1052
  H  H47  1  0.576850  0.425240  0.823710  1.0  0.1057
  H  H48  1  0.839930  0.363830  0.834080  1.0  0.1085
  H  H49  1  0.943910  0.429810  0.773690  1.0  0.1062
  H  H50  1  0.975490  0.524180  0.700640  1.0  0.0976
  H  H51  1  0.712220  0.583750  0.692060  1.0  0.0901
  H  H52  1  0.610230  0.519980  0.751350  1.0  0.1071
  H  H53  1  0.583750  0.230000  0.273060  1.0  0.1172
  H  H54  1  0.347990  0.325760  0.217440  1.0  0.1083
  H  H55  1  0.388230  0.306760  0.116550  1.0  0.1064
  H  H56  1  0.486880  0.259390  0.046010  1.0  0.079
  H  H57  1  0.725380  0.167510  0.100130  1.0  0.1093
  H  H58  1  0.684630  0.183810  0.201060  1.0  0.1049
  H  H59  1  0.423150  0.074760  0.323710  1.0  0.1065
  H  H60  1  0.160070  0.136170  0.334080  1.0  0.1143
  H  H61  1  0.056090  0.070190  0.273690  1.0  0.1025
  H  H62  1  0.024510  0.975820  0.200640  1.0  0.0984
  H  H63  1  0.287780  0.916250  0.192060  1.0  0.0895
  H  H64  1  0.389770  0.980020  0.251350  1.0  0.1076
  H  H65  1  0.083750  0.270000  0.273060  1.0  0.1174
  H  H66  1  0.847990  0.174240  0.217440  1.0  0.1082
  H  H67  1  0.888230  0.193240  0.116550  1.0  0.1067
  H  H68  1  0.986880  0.240610  0.046010  1.0  0.0795
  H  H69  1  0.225380  0.332490  0.100130  1.0  0.1095
  H  H70  1  0.184630  0.316190  0.201060  1.0  0.1047
  H  H71  1  0.923150  0.425240  0.323710  1.0  0.1065
  H  H72  1  0.660070  0.363830  0.334080  1.0  0.114
  H  H73  1  0.556090  0.429810  0.273690  1.0  0.1009
  H  H74  1  0.524510  0.524180  0.200640  1.0  0.0982
  H  H75  1  0.787780  0.583750  0.192060  1.0  0.0904
  H  H76  1  0.889770  0.519980  0.251350  1.0  0.1075
  H  H77  1  0.152010  0.325760  0.717440  1.0  0.1082
  H  H78  1  0.111770  0.306760  0.616550  1.0  0.1066
  H  H79  1  0.013120  0.259390  0.546010  1.0  0.0802
  H  H80  1  0.774620  0.167510  0.600130  1.0  0.1093
  H  H81  1  0.815370  0.183810  0.701060  1.0  0.1021
  H  H82  1  0.076850  0.074760  0.823710  1.0  0.1086
  H  H83  1  0.339930  0.136170  0.834080  1.0  0.1154
  H  H84  1  0.443910  0.070190  0.773690  1.0  0.1036
  H  H85  1  0.475490  0.975820  0.700640  1.0  0.098
  H  H86  1  0.212220  0.916250  0.692060  1.0  0.09
  H  H87  1  0.110230  0.980020  0.751350  1.0  0.1074
  H  H88  1  0.583750  0.730000  0.226940  1.0  0.1165
  H  H89  1  0.347990  0.825760  0.282560  1.0  0.108
  H  H90  1  0.388230  0.806760  0.383450  1.0  0.1068
  H  H91  1  0.486880  0.759390  0.453990  1.0  0.0772
  H  H92  1  0.725380  0.667510  0.399870  1.0  0.1091
  H  H93  1  0.684630  0.683810  0.298940  1.0  0.1046
  H  H94  1  0.423150  0.574760  0.176290  1.0  0.1062
  H  H95  1  0.160070  0.636170  0.165920  1.0  0.1144
  H  H96  1  0.056090  0.570190  0.226310  1.0  0.1024
  H  H97  1  0.024510  0.475820  0.299360  1.0  0.0982
  H  H98  1  0.287780  0.416250  0.307940  1.0  0.0903
  H  H99  1  0.389770  0.480020  0.248650  1.0  0.108
  H  H100  1  0.416250  0.770000  0.726940  1.0  0.1116
  H  H101  1  0.652010  0.674240  0.782560  1.0  0.1078
  H  H102  1  0.611770  0.693240  0.883450  1.0  0.1069
  H  H103  1  0.513120  0.740610  0.953990  1.0  0.0798
  H  H104  1  0.274620  0.832490  0.899870  1.0  0.1091
  H  H105  1  0.315370  0.816190  0.798940  1.0  0.1054
  H  H106  1  0.576850  0.925240  0.676290  1.0  0.1051
  H  H107  1  0.839930  0.863830  0.665920  1.0  0.1134
  H  H108  1  0.943910  0.929810  0.726310  1.0  0.1031
  H  H109  1  0.975490  0.024180  0.799360  1.0  0.1009
  H  H110  1  0.712220  0.083750  0.807940  1.0  0.0945
  H  H111  1  0.610230  0.019980  0.748650  1.0  0.1071
  C  C112  1  0.960300  0.747000  0.762300  1.0  -0.0962
  C  C113  1  0.035100  0.778500  0.749700  1.0  -0.1041
  C  C114  1  0.089500  0.799600  0.793200  1.0  -0.0711
  C  C115  1  0.067800  0.788900  0.848300  1.0  -0.1401
  C  C116  1  0.967600  0.743400  0.919200  1.0  -0.0885
  C  C117  1  0.892800  0.713200  0.932700  1.0  -0.0962
  C  C118  1  0.837700  0.692500  0.889100  1.0  -0.0728
  C  C119  1  0.859400  0.702200  0.833900  1.0  -0.1368
  C  C120  1  0.936100  0.734900  0.819000  1.0  0.0741
  C  C121  1  0.991400  0.755900  0.862800  1.0  0.0741
  C  C122  1  0.061000  0.788700  0.689000  1.0  0.7103
  C  C123  1  0.869500  0.701200  0.993200  1.0  0.7049
  C  C124  1  0.144200  0.566200  0.690100  1.0  -0.0682
  C  C125  1  0.208300  0.608900  0.666300  1.0  -0.0867
  C  C126  1  0.288500  0.600200  0.684000  1.0  -0.1198
  C  C127  1  0.391500  0.535500  0.744600  1.0  -0.1437
  C  C128  1  0.408600  0.484500  0.784600  1.0  -0.0688
  C  C129  1  0.344300  0.441700  0.808400  1.0  -0.1147
  C  C130  1  0.264700  0.450900  0.789700  1.0  -0.098
  C  C131  1  0.162300  0.514500  0.729700  1.0  -0.144
  C  C132  1  0.309400  0.546700  0.724900  1.0  0.075
  C  C133  1  0.244900  0.502800  0.747800  1.0  0.0744
  C  C134  1  0.184300  0.662400  0.621100  1.0  0.7185
  C  C135  1  0.363400  0.388800  0.855600  1.0  0.7198
  C  C136  1  0.039700  0.753000  0.262300  1.0  -0.0953
  C  C137  1  0.964900  0.721500  0.249700  1.0  -0.1039
  C  C138  1  0.910500  0.700400  0.293200  1.0  -0.0714
  C  C139  1  0.932200  0.711100  0.348300  1.0  -0.1418
  C  C140  1  0.032400  0.756600  0.419200  1.0  -0.0885
  C  C141  1  0.107200  0.786800  0.432700  1.0  -0.096
  C  C142  1  0.162300  0.807500  0.389100  1.0  -0.0755
  C  C143  1  0.140600  0.797800  0.333900  1.0  -0.1368
  C  C144  1  0.063900  0.765100  0.319000  1.0  0.0737
  C  C145  1  0.008600  0.744100  0.362800  1.0  0.0743
  C  C146  1  0.939000  0.711300  0.189000  1.0  0.7115
  C  C147  1  0.130500  0.798800  0.493200  1.0  0.706
  C  C148  1  0.855800  0.933800  0.190100  1.0  -0.0687
  C  C149  1  0.791700  0.891100  0.166300  1.0  -0.0865
  C  C150  1  0.711500  0.899800  0.184000  1.0  -0.1191
  C  C151  1  0.608500  0.964500  0.244600  1.0  -0.1444
  C  C152  1  0.591400  0.015500  0.284600  1.0  -0.0681
  C  C153  1  0.655700  0.058300  0.308400  1.0  -0.1152
  C  C154  1  0.735300  0.049100  0.289700  1.0  -0.0955
  C  C155  1  0.837700  0.985500  0.229700  1.0  -0.1437
  C  C156  1  0.690600  0.953300  0.224900  1.0  0.075
  C  C157  1  0.755100  0.997200  0.247800  1.0  0.0735
  C  C158  1  0.815700  0.837600  0.121100  1.0  0.7193
  C  C159  1  0.636600  0.111200  0.355600  1.0  0.7176
  C  C160  1  0.460300  0.253000  0.737700  1.0  -0.0962
  C  C161  1  0.535100  0.221500  0.750300  1.0  -0.103
  C  C162  1  0.589500  0.200400  0.706800  1.0  -0.0716
  C  C163  1  0.567800  0.211100  0.651700  1.0  -0.1415
  C  C164  1  0.467600  0.256600  0.580800  1.0  -0.0893
  C  C165  1  0.392800  0.286800  0.567300  1.0  -0.0966
  C  C166  1  0.337700  0.307500  0.610900  1.0  -0.0733
  C  C167  1  0.359400  0.297800  0.666100  1.0  -0.1371
  C  C168  1  0.436100  0.265100  0.681000  1.0  0.0734
  C  C169  1  0.491400  0.244100  0.637200  1.0  0.0746
  C  C170  1  0.561000  0.211300  0.811000  1.0  0.7112
  C  C171  1  0.369500  0.298800  0.506800  1.0  0.7053
  C  C172  1  0.644200  0.433800  0.809900  1.0  -0.0679
  C  C173  1  0.708300  0.391100  0.833700  1.0  -0.0859
  C  C174  1  0.788500  0.399800  0.816000  1.0  -0.114
  C  C175  1  0.891500  0.464500  0.755400  1.0  -0.1423
  C  C176  1  0.908600  0.515500  0.715400  1.0  -0.0691
  C  C177  1  0.844300  0.558300  0.691600  1.0  -0.1154
  C  C178  1  0.764700  0.549100  0.710300  1.0  -0.0988
  C  C179  1  0.662300  0.485500  0.770300  1.0  -0.143
  C  C180  1  0.809400  0.453300  0.775100  1.0  0.0722
  C  C181  1  0.744900  0.497200  0.752200  1.0  0.0746
  C  C182  1  0.684300  0.337600  0.878900  1.0  0.7194
  C  C183  1  0.863400  0.611200  0.644400  1.0  0.7188
  C  C184  1  0.539700  0.247000  0.237700  1.0  -0.0958
  C  C185  1  0.464900  0.278500  0.250300  1.0  -0.1039
  C  C186  1  0.410500  0.299600  0.206800  1.0  -0.0705
  C  C187  1  0.432200  0.288900  0.151700  1.0  -0.1418
  C  C188  1  0.532400  0.243400  0.080800  1.0  -0.0888
  C  C189  1  0.607200  0.213200  0.067300  1.0  -0.0969
  C  C190  1  0.662300  0.192500  0.110900  1.0  -0.075
  C  C191  1  0.640600  0.202200  0.166100  1.0  -0.1364
  C  C192  1  0.563900  0.234900  0.181000  1.0  0.0731
  C  C193  1  0.508600  0.255900  0.137200  1.0  0.0745
  C  C194  1  0.439000  0.288700  0.311000  1.0  0.7102
  C  C195  1  0.630500  0.201200  0.006800  1.0  0.7064
  C  C196  1  0.355800  0.066200  0.309900  1.0  -0.068
  C  C197  1  0.291700  0.108900  0.333700  1.0  -0.0861
  C  C198  1  0.211500  0.100200  0.316000  1.0  -0.1206
  C  C199  1  0.108500  0.035500  0.255400  1.0  -0.144
  C  C200  1  0.091400  0.984500  0.215400  1.0  -0.0687
  C  C201  1  0.155700  0.941700  0.191600  1.0  -0.1157
  C  C202  1  0.235300  0.950900  0.210300  1.0  -0.0972
  C  C203  1  0.337700  0.014500  0.270300  1.0  -0.1441
  C  C204  1  0.190600  0.046700  0.275100  1.0  0.0751
  C  C205  1  0.255100  0.002800  0.252200  1.0  0.0739
  C  C206  1  0.315700  0.162400  0.378900  1.0  0.7182
  C  C207  1  0.136600  0.888800  0.144400  1.0  0.7347
  C  C208  1  0.039700  0.253000  0.237700  1.0  -0.0956
  C  C209  1  0.964900  0.221500  0.250300  1.0  -0.1039
  C  C210  1  0.910500  0.200400  0.206800  1.0  -0.0705
  C  C211  1  0.932200  0.211100  0.151700  1.0  -0.1415
  C  C212  1  0.032400  0.256600  0.080800  1.0  -0.0891
  C  C213  1  0.107200  0.286800  0.067300  1.0  -0.0966
  C  C214  1  0.162300  0.307500  0.110900  1.0  -0.0756
  C  C215  1  0.140600  0.297800  0.166100  1.0  -0.1363
  C  C216  1  0.063900  0.265100  0.181000  1.0  0.0731
  C  C217  1  0.008600  0.244100  0.137200  1.0  0.0746
  C  C218  1  0.939000  0.211300  0.311000  1.0  0.7106
  C  C219  1  0.130500  0.298800  0.006800  1.0  0.7063
  C  C220  1  0.855800  0.433800  0.309900  1.0  -0.0683
  C  C221  1  0.791700  0.391100  0.333700  1.0  -0.0863
  C  C222  1  0.711500  0.399800  0.316000  1.0  -0.1204
  C  C223  1  0.608500  0.464500  0.255400  1.0  -0.1441
  C  C224  1  0.591400  0.515500  0.215400  1.0  -0.0683
  C  C225  1  0.655700  0.558300  0.191600  1.0  -0.1158
  C  C226  1  0.735300  0.549100  0.210300  1.0  -0.097
  C  C227  1  0.837700  0.485500  0.270300  1.0  -0.1437
  C  C228  1  0.690600  0.453300  0.275100  1.0  0.0749
  C  C229  1  0.755100  0.497200  0.252200  1.0  0.0737
  C  C230  1  0.815700  0.337600  0.378900  1.0  0.7179
  C  C231  1  0.636600  0.611200  0.144400  1.0  0.7334
  C  C232  1  0.960300  0.247000  0.737700  1.0  0.033
  C  C233  1  0.035100  0.278500  0.750300  1.0  -0.1476
  C  C234  1  0.089500  0.299600  0.706800  1.0  -0.0697
  C  C235  1  0.067800  0.288900  0.651700  1.0  -0.1389
  C  C236  1  0.967600  0.243400  0.580800  1.0  -0.0895
  C  C237  1  0.892800  0.213200  0.567300  1.0  -0.0957
  C  C238  1  0.837700  0.192500  0.610900  1.0  -0.0743
  C  C239  1  0.859400  0.202200  0.666100  1.0  -0.1349
  C  C240  1  0.936100  0.234900  0.681000  1.0  0.0072
  C  C241  1  0.991400  0.255900  0.637200  1.0  0.0764
  C  C242  1  0.061000  0.288700  0.811000  1.0  0.7142
  C  C243  1  0.869500  0.201200  0.506800  1.0  0.7052
  C  C244  1  0.144200  0.066200  0.809900  1.0  -0.067
  C  C245  1  0.208300  0.108900  0.833700  1.0  -0.0862
  C  C246  1  0.288500  0.100200  0.816000  1.0  -0.1203
  C  C247  1  0.391500  0.035500  0.755400  1.0  -0.1432
  C  C248  1  0.408600  0.984500  0.715400  1.0  -0.0691
  C  C249  1  0.344300  0.941700  0.691600  1.0  -0.1158
  C  C250  1  0.264700  0.950900  0.710300  1.0  -0.0992
  C  C251  1  0.162300  0.014500  0.770300  1.0  -0.1433
  C  C252  1  0.309400  0.046700  0.775100  1.0  0.0748
  C  C253  1  0.244900  0.002800  0.752200  1.0  0.0745
  C  C254  1  0.184300  0.162400  0.878900  1.0  0.7196
  C  C255  1  0.363400  0.888800  0.644400  1.0  0.7339
  C  C256  1  0.539700  0.747000  0.262300  1.0  -0.0959
  C  C257  1  0.464900  0.778500  0.249700  1.0  -0.104
  C  C258  1  0.410500  0.799600  0.293200  1.0  -0.0711
  C  C259  1  0.432200  0.788900  0.348300  1.0  -0.1419
  C  C260  1  0.532400  0.743400  0.419200  1.0  -0.0887
  C  C261  1  0.607200  0.713200  0.432700  1.0  -0.096
  C  C262  1  0.662300  0.692500  0.389100  1.0  -0.0751
  C  C263  1  0.640600  0.702200  0.333900  1.0  -0.1368
  C  C264  1  0.563900  0.734900  0.319000  1.0  0.0739
  C  C265  1  0.508600  0.755900  0.362800  1.0  0.0743
  C  C266  1  0.439000  0.788700  0.189000  1.0  0.7121
  C  C267  1  0.630500  0.701200  0.493200  1.0  0.7062
  C  C268  1  0.355800  0.566200  0.190100  1.0  -0.0685
  C  C269  1  0.291700  0.608900  0.166300  1.0  -0.0861
  C  C270  1  0.211500  0.600200  0.184000  1.0  -0.1187
  C  C271  1  0.108500  0.535500  0.244600  1.0  -0.1442
  C  C272  1  0.091400  0.484500  0.284600  1.0  -0.0682
  C  C273  1  0.155700  0.441700  0.308400  1.0  -0.1146
  C  C274  1  0.235300  0.450900  0.289700  1.0  -0.0961
  C  C275  1  0.337700  0.514500  0.229700  1.0  -0.1441
  C  C276  1  0.190600  0.546700  0.224900  1.0  0.0752
  C  C277  1  0.255100  0.502800  0.247800  1.0  0.0737
  C  C278  1  0.315700  0.662400  0.121100  1.0  0.7185
  C  C279  1  0.136600  0.388800  0.355600  1.0  0.7338
  C  C280  1  0.460300  0.753000  0.762300  1.0  -0.0959
  C  C281  1  0.535100  0.721500  0.749700  1.0  -0.104
  C  C282  1  0.589500  0.700400  0.793200  1.0  -0.0715
  C  C283  1  0.567800  0.711100  0.848300  1.0  -0.1403
  C  C284  1  0.467600  0.756600  0.919200  1.0  -0.0882
  C  C285  1  0.392800  0.786800  0.932700  1.0  -0.0961
  C  C286  1  0.337700  0.807500  0.889100  1.0  -0.0733
  C  C287  1  0.359400  0.797800  0.833900  1.0  -0.1372
  C  C288  1  0.436100  0.765100  0.819000  1.0  0.0739
  C  C289  1  0.491400  0.744100  0.862800  1.0  0.0741
  C  C290  1  0.561000  0.711300  0.689000  1.0  0.7095
  C  C291  1  0.369500  0.798800  0.993200  1.0  0.7046
  C  C292  1  0.644200  0.933800  0.690100  1.0  -0.0683
  C  C293  1  0.708300  0.891100  0.666300  1.0  -0.0869
  C  C294  1  0.788500  0.899800  0.684000  1.0  -0.1203
  C  C295  1  0.891500  0.964500  0.744600  1.0  -0.1439
  C  C296  1  0.908600  0.015500  0.784600  1.0  -0.0741
  C  C297  1  0.844300  0.058300  0.808400  1.0  -0.1097
  C  C298  1  0.764700  0.049100  0.789700  1.0  -0.0941
  C  C299  1  0.662300  0.985500  0.729700  1.0  -0.1431
  C  C300  1  0.809400  0.953300  0.724900  1.0  0.0734
  C  C301  1  0.744900  0.997200  0.747800  1.0  0.0743
  C  C302  1  0.684300  0.837600  0.621100  1.0  0.7191
  C  C303  1  0.863400  0.111200  0.855600  1.0  0.7193
  O  O304  1  0.007300  0.776400  0.651600  1.0  -0.6544
  O  O305  1  0.133900  0.809300  0.679800  1.0  -0.5975
  O  O306  1  0.234000  0.712600  0.607600  1.0  -0.6123
  O  O307  1  0.114400  0.652600  0.598900  1.0  -0.65
  O  O308  1  0.799900  0.674200  0.005100  1.0  -0.5761
  O  O309  1  0.920900  0.718100  0.031500  1.0  -0.7093
  O  O310  1  0.438500  0.375300  0.865300  1.0  -0.6219
  O  O311  1  0.303900  0.363000  0.883400  1.0  -0.6534
  O  O312  1  0.992700  0.723600  0.151600  1.0  -0.655
  O  O313  1  0.866100  0.690700  0.179800  1.0  -0.5971
  O  O314  1  0.766000  0.787400  0.107600  1.0  -0.6128
  O  O315  1  0.885600  0.847400  0.098900  1.0  -0.6499
  O  O316  1  0.200100  0.825800  0.505100  1.0  -0.5747
  O  O317  1  0.079100  0.781900  0.531500  1.0  -0.7164
  O  O318  1  0.561500  0.124700  0.365300  1.0  -0.6208
  O  O319  1  0.696100  0.137000  0.383400  1.0  -0.6521
  O  O320  1  0.507300  0.223600  0.848400  1.0  -0.6539
  O  O321  1  0.633900  0.190700  0.820200  1.0  -0.5918
  O  O322  1  0.734000  0.287400  0.892400  1.0  -0.6089
  O  O323  1  0.614400  0.347400  0.901100  1.0  -0.6493
  O  O324  1  0.299900  0.325800  0.494900  1.0  -0.5766
  O  O325  1  0.420900  0.281900  0.468500  1.0  -0.7108
  O  O326  1  0.938500  0.624700  0.634700  1.0  -0.6214
  O  O327  1  0.803900  0.637000  0.616600  1.0  -0.652
  O  O328  1  0.492700  0.276400  0.348400  1.0  -0.6536
  O  O329  1  0.366100  0.309300  0.320200  1.0  -0.5964
  O  O330  1  0.266000  0.212600  0.392400  1.0  -0.6131
  O  O331  1  0.385600  0.152600  0.401100  1.0  -0.6489
  O  O332  1  0.700100  0.174200  0.994900  1.0  -0.5745
  O  O333  1  0.579100  0.218100  0.968500  1.0  -0.7158
  O  O334  1  0.061500  0.875300  0.134700  1.0  -0.6216
  O  O335  1  0.196100  0.863000  0.116600  1.0  -0.651
  O  O336  1  0.992700  0.223600  0.348400  1.0  -0.6538
  O  O337  1  0.866100  0.190700  0.320200  1.0  -0.5963
  O  O338  1  0.766000  0.287400  0.392400  1.0  -0.6127
  O  O339  1  0.885600  0.347400  0.401100  1.0  -0.6488
  O  O340  1  0.200100  0.325800  0.994900  1.0  -0.5747
  O  O341  1  0.079100  0.281900  0.968500  1.0  -0.7147
  O  O342  1  0.561500  0.624700  0.134700  1.0  -0.6208
  O  O343  1  0.696100  0.637000  0.116600  1.0  -0.6507
  O  O344  1  0.007300  0.276400  0.848400  1.0  -0.6598
  O  O345  1  0.133900  0.309300  0.820200  1.0  -0.5926
  O  O346  1  0.234000  0.212600  0.892400  1.0  -0.6123
  O  O347  1  0.114400  0.152600  0.901100  1.0  -0.6479
  O  O348  1  0.799900  0.174200  0.494900  1.0  -0.5753
  O  O349  1  0.920900  0.218100  0.468500  1.0  -0.7099
  O  O350  1  0.438500  0.875300  0.634700  1.0  -0.6218
  O  O351  1  0.303900  0.863000  0.616600  1.0  -0.6516
  O  O352  1  0.492700  0.776400  0.151600  1.0  -0.6549
  O  O353  1  0.366100  0.809300  0.179800  1.0  -0.5964
  O  O354  1  0.266000  0.712600  0.107600  1.0  -0.6119
  O  O355  1  0.385600  0.652600  0.098900  1.0  -0.6504
  O  O356  1  0.700100  0.674200  0.505100  1.0  -0.5755
  O  O357  1  0.579100  0.718100  0.531500  1.0  -0.7158
  O  O358  1  0.061500  0.375300  0.365300  1.0  -0.6218
  O  O359  1  0.196100  0.363000  0.383400  1.0  -0.6523
  O  O360  1  0.507300  0.723600  0.651600  1.0  -0.6543
  O  O361  1  0.633900  0.690700  0.679800  1.0  -0.5977
  O  O362  1  0.734000  0.787400  0.607600  1.0  -0.6121
  O  O363  1  0.614400  0.847400  0.598900  1.0  -0.6496
  O  O364  1  0.299900  0.825800  0.005100  1.0  -0.5762
  O  O365  1  0.420900  0.781900  0.031500  1.0  -0.7101
  O  O366  1  0.938500  0.124700  0.865300  1.0  -0.6272
  O  O367  1  0.803900  0.137000  0.883400  1.0  -0.6603
