# generated using pymatgen
data_CdH2C2N3Cl
_symmetry_space_group_name_H-M   'P 1'
_cell_length_a   8.44130000
_cell_length_b   8.44130000
_cell_length_c   16.68800000
_cell_angle_alpha   90.00000000
_cell_angle_beta   90.00000000
_cell_angle_gamma   90.78230000
_symmetry_Int_Tables_number   1
_chemical_formula_structural   CdH2C2N3Cl
_chemical_formula_sum   'Cd6 H12 C12 N18 Cl6'
_cell_volume   1189.00170875
_cell_formula_units_Z   6
loop_
 _symmetry_equiv_pos_site_id
 _symmetry_equiv_pos_as_xyz
  1  'x, y, z'
loop_
 _atom_site_type_symbol
 _atom_site_label
 _atom_site_symmetry_multiplicity
 _atom_site_fract_x
 _atom_site_fract_y
 _atom_site_fract_z
 _atom_site_occupancy
 _atom_site_charge
  Cd  Cd1  1  0.938550  0.061450  0.320610  1.0  0.8936
  Cd  Cd2  1  0.307190  0.692810  0.179800  1.0  0.8916
  Cd  Cd3  1  0.620630  0.379370  0.284580  1.0  0.8016
  Cd  Cd4  1  0.061450  0.938550  0.820610  1.0  0.8907
  Cd  Cd5  1  0.692810  0.307190  0.679800  1.0  0.8913
  Cd  Cd6  1  0.379370  0.620630  0.784580  1.0  0.8014
  H  H7  1  0.669800  0.776000  0.258100  1.0  0.0717
  H  H8  1  0.362800  0.093800  0.199900  1.0  0.0768
  H  H9  1  0.330200  0.224000  0.758100  1.0  0.0714
  H  H10  1  0.637200  0.906200  0.699900  1.0  0.0765
  H  H11  1  0.776000  0.669800  0.758100  1.0  0.0709
  H  H12  1  0.093800  0.362800  0.699900  1.0  0.0781
  H  H13  1  0.224000  0.330200  0.258100  1.0  0.0714
  H  H14  1  0.906200  0.637200  0.199900  1.0  0.0791
  H  H15  1  0.575800  0.424200  0.489100  1.0  0.0847
  H  H16  1  0.894900  0.105100  0.529100  1.0  0.0798
  H  H17  1  0.424200  0.575800  0.989100  1.0  0.0849
  H  H18  1  0.105100  0.894900  0.029100  1.0  0.0787
  C  C19  1  0.621500  0.873100  0.250000  1.0  0.2804
  C  C20  1  0.454600  0.046000  0.218100  1.0  0.2664
  C  C21  1  0.378500  0.126900  0.750000  1.0  0.2796
  C  C22  1  0.545400  0.954000  0.718100  1.0  0.266
  C  C23  1  0.873100  0.621500  0.750000  1.0  0.2793
  C  C24  1  0.046000  0.454600  0.718100  1.0  0.2656
  C  C25  1  0.126900  0.378500  0.250000  1.0  0.2806
  C  C26  1  0.954000  0.545400  0.218100  1.0  0.2662
  C  C27  1  0.652600  0.347400  0.482500  1.0  0.2689
  C  C28  1  0.825600  0.174400  0.504400  1.0  0.2735
  C  C29  1  0.347400  0.652600  0.982500  1.0  0.2691
  C  C30  1  0.174400  0.825600  0.004400  1.0  0.2734
  N  N31  1  0.688200  0.011400  0.269200  1.0  -0.3117
  N  N32  1  0.578600  0.126000  0.247300  1.0  -0.2682
  N  N33  1  0.476400  0.888400  0.217700  1.0  -0.4419
  N  N34  1  0.311800  0.988600  0.769200  1.0  -0.3108
  N  N35  1  0.421400  0.874000  0.747300  1.0  -0.2618
  N  N36  1  0.523600  0.111600  0.717700  1.0  -0.4417
  N  N37  1  0.011400  0.688200  0.769200  1.0  -0.3139
  N  N38  1  0.126000  0.578600  0.747300  1.0  -0.264
  N  N39  1  0.888400  0.476400  0.717700  1.0  -0.4419
  N  N40  1  0.988600  0.311800  0.269200  1.0  -0.3132
  N  N41  1  0.874000  0.421400  0.247300  1.0  -0.2659
  N  N42  1  0.111600  0.523600  0.217700  1.0  -0.442
  N  N43  1  0.701800  0.298200  0.413300  1.0  -0.2508
  N  N44  1  0.812800  0.187200  0.428400  1.0  -0.2958
  N  N45  1  0.728000  0.272000  0.545500  1.0  -0.4579
  N  N46  1  0.298200  0.701800  0.913300  1.0  -0.2495
  N  N47  1  0.187200  0.812800  0.928400  1.0  -0.2961
  N  N48  1  0.272000  0.728000  0.045500  1.0  -0.458
  Cl  Cl49  1  0.076100  0.923900  0.200600  1.0  -0.5262
  Cl  Cl50  1  0.431200  0.568800  0.343700  1.0  -0.5644
  Cl  Cl51  1  0.520000  0.480000  0.142800  1.0  -0.5488
  Cl  Cl52  1  0.923900  0.076100  0.700600  1.0  -0.526
  Cl  Cl53  1  0.568800  0.431200  0.843700  1.0  -0.5636
  Cl  Cl54  1  0.480000  0.520000  0.642800  1.0  -0.5491
