# generated using pymatgen
data_Zn2H6(C2N3)3
_symmetry_space_group_name_H-M   'P 1'
_cell_length_a   7.66300000
_cell_length_b   10.10400000
_cell_length_c   17.42600000
_cell_angle_alpha   90.00000000
_cell_angle_beta   90.00000000
_cell_angle_gamma   90.00000000
_symmetry_Int_Tables_number   1
_chemical_formula_structural   Zn2H6(C2N3)3
_chemical_formula_sum   'Zn8 H24 C24 N36'
_cell_volume   1349.24206555
_cell_formula_units_Z   4
loop_
 _symmetry_equiv_pos_site_id
 _symmetry_equiv_pos_as_xyz
  1  'x, y, z'
loop_
 _atom_site_type_symbol
 _atom_site_label
 _atom_site_symmetry_multiplicity
 _atom_site_fract_x
 _atom_site_fract_y
 _atom_site_fract_z
 _atom_site_occupancy
 _atom_site_charge
  Zn  Zn1  1  0.156920  0.750000  0.915550  1.0  0.2026
  Zn  Zn2  1  0.007500  0.750000  0.261190  1.0  0.6018
  Zn  Zn3  1  0.343080  0.250000  0.415550  1.0  0.1993
  Zn  Zn4  1  0.492500  0.250000  0.761190  1.0  0.6012
  Zn  Zn5  1  0.843080  0.250000  0.084450  1.0  0.1994
  Zn  Zn6  1  0.992500  0.250000  0.738810  1.0  0.6012
  Zn  Zn7  1  0.656920  0.750000  0.584450  1.0  0.2027
  Zn  Zn8  1  0.507500  0.750000  0.238810  1.0  0.6018
  H  H9  1  0.972500  0.536400  0.821900  1.0  0.0605
  H  H10  1  0.467900  0.535500  0.864000  1.0  0.0702
  H  H11  1  0.527500  0.463600  0.321900  1.0  0.0602
  H  H12  1  0.032100  0.464500  0.364000  1.0  0.0698
  H  H13  1  0.027500  0.036400  0.178100  1.0  0.0605
  H  H14  1  0.532100  0.035500  0.136000  1.0  0.0695
  H  H15  1  0.472500  0.963600  0.678100  1.0  0.06
  H  H16  1  0.967900  0.964500  0.636000  1.0  0.0702
  H  H17  1  0.027500  0.463600  0.178100  1.0  0.0598
  H  H18  1  0.532100  0.464500  0.136000  1.0  0.0694
  H  H19  1  0.472500  0.536400  0.678100  1.0  0.0603
  H  H20  1  0.967900  0.535500  0.636000  1.0  0.0703
  H  H21  1  0.972500  0.963600  0.821900  1.0  0.0606
  H  H22  1  0.467900  0.964500  0.864000  1.0  0.0705
  H  H23  1  0.527500  0.036400  0.321900  1.0  0.0605
  H  H24  1  0.032100  0.035500  0.364000  1.0  0.0694
  H  H25  1  0.472900  0.750000  0.043900  1.0  0.0632
  H  H26  1  0.973400  0.750000  0.074200  1.0  0.0685
  H  H27  1  0.027100  0.250000  0.543900  1.0  0.063
  H  H28  1  0.526600  0.250000  0.574200  1.0  0.0667
  H  H29  1  0.527100  0.250000  0.956100  1.0  0.0637
  H  H30  1  0.026600  0.250000  0.925800  1.0  0.0667
  H  H31  1  0.972900  0.750000  0.456100  1.0  0.0637
  H  H32  1  0.473400  0.750000  0.425800  1.0  0.0686
  C  C33  1  0.089400  0.511700  0.823870  1.0  0.2226
  C  C34  1  0.357600  0.511100  0.846770  1.0  0.2267
  C  C35  1  0.410600  0.488300  0.323870  1.0  0.2229
  C  C36  1  0.142400  0.488900  0.346770  1.0  0.2266
  C  C37  1  0.910600  0.011700  0.176130  1.0  0.2225
  C  C38  1  0.642400  0.011100  0.153230  1.0  0.226
  C  C39  1  0.589400  0.988300  0.676130  1.0  0.224
  C  C40  1  0.857600  0.988900  0.653230  1.0  0.2266
  C  C41  1  0.910600  0.488300  0.176130  1.0  0.2229
  C  C42  1  0.642400  0.488900  0.153230  1.0  0.2264
  C  C43  1  0.589400  0.511700  0.676130  1.0  0.2228
  C  C44  1  0.857600  0.511100  0.653230  1.0  0.2271
  C  C45  1  0.089400  0.988300  0.823870  1.0  0.2239
  C  C46  1  0.357600  0.988900  0.846770  1.0  0.2269
  C  C47  1  0.410600  0.011700  0.323870  1.0  0.2226
  C  C48  1  0.142400  0.011100  0.346770  1.0  0.2255
  C  C49  1  0.363300  0.750000  0.066800  1.0  0.2165
  C  C50  1  0.093100  0.750000  0.083200  1.0  0.238
  C  C51  1  0.136700  0.250000  0.566800  1.0  0.2175
  C  C52  1  0.406900  0.250000  0.583200  1.0  0.236
  C  C53  1  0.636700  0.250000  0.933200  1.0  0.2164
  C  C54  1  0.906900  0.250000  0.916800  1.0  0.2355
  C  C55  1  0.863300  0.750000  0.433200  1.0  0.2167
  C  C56  1  0.593100  0.750000  0.416800  1.0  0.2366
  N  N57  1  0.150000  0.402900  0.792430  1.0  -0.2245
  N  N58  1  0.325800  0.401700  0.807640  1.0  -0.2298
  N  N59  1  0.212300  0.583600  0.859050  1.0  -0.4185
  N  N60  1  0.350000  0.597100  0.292430  1.0  -0.2244
  N  N61  1  0.174200  0.598300  0.307640  1.0  -0.2291
  N  N62  1  0.287700  0.416400  0.359050  1.0  -0.4176
  N  N63  1  0.850000  0.902900  0.207570  1.0  -0.2243
  N  N64  1  0.674200  0.901700  0.192360  1.0  -0.2308
  N  N65  1  0.787700  0.083600  0.140950  1.0  -0.4183
  N  N66  1  0.650000  0.097100  0.707570  1.0  -0.2249
  N  N67  1  0.825800  0.098300  0.692360  1.0  -0.2297
  N  N68  1  0.712300  0.916400  0.640950  1.0  -0.4181
  N  N69  1  0.850000  0.597100  0.207570  1.0  -0.2242
  N  N70  1  0.674200  0.598300  0.192360  1.0  -0.2303
  N  N71  1  0.787700  0.416400  0.140950  1.0  -0.4178
  N  N72  1  0.650000  0.402900  0.707570  1.0  -0.2246
  N  N73  1  0.825800  0.401700  0.692360  1.0  -0.2304
  N  N74  1  0.712300  0.583600  0.640950  1.0  -0.4184
  N  N75  1  0.150000  0.097100  0.792430  1.0  -0.2249
  N  N76  1  0.325800  0.098300  0.807640  1.0  -0.2287
  N  N77  1  0.212300  0.916400  0.859050  1.0  -0.4179
  N  N78  1  0.350000  0.902900  0.292430  1.0  -0.2242
  N  N79  1  0.174200  0.901700  0.307640  1.0  -0.2299
  N  N80  1  0.287700  0.083600  0.359050  1.0  -0.4184
  N  N81  1  0.339000  0.750000  0.141610  1.0  -0.2262
  N  N82  1  0.162100  0.750000  0.152290  1.0  -0.2131
  N  N83  1  0.213000  0.750000  0.027040  1.0  -0.3611
  N  N84  1  0.161000  0.250000  0.641610  1.0  -0.2273
  N  N85  1  0.337900  0.250000  0.652290  1.0  -0.2133
  N  N86  1  0.287000  0.250000  0.527040  1.0  -0.3606
  N  N87  1  0.661000  0.250000  0.858390  1.0  -0.2267
  N  N88  1  0.837900  0.250000  0.847710  1.0  -0.214
  N  N89  1  0.787000  0.250000  0.972960  1.0  -0.361
  N  N90  1  0.839000  0.750000  0.358390  1.0  -0.2258
  N  N91  1  0.662100  0.750000  0.347710  1.0  -0.2137
  N  N92  1  0.713000  0.750000  0.472960  1.0  -0.3619
