# generated using pymatgen
data_MgH8C13NO5
_symmetry_space_group_name_H-M   'P 1'
_cell_length_a   18.30660000
_cell_length_b   16.97900000
_cell_length_c   13.80350000
_cell_angle_alpha   90.00000000
_cell_angle_beta   130.13400000
_cell_angle_gamma   90.00000000
_symmetry_Int_Tables_number   1
_chemical_formula_structural   MgH8C13NO5
_chemical_formula_sum   'Mg8 H64 C104 N8 O40'
_cell_volume   3280.26314562
_cell_formula_units_Z   8
loop_
 _symmetry_equiv_pos_site_id
 _symmetry_equiv_pos_as_xyz
  1  'x, y, z'
loop_
 _atom_site_type_symbol
 _atom_site_label
 _atom_site_symmetry_multiplicity
 _atom_site_fract_x
 _atom_site_fract_y
 _atom_site_fract_z
 _atom_site_occupancy
 _atom_site_charge
  Mg  Mg1  1  0.000000  0.191810  0.750000  1.0  1.4777
  Mg  Mg2  1  0.500000  0.691810  0.750000  1.0  1.4777
  Mg  Mg3  1  0.000000  0.808190  0.250000  1.0  1.4723
  Mg  Mg4  1  0.500000  0.308190  0.250000  1.0  1.4723
  Mg  Mg5  1  0.250000  0.250000  0.000000  1.0  1.5393
  Mg  Mg6  1  0.750000  0.250000  0.500000  1.0  1.5447
  Mg  Mg7  1  0.750000  0.750000  0.000000  1.0  1.5393
  Mg  Mg8  1  0.250000  0.750000  0.500000  1.0  1.5447
  H  H9  1  0.117000  0.417000  0.868000  1.0  0.1079
  H  H10  1  0.028000  0.988000  0.898000  1.0  0.1063
  H  H11  1  0.019000  0.272000  0.979000  1.0  0.1038
  H  H12  1  0.026000  0.877000  0.008000  1.0  0.1041
  H  H13  1  0.072000  0.528000  0.919000  1.0  0.1146
  H  H14  1  0.292000  0.041000  0.224000  1.0  0.1258
  H  H15  1  0.977000  0.377000  0.047000  1.0  0.1122
  H  H16  1  0.300000  0.934000  0.330000  1.0  0.0902
  H  H17  1  0.617000  0.917000  0.868000  1.0  0.1079
  H  H18  1  0.528000  0.488000  0.898000  1.0  0.1063
  H  H19  1  0.519000  0.772000  0.979000  1.0  0.1038
  H  H20  1  0.526000  0.377000  0.008000  1.0  0.1041
  H  H21  1  0.572000  0.028000  0.919000  1.0  0.1146
  H  H22  1  0.792000  0.541000  0.224000  1.0  0.1258
  H  H23  1  0.477000  0.877000  0.047000  1.0  0.1122
  H  H24  1  0.800000  0.434000  0.330000  1.0  0.0902
  H  H25  1  0.883000  0.417000  0.632000  1.0  0.1082
  H  H26  1  0.972000  0.988000  0.602000  1.0  0.1073
  H  H27  1  0.981000  0.272000  0.521000  1.0  0.1043
  H  H28  1  0.974000  0.877000  0.492000  1.0  0.1052
  H  H29  1  0.928000  0.528000  0.581000  1.0  0.114
  H  H30  1  0.708000  0.041000  0.276000  1.0  0.1262
  H  H31  1  0.023000  0.377000  0.453000  1.0  0.112
  H  H32  1  0.700000  0.934000  0.170000  1.0  0.0909
  H  H33  1  0.383000  0.917000  0.632000  1.0  0.1082
  H  H34  1  0.472000  0.488000  0.602000  1.0  0.1073
  H  H35  1  0.481000  0.772000  0.521000  1.0  0.1043
  H  H36  1  0.474000  0.377000  0.492000  1.0  0.1052
  H  H37  1  0.428000  0.028000  0.581000  1.0  0.114
  H  H38  1  0.208000  0.541000  0.276000  1.0  0.1262
  H  H39  1  0.523000  0.877000  0.453000  1.0  0.112
  H  H40  1  0.200000  0.434000  0.170000  1.0  0.0909
  H  H41  1  0.883000  0.583000  0.132000  1.0  0.1084
  H  H42  1  0.972000  0.012000  0.102000  1.0  0.1067
  H  H43  1  0.981000  0.728000  0.021000  1.0  0.1043
  H  H44  1  0.974000  0.123000  0.992000  1.0  0.1045
  H  H45  1  0.928000  0.472000  0.081000  1.0  0.1168
  H  H46  1  0.708000  0.959000  0.776000  1.0  0.1257
  H  H47  1  0.023000  0.623000  0.953000  1.0  0.1115
  H  H48  1  0.700000  0.066000  0.670000  1.0  0.0904
  H  H49  1  0.383000  0.083000  0.132000  1.0  0.1084
  H  H50  1  0.472000  0.512000  0.102000  1.0  0.1067
  H  H51  1  0.481000  0.228000  0.021000  1.0  0.1043
  H  H52  1  0.474000  0.623000  0.992000  1.0  0.1045
  H  H53  1  0.428000  0.972000  0.081000  1.0  0.1168
  H  H54  1  0.208000  0.459000  0.776000  1.0  0.1257
  H  H55  1  0.523000  0.123000  0.953000  1.0  0.1115
  H  H56  1  0.200000  0.566000  0.670000  1.0  0.0904
  H  H57  1  0.117000  0.583000  0.368000  1.0  0.1078
  H  H58  1  0.028000  0.012000  0.398000  1.0  0.106
  H  H59  1  0.019000  0.728000  0.479000  1.0  0.1037
  H  H60  1  0.026000  0.123000  0.508000  1.0  0.1039
  H  H61  1  0.072000  0.472000  0.419000  1.0  0.1165
  H  H62  1  0.292000  0.959000  0.724000  1.0  0.1256
  H  H63  1  0.977000  0.623000  0.547000  1.0  0.1125
  H  H64  1  0.300000  0.066000  0.830000  1.0  0.0904
  H  H65  1  0.617000  0.083000  0.368000  1.0  0.1078
  H  H66  1  0.528000  0.512000  0.398000  1.0  0.106
  H  H67  1  0.519000  0.228000  0.479000  1.0  0.1037
  H  H68  1  0.526000  0.623000  0.508000  1.0  0.1039
  H  H69  1  0.572000  0.972000  0.419000  1.0  0.1165
  H  H70  1  0.792000  0.459000  0.724000  1.0  0.1256
  H  H71  1  0.477000  0.123000  0.547000  1.0  0.1125
  H  H72  1  0.800000  0.566000  0.830000  1.0  0.0904
  C  C73  1  0.157460  0.830890  0.247500  1.0  0.6997
  C  C74  1  0.161650  0.098930  0.991700  1.0  0.6812
  C  C75  1  0.166270  0.025180  0.056400  1.0  -0.1514
  C  C76  1  0.014880  0.466030  0.982600  1.0  0.0622
  C  C77  1  0.087000  0.412970  0.900700  1.0  0.0215
  C  C78  1  0.058100  0.476630  0.929700  1.0  -0.1485
  C  C79  1  0.163130  0.895300  0.178200  1.0  -0.132
  C  C80  1  0.086200  0.911350  0.052500  1.0  -0.1022
  C  C81  1  0.242600  0.943500  0.240300  1.0  -0.1203
  C  C82  1  0.243100  0.008300  0.180100  1.0  -0.1331
  C  C83  1  0.087700  0.975120  0.991700  1.0  -0.0983
  C  C84  1  0.033600  0.326800  0.974400  1.0  0.0115
  C  C85  1  0.004000  0.389290  0.004500  1.0  -0.1525
  C  C86  1  0.657460  0.330890  0.247500  1.0  0.6997
  C  C87  1  0.661650  0.598930  0.991700  1.0  0.6812
  C  C88  1  0.666270  0.525180  0.056400  1.0  -0.1514
  C  C89  1  0.514880  0.966030  0.982600  1.0  0.0622
  C  C90  1  0.587000  0.912970  0.900700  1.0  0.0215
  C  C91  1  0.558100  0.976630  0.929700  1.0  -0.1485
  C  C92  1  0.663130  0.395300  0.178200  1.0  -0.132
  C  C93  1  0.586200  0.411350  0.052500  1.0  -0.1022
  C  C94  1  0.742600  0.443500  0.240300  1.0  -0.1203
  C  C95  1  0.743100  0.508300  0.180100  1.0  -0.1331
  C  C96  1  0.587700  0.475120  0.991700  1.0  -0.0983
  C  C97  1  0.533600  0.826800  0.974400  1.0  0.0115
  C  C98  1  0.504000  0.889290  0.004500  1.0  -0.1525
  C  C99  1  0.842540  0.830890  0.252500  1.0  0.6997
  C  C100  1  0.838350  0.098930  0.508300  1.0  0.6813
  C  C101  1  0.833730  0.025180  0.443600  1.0  -0.1512
  C  C102  1  0.985120  0.466030  0.517400  1.0  0.0623
  C  C103  1  0.913000  0.412970  0.599300  1.0  0.0198
  C  C104  1  0.941900  0.476630  0.570300  1.0  -0.1477
  C  C105  1  0.836870  0.895300  0.321800  1.0  -0.1316
  C  C106  1  0.913800  0.911350  0.447500  1.0  -0.1019
  C  C107  1  0.757400  0.943500  0.259700  1.0  -0.122
  C  C108  1  0.756900  0.008300  0.319900  1.0  -0.133
  C  C109  1  0.912300  0.975120  0.508300  1.0  -0.0973
  C  C110  1  0.966400  0.326800  0.525600  1.0  0.0103
  C  C111  1  0.996000  0.389290  0.495500  1.0  -0.1544
  C  C112  1  0.342540  0.330890  0.252500  1.0  0.6997
  C  C113  1  0.338350  0.598930  0.508300  1.0  0.6813
  C  C114  1  0.333730  0.525180  0.443600  1.0  -0.1512
  C  C115  1  0.485120  0.966030  0.517400  1.0  0.0623
  C  C116  1  0.413000  0.912970  0.599300  1.0  0.0198
  C  C117  1  0.441900  0.976630  0.570300  1.0  -0.1477
  C  C118  1  0.336870  0.395300  0.321800  1.0  -0.1316
  C  C119  1  0.413800  0.411350  0.447500  1.0  -0.1019
  C  C120  1  0.257400  0.443500  0.259700  1.0  -0.122
  C  C121  1  0.256900  0.508300  0.319900  1.0  -0.133
  C  C122  1  0.412300  0.475120  0.508300  1.0  -0.0973
  C  C123  1  0.466400  0.826800  0.525600  1.0  0.0103
  C  C124  1  0.496000  0.889290  0.495500  1.0  -0.1544
  C  C125  1  0.842540  0.169110  0.752500  1.0  0.6992
  C  C126  1  0.838350  0.901070  0.008300  1.0  0.6811
  C  C127  1  0.833730  0.974820  0.943600  1.0  -0.1506
  C  C128  1  0.985120  0.533970  0.017400  1.0  0.0623
  C  C129  1  0.913000  0.587030  0.099300  1.0  0.0204
  C  C130  1  0.941900  0.523370  0.070300  1.0  -0.1478
  C  C131  1  0.836870  0.104700  0.821800  1.0  -0.1304
  C  C132  1  0.913800  0.088650  0.947500  1.0  -0.1014
  C  C133  1  0.757400  0.056500  0.759700  1.0  -0.1216
  C  C134  1  0.756900  0.991700  0.819900  1.0  -0.1329
  C  C135  1  0.912300  0.024880  0.008300  1.0  -0.0962
  C  C136  1  0.966400  0.673200  0.025600  1.0  0.0134
  C  C137  1  0.996000  0.610710  0.995500  1.0  -0.1549
  C  C138  1  0.342540  0.669110  0.752500  1.0  0.6992
  C  C139  1  0.338350  0.401070  0.008300  1.0  0.6811
  C  C140  1  0.333730  0.474820  0.943600  1.0  -0.1506
  C  C141  1  0.485120  0.033970  0.017400  1.0  0.0623
  C  C142  1  0.413000  0.087030  0.099300  1.0  0.0204
  C  C143  1  0.441900  0.023370  0.070300  1.0  -0.1478
  C  C144  1  0.336870  0.604700  0.821800  1.0  -0.1304
  C  C145  1  0.413800  0.588650  0.947500  1.0  -0.1014
  C  C146  1  0.257400  0.556500  0.759700  1.0  -0.1216
  C  C147  1  0.256900  0.491700  0.819900  1.0  -0.1329
  C  C148  1  0.412300  0.524880  0.008300  1.0  -0.0962
  C  C149  1  0.466400  0.173200  0.025600  1.0  0.0134
  C  C150  1  0.496000  0.110710  0.995500  1.0  -0.1549
  C  C151  1  0.157460  0.169110  0.747500  1.0  0.6986
  C  C152  1  0.161650  0.901070  0.491700  1.0  0.681
  C  C153  1  0.166270  0.974820  0.556400  1.0  -0.1517
  C  C154  1  0.014880  0.533970  0.482600  1.0  0.0622
  C  C155  1  0.087000  0.587030  0.400700  1.0  0.021
  C  C156  1  0.058100  0.523370  0.429700  1.0  -0.1493
  C  C157  1  0.163130  0.104700  0.678200  1.0  -0.1309
  C  C158  1  0.086200  0.088650  0.552500  1.0  -0.1021
  C  C159  1  0.242600  0.056500  0.740300  1.0  -0.1198
  C  C160  1  0.243100  0.991700  0.680100  1.0  -0.1327
  C  C161  1  0.087700  0.024880  0.491700  1.0  -0.0979
  C  C162  1  0.033600  0.673200  0.474400  1.0  0.0113
  C  C163  1  0.004000  0.610710  0.504500  1.0  -0.1548
  C  C164  1  0.657460  0.669110  0.747500  1.0  0.6986
  C  C165  1  0.661650  0.401070  0.491700  1.0  0.681
  C  C166  1  0.666270  0.474820  0.556400  1.0  -0.1517
  C  C167  1  0.514880  0.033970  0.482600  1.0  0.0622
  C  C168  1  0.587000  0.087030  0.400700  1.0  0.021
  C  C169  1  0.558100  0.023370  0.429700  1.0  -0.1493
  C  C170  1  0.663130  0.604700  0.678200  1.0  -0.1309
  C  C171  1  0.586200  0.588650  0.552500  1.0  -0.1021
  C  C172  1  0.742600  0.556500  0.740300  1.0  -0.1198
  C  C173  1  0.743100  0.491700  0.680100  1.0  -0.1327
  C  C174  1  0.587700  0.524880  0.491700  1.0  -0.0979
  C  C175  1  0.533600  0.173200  0.474400  1.0  0.0113
  C  C176  1  0.504000  0.110710  0.504500  1.0  -0.1548
  N  N177  1  0.072950  0.339590  0.920700  1.0  0.3055
  N  N178  1  0.572950  0.839590  0.920700  1.0  0.3055
  N  N179  1  0.927050  0.339590  0.579300  1.0  0.3054
  N  N180  1  0.427050  0.839590  0.579300  1.0  0.3054
  N  N181  1  0.927050  0.660410  0.079300  1.0  0.3059
  N  N182  1  0.427050  0.160410  0.079300  1.0  0.3059
  N  N183  1  0.072950  0.660410  0.420700  1.0  0.3058
  N  N184  1  0.572950  0.160410  0.420700  1.0  0.3058
  O  O185  1  0.099330  0.278660  0.888330  1.0  -0.6742
  O  O186  1  0.088580  0.108340  0.878820  1.0  -0.6285
  O  O187  1  0.231650  0.812270  0.356370  1.0  -0.6068
  O  O188  1  0.075810  0.801090  0.190960  1.0  -0.6016
  O  O189  1  0.231340  0.146100  0.057690  1.0  -0.6075
  O  O190  1  0.599330  0.778660  0.888330  1.0  -0.6742
  O  O191  1  0.588580  0.608340  0.878820  1.0  -0.6285
  O  O192  1  0.731650  0.312270  0.356370  1.0  -0.6068
  O  O193  1  0.575810  0.301090  0.190960  1.0  -0.6016
  O  O194  1  0.731340  0.646100  0.057690  1.0  -0.6075
  O  O195  1  0.900670  0.278660  0.611670  1.0  -0.6739
  O  O196  1  0.911420  0.108340  0.621180  1.0  -0.6282
  O  O197  1  0.768350  0.812270  0.143630  1.0  -0.607
  O  O198  1  0.924190  0.801090  0.309040  1.0  -0.6028
  O  O199  1  0.768660  0.146100  0.442310  1.0  -0.6064
  O  O200  1  0.400670  0.778660  0.611670  1.0  -0.6739
  O  O201  1  0.411420  0.608340  0.621180  1.0  -0.6282
  O  O202  1  0.268350  0.312270  0.143630  1.0  -0.607
  O  O203  1  0.424190  0.301090  0.309040  1.0  -0.6028
  O  O204  1  0.268660  0.646100  0.442310  1.0  -0.6064
  O  O205  1  0.900670  0.721340  0.111670  1.0  -0.6736
  O  O206  1  0.911420  0.891660  0.121180  1.0  -0.628
  O  O207  1  0.768350  0.187730  0.643630  1.0  -0.6066
  O  O208  1  0.924190  0.198910  0.809040  1.0  -0.6028
  O  O209  1  0.768660  0.853900  0.942310  1.0  -0.6068
  O  O210  1  0.400670  0.221340  0.111670  1.0  -0.6736
  O  O211  1  0.411420  0.391660  0.121180  1.0  -0.628
  O  O212  1  0.268350  0.687730  0.643630  1.0  -0.6066
  O  O213  1  0.424190  0.698910  0.809040  1.0  -0.6028
  O  O214  1  0.268660  0.353900  0.942310  1.0  -0.6068
  O  O215  1  0.099330  0.721340  0.388330  1.0  -0.6736
  O  O216  1  0.088580  0.891660  0.378820  1.0  -0.628
  O  O217  1  0.231650  0.187730  0.856370  1.0  -0.6066
  O  O218  1  0.075810  0.198910  0.690960  1.0  -0.6018
  O  O219  1  0.231340  0.853900  0.557690  1.0  -0.6077
  O  O220  1  0.599330  0.221340  0.388330  1.0  -0.6736
  O  O221  1  0.588580  0.391660  0.378820  1.0  -0.628
  O  O222  1  0.731650  0.687730  0.856370  1.0  -0.6066
  O  O223  1  0.575810  0.698910  0.690960  1.0  -0.6018
  O  O224  1  0.731340  0.353900  0.557690  1.0  -0.6077
