# generated using pymatgen
data_MgH8C13NO5
_symmetry_space_group_name_H-M   'P 1'
_cell_length_a   17.65500000
_cell_length_b   17.63800000
_cell_length_c   12.95600000
_cell_angle_alpha   90.00000000
_cell_angle_beta   127.42100000
_cell_angle_gamma   90.00000000
_symmetry_Int_Tables_number   1
_chemical_formula_structural   MgH8C13NO5
_chemical_formula_sum   'Mg8 H64 C104 N8 O40'
_cell_volume   3204.15473948
_cell_formula_units_Z   8
loop_
 _symmetry_equiv_pos_site_id
 _symmetry_equiv_pos_as_xyz
  1  'x, y, z'
loop_
 _atom_site_type_symbol
 _atom_site_label
 _atom_site_symmetry_multiplicity
 _atom_site_fract_x
 _atom_site_fract_y
 _atom_site_fract_z
 _atom_site_occupancy
 _atom_site_charge
  Mg  Mg1  1  0.000000  0.304270  0.250000  1.0  1.4617
  Mg  Mg2  1  0.500000  0.804270  0.250000  1.0  1.4617
  Mg  Mg3  1  0.000000  0.695730  0.750000  1.0  1.4613
  Mg  Mg4  1  0.500000  0.195730  0.750000  1.0  1.4613
  Mg  Mg5  1  0.250000  0.250000  0.500000  1.0  1.5428
  Mg  Mg6  1  0.750000  0.250000  0.000000  1.0  1.5428
  Mg  Mg7  1  0.750000  0.750000  0.500000  1.0  1.5428
  Mg  Mg8  1  0.250000  0.750000  0.000000  1.0  1.5428
  H  H9  1  0.024000  0.498000  0.889000  1.0  0.0943
  H  H10  1  0.013000  0.219000  0.489000  1.0  0.0974
  H  H11  1  0.967000  0.116000  0.544000  1.0  0.1065
  H  H12  1  0.028000  0.373000  0.999000  1.0  0.0937
  H  H13  1  0.114000  0.085000  0.361000  1.0  0.1842
  H  H14  1  0.295000  0.549000  0.238000  1.0  0.0867
  H  H15  1  0.056000  0.988000  0.394000  1.0  0.156
  H  H16  1  0.290000  0.443000  0.326000  1.0  0.0867
  H  H17  1  0.524000  0.998000  0.889000  1.0  0.0943
  H  H18  1  0.513000  0.719000  0.489000  1.0  0.0974
  H  H19  1  0.467000  0.616000  0.544000  1.0  0.1065
  H  H20  1  0.528000  0.873000  0.999000  1.0  0.0937
  H  H21  1  0.614000  0.585000  0.361000  1.0  0.1842
  H  H22  1  0.795000  0.049000  0.238000  1.0  0.0867
  H  H23  1  0.556000  0.488000  0.394000  1.0  0.156
  H  H24  1  0.790000  0.943000  0.326000  1.0  0.0867
  H  H25  1  0.976000  0.498000  0.611000  1.0  0.0943
  H  H26  1  0.987000  0.219000  0.011000  1.0  0.0984
  H  H27  1  0.033000  0.116000  0.956000  1.0  0.1076
  H  H28  1  0.972000  0.373000  0.501000  1.0  0.0935
  H  H29  1  0.886000  0.085000  0.139000  1.0  0.1849
  H  H30  1  0.705000  0.549000  0.262000  1.0  0.0887
  H  H31  1  0.944000  0.988000  0.106000  1.0  0.1566
  H  H32  1  0.710000  0.443000  0.174000  1.0  0.0871
  H  H33  1  0.476000  0.998000  0.611000  1.0  0.0943
  H  H34  1  0.487000  0.719000  0.011000  1.0  0.0984
  H  H35  1  0.533000  0.616000  0.956000  1.0  0.1076
  H  H36  1  0.472000  0.873000  0.501000  1.0  0.0935
  H  H37  1  0.386000  0.585000  0.139000  1.0  0.1849
  H  H38  1  0.205000  0.049000  0.262000  1.0  0.0887
  H  H39  1  0.444000  0.488000  0.106000  1.0  0.1566
  H  H40  1  0.210000  0.943000  0.174000  1.0  0.0871
  H  H41  1  0.976000  0.502000  0.111000  1.0  0.0942
  H  H42  1  0.987000  0.781000  0.511000  1.0  0.0976
  H  H43  1  0.033000  0.884000  0.456000  1.0  0.1072
  H  H44  1  0.972000  0.627000  0.001000  1.0  0.0938
  H  H45  1  0.886000  0.915000  0.639000  1.0  0.1847
  H  H46  1  0.705000  0.451000  0.762000  1.0  0.0884
  H  H47  1  0.944000  0.012000  0.606000  1.0  0.1563
  H  H48  1  0.710000  0.557000  0.674000  1.0  0.0871
  H  H49  1  0.476000  0.002000  0.111000  1.0  0.0942
  H  H50  1  0.487000  0.281000  0.511000  1.0  0.0976
  H  H51  1  0.533000  0.384000  0.456000  1.0  0.1072
  H  H52  1  0.472000  0.127000  0.001000  1.0  0.0938
  H  H53  1  0.386000  0.415000  0.639000  1.0  0.1847
  H  H54  1  0.205000  0.951000  0.762000  1.0  0.0884
  H  H55  1  0.444000  0.512000  0.606000  1.0  0.1563
  H  H56  1  0.210000  0.057000  0.674000  1.0  0.0871
  H  H57  1  0.024000  0.502000  0.389000  1.0  0.0943
  H  H58  1  0.013000  0.781000  0.989000  1.0  0.098
  H  H59  1  0.967000  0.884000  0.044000  1.0  0.1066
  H  H60  1  0.028000  0.627000  0.499000  1.0  0.0943
  H  H61  1  0.114000  0.915000  0.861000  1.0  0.1846
  H  H62  1  0.295000  0.451000  0.738000  1.0  0.0873
  H  H63  1  0.056000  0.012000  0.894000  1.0  0.1542
  H  H64  1  0.290000  0.557000  0.826000  1.0  0.0865
  H  H65  1  0.524000  0.002000  0.389000  1.0  0.0943
  H  H66  1  0.513000  0.281000  0.989000  1.0  0.098
  H  H67  1  0.467000  0.384000  0.044000  1.0  0.1066
  H  H68  1  0.528000  0.127000  0.499000  1.0  0.0943
  H  H69  1  0.614000  0.415000  0.861000  1.0  0.1846
  H  H70  1  0.795000  0.951000  0.738000  1.0  0.0873
  H  H71  1  0.556000  0.512000  0.894000  1.0  0.1542
  H  H72  1  0.790000  0.057000  0.826000  1.0  0.0865
  C  C73  1  0.089500  0.091000  0.397200  1.0  0.0295
  C  C74  1  0.014700  0.033500  0.482300  1.0  -0.0002
  C  C75  1  0.060600  0.027800  0.426700  1.0  -0.1166
  C  C76  1  0.157700  0.330800  0.240400  1.0  0.6984
  C  C77  1  0.160200  0.604800  0.994100  1.0  0.6613
  C  C78  1  0.164700  0.530500  0.056600  1.0  -0.131
  C  C79  1  0.239500  0.447300  0.241000  1.0  -0.0763
  C  C80  1  0.164000  0.397000  0.173700  1.0  -0.116
  C  C81  1  0.000900  0.106900  0.508500  1.0  -0.1741
  C  C82  1  0.089700  0.479600  0.986600  1.0  -0.1165
  C  C83  1  0.088500  0.413300  0.044500  1.0  -0.0717
  C  C84  1  0.029000  0.168600  0.476800  1.0  0.003
  C  C85  1  0.239900  0.513400  0.183700  1.0  -0.1381
  C  C86  1  0.589500  0.591000  0.397200  1.0  0.0295
  C  C87  1  0.514700  0.533500  0.482300  1.0  -0.0002
  C  C88  1  0.560600  0.527800  0.426700  1.0  -0.1166
  C  C89  1  0.657700  0.830800  0.240400  1.0  0.6984
  C  C90  1  0.660200  0.104800  0.994100  1.0  0.6613
  C  C91  1  0.664700  0.030500  0.056600  1.0  -0.131
  C  C92  1  0.739500  0.947300  0.241000  1.0  -0.0763
  C  C93  1  0.664000  0.897000  0.173700  1.0  -0.116
  C  C94  1  0.500900  0.606900  0.508500  1.0  -0.1741
  C  C95  1  0.589700  0.979600  0.986600  1.0  -0.1165
  C  C96  1  0.588500  0.913300  0.044500  1.0  -0.0717
  C  C97  1  0.529000  0.668600  0.476800  1.0  0.003
  C  C98  1  0.739900  0.013400  0.183700  1.0  -0.1381
  C  C99  1  0.910500  0.091000  0.102800  1.0  0.0293
  C  C100  1  0.985300  0.033500  0.017700  1.0  -0.0002
  C  C101  1  0.939400  0.027800  0.073300  1.0  -0.1155
  C  C102  1  0.842300  0.330800  0.259600  1.0  0.6978
  C  C103  1  0.839800  0.604800  0.505900  1.0  0.6621
  C  C104  1  0.835300  0.530500  0.443400  1.0  -0.1311
  C  C105  1  0.760500  0.447300  0.259000  1.0  -0.0754
  C  C106  1  0.836000  0.397000  0.326300  1.0  -0.1159
  C  C107  1  0.999100  0.106900  0.991500  1.0  -0.1732
  C  C108  1  0.910300  0.479600  0.513400  1.0  -0.116
  C  C109  1  0.911500  0.413300  0.455500  1.0  -0.07
  C  C110  1  0.971000  0.168600  0.023200  1.0  0.004
  C  C111  1  0.760100  0.513400  0.316300  1.0  -0.1385
  C  C112  1  0.410500  0.591000  0.102800  1.0  0.0293
  C  C113  1  0.485300  0.533500  0.017700  1.0  -0.0002
  C  C114  1  0.439400  0.527800  0.073300  1.0  -0.1155
  C  C115  1  0.342300  0.830800  0.259600  1.0  0.6978
  C  C116  1  0.339800  0.104800  0.505900  1.0  0.6621
  C  C117  1  0.335300  0.030500  0.443400  1.0  -0.1311
  C  C118  1  0.260500  0.947300  0.259000  1.0  -0.0754
  C  C119  1  0.336000  0.897000  0.326300  1.0  -0.1159
  C  C120  1  0.499100  0.606900  0.991500  1.0  -0.1732
  C  C121  1  0.410300  0.979600  0.513400  1.0  -0.116
  C  C122  1  0.411500  0.913300  0.455500  1.0  -0.07
  C  C123  1  0.471000  0.668600  0.023200  1.0  0.004
  C  C124  1  0.260100  0.013400  0.316300  1.0  -0.1385
  C  C125  1  0.910500  0.909000  0.602800  1.0  0.0291
  C  C126  1  0.985300  0.966500  0.517700  1.0  -1e-04
  C  C127  1  0.939400  0.972200  0.573300  1.0  -0.1163
  C  C128  1  0.842300  0.669200  0.759600  1.0  0.6976
  C  C129  1  0.839800  0.395200  0.005900  1.0  0.6618
  C  C130  1  0.835300  0.469500  0.943400  1.0  -0.1319
  C  C131  1  0.760500  0.552700  0.759000  1.0  -0.075
  C  C132  1  0.836000  0.603000  0.826300  1.0  -0.115
  C  C133  1  0.999100  0.893100  0.491500  1.0  -0.1747
  C  C134  1  0.910300  0.520400  0.013400  1.0  -0.1158
  C  C135  1  0.911500  0.586700  0.955500  1.0  -0.0688
  C  C136  1  0.971000  0.831400  0.523200  1.0  0.0007
  C  C137  1  0.760100  0.486600  0.816300  1.0  -0.1388
  C  C138  1  0.410500  0.409000  0.602800  1.0  0.0291
  C  C139  1  0.485300  0.466500  0.517700  1.0  -1e-04
  C  C140  1  0.439400  0.472200  0.573300  1.0  -0.1163
  C  C141  1  0.342300  0.169200  0.759600  1.0  0.6976
  C  C142  1  0.339800  0.895200  0.005900  1.0  0.6618
  C  C143  1  0.335300  0.969500  0.943400  1.0  -0.1319
  C  C144  1  0.260500  0.052700  0.759000  1.0  -0.075
  C  C145  1  0.336000  0.103000  0.826300  1.0  -0.115
  C  C146  1  0.499100  0.393100  0.491500  1.0  -0.1747
  C  C147  1  0.410300  0.020400  0.013400  1.0  -0.1158
  C  C148  1  0.411500  0.086700  0.955500  1.0  -0.0688
  C  C149  1  0.471000  0.331400  0.523200  1.0  0.0007
  C  C150  1  0.260100  0.986600  0.816300  1.0  -0.1388
  C  C151  1  0.089500  0.909000  0.897200  1.0  0.0288
  C  C152  1  0.014700  0.966500  0.982300  1.0  -1e-04
  C  C153  1  0.060600  0.972200  0.926700  1.0  -0.1163
  C  C154  1  0.157700  0.669200  0.740400  1.0  0.6987
  C  C155  1  0.160200  0.395200  0.494100  1.0  0.6609
  C  C156  1  0.164700  0.469500  0.556600  1.0  -0.1324
  C  C157  1  0.239500  0.552700  0.741000  1.0  -0.0759
  C  C158  1  0.164000  0.603000  0.673700  1.0  -0.1151
  C  C159  1  0.000900  0.893100  0.008500  1.0  -0.1757
  C  C160  1  0.089700  0.520400  0.486600  1.0  -0.1166
  C  C161  1  0.088500  0.586700  0.544500  1.0  -0.0713
  C  C162  1  0.029000  0.831400  0.976800  1.0  0.0025
  C  C163  1  0.239900  0.486600  0.683700  1.0  -0.1391
  C  C164  1  0.589500  0.409000  0.897200  1.0  0.0288
  C  C165  1  0.514700  0.466500  0.982300  1.0  -1e-04
  C  C166  1  0.560600  0.472200  0.926700  1.0  -0.1163
  C  C167  1  0.657700  0.169200  0.740400  1.0  0.6987
  C  C168  1  0.660200  0.895200  0.494100  1.0  0.6609
  C  C169  1  0.664700  0.969500  0.556600  1.0  -0.1324
  C  C170  1  0.739500  0.052700  0.741000  1.0  -0.0759
  C  C171  1  0.664000  0.103000  0.673700  1.0  -0.1151
  C  C172  1  0.500900  0.393100  0.008500  1.0  -0.1757
  C  C173  1  0.589700  0.020400  0.486600  1.0  -0.1166
  C  C174  1  0.588500  0.086700  0.544500  1.0  -0.0713
  C  C175  1  0.529000  0.331400  0.976800  1.0  0.0025
  C  C176  1  0.739900  0.986600  0.683700  1.0  -0.1391
  N  N177  1  0.072500  0.160540  0.421600  1.0  0.2679
  N  N178  1  0.572500  0.660540  0.421600  1.0  0.2679
  N  N179  1  0.927500  0.160540  0.078400  1.0  0.2681
  N  N180  1  0.427500  0.660540  0.078400  1.0  0.2681
  N  N181  1  0.927500  0.839460  0.578400  1.0  0.2666
  N  N182  1  0.427500  0.339460  0.578400  1.0  0.2666
  N  N183  1  0.072500  0.839460  0.921600  1.0  0.2671
  N  N184  1  0.572500  0.339460  0.921600  1.0  0.2671
  O  O185  1  0.098700  0.221050  0.389000  1.0  -0.6677
  O  O186  1  0.077400  0.298910  0.182100  1.0  -0.5975
  O  O187  1  0.087100  0.615200  0.879200  1.0  -0.6204
  O  O188  1  0.227800  0.650850  0.063400  1.0  -0.6057
  O  O189  1  0.232000  0.312130  0.350700  1.0  -0.6376
  O  O190  1  0.598700  0.721050  0.389000  1.0  -0.6677
  O  O191  1  0.577400  0.798910  0.182100  1.0  -0.5975
  O  O192  1  0.587100  0.115200  0.879200  1.0  -0.6204
  O  O193  1  0.727800  0.150850  0.063400  1.0  -0.6057
  O  O194  1  0.732000  0.812130  0.350700  1.0  -0.6376
  O  O195  1  0.901300  0.221050  0.111000  1.0  -0.6679
  O  O196  1  0.922600  0.298910  0.317900  1.0  -0.598
  O  O197  1  0.912900  0.615200  0.620800  1.0  -0.6202
  O  O198  1  0.772200  0.650850  0.436600  1.0  -0.6073
  O  O199  1  0.768000  0.312130  0.149300  1.0  -0.6392
  O  O200  1  0.401300  0.721050  0.111000  1.0  -0.6679
  O  O201  1  0.422600  0.798910  0.317900  1.0  -0.598
  O  O202  1  0.412900  0.115200  0.620800  1.0  -0.6202
  O  O203  1  0.272200  0.150850  0.436600  1.0  -0.6073
  O  O204  1  0.268000  0.812130  0.149300  1.0  -0.6392
  O  O205  1  0.901300  0.778950  0.611000  1.0  -0.6671
  O  O206  1  0.922600  0.701090  0.817900  1.0  -0.5973
  O  O207  1  0.912900  0.384800  0.120800  1.0  -0.6202
  O  O208  1  0.772200  0.349150  0.936600  1.0  -0.6075
  O  O209  1  0.768000  0.687870  0.649300  1.0  -0.6389
  O  O210  1  0.401300  0.278950  0.611000  1.0  -0.6671
  O  O211  1  0.422600  0.201090  0.817900  1.0  -0.5973
  O  O212  1  0.412900  0.884800  0.120800  1.0  -0.6202
  O  O213  1  0.272200  0.849150  0.936600  1.0  -0.6075
  O  O214  1  0.268000  0.187870  0.649300  1.0  -0.6389
  O  O215  1  0.098700  0.778950  0.889000  1.0  -0.6672
  O  O216  1  0.077400  0.701090  0.682100  1.0  -0.5971
  O  O217  1  0.087100  0.384800  0.379200  1.0  -0.6203
  O  O218  1  0.227800  0.349150  0.563400  1.0  -0.6058
  O  O219  1  0.232000  0.687870  0.850700  1.0  -0.6376
  O  O220  1  0.598700  0.278950  0.889000  1.0  -0.6672
  O  O221  1  0.577400  0.201090  0.682100  1.0  -0.5971
  O  O222  1  0.587100  0.884800  0.379200  1.0  -0.6203
  O  O223  1  0.727800  0.849150  0.563400  1.0  -0.6058
  O  O224  1  0.732000  0.187870  0.850700  1.0  -0.6376
