# generated using pymatgen
data_MgH8C13NO5
_symmetry_space_group_name_H-M   'P 1'
_cell_length_a   16.75130000
_cell_length_b   18.19230000
_cell_length_c   12.02580000
_cell_angle_alpha   90.00000000
_cell_angle_beta   123.87000000
_cell_angle_gamma   90.00000000
_symmetry_Int_Tables_number   1
_chemical_formula_structural   MgH8C13NO5
_chemical_formula_sum   'Mg8 H64 C104 N8 O40'
_cell_volume   3042.89761893
_cell_formula_units_Z   8
loop_
 _symmetry_equiv_pos_site_id
 _symmetry_equiv_pos_as_xyz
  1  'x, y, z'
loop_
 _atom_site_type_symbol
 _atom_site_label
 _atom_site_symmetry_multiplicity
 _atom_site_fract_x
 _atom_site_fract_y
 _atom_site_fract_z
 _atom_site_occupancy
 _atom_site_charge
  Mg  Mg1  1  0.000000  0.302080  0.250000  1.0  1.4521
  Mg  Mg2  1  0.500000  0.802080  0.250000  1.0  1.4521
  Mg  Mg3  1  0.000000  0.697920  0.750000  1.0  1.4506
  Mg  Mg4  1  0.500000  0.197920  0.750000  1.0  1.4506
  Mg  Mg5  1  0.250000  0.250000  0.500000  1.0  1.5495
  Mg  Mg6  1  0.750000  0.250000  0.000000  1.0  1.5496
  Mg  Mg7  1  0.750000  0.750000  0.500000  1.0  1.5495
  Mg  Mg8  1  0.250000  0.750000  0.000000  1.0  1.5495
  H  H9  1  0.085000  0.986700  0.405000  1.0  0.1356
  H  H10  1  0.129000  0.098400  0.355000  1.0  0.0977
  H  H11  1  0.963000  0.108000  0.559000  1.0  0.1202
  H  H12  1  0.050000  0.381000  0.991000  1.0  0.0922
  H  H13  1  0.279000  0.555000  0.243000  1.0  0.105
  H  H14  1  0.285000  0.441000  0.340000  1.0  0.0924
  H  H15  1  0.042000  0.496000  0.886000  1.0  0.1062
  H  H16  1  0.009000  0.218000  0.494000  1.0  0.0954
  H  H17  1  0.585000  0.486700  0.405000  1.0  0.1357
  H  H18  1  0.629000  0.598400  0.355000  1.0  0.0977
  H  H19  1  0.463000  0.608000  0.559000  1.0  0.1203
  H  H20  1  0.550000  0.881000  0.991000  1.0  0.0922
  H  H21  1  0.779000  0.055000  0.243000  1.0  0.105
  H  H22  1  0.785000  0.941000  0.340000  1.0  0.0924
  H  H23  1  0.542000  0.996000  0.886000  1.0  0.1062
  H  H24  1  0.509000  0.718000  0.494000  1.0  0.0954
  H  H25  1  0.915000  0.986700  0.095000  1.0  0.1364
  H  H26  1  0.871000  0.098400  0.145000  1.0  0.0983
  H  H27  1  0.037000  0.108000  0.941000  1.0  0.1207
  H  H28  1  0.950000  0.381000  0.509000  1.0  0.0918
  H  H29  1  0.721000  0.555000  0.257000  1.0  0.106
  H  H30  1  0.715000  0.441000  0.160000  1.0  0.0925
  H  H31  1  0.958000  0.496000  0.614000  1.0  0.1071
  H  H32  1  0.991000  0.218000  0.006000  1.0  0.0956
  H  H33  1  0.415000  0.486700  0.095000  1.0  0.1364
  H  H34  1  0.371000  0.598400  0.145000  1.0  0.0983
  H  H35  1  0.537000  0.608000  0.941000  1.0  0.1208
  H  H36  1  0.450000  0.881000  0.509000  1.0  0.0918
  H  H37  1  0.221000  0.055000  0.257000  1.0  0.106
  H  H38  1  0.215000  0.941000  0.160000  1.0  0.0925
  H  H39  1  0.458000  0.996000  0.614000  1.0  0.1071
  H  H40  1  0.491000  0.718000  0.006000  1.0  0.0956
  H  H41  1  0.915000  0.013300  0.595000  1.0  0.1381
  H  H42  1  0.871000  0.901600  0.645000  1.0  0.0983
  H  H43  1  0.037000  0.892000  0.441000  1.0  0.1199
  H  H44  1  0.950000  0.619000  0.009000  1.0  0.0916
  H  H45  1  0.721000  0.445000  0.757000  1.0  0.1059
  H  H46  1  0.715000  0.559000  0.660000  1.0  0.0925
  H  H47  1  0.958000  0.504000  0.114000  1.0  0.1069
  H  H48  1  0.991000  0.782000  0.506000  1.0  0.0965
  H  H49  1  0.415000  0.513300  0.595000  1.0  0.1381
  H  H50  1  0.371000  0.401600  0.645000  1.0  0.0983
  H  H51  1  0.537000  0.392000  0.441000  1.0  0.12
  H  H52  1  0.450000  0.119000  0.009000  1.0  0.0916
  H  H53  1  0.221000  0.945000  0.757000  1.0  0.1059
  H  H54  1  0.215000  0.059000  0.660000  1.0  0.0925
  H  H55  1  0.458000  0.004000  0.114000  1.0  0.1069
  H  H56  1  0.491000  0.282000  0.506000  1.0  0.0965
  H  H57  1  0.085000  0.013300  0.905000  1.0  0.1378
  H  H58  1  0.129000  0.901600  0.855000  1.0  0.0976
  H  H59  1  0.963000  0.892000  0.059000  1.0  0.1195
  H  H60  1  0.050000  0.619000  0.491000  1.0  0.0922
  H  H61  1  0.279000  0.445000  0.743000  1.0  0.1055
  H  H62  1  0.285000  0.559000  0.840000  1.0  0.0924
  H  H63  1  0.042000  0.504000  0.386000  1.0  0.1061
  H  H64  1  0.009000  0.782000  0.994000  1.0  0.0972
  H  H65  1  0.585000  0.513300  0.905000  1.0  0.1376
  H  H66  1  0.629000  0.401600  0.855000  1.0  0.0976
  H  H67  1  0.463000  0.392000  0.059000  1.0  0.1196
  H  H68  1  0.550000  0.119000  0.491000  1.0  0.0922
  H  H69  1  0.779000  0.945000  0.743000  1.0  0.1055
  H  H70  1  0.785000  0.059000  0.840000  1.0  0.0924
  H  H71  1  0.542000  0.004000  0.386000  1.0  0.1061
  H  H72  1  0.509000  0.282000  0.994000  1.0  0.0972
  C  C73  1  0.066100  0.032080  0.423700  1.0  -0.1376
  C  C74  1  0.094100  0.096100  0.394400  1.0  0.0375
  C  C75  1  0.156900  0.608400  0.996200  1.0  0.6748
  C  C76  1  0.015200  0.034120  0.483400  1.0  0.0938
  C  C77  1  0.163600  0.534280  0.055700  1.0  -0.1674
  C  C78  1  0.161900  0.329740  0.233000  1.0  0.6971
  C  C79  1  0.166700  0.398640  0.167400  1.0  -0.1777
  C  C80  1  0.994500  0.103120  0.510700  1.0  -0.1352
  C  C81  1  0.236500  0.450590  0.242000  1.0  -0.1233
  C  C82  1  0.023300  0.165780  0.480100  1.0  0.0436
  C  C83  1  0.234500  0.517830  0.187300  1.0  -0.1022
  C  C84  1  0.095300  0.481210  0.980100  1.0  -0.1147
  C  C85  1  0.096400  0.414260  0.035600  1.0  -0.136
  C  C86  1  0.566100  0.532080  0.423700  1.0  -0.1376
  C  C87  1  0.594100  0.596100  0.394400  1.0  0.0375
  C  C88  1  0.656900  0.108400  0.996200  1.0  0.6748
  C  C89  1  0.515200  0.534120  0.483400  1.0  0.0938
  C  C90  1  0.663600  0.034280  0.055700  1.0  -0.1674
  C  C91  1  0.661900  0.829740  0.233000  1.0  0.6968
  C  C92  1  0.666667  0.898640  0.167400  1.0  -0.1767
  C  C93  1  0.494500  0.603120  0.510700  1.0  -0.1352
  C  C94  1  0.736500  0.950590  0.242000  1.0  -0.1228
  C  C95  1  0.523300  0.665780  0.480100  1.0  0.0436
  C  C96  1  0.734500  0.017830  0.187300  1.0  -0.1018
  C  C97  1  0.595300  0.981210  0.980100  1.0  -0.1147
  C  C98  1  0.596400  0.914260  0.035600  1.0  -0.136
  C  C99  1  0.933900  0.032080  0.076300  1.0  -0.1365
  C  C100  1  0.905900  0.096100  0.105600  1.0  0.0363
  C  C101  1  0.843100  0.608400  0.503800  1.0  0.6747
  C  C102  1  0.984800  0.034120  0.016600  1.0  0.0938
  C  C103  1  0.836400  0.534280  0.444300  1.0  -0.167
  C  C104  1  0.838100  0.329740  0.267000  1.0  0.6967
  C  C105  1  0.833300  0.398640  0.332600  1.0  -0.1753
  C  C106  1  0.005500  0.103120  0.989300  1.0  -0.1369
  C  C107  1  0.763500  0.450590  0.258000  1.0  -0.125
  C  C108  1  0.976700  0.165780  0.019900  1.0  0.0474
  C  C109  1  0.765500  0.517830  0.312700  1.0  -0.1012
  C  C110  1  0.904700  0.481210  0.519900  1.0  -0.1117
  C  C111  1  0.903600  0.414260  0.464400  1.0  -0.1365
  C  C112  1  0.433900  0.532080  0.076300  1.0  -0.1365
  C  C113  1  0.405900  0.596100  0.105600  1.0  0.0363
  C  C114  1  0.343100  0.108400  0.503800  1.0  0.6747
  C  C115  1  0.484800  0.534120  0.016600  1.0  0.0938
  C  C116  1  0.336400  0.034280  0.444300  1.0  -0.167
  C  C117  1  0.338100  0.829740  0.267000  1.0  0.696
  C  C118  1  0.333333  0.898640  0.332600  1.0  -0.1742
  C  C119  1  0.505500  0.603120  0.989300  1.0  -0.1369
  C  C120  1  0.263500  0.950590  0.258000  1.0  -0.1245
  C  C121  1  0.476700  0.665780  0.019900  1.0  0.0474
  C  C122  1  0.265500  0.017830  0.312700  1.0  -0.101
  C  C123  1  0.404700  0.981210  0.519900  1.0  -0.1117
  C  C124  1  0.403600  0.914260  0.464400  1.0  -0.1365
  C  C125  1  0.933900  0.967920  0.576300  1.0  -0.1358
  C  C126  1  0.905900  0.903900  0.605600  1.0  0.0365
  C  C127  1  0.843100  0.391600  0.003800  1.0  0.6749
  C  C128  1  0.984800  0.965880  0.516600  1.0  0.0943
  C  C129  1  0.836400  0.465720  0.944300  1.0  -0.1675
  C  C130  1  0.838100  0.670260  0.767000  1.0  0.6963
  C  C131  1  0.833300  0.601360  0.832600  1.0  -0.1753
  C  C132  1  0.005500  0.896880  0.489300  1.0  -0.1366
  C  C133  1  0.763500  0.549410  0.758000  1.0  -0.1246
  C  C134  1  0.976700  0.834220  0.519900  1.0  0.0428
  C  C135  1  0.765500  0.482170  0.812700  1.0  -0.1016
  C  C136  1  0.904700  0.518790  0.019900  1.0  -0.1111
  C  C137  1  0.903600  0.585740  0.964400  1.0  -0.1374
  C  C138  1  0.433900  0.467920  0.576300  1.0  -0.1358
  C  C139  1  0.405900  0.403900  0.605600  1.0  0.0365
  C  C140  1  0.343100  0.891600  0.003800  1.0  0.6749
  C  C141  1  0.484800  0.465880  0.516600  1.0  0.0943
  C  C142  1  0.336400  0.965720  0.944300  1.0  -0.1675
  C  C143  1  0.338100  0.170260  0.767000  1.0  0.6955
  C  C144  1  0.333333  0.101360  0.832600  1.0  -0.1741
  C  C145  1  0.505500  0.396880  0.489300  1.0  -0.1366
  C  C146  1  0.263500  0.049410  0.758000  1.0  -0.1241
  C  C147  1  0.476700  0.334220  0.519900  1.0  0.0428
  C  C148  1  0.265500  0.982170  0.812700  1.0  -0.1014
  C  C149  1  0.404700  0.018790  0.019900  1.0  -0.1111
  C  C150  1  0.403600  0.085740  0.964400  1.0  -0.1374
  C  C151  1  0.066100  0.967920  0.923700  1.0  -0.1372
  C  C152  1  0.094100  0.903900  0.894400  1.0  0.0375
  C  C153  1  0.156900  0.391600  0.496200  1.0  0.6753
  C  C154  1  0.015200  0.965880  0.983400  1.0  0.0938
  C  C155  1  0.163600  0.465720  0.555700  1.0  -0.1677
  C  C156  1  0.161900  0.670260  0.733000  1.0  0.6981
  C  C157  1  0.166700  0.601360  0.667400  1.0  -0.177
  C  C158  1  0.994500  0.896880  0.010700  1.0  -0.1354
  C  C159  1  0.236500  0.549410  0.742000  1.0  -0.1231
  C  C160  1  0.023300  0.834220  0.980100  1.0  0.042
  C  C161  1  0.234500  0.482170  0.687300  1.0  -0.1027
  C  C162  1  0.095300  0.518790  0.480100  1.0  -0.1149
  C  C163  1  0.096400  0.585740  0.535600  1.0  -0.1373
  C  C164  1  0.566100  0.467920  0.923700  1.0  -0.1372
  C  C165  1  0.594100  0.403900  0.894400  1.0  0.0375
  C  C166  1  0.656900  0.891600  0.496200  1.0  0.6753
  C  C167  1  0.515200  0.465880  0.983400  1.0  0.0938
  C  C168  1  0.663600  0.965720  0.555700  1.0  -0.1677
  C  C169  1  0.661900  0.170260  0.733000  1.0  0.6976
  C  C170  1  0.666667  0.101360  0.667400  1.0  -0.1756
  C  C171  1  0.494500  0.396880  0.010700  1.0  -0.1354
  C  C172  1  0.736500  0.049410  0.742000  1.0  -0.1226
  C  C173  1  0.523300  0.334220  0.980100  1.0  0.042
  C  C174  1  0.734500  0.982170  0.687300  1.0  -0.1023
  C  C175  1  0.595300  0.018790  0.480100  1.0  -0.1149
  C  C176  1  0.596400  0.085740  0.535600  1.0  -0.1373
  N  N177  1  0.071410  0.161020  0.421300  1.0  0.2818
  N  N178  1  0.571410  0.661020  0.421300  1.0  0.2818
  N  N179  1  0.928590  0.161020  0.078700  1.0  0.2817
  N  N180  1  0.428590  0.661020  0.078700  1.0  0.2817
  N  N181  1  0.928590  0.838980  0.578700  1.0  0.2804
  N  N182  1  0.428590  0.338980  0.578700  1.0  0.2804
  N  N183  1  0.071410  0.838980  0.921300  1.0  0.2809
  N  N184  1  0.571410  0.338980  0.921300  1.0  0.2809
  O  O185  1  0.098660  0.222540  0.390260  1.0  -0.6726
  O  O186  1  0.082450  0.296680  0.173300  1.0  -0.5735
  O  O187  1  0.084880  0.619310  0.880100  1.0  -0.6111
  O  O188  1  0.223110  0.654510  0.066490  1.0  -0.6089
  O  O189  1  0.235490  0.311270  0.344320  1.0  -0.6191
  O  O190  1  0.598660  0.722540  0.390260  1.0  -0.6726
  O  O191  1  0.582450  0.796680  0.173300  1.0  -0.5736
  O  O192  1  0.584880  0.119310  0.880100  1.0  -0.6111
  O  O193  1  0.723110  0.154510  0.066490  1.0  -0.6089
  O  O194  1  0.735490  0.811270  0.344320  1.0  -0.619
  O  O195  1  0.901340  0.222540  0.109740  1.0  -0.6726
  O  O196  1  0.917550  0.296680  0.326700  1.0  -0.5728
  O  O197  1  0.915120  0.619310  0.619900  1.0  -0.6112
  O  O198  1  0.776890  0.654510  0.433510  1.0  -0.6097
  O  O199  1  0.764510  0.311270  0.155680  1.0  -0.6191
  O  O200  1  0.401340  0.722540  0.109740  1.0  -0.6726
  O  O201  1  0.417550  0.796680  0.326700  1.0  -0.5728
  O  O202  1  0.415120  0.119310  0.619900  1.0  -0.6112
  O  O203  1  0.276890  0.154510  0.433510  1.0  -0.6097
  O  O204  1  0.264510  0.811270  0.155680  1.0  -0.619
  O  O205  1  0.901340  0.777460  0.609740  1.0  -0.6718
  O  O206  1  0.917550  0.703320  0.826700  1.0  -0.5727
  O  O207  1  0.915120  0.380690  0.119900  1.0  -0.6116
  O  O208  1  0.776890  0.345490  0.933510  1.0  -0.6102
  O  O209  1  0.764510  0.688730  0.655680  1.0  -0.6186
  O  O210  1  0.401340  0.277460  0.609740  1.0  -0.6718
  O  O211  1  0.417550  0.203320  0.826700  1.0  -0.5728
  O  O212  1  0.415120  0.880690  0.119900  1.0  -0.6117
  O  O213  1  0.276890  0.845490  0.933510  1.0  -0.6102
  O  O214  1  0.264510  0.188730  0.655680  1.0  -0.6185
  O  O215  1  0.098660  0.777460  0.890260  1.0  -0.6724
  O  O216  1  0.082450  0.703320  0.673300  1.0  -0.5724
  O  O217  1  0.084880  0.380690  0.380100  1.0  -0.6113
  O  O218  1  0.223110  0.345490  0.566490  1.0  -0.6089
  O  O219  1  0.235490  0.688730  0.844320  1.0  -0.6182
  O  O220  1  0.598660  0.277460  0.890260  1.0  -0.6724
  O  O221  1  0.582450  0.203320  0.673300  1.0  -0.5725
  O  O222  1  0.584880  0.880690  0.380100  1.0  -0.6113
  O  O223  1  0.723110  0.845490  0.566490  1.0  -0.6089
  O  O224  1  0.735490  0.188730  0.844320  1.0  -0.6181
