# generated using pymatgen
data_MgH8C13NO5
_symmetry_space_group_name_H-M   'P 1'
_cell_length_a   18.16520000
_cell_length_b   17.24660000
_cell_length_c   13.49210000
_cell_angle_alpha   90.00000000
_cell_angle_beta   129.40000000
_cell_angle_gamma   90.00000000
_symmetry_Int_Tables_number   1
_chemical_formula_structural   MgH8C13NO5
_chemical_formula_sum   'Mg8 H64 C104 N8 O40'
_cell_volume   3266.27696345
_cell_formula_units_Z   8
loop_
 _symmetry_equiv_pos_site_id
 _symmetry_equiv_pos_as_xyz
  1  'x, y, z'
loop_
 _atom_site_type_symbol
 _atom_site_label
 _atom_site_symmetry_multiplicity
 _atom_site_fract_x
 _atom_site_fract_y
 _atom_site_fract_z
 _atom_site_occupancy
 _atom_site_charge
  Mg  Mg1  1  0.000000  0.193470  0.750000  1.0  1.4764
  Mg  Mg2  1  0.500000  0.693470  0.750000  1.0  1.4764
  Mg  Mg3  1  0.000000  0.806530  0.250000  1.0  1.4709
  Mg  Mg4  1  0.500000  0.306530  0.250000  1.0  1.4709
  Mg  Mg5  1  0.250000  0.250000  0.000000  1.0  1.556
  Mg  Mg6  1  0.750000  0.250000  0.500000  1.0  1.556
  Mg  Mg7  1  0.750000  0.750000  0.000000  1.0  1.556
  Mg  Mg8  1  0.250000  0.750000  0.500000  1.0  1.556
  H  H9  1  0.075000  0.523000  0.917000  1.0  0.1067
  H  H10  1  0.974000  0.381000  0.046000  1.0  0.1193
  H  H11  1  0.034000  0.992000  0.903000  1.0  0.1061
  H  H12  1  0.119000  0.416800  0.869000  1.0  0.1049
  H  H13  1  0.022000  0.276000  0.986000  1.0  0.0976
  H  H14  1  0.029000  0.877000  0.008000  1.0  0.1017
  H  H15  1  0.298000  0.041000  0.224000  1.0  0.1017
  H  H16  1  0.301000  0.929000  0.328000  1.0  0.0906
  H  H17  1  0.575000  0.023000  0.917000  1.0  0.1067
  H  H18  1  0.474000  0.881000  0.046000  1.0  0.1193
  H  H19  1  0.534000  0.492000  0.903000  1.0  0.1061
  H  H20  1  0.619000  0.916800  0.869000  1.0  0.1049
  H  H21  1  0.522000  0.776000  0.986000  1.0  0.0976
  H  H22  1  0.529000  0.377000  0.008000  1.0  0.1017
  H  H23  1  0.798000  0.541000  0.224000  1.0  0.1017
  H  H24  1  0.801000  0.429000  0.328000  1.0  0.0906
  H  H25  1  0.925000  0.523000  0.583000  1.0  0.1063
  H  H26  1  0.026000  0.381000  0.454000  1.0  0.1202
  H  H27  1  0.966000  0.992000  0.597000  1.0  0.1067
  H  H28  1  0.881000  0.416800  0.631000  1.0  0.1053
  H  H29  1  0.978000  0.276000  0.514000  1.0  0.0976
  H  H30  1  0.971000  0.877000  0.492000  1.0  0.1032
  H  H31  1  0.702000  0.041000  0.276000  1.0  0.1021
  H  H32  1  0.699000  0.929000  0.172000  1.0  0.0905
  H  H33  1  0.425000  0.023000  0.583000  1.0  0.1063
  H  H34  1  0.526000  0.881000  0.454000  1.0  0.1202
  H  H35  1  0.466000  0.492000  0.597000  1.0  0.1067
  H  H36  1  0.381000  0.916800  0.631000  1.0  0.1053
  H  H37  1  0.478000  0.776000  0.514000  1.0  0.0976
  H  H38  1  0.471000  0.377000  0.492000  1.0  0.1032
  H  H39  1  0.202000  0.541000  0.276000  1.0  0.1021
  H  H40  1  0.199000  0.429000  0.172000  1.0  0.0905
  H  H41  1  0.925000  0.477000  0.083000  1.0  0.1063
  H  H42  1  0.026000  0.619000  0.954000  1.0  0.1202
  H  H43  1  0.966000  0.008000  0.097000  1.0  0.1065
  H  H44  1  0.881000  0.583200  0.131000  1.0  0.1054
  H  H45  1  0.978000  0.724000  0.014000  1.0  0.0998
  H  H46  1  0.971000  0.123000  0.992000  1.0  0.1027
  H  H47  1  0.702000  0.959000  0.776000  1.0  0.1018
  H  H48  1  0.699000  0.071000  0.672000  1.0  0.0906
  H  H49  1  0.425000  0.977000  0.083000  1.0  0.1063
  H  H50  1  0.526000  0.119000  0.954000  1.0  0.1202
  H  H51  1  0.466000  0.508000  0.097000  1.0  0.1065
  H  H52  1  0.381000  0.083200  0.131000  1.0  0.1054
  H  H53  1  0.478000  0.224000  0.014000  1.0  0.0998
  H  H54  1  0.471000  0.623000  0.992000  1.0  0.1027
  H  H55  1  0.202000  0.459000  0.776000  1.0  0.1018
  H  H56  1  0.199000  0.571000  0.672000  1.0  0.0906
  H  H57  1  0.075000  0.477000  0.417000  1.0  0.1072
  H  H58  1  0.974000  0.619000  0.546000  1.0  0.1195
  H  H59  1  0.034000  0.008000  0.403000  1.0  0.1062
  H  H60  1  0.119000  0.583200  0.369000  1.0  0.1048
  H  H61  1  0.022000  0.724000  0.486000  1.0  0.0997
  H  H62  1  0.029000  0.123000  0.508000  1.0  0.1015
  H  H63  1  0.298000  0.959000  0.724000  1.0  0.1017
  H  H64  1  0.301000  0.071000  0.828000  1.0  0.0905
  H  H65  1  0.575000  0.977000  0.417000  1.0  0.1072
  H  H66  1  0.474000  0.119000  0.546000  1.0  0.1195
  H  H67  1  0.534000  0.508000  0.403000  1.0  0.1062
  H  H68  1  0.619000  0.083200  0.369000  1.0  0.1048
  H  H69  1  0.522000  0.224000  0.486000  1.0  0.0997
  H  H70  1  0.529000  0.623000  0.508000  1.0  0.1015
  H  H71  1  0.798000  0.459000  0.724000  1.0  0.1017
  H  H72  1  0.801000  0.571000  0.828000  1.0  0.0905
  C  C73  1  0.156590  0.830200  0.243500  1.0  0.7065
  C  C74  1  0.015170  0.466110  0.983100  1.0  0.0527
  C  C75  1  0.162200  0.100740  0.992600  1.0  0.6785
  C  C76  1  0.059300  0.474910  0.928900  1.0  -0.149
  C  C77  1  0.088300  0.411160  0.900200  1.0  -0.0267
  C  C78  1  0.166120  0.026410  0.055000  1.0  -0.145
  C  C79  1  0.242500  0.942190  0.237600  1.0  -0.1159
  C  C80  1  0.162710  0.895340  0.174100  1.0  -0.1253
  C  C81  1  0.085600  0.912950  0.047900  1.0  -0.0601
  C  C82  1  0.087700  0.977420  0.989100  1.0  -0.0658
  C  C83  1  0.243700  0.007420  0.178900  1.0  -0.1145
  C  C84  1  0.031500  0.328340  0.975100  1.0  -0.035
  C  C85  1  0.002100  0.390550  0.005500  1.0  -0.1377
  C  C86  1  0.656590  0.330200  0.243500  1.0  0.7065
  C  C87  1  0.515170  0.966110  0.983100  1.0  0.0527
  C  C88  1  0.662200  0.600740  0.992600  1.0  0.6785
  C  C89  1  0.559300  0.974910  0.928900  1.0  -0.149
  C  C90  1  0.588300  0.911160  0.900200  1.0  -0.0267
  C  C91  1  0.666120  0.526410  0.055000  1.0  -0.145
  C  C92  1  0.742500  0.442190  0.237600  1.0  -0.1159
  C  C93  1  0.662710  0.395340  0.174100  1.0  -0.1253
  C  C94  1  0.585600  0.412950  0.047900  1.0  -0.0601
  C  C95  1  0.587700  0.477420  0.989100  1.0  -0.0658
  C  C96  1  0.743700  0.507420  0.178900  1.0  -0.1145
  C  C97  1  0.531500  0.828340  0.975100  1.0  -0.035
  C  C98  1  0.502100  0.890550  0.005500  1.0  -0.1377
  C  C99  1  0.843410  0.830200  0.256500  1.0  0.7053
  C  C100  1  0.984830  0.466110  0.516900  1.0  0.0528
  C  C101  1  0.837800  0.100740  0.507400  1.0  0.6784
  C  C102  1  0.940700  0.474910  0.571100  1.0  -0.1471
  C  C103  1  0.911700  0.411160  0.599800  1.0  -0.0264
  C  C104  1  0.833880  0.026410  0.445000  1.0  -0.1452
  C  C105  1  0.757500  0.942190  0.262400  1.0  -0.1153
  C  C106  1  0.837290  0.895340  0.325900  1.0  -0.1249
  C  C107  1  0.914400  0.912950  0.452100  1.0  -0.0593
  C  C108  1  0.912300  0.977420  0.510900  1.0  -0.0647
  C  C109  1  0.756300  0.007420  0.321100  1.0  -0.1144
  C  C110  1  0.968500  0.328340  0.524900  1.0  -0.0391
  C  C111  1  0.997900  0.390550  0.494500  1.0  -0.1382
  C  C112  1  0.343410  0.330200  0.256500  1.0  0.7053
  C  C113  1  0.484830  0.966110  0.516900  1.0  0.0528
  C  C114  1  0.337800  0.600740  0.507400  1.0  0.6784
  C  C115  1  0.440700  0.974910  0.571100  1.0  -0.1471
  C  C116  1  0.411700  0.911160  0.599800  1.0  -0.0264
  C  C117  1  0.333880  0.526410  0.445000  1.0  -0.1452
  C  C118  1  0.257500  0.442190  0.262400  1.0  -0.1153
  C  C119  1  0.337290  0.395340  0.325900  1.0  -0.1249
  C  C120  1  0.414400  0.412950  0.452100  1.0  -0.0593
  C  C121  1  0.412300  0.477420  0.510900  1.0  -0.0647
  C  C122  1  0.256300  0.507420  0.321100  1.0  -0.1144
  C  C123  1  0.468500  0.828340  0.524900  1.0  -0.0391
  C  C124  1  0.497900  0.890550  0.494500  1.0  -0.1382
  C  C125  1  0.843410  0.169800  0.756500  1.0  0.7053
  C  C126  1  0.984830  0.533890  0.016900  1.0  0.0529
  C  C127  1  0.837800  0.899260  0.007400  1.0  0.6778
  C  C128  1  0.940700  0.525090  0.071100  1.0  -0.1463
  C  C129  1  0.911700  0.588840  0.099800  1.0  -0.0259
  C  C130  1  0.833880  0.973590  0.945000  1.0  -0.1447
  C  C131  1  0.757500  0.057810  0.762400  1.0  -0.115
  C  C132  1  0.837290  0.104660  0.825900  1.0  -0.1247
  C  C133  1  0.914400  0.087050  0.952100  1.0  -0.06
  C  C134  1  0.912300  0.022580  0.010900  1.0  -0.0646
  C  C135  1  0.756300  0.992580  0.821100  1.0  -0.115
  C  C136  1  0.968500  0.671660  0.024900  1.0  -0.0387
  C  C137  1  0.997900  0.609450  0.994500  1.0  -0.1384
  C  C138  1  0.343410  0.669800  0.756500  1.0  0.7053
  C  C139  1  0.484830  0.033890  0.016900  1.0  0.0529
  C  C140  1  0.337800  0.399260  0.007400  1.0  0.6778
  C  C141  1  0.440700  0.025090  0.071100  1.0  -0.1463
  C  C142  1  0.411700  0.088840  0.099800  1.0  -0.0259
  C  C143  1  0.333880  0.473590  0.945000  1.0  -0.1447
  C  C144  1  0.257500  0.557810  0.762400  1.0  -0.115
  C  C145  1  0.337290  0.604660  0.825900  1.0  -0.1247
  C  C146  1  0.414400  0.587050  0.952100  1.0  -0.06
  C  C147  1  0.412300  0.522580  0.010900  1.0  -0.0646
  C  C148  1  0.256300  0.492580  0.821100  1.0  -0.115
  C  C149  1  0.468500  0.171660  0.024900  1.0  -0.0387
  C  C150  1  0.497900  0.109450  0.994500  1.0  -0.1384
  C  C151  1  0.156590  0.169800  0.743500  1.0  0.706
  C  C152  1  0.015170  0.533890  0.483100  1.0  0.0527
  C  C153  1  0.162200  0.899260  0.492600  1.0  0.6778
  C  C154  1  0.059300  0.525090  0.428900  1.0  -0.1496
  C  C155  1  0.088300  0.588840  0.400200  1.0  -0.0264
  C  C156  1  0.166120  0.973590  0.555000  1.0  -0.145
  C  C157  1  0.242500  0.057810  0.737600  1.0  -0.1155
  C  C158  1  0.162710  0.104660  0.674100  1.0  -0.125
  C  C159  1  0.085600  0.087050  0.547900  1.0  -0.0603
  C  C160  1  0.087700  0.022580  0.489100  1.0  -0.0655
  C  C161  1  0.243700  0.992580  0.678900  1.0  -0.1156
  C  C162  1  0.031500  0.671660  0.475100  1.0  -0.0359
  C  C163  1  0.002100  0.609450  0.505500  1.0  -0.1378
  C  C164  1  0.656590  0.669800  0.743500  1.0  0.706
  C  C165  1  0.515170  0.033890  0.483100  1.0  0.0527
  C  C166  1  0.662200  0.399260  0.492600  1.0  0.6778
  C  C167  1  0.559300  0.025090  0.428900  1.0  -0.1496
  C  C168  1  0.588300  0.088840  0.400200  1.0  -0.0264
  C  C169  1  0.666120  0.473590  0.555000  1.0  -0.145
  C  C170  1  0.742500  0.557810  0.737600  1.0  -0.1155
  C  C171  1  0.662710  0.604660  0.674100  1.0  -0.125
  C  C172  1  0.585600  0.587050  0.547900  1.0  -0.0603
  C  C173  1  0.587700  0.522580  0.489100  1.0  -0.0655
  C  C174  1  0.743700  0.492580  0.678900  1.0  -0.1156
  C  C175  1  0.531500  0.171660  0.475100  1.0  -0.0359
  C  C176  1  0.502100  0.109450  0.505500  1.0  -0.1378
  N  N177  1  0.072980  0.339490  0.921700  1.0  0.2761
  N  N178  1  0.572980  0.839490  0.921700  1.0  0.2761
  N  N179  1  0.927020  0.339490  0.578300  1.0  0.2763
  N  N180  1  0.427020  0.839490  0.578300  1.0  0.2763
  N  N181  1  0.927020  0.660510  0.078300  1.0  0.2774
  N  N182  1  0.427020  0.160510  0.078300  1.0  0.2774
  N  N183  1  0.072980  0.660510  0.421700  1.0  0.2771
  N  N184  1  0.572980  0.160510  0.421700  1.0  0.2771
  O  O185  1  0.099320  0.278470  0.889380  1.0  -0.6697
  O  O186  1  0.088780  0.111020  0.879000  1.0  -0.6126
  O  O187  1  0.075470  0.800890  0.186850  1.0  -0.5805
  O  O188  1  0.230740  0.810910  0.352210  1.0  -0.616
  O  O189  1  0.231260  0.146870  0.059260  1.0  -0.6064
  O  O190  1  0.599320  0.778470  0.889380  1.0  -0.6697
  O  O191  1  0.588780  0.611020  0.879000  1.0  -0.6126
  O  O192  1  0.575470  0.300890  0.186850  1.0  -0.5805
  O  O193  1  0.730740  0.310910  0.352210  1.0  -0.616
  O  O194  1  0.731260  0.646870  0.059260  1.0  -0.6064
  O  O195  1  0.900680  0.278470  0.610620  1.0  -0.6703
  O  O196  1  0.911220  0.111020  0.621000  1.0  -0.6115
  O  O197  1  0.924530  0.800890  0.313150  1.0  -0.5815
  O  O198  1  0.769260  0.810910  0.147790  1.0  -0.6159
  O  O199  1  0.768740  0.146870  0.440740  1.0  -0.6052
  O  O200  1  0.400680  0.778470  0.610620  1.0  -0.6703
  O  O201  1  0.411220  0.611020  0.621000  1.0  -0.6115
  O  O202  1  0.424530  0.300890  0.313150  1.0  -0.5815
  O  O203  1  0.269260  0.310910  0.147790  1.0  -0.6159
  O  O204  1  0.268740  0.646870  0.440740  1.0  -0.6052
  O  O205  1  0.900680  0.721530  0.110620  1.0  -0.6699
  O  O206  1  0.911220  0.888980  0.121000  1.0  -0.6124
  O  O207  1  0.924530  0.199110  0.813150  1.0  -0.5814
  O  O208  1  0.769260  0.189090  0.647790  1.0  -0.6151
  O  O209  1  0.768740  0.853130  0.940740  1.0  -0.6054
  O  O210  1  0.400680  0.221530  0.110620  1.0  -0.6699
  O  O211  1  0.411220  0.388980  0.121000  1.0  -0.6124
  O  O212  1  0.424530  0.699110  0.813150  1.0  -0.5814
  O  O213  1  0.269260  0.689090  0.647790  1.0  -0.6151
  O  O214  1  0.268740  0.353130  0.940740  1.0  -0.6054
  O  O215  1  0.099320  0.721530  0.389380  1.0  -0.669
  O  O216  1  0.088780  0.888980  0.379000  1.0  -0.6131
  O  O217  1  0.075470  0.199110  0.686850  1.0  -0.5804
  O  O218  1  0.230740  0.189090  0.852210  1.0  -0.615
  O  O219  1  0.231260  0.853130  0.559260  1.0  -0.6066
  O  O220  1  0.599320  0.221530  0.389380  1.0  -0.669
  O  O221  1  0.588780  0.388980  0.379000  1.0  -0.6131
  O  O222  1  0.575470  0.699110  0.686850  1.0  -0.5804
  O  O223  1  0.730740  0.689090  0.852210  1.0  -0.615
  O  O224  1  0.731260  0.353130  0.559260  1.0  -0.6066
