# generated using pymatgen
data_CuH23C25(N2O3)2
_symmetry_space_group_name_H-M   'P 1'
_cell_length_a   14.13900000
_cell_length_b   20.57090000
_cell_length_c   9.92840000
_cell_angle_alpha   90.00000000
_cell_angle_beta   95.78600000
_cell_angle_gamma   90.00000000
_symmetry_Int_Tables_number   1
_chemical_formula_structural   CuH23C25(N2O3)2
_chemical_formula_sum   'Cu4 H92 C100 N16 O24'
_cell_volume   2872.98282104
_cell_formula_units_Z   4
loop_
 _symmetry_equiv_pos_site_id
 _symmetry_equiv_pos_as_xyz
  1  'x, y, z'
loop_
 _atom_site_type_symbol
 _atom_site_label
 _atom_site_symmetry_multiplicity
 _atom_site_fract_x
 _atom_site_fract_y
 _atom_site_fract_z
 _atom_site_occupancy
 _atom_site_charge
  Cu  Cu1  1  0.189830  0.735640  0.695320  1.0  0.8627
  Cu  Cu2  1  0.810160  0.235640  0.804680  1.0  0.8624
  Cu  Cu3  1  0.810160  0.264360  0.304680  1.0  0.8624
  Cu  Cu4  1  0.189830  0.764360  0.195320  1.0  0.8627
  H  H5  1  0.998400  0.834800  0.481500  1.0  0.0842
  H  H6  1  0.884000  0.889000  0.588400  1.0  0.1058
  H  H7  1  0.741300  0.928600  0.229400  1.0  0.1167
  H  H8  1  0.856200  0.874600  0.123300  1.0  0.0956
  H  H9  1  0.195600  0.880400  0.576600  1.0  0.101
  H  H10  1  0.100200  0.969800  0.652400  1.0  0.122
  H  H11  1  0.051600  0.813000  0.863600  1.0  0.098
  H  H12  1  0.945300  0.967600  0.795900  1.0  0.0865
  H  H13  1  0.941800  0.909500  0.897700  1.0  0.0796
  H  H14  1  0.080600  0.006600  0.925600  1.0  0.0631
  H  H15  1  0.069700  0.950600  0.030400  1.0  0.0642
  H  H16  1  0.315400  0.662800  0.505000  1.0  0.0968
  H  H17  1  0.188300  0.586400  0.800800  1.0  0.1081
  H  H18  1  0.463700  0.495000  0.627400  1.0  0.0762
  H  H19  1  0.504000  0.559600  0.571700  1.0  0.0628
  H  H20  1  0.380700  0.563100  0.398700  1.0  0.0879
  H  H21  1  0.342400  0.495800  0.444200  1.0  0.0852
  H  H22  1  0.499700  0.880500  0.749700  1.0  0.0922
  H  H23  1  0.600800  0.940200  0.629500  1.0  0.122
  H  H24  1  0.464700  0.874200  0.283200  1.0  0.111
  H  H25  1  0.365400  0.813800  0.404000  1.0  0.0864
  H  H26  1  0.695000  0.014200  0.354900  1.0  0.0935
  H  H27  1  0.642400  0.016400  0.486500  1.0  0.0991
  H  H28  1  0.001600  0.334800  0.018500  1.0  0.0839
  H  H29  1  0.116000  0.389000  0.911600  1.0  0.1052
  H  H30  1  0.258700  0.428600  0.270600  1.0  0.1168
  H  H31  1  0.143800  0.374600  0.376700  1.0  0.0948
  H  H32  1  0.804400  0.380400  0.923400  1.0  0.1015
  H  H33  1  0.899800  0.469800  0.847600  1.0  0.1221
  H  H34  1  0.948400  0.313000  0.636400  1.0  0.0972
  H  H35  1  0.054700  0.467600  0.704100  1.0  0.0854
  H  H36  1  0.058200  0.409500  0.602300  1.0  0.0788
  H  H37  1  0.919400  0.506600  0.574400  1.0  0.062
  H  H38  1  0.930300  0.450600  0.469600  1.0  0.0637
  H  H39  1  0.684600  0.162800  0.995000  1.0  0.097
  H  H40  1  0.811700  0.086400  0.699200  1.0  0.1073
  H  H41  1  0.536300  0.995000  0.872600  1.0  0.0755
  H  H42  1  0.496000  0.059600  0.928300  1.0  0.0647
  H  H43  1  0.619300  0.063100  0.101300  1.0  0.0874
  H  H44  1  0.657600  0.995800  0.055800  1.0  0.0858
  H  H45  1  0.500300  0.380500  0.750300  1.0  0.0925
  H  H46  1  0.399200  0.440200  0.870500  1.0  0.122
  H  H47  1  0.535300  0.374200  0.216800  1.0  0.1106
  H  H48  1  0.634600  0.313800  0.096000  1.0  0.0867
  H  H49  1  0.305000  0.514200  0.145100  1.0  0.0942
  H  H50  1  0.357600  0.516400  0.013500  1.0  0.0985
  H  H51  1  0.001600  0.165200  0.518500  1.0  0.0841
  H  H52  1  0.116000  0.111000  0.411600  1.0  0.105
  H  H53  1  0.258700  0.071400  0.770600  1.0  0.1188
  H  H54  1  0.143800  0.125400  0.876700  1.0  0.0949
  H  H55  1  0.804400  0.119600  0.423400  1.0  0.1015
  H  H56  1  0.899800  0.030200  0.347600  1.0  0.1219
  H  H57  1  0.948400  0.187000  0.136400  1.0  0.0976
  H  H58  1  0.054700  0.032400  0.204100  1.0  0.0855
  H  H59  1  0.058200  0.090500  0.102300  1.0  0.0784
  H  H60  1  0.919400  0.993400  0.074400  1.0  0.0625
  H  H61  1  0.930300  0.049400  0.969600  1.0  0.0641
  H  H62  1  0.684600  0.337200  0.495000  1.0  0.0972
  H  H63  1  0.811700  0.413600  0.199200  1.0  0.1072
  H  H64  1  0.536300  0.505000  0.372600  1.0  0.0758
  H  H65  1  0.496000  0.440400  0.428300  1.0  0.0636
  H  H66  1  0.619300  0.436900  0.601300  1.0  0.0877
  H  H67  1  0.657600  0.504200  0.555800  1.0  0.0848
  H  H68  1  0.500300  0.119500  0.250300  1.0  0.0924
  H  H69  1  0.399200  0.059800  0.370500  1.0  0.121
  H  H70  1  0.535300  0.125800  0.716800  1.0  0.1108
  H  H71  1  0.634600  0.186200  0.596000  1.0  0.0865
  H  H72  1  0.305000  0.985800  0.645100  1.0  0.0929
  H  H73  1  0.357600  0.983600  0.513500  1.0  0.0986
  H  H74  1  0.998400  0.665200  0.981500  1.0  0.0837
  H  H75  1  0.884000  0.611000  0.088400  1.0  0.1057
  H  H76  1  0.741300  0.571400  0.729400  1.0  0.1187
  H  H77  1  0.856200  0.625400  0.623300  1.0  0.095
  H  H78  1  0.195600  0.619600  0.076600  1.0  0.1013
  H  H79  1  0.100200  0.530200  0.152400  1.0  0.1215
  H  H80  1  0.051600  0.687000  0.363600  1.0  0.0974
  H  H81  1  0.945300  0.532400  0.295900  1.0  0.0863
  H  H82  1  0.941800  0.590500  0.397700  1.0  0.0795
  H  H83  1  0.080600  0.493400  0.425600  1.0  0.0629
  H  H84  1  0.069700  0.549400  0.530400  1.0  0.0637
  H  H85  1  0.315400  0.837200  0.005000  1.0  0.0965
  H  H86  1  0.188300  0.913600  0.300800  1.0  0.108
  H  H87  1  0.463700  0.005000  0.127400  1.0  0.0756
  H  H88  1  0.504000  0.940400  0.071700  1.0  0.0634
  H  H89  1  0.380700  0.936900  0.898700  1.0  0.0872
  H  H90  1  0.342400  0.004200  0.944200  1.0  0.0851
  H  H91  1  0.499700  0.619500  0.249700  1.0  0.0925
  H  H92  1  0.600800  0.559800  0.129500  1.0  0.1214
  H  H93  1  0.464700  0.625800  0.783200  1.0  0.1116
  H  H94  1  0.365400  0.686200  0.904000  1.0  0.0868
  H  H95  1  0.695000  0.485800  0.854900  1.0  0.0924
  H  H96  1  0.642400  0.483600  0.986500  1.0  0.0992
  C  C97  1  0.017190  0.817830  0.219300  1.0  0.6414
  C  C98  1  0.940500  0.850220  0.290300  1.0  -0.1474
  C  C99  1  0.947490  0.854330  0.430200  1.0  -0.0332
  C  C100  1  0.879340  0.887210  0.494400  1.0  -0.2364
  C  C101  1  0.804410  0.917410  0.419000  1.0  0.2781
  C  C102  1  0.793950  0.910970  0.280300  1.0  -0.2536
  C  C103  1  0.862650  0.878040  0.217200  1.0  -0.0063
  C  C104  1  0.154400  0.877920  0.643800  1.0  0.0079
  C  C105  1  0.101500  0.927320  0.684600  1.0  -0.1634
  C  C106  1  0.075300  0.840440  0.800600  1.0  0.129
  C  C107  1  0.983900  0.939500  0.857600  1.0  1e-04
  C  C108  1  0.035000  0.978910  0.964600  1.0  -0.134
  C  C109  1  0.293890  0.633110  0.565700  1.0  0.1479
  C  C110  1  0.224510  0.590650  0.728200  1.0  0.1191
  C  C111  1  0.269980  0.541280  0.671300  1.0  0.04
  C  C112  1  0.470690  0.519600  0.545700  1.0  -0.1459
  C  C113  1  0.373560  0.535690  0.476600  1.0  -0.0082
  C  C114  1  0.354910  0.803490  0.670500  1.0  0.6406
  C  C115  1  0.421570  0.841030  0.590400  1.0  -0.1783
  C  C116  1  0.492540  0.879040  0.655600  1.0  -0.011
  C  C117  1  0.553200  0.914970  0.584000  1.0  -0.2712
  C  C118  1  0.542640  0.913080  0.444600  1.0  0.2781
  C  C119  1  0.471940  0.875350  0.377300  1.0  -0.2224
  C  C120  1  0.412370  0.839440  0.449700  1.0  -0.0187
  C  C121  1  0.669950  0.987570  0.423700  1.0  0.1856
  C  C122  1  0.982810  0.317830  0.280700  1.0  0.6422
  C  C123  1  0.059500  0.350220  0.209700  1.0  -0.1483
  C  C124  1  0.052510  0.354330  0.069800  1.0  -0.031
  C  C125  1  0.120660  0.387210  0.005600  1.0  -0.2359
  C  C126  1  0.195590  0.417410  0.081000  1.0  0.2784
  C  C127  1  0.206050  0.410970  0.219700  1.0  -0.2534
  C  C128  1  0.137350  0.378040  0.282800  1.0  -0.008
  C  C129  1  0.845600  0.377920  0.856200  1.0  0.0057
  C  C130  1  0.898500  0.427320  0.815400  1.0  -0.162
  C  C131  1  0.924700  0.340440  0.699400  1.0  0.1287
  C  C132  1  0.016100  0.439500  0.642400  1.0  1e-04
  C  C133  1  0.965000  0.478910  0.535400  1.0  -0.138
  C  C134  1  0.706110  0.133110  0.934300  1.0  0.148
  C  C135  1  0.775490  0.090650  0.771800  1.0  0.1182
  C  C136  1  0.730020  0.041280  0.828700  1.0  0.0411
  C  C137  1  0.529310  0.019600  0.954300  1.0  -0.1451
  C  C138  1  0.626440  0.035690  0.023400  1.0  -0.0096
  C  C139  1  0.645090  0.303490  0.829500  1.0  0.6396
  C  C140  1  0.578430  0.341030  0.909600  1.0  -0.1786
  C  C141  1  0.507460  0.379040  0.844400  1.0  -0.0097
  C  C142  1  0.446800  0.414970  0.916000  1.0  -0.2717
  C  C143  1  0.457360  0.413080  0.055400  1.0  0.2781
  C  C144  1  0.528060  0.375350  0.122700  1.0  -0.2225
  C  C145  1  0.587630  0.339440  0.050300  1.0  -0.0189
  C  C146  1  0.330050  0.487570  0.076300  1.0  0.1855
  C  C147  1  0.982810  0.182170  0.780700  1.0  0.6414
  C  C148  1  0.059500  0.149780  0.709700  1.0  -0.1493
  C  C149  1  0.052510  0.145670  0.569800  1.0  -0.0306
  C  C150  1  0.120660  0.112790  0.505600  1.0  -0.2372
  C  C151  1  0.195590  0.082590  0.581000  1.0  0.279
  C  C152  1  0.206050  0.089030  0.719700  1.0  -0.2546
  C  C153  1  0.137350  0.121960  0.782800  1.0  -0.007
  C  C154  1  0.845600  0.122080  0.356200  1.0  0.0057
  C  C155  1  0.898500  0.072680  0.315400  1.0  -0.1626
  C  C156  1  0.924700  0.159560  0.199400  1.0  0.128
  C  C157  1  0.016100  0.060500  0.142400  1.0  0.0006
  C  C158  1  0.965000  0.021090  0.035400  1.0  -0.138
  C  C159  1  0.706110  0.366890  0.434300  1.0  0.1484
  C  C160  1  0.775490  0.409350  0.271800  1.0  0.1181
  C  C161  1  0.730020  0.458720  0.328700  1.0  0.0388
  C  C162  1  0.529310  0.480400  0.454300  1.0  -0.1361
  C  C163  1  0.626440  0.464310  0.523400  1.0  -0.01
  C  C164  1  0.645090  0.196510  0.329500  1.0  0.6407
  C  C165  1  0.578430  0.158970  0.409600  1.0  -0.1779
  C  C166  1  0.507460  0.120960  0.344400  1.0  -0.0123
  C  C167  1  0.446800  0.085030  0.416000  1.0  -0.2727
  C  C168  1  0.457360  0.086920  0.555400  1.0  0.2796
  C  C169  1  0.528060  0.124650  0.622700  1.0  -0.2213
  C  C170  1  0.587630  0.160560  0.550300  1.0  -0.0187
  C  C171  1  0.330050  0.012430  0.576300  1.0  0.1858
  C  C172  1  0.017190  0.682170  0.719300  1.0  0.6412
  C  C173  1  0.940500  0.649780  0.790300  1.0  -0.1486
  C  C174  1  0.947490  0.645670  0.930200  1.0  -0.0327
  C  C175  1  0.879340  0.612790  0.994400  1.0  -0.2365
  C  C176  1  0.804410  0.582590  0.919000  1.0  0.278
  C  C177  1  0.793950  0.589030  0.780300  1.0  -0.2548
  C  C178  1  0.862650  0.621960  0.717200  1.0  -0.0074
  C  C179  1  0.154400  0.622080  0.143800  1.0  0.0083
  C  C180  1  0.101500  0.572680  0.184600  1.0  -0.1635
  C  C181  1  0.075300  0.659560  0.300600  1.0  0.1282
  C  C182  1  0.983900  0.560500  0.357600  1.0  0.0004
  C  C183  1  0.035000  0.521090  0.464600  1.0  -0.1346
  C  C184  1  0.293890  0.866890  0.065700  1.0  0.1477
  C  C185  1  0.224510  0.909350  0.228200  1.0  0.1183
  C  C186  1  0.269980  0.958720  0.171300  1.0  0.0363
  C  C187  1  0.470690  0.980400  0.045700  1.0  -0.1367
  C  C188  1  0.373560  0.964310  0.976600  1.0  -0.0084
  C  C189  1  0.354910  0.696510  0.170500  1.0  0.6401
  C  C190  1  0.421570  0.658970  0.090400  1.0  -0.1779
  C  C191  1  0.492540  0.620960  0.155600  1.0  -0.0088
  C  C192  1  0.553200  0.585030  0.084000  1.0  -0.2721
  C  C193  1  0.542640  0.586920  0.944600  1.0  0.2796
  C  C194  1  0.471940  0.624650  0.877300  1.0  -0.2228
  C  C195  1  0.412370  0.660560  0.949700  1.0  -0.0188
  C  C196  1  0.669950  0.512430  0.923700  1.0  0.1866
  N  N197  1  0.137610  0.823230  0.717500  1.0  -0.3765
  N  N198  1  0.050420  0.902800  0.782100  1.0  0.054
  N  N199  1  0.239880  0.647960  0.662600  1.0  -0.3851
  N  N200  1  0.313380  0.569240  0.567100  1.0  0.0611
  N  N201  1  0.862390  0.323230  0.782500  1.0  -0.3765
  N  N202  1  0.949580  0.402800  0.717900  1.0  0.0547
  N  N203  1  0.760120  0.147960  0.837400  1.0  -0.3851
  N  N204  1  0.686620  0.069240  0.932900  1.0  0.0608
  N  N205  1  0.862390  0.176770  0.282500  1.0  -0.3765
  N  N206  1  0.949580  0.097200  0.217900  1.0  0.0546
  N  N207  1  0.760120  0.352040  0.337400  1.0  -0.3844
  N  N208  1  0.686620  0.430760  0.432900  1.0  0.0611
  N  N209  1  0.137610  0.676770  0.217500  1.0  -0.3772
  N  N210  1  0.050420  0.597200  0.282100  1.0  0.0542
  N  N211  1  0.239880  0.852040  0.162600  1.0  -0.3845
  N  N212  1  0.313380  0.930760  0.067100  1.0  0.061
  O  O213  1  0.091710  0.801350  0.295970  1.0  -0.6119
  O  O214  1  0.006760  0.809970  0.096100  1.0  -0.6028
  O  O215  1  0.744640  0.952390  0.493410  1.0  -0.2746
  O  O216  1  0.364710  0.805620  0.794700  1.0  -0.5959
  O  O217  1  0.289520  0.772600  0.599000  1.0  -0.6171
  O  O218  1  0.598500  0.946690  0.362030  1.0  -0.2872
  O  O219  1  0.908290  0.301350  0.204030  1.0  -0.6119
  O  O220  1  0.993240  0.309970  0.403900  1.0  -0.6021
  O  O221  1  0.255360  0.452390  0.006590  1.0  -0.2767
  O  O222  1  0.635290  0.305620  0.705300  1.0  -0.5952
  O  O223  1  0.710480  0.272600  0.901000  1.0  -0.6162
  O  O224  1  0.401500  0.446690  0.137970  1.0  -0.2873
  O  O225  1  0.908290  0.198650  0.704030  1.0  -0.6116
  O  O226  1  0.993240  0.190030  0.903900  1.0  -0.6021
  O  O227  1  0.255360  0.047610  0.506590  1.0  -0.2755
  O  O228  1  0.635290  0.194380  0.205300  1.0  -0.5948
  O  O229  1  0.710480  0.227400  0.401000  1.0  -0.6165
  O  O230  1  0.401500  0.053310  0.637970  1.0  -0.288
  O  O231  1  0.091710  0.698650  0.795970  1.0  -0.6118
  O  O232  1  0.006760  0.690030  0.596100  1.0  -0.6019
  O  O233  1  0.744640  0.547610  0.993410  1.0  -0.274
  O  O234  1  0.364710  0.694380  0.294700  1.0  -0.5961
  O  O235  1  0.289520  0.727400  0.099000  1.0  -0.6167
  O  O236  1  0.598500  0.553310  0.862030  1.0  -0.287
