# generated using pymatgen
data_Eu3C24(N3O4)4
_symmetry_space_group_name_H-M   'P 1'
_cell_length_a   21.71300000
_cell_length_b   21.71300000
_cell_length_c   21.71300000
_cell_angle_alpha   90.00000000
_cell_angle_beta   90.00000000
_cell_angle_gamma   90.00000000
_symmetry_Int_Tables_number   1
_chemical_formula_structural   Eu3C24(N3O4)4
_chemical_formula_sum   'Eu24 C192 N96 O128'
_cell_volume   10236.68871410
_cell_formula_units_Z   8
loop_
 _symmetry_equiv_pos_site_id
 _symmetry_equiv_pos_as_xyz
  1  'x, y, z'
loop_
 _atom_site_type_symbol
 _atom_site_label
 _atom_site_symmetry_multiplicity
 _atom_site_fract_x
 _atom_site_fract_y
 _atom_site_fract_z
 _atom_site_occupancy
 _atom_site_charge
  Eu  Eu1  1  0.000000  0.000000  0.129450  1.0  2.2147
  Eu  Eu2  1  0.000000  0.500000  0.629450  1.0  2.2147
  Eu  Eu3  1  0.500000  0.000000  0.629450  1.0  2.2147
  Eu  Eu4  1  0.500000  0.500000  0.129450  1.0  2.2147
  Eu  Eu5  1  0.000000  0.000000  0.870550  1.0  2.2142
  Eu  Eu6  1  0.000000  0.500000  0.370550  1.0  2.2142
  Eu  Eu7  1  0.500000  0.000000  0.370550  1.0  2.2142
  Eu  Eu8  1  0.500000  0.500000  0.870550  1.0  2.2142
  Eu  Eu9  1  0.129450  0.000000  0.000000  1.0  2.2119
  Eu  Eu10  1  0.129450  0.500000  0.500000  1.0  2.2119
  Eu  Eu11  1  0.629450  0.000000  0.500000  1.0  2.2119
  Eu  Eu12  1  0.629450  0.500000  0.000000  1.0  2.2119
  Eu  Eu13  1  0.870550  0.000000  0.000000  1.0  2.2115
  Eu  Eu14  1  0.870550  0.500000  0.500000  1.0  2.2115
  Eu  Eu15  1  0.370550  0.000000  0.500000  1.0  2.2115
  Eu  Eu16  1  0.370550  0.500000  0.000000  1.0  2.2115
  Eu  Eu17  1  0.000000  0.129450  0.000000  1.0  2.211
  Eu  Eu18  1  0.000000  0.629450  0.500000  1.0  2.211
  Eu  Eu19  1  0.500000  0.129450  0.500000  1.0  2.211
  Eu  Eu20  1  0.500000  0.629450  0.000000  1.0  2.211
  Eu  Eu21  1  0.000000  0.870550  0.000000  1.0  2.2124
  Eu  Eu22  1  0.000000  0.370550  0.500000  1.0  2.2124
  Eu  Eu23  1  0.500000  0.870550  0.500000  1.0  2.2124
  Eu  Eu24  1  0.500000  0.370550  0.000000  1.0  2.2124
  C  C25  1  0.000000  0.810200  0.265300  1.0  0.1898
  C  C26  1  0.000000  0.310200  0.765300  1.0  0.1907
  C  C27  1  0.500000  0.810200  0.765300  1.0  0.1898
  C  C28  1  0.500000  0.310200  0.265300  1.0  0.1898
  C  C29  1  0.000000  0.189800  0.265300  1.0  0.1924
  C  C30  1  0.000000  0.689800  0.765300  1.0  0.1924
  C  C31  1  0.500000  0.189800  0.765300  1.0  0.1884
  C  C32  1  0.500000  0.689800  0.265300  1.0  0.1924
  C  C33  1  0.000000  0.810200  0.734700  1.0  0.1888
  C  C34  1  0.000000  0.310200  0.234700  1.0  0.1888
  C  C35  1  0.500000  0.810200  0.234700  1.0  0.1888
  C  C36  1  0.500000  0.310200  0.734700  1.0  0.1897
  C  C37  1  0.000000  0.189800  0.734700  1.0  0.1886
  C  C38  1  0.000000  0.689800  0.234700  1.0  0.1903
  C  C39  1  0.500000  0.189800  0.234700  1.0  0.1903
  C  C40  1  0.500000  0.689800  0.734700  1.0  0.1903
  C  C41  1  0.265300  0.000000  0.810200  1.0  0.1944
  C  C42  1  0.265300  0.500000  0.310200  1.0  0.1944
  C  C43  1  0.765300  0.000000  0.310200  1.0  0.1904
  C  C44  1  0.765300  0.500000  0.810200  1.0  0.1944
  C  C45  1  0.265300  0.000000  0.189800  1.0  0.1916
  C  C46  1  0.265300  0.500000  0.689800  1.0  0.1916
  C  C47  1  0.765300  0.000000  0.689800  1.0  0.1925
  C  C48  1  0.765300  0.500000  0.189800  1.0  0.1925
  C  C49  1  0.734700  0.000000  0.810200  1.0  0.1887
  C  C50  1  0.734700  0.500000  0.310200  1.0  0.1887
  C  C51  1  0.234700  0.000000  0.310200  1.0  0.1902
  C  C52  1  0.234700  0.500000  0.810200  1.0  0.1902
  C  C53  1  0.734700  0.000000  0.189800  1.0  0.1908
  C  C54  1  0.734700  0.500000  0.689800  1.0  0.1899
  C  C55  1  0.234700  0.000000  0.689800  1.0  0.1899
  C  C56  1  0.234700  0.500000  0.189800  1.0  0.1899
  C  C57  1  0.810200  0.265300  0.000000  1.0  0.1875
  C  C58  1  0.810200  0.765300  0.500000  1.0  0.1875
  C  C59  1  0.310200  0.265300  0.500000  1.0  0.1875
  C  C60  1  0.310200  0.765300  0.000000  1.0  0.1884
  C  C61  1  0.189800  0.265300  0.000000  1.0  0.1897
  C  C62  1  0.189800  0.765300  0.500000  1.0  0.1858
  C  C63  1  0.689800  0.265300  0.500000  1.0  0.1897
  C  C64  1  0.689800  0.765300  0.000000  1.0  0.1897
  C  C65  1  0.810200  0.734700  0.000000  1.0  0.1868
  C  C66  1  0.810200  0.234700  0.500000  1.0  0.1868
  C  C67  1  0.310200  0.734700  0.500000  1.0  0.1877
  C  C68  1  0.310200  0.234700  0.000000  1.0  0.1868
  C  C69  1  0.189800  0.734700  0.000000  1.0  0.185
  C  C70  1  0.189800  0.234700  0.500000  1.0  0.1867
  C  C71  1  0.689800  0.734700  0.500000  1.0  0.1867
  C  C72  1  0.689800  0.234700  0.000000  1.0  0.1867
  C  C73  1  0.810200  0.000000  0.734700  1.0  0.1912
  C  C74  1  0.810200  0.500000  0.234700  1.0  0.1912
  C  C75  1  0.310200  0.000000  0.234700  1.0  0.1912
  C  C76  1  0.310200  0.500000  0.734700  1.0  0.1913
  C  C77  1  0.189800  0.000000  0.734700  1.0  0.1895
  C  C78  1  0.189800  0.500000  0.234700  1.0  0.1932
  C  C79  1  0.689800  0.000000  0.234700  1.0  0.1932
  C  C80  1  0.689800  0.500000  0.734700  1.0  0.1932
  C  C81  1  0.810200  0.000000  0.265300  1.0  0.1905
  C  C82  1  0.810200  0.500000  0.765300  1.0  0.1905
  C  C83  1  0.310200  0.000000  0.765300  1.0  0.1907
  C  C84  1  0.310200  0.500000  0.265300  1.0  0.1905
  C  C85  1  0.189800  0.000000  0.265300  1.0  0.1929
  C  C86  1  0.189800  0.500000  0.765300  1.0  0.1891
  C  C87  1  0.689800  0.000000  0.765300  1.0  0.1929
  C  C88  1  0.689800  0.500000  0.265300  1.0  0.1929
  C  C89  1  0.000000  0.265300  0.189800  1.0  0.194
  C  C90  1  0.000000  0.765300  0.689800  1.0  0.1902
  C  C91  1  0.500000  0.265300  0.689800  1.0  0.194
  C  C92  1  0.500000  0.765300  0.189800  1.0  0.1902
  C  C93  1  0.000000  0.265300  0.810200  1.0  0.1902
  C  C94  1  0.000000  0.765300  0.310200  1.0  0.1903
  C  C95  1  0.500000  0.265300  0.310200  1.0  0.1902
  C  C96  1  0.500000  0.765300  0.810200  1.0  0.1903
  C  C97  1  0.000000  0.734700  0.189800  1.0  0.1896
  C  C98  1  0.000000  0.234700  0.689800  1.0  0.1934
  C  C99  1  0.500000  0.734700  0.689800  1.0  0.1896
  C  C100  1  0.500000  0.234700  0.189800  1.0  0.1934
  C  C101  1  0.000000  0.734700  0.810200  1.0  0.19
  C  C102  1  0.000000  0.234700  0.310200  1.0  0.1899
  C  C103  1  0.500000  0.734700  0.310200  1.0  0.19
  C  C104  1  0.500000  0.234700  0.810200  1.0  0.1899
  C  C105  1  0.265300  0.810200  0.000000  1.0  0.1889
  C  C106  1  0.265300  0.310200  0.500000  1.0  0.1889
  C  C107  1  0.765300  0.810200  0.500000  1.0  0.189
  C  C108  1  0.765300  0.310200  0.000000  1.0  0.189
  C  C109  1  0.265300  0.189800  0.000000  1.0  0.1932
  C  C110  1  0.265300  0.689800  0.500000  1.0  0.1932
  C  C111  1  0.765300  0.189800  0.500000  1.0  0.1896
  C  C112  1  0.765300  0.689800  0.000000  1.0  0.1932
  C  C113  1  0.734700  0.810200  0.000000  1.0  0.1883
  C  C114  1  0.734700  0.310200  0.500000  1.0  0.1885
  C  C115  1  0.234700  0.810200  0.500000  1.0  0.1883
  C  C116  1  0.234700  0.310200  0.000000  1.0  0.1883
  C  C117  1  0.734700  0.189800  0.000000  1.0  0.1876
  C  C118  1  0.734700  0.689800  0.500000  1.0  0.1876
  C  C119  1  0.234700  0.189800  0.500000  1.0  0.1912
  C  C120  1  0.234700  0.689800  0.000000  1.0  0.1912
  C  C121  1  0.000000  0.844900  0.155100  1.0  0.7753
  C  C122  1  0.000000  0.795800  0.204200  1.0  0.0866
  C  C123  1  0.000000  0.344900  0.655100  1.0  0.7753
  C  C124  1  0.000000  0.295800  0.704200  1.0  0.0866
  C  C125  1  0.500000  0.844900  0.655100  1.0  0.7753
  C  C126  1  0.500000  0.795800  0.704200  1.0  0.0866
  C  C127  1  0.500000  0.344900  0.155100  1.0  0.7753
  C  C128  1  0.500000  0.295800  0.204200  1.0  0.0866
  C  C129  1  0.000000  0.155100  0.155100  1.0  0.7749
  C  C130  1  0.000000  0.204200  0.204200  1.0  0.0869
  C  C131  1  0.000000  0.655100  0.655100  1.0  0.7749
  C  C132  1  0.000000  0.704200  0.704200  1.0  0.0869
  C  C133  1  0.500000  0.155100  0.655100  1.0  0.7749
  C  C134  1  0.500000  0.204200  0.704200  1.0  0.0869
  C  C135  1  0.500000  0.655100  0.155100  1.0  0.7749
  C  C136  1  0.500000  0.704200  0.204200  1.0  0.0869
  C  C137  1  0.000000  0.844900  0.844900  1.0  0.7754
  C  C138  1  0.000000  0.795800  0.795800  1.0  0.0871
  C  C139  1  0.000000  0.344900  0.344900  1.0  0.7754
  C  C140  1  0.000000  0.295800  0.295800  1.0  0.0871
  C  C141  1  0.500000  0.844900  0.344900  1.0  0.7754
  C  C142  1  0.500000  0.795800  0.295800  1.0  0.0871
  C  C143  1  0.500000  0.344900  0.844900  1.0  0.7754
  C  C144  1  0.500000  0.295800  0.795800  1.0  0.0871
  C  C145  1  0.000000  0.155100  0.844900  1.0  0.7749
  C  C146  1  0.000000  0.204200  0.795800  1.0  0.0871
  C  C147  1  0.000000  0.655100  0.344900  1.0  0.7749
  C  C148  1  0.000000  0.704200  0.295800  1.0  0.0871
  C  C149  1  0.500000  0.155100  0.344900  1.0  0.7749
  C  C150  1  0.500000  0.204200  0.295800  1.0  0.0871
  C  C151  1  0.500000  0.655100  0.844900  1.0  0.7749
  C  C152  1  0.500000  0.704200  0.795800  1.0  0.0871
  C  C153  1  0.155100  0.000000  0.844900  1.0  0.7757
  C  C154  1  0.204200  0.000000  0.795800  1.0  0.0874
  C  C155  1  0.155100  0.500000  0.344900  1.0  0.7757
  C  C156  1  0.204200  0.500000  0.295800  1.0  0.0874
  C  C157  1  0.655100  0.000000  0.344900  1.0  0.7757
  C  C158  1  0.704200  0.000000  0.295800  1.0  0.0874
  C  C159  1  0.655100  0.500000  0.844900  1.0  0.7757
  C  C160  1  0.704200  0.500000  0.795800  1.0  0.0874
  C  C161  1  0.155100  0.000000  0.155100  1.0  0.776
  C  C162  1  0.204200  0.000000  0.204200  1.0  0.087
  C  C163  1  0.155100  0.500000  0.655100  1.0  0.776
  C  C164  1  0.204200  0.500000  0.704200  1.0  0.087
  C  C165  1  0.655100  0.000000  0.655100  1.0  0.776
  C  C166  1  0.704200  0.000000  0.704200  1.0  0.087
  C  C167  1  0.655100  0.500000  0.155100  1.0  0.776
  C  C168  1  0.704200  0.500000  0.204200  1.0  0.087
  C  C169  1  0.844900  0.000000  0.844900  1.0  0.7753
  C  C170  1  0.795800  0.000000  0.795800  1.0  0.0867
  C  C171  1  0.844900  0.500000  0.344900  1.0  0.7753
  C  C172  1  0.795800  0.500000  0.295800  1.0  0.0867
  C  C173  1  0.344900  0.000000  0.344900  1.0  0.7753
  C  C174  1  0.295800  0.000000  0.295800  1.0  0.0867
  C  C175  1  0.344900  0.500000  0.844900  1.0  0.7753
  C  C176  1  0.295800  0.500000  0.795800  1.0  0.0867
  C  C177  1  0.844900  0.000000  0.155100  1.0  0.7753
  C  C178  1  0.795800  0.000000  0.204200  1.0  0.0863
  C  C179  1  0.844900  0.500000  0.655100  1.0  0.7753
  C  C180  1  0.795800  0.500000  0.704200  1.0  0.0863
  C  C181  1  0.344900  0.000000  0.655100  1.0  0.7753
  C  C182  1  0.295800  0.000000  0.704200  1.0  0.0863
  C  C183  1  0.344900  0.500000  0.155100  1.0  0.7753
  C  C184  1  0.295800  0.500000  0.204200  1.0  0.0863
  C  C185  1  0.844900  0.155100  0.000000  1.0  0.7736
  C  C186  1  0.795800  0.204200  0.000000  1.0  0.0868
  C  C187  1  0.844900  0.655100  0.500000  1.0  0.7736
  C  C188  1  0.795800  0.704200  0.500000  1.0  0.0868
  C  C189  1  0.344900  0.155100  0.500000  1.0  0.7736
  C  C190  1  0.295800  0.204200  0.500000  1.0  0.0868
  C  C191  1  0.344900  0.655100  0.000000  1.0  0.7736
  C  C192  1  0.295800  0.704200  0.000000  1.0  0.0868
  C  C193  1  0.155100  0.155100  0.000000  1.0  0.7742
  C  C194  1  0.204200  0.204200  0.000000  1.0  0.087
  C  C195  1  0.155100  0.655100  0.500000  1.0  0.7742
  C  C196  1  0.204200  0.704200  0.500000  1.0  0.087
  C  C197  1  0.655100  0.155100  0.500000  1.0  0.7742
  C  C198  1  0.704200  0.204200  0.500000  1.0  0.087
  C  C199  1  0.655100  0.655100  0.000000  1.0  0.7742
  C  C200  1  0.704200  0.704200  0.000000  1.0  0.087
  C  C201  1  0.844900  0.844900  0.000000  1.0  0.774
  C  C202  1  0.795800  0.795800  0.000000  1.0  0.0867
  C  C203  1  0.844900  0.344900  0.500000  1.0  0.774
  C  C204  1  0.795800  0.295800  0.500000  1.0  0.0867
  C  C205  1  0.344900  0.844900  0.500000  1.0  0.774
  C  C206  1  0.295800  0.795800  0.500000  1.0  0.0867
  C  C207  1  0.344900  0.344900  0.000000  1.0  0.774
  C  C208  1  0.295800  0.295800  0.000000  1.0  0.0867
  C  C209  1  0.155100  0.844900  0.000000  1.0  0.7744
  C  C210  1  0.204200  0.795800  0.000000  1.0  0.0873
  C  C211  1  0.155100  0.344900  0.500000  1.0  0.7744
  C  C212  1  0.204200  0.295800  0.500000  1.0  0.0873
  C  C213  1  0.655100  0.844900  0.500000  1.0  0.7744
  C  C214  1  0.704200  0.795800  0.500000  1.0  0.0873
  C  C215  1  0.655100  0.344900  0.000000  1.0  0.7744
  C  C216  1  0.704200  0.295800  0.000000  1.0  0.0873
  N  N217  1  0.000000  0.872600  0.262500  1.0  -0.2343
  N  N218  1  0.000000  0.372600  0.762500  1.0  -0.2343
  N  N219  1  0.500000  0.872600  0.762500  1.0  -0.2343
  N  N220  1  0.500000  0.372600  0.262500  1.0  -0.2343
  N  N221  1  0.000000  0.127400  0.262500  1.0  -0.233
  N  N222  1  0.000000  0.627400  0.762500  1.0  -0.233
  N  N223  1  0.500000  0.127400  0.762500  1.0  -0.233
  N  N224  1  0.500000  0.627400  0.262500  1.0  -0.233
  N  N225  1  0.000000  0.872600  0.737500  1.0  -0.2378
  N  N226  1  0.000000  0.372600  0.237500  1.0  -0.2378
  N  N227  1  0.500000  0.872600  0.237500  1.0  -0.2378
  N  N228  1  0.500000  0.372600  0.737500  1.0  -0.2378
  N  N229  1  0.000000  0.127400  0.737500  1.0  -0.236
  N  N230  1  0.000000  0.627400  0.237500  1.0  -0.236
  N  N231  1  0.500000  0.127400  0.237500  1.0  -0.236
  N  N232  1  0.500000  0.627400  0.737500  1.0  -0.236
  N  N233  1  0.262500  0.000000  0.872600  1.0  -0.2367
  N  N234  1  0.262500  0.500000  0.372600  1.0  -0.2367
  N  N235  1  0.762500  0.000000  0.372600  1.0  -0.2367
  N  N236  1  0.762500  0.500000  0.872600  1.0  -0.2367
  N  N237  1  0.262500  0.000000  0.127400  1.0  -0.2399
  N  N238  1  0.262500  0.500000  0.627400  1.0  -0.2399
  N  N239  1  0.762500  0.000000  0.627400  1.0  -0.2399
  N  N240  1  0.762500  0.500000  0.127400  1.0  -0.2399
  N  N241  1  0.737500  0.000000  0.872600  1.0  -0.237
  N  N242  1  0.737500  0.500000  0.372600  1.0  -0.237
  N  N243  1  0.237500  0.000000  0.372600  1.0  -0.237
  N  N244  1  0.237500  0.500000  0.872600  1.0  -0.237
  N  N245  1  0.737500  0.000000  0.127400  1.0  -0.2386
  N  N246  1  0.737500  0.500000  0.627400  1.0  -0.2386
  N  N247  1  0.237500  0.000000  0.627400  1.0  -0.2386
  N  N248  1  0.237500  0.500000  0.127400  1.0  -0.2386
  N  N249  1  0.872600  0.262500  0.000000  1.0  -0.2347
  N  N250  1  0.872600  0.762500  0.500000  1.0  -0.2347
  N  N251  1  0.372600  0.262500  0.500000  1.0  -0.2347
  N  N252  1  0.372600  0.762500  0.000000  1.0  -0.2347
  N  N253  1  0.127400  0.262500  0.000000  1.0  -0.2376
  N  N254  1  0.127400  0.762500  0.500000  1.0  -0.2376
  N  N255  1  0.627400  0.262500  0.500000  1.0  -0.2376
  N  N256  1  0.627400  0.762500  0.000000  1.0  -0.2376
  N  N257  1  0.872600  0.737500  0.000000  1.0  -0.2353
  N  N258  1  0.872600  0.237500  0.500000  1.0  -0.2353
  N  N259  1  0.372600  0.737500  0.500000  1.0  -0.2353
  N  N260  1  0.372600  0.237500  0.000000  1.0  -0.2353
  N  N261  1  0.127400  0.737500  0.000000  1.0  -0.2389
  N  N262  1  0.127400  0.237500  0.500000  1.0  -0.2389
  N  N263  1  0.627400  0.737500  0.500000  1.0  -0.2389
  N  N264  1  0.627400  0.237500  0.000000  1.0  -0.2389
  N  N265  1  0.872600  0.000000  0.737500  1.0  -0.2375
  N  N266  1  0.872600  0.500000  0.237500  1.0  -0.2375
  N  N267  1  0.372600  0.000000  0.237500  1.0  -0.2375
  N  N268  1  0.372600  0.500000  0.737500  1.0  -0.2375
  N  N269  1  0.127400  0.000000  0.737500  1.0  -0.239
  N  N270  1  0.127400  0.500000  0.237500  1.0  -0.239
  N  N271  1  0.627400  0.000000  0.237500  1.0  -0.239
  N  N272  1  0.627400  0.500000  0.737500  1.0  -0.239
  N  N273  1  0.872600  0.000000  0.262500  1.0  -0.2342
  N  N274  1  0.872600  0.500000  0.762500  1.0  -0.2342
  N  N275  1  0.372600  0.000000  0.762500  1.0  -0.2342
  N  N276  1  0.372600  0.500000  0.262500  1.0  -0.2342
  N  N277  1  0.127400  0.000000  0.262500  1.0  -0.2366
  N  N278  1  0.127400  0.500000  0.762500  1.0  -0.2366
  N  N279  1  0.627400  0.000000  0.762500  1.0  -0.2366
  N  N280  1  0.627400  0.500000  0.262500  1.0  -0.2366
  N  N281  1  0.000000  0.262500  0.127400  1.0  -0.2391
  N  N282  1  0.000000  0.762500  0.627400  1.0  -0.2391
  N  N283  1  0.500000  0.262500  0.627400  1.0  -0.2391
  N  N284  1  0.500000  0.762500  0.127400  1.0  -0.2391
  N  N285  1  0.000000  0.262500  0.872600  1.0  -0.237
  N  N286  1  0.000000  0.762500  0.372600  1.0  -0.237
  N  N287  1  0.500000  0.262500  0.372600  1.0  -0.237
  N  N288  1  0.500000  0.762500  0.872600  1.0  -0.237
  N  N289  1  0.000000  0.737500  0.127400  1.0  -0.2377
  N  N290  1  0.000000  0.237500  0.627400  1.0  -0.2377
  N  N291  1  0.500000  0.737500  0.627400  1.0  -0.2377
  N  N292  1  0.500000  0.237500  0.127400  1.0  -0.2377
  N  N293  1  0.000000  0.737500  0.872600  1.0  -0.2363
  N  N294  1  0.000000  0.237500  0.372600  1.0  -0.2363
  N  N295  1  0.500000  0.737500  0.372600  1.0  -0.2363
  N  N296  1  0.500000  0.237500  0.872600  1.0  -0.2363
  N  N297  1  0.262500  0.872600  0.000000  1.0  -0.2359
  N  N298  1  0.262500  0.372600  0.500000  1.0  -0.2359
  N  N299  1  0.762500  0.872600  0.500000  1.0  -0.2359
  N  N300  1  0.762500  0.372600  0.000000  1.0  -0.2359
  N  N301  1  0.262500  0.127400  0.000000  1.0  -0.2361
  N  N302  1  0.262500  0.627400  0.500000  1.0  -0.2361
  N  N303  1  0.762500  0.127400  0.500000  1.0  -0.2361
  N  N304  1  0.762500  0.627400  0.000000  1.0  -0.2361
  N  N305  1  0.737500  0.872600  0.000000  1.0  -0.2362
  N  N306  1  0.737500  0.372600  0.500000  1.0  -0.2362
  N  N307  1  0.237500  0.872600  0.500000  1.0  -0.2362
  N  N308  1  0.237500  0.372600  0.000000  1.0  -0.2362
  N  N309  1  0.737500  0.127400  0.000000  1.0  -0.2352
  N  N310  1  0.737500  0.627400  0.500000  1.0  -0.2352
  N  N311  1  0.237500  0.127400  0.500000  1.0  -0.2352
  N  N312  1  0.237500  0.627400  0.000000  1.0  -0.2352
  O  O313  1  0.058890  0.058890  0.058890  1.0  -1.0209
  O  O314  1  0.058890  0.558890  0.558890  1.0  -1.0209
  O  O315  1  0.558890  0.058890  0.558890  1.0  -1.0209
  O  O316  1  0.558890  0.558890  0.058890  1.0  -1.0209
  O  O317  1  0.941110  0.941110  0.058890  1.0  -1.0199
  O  O318  1  0.941110  0.441110  0.558890  1.0  -1.0199
  O  O319  1  0.441110  0.941110  0.558890  1.0  -1.0199
  O  O320  1  0.441110  0.441110  0.058890  1.0  -1.0199
  O  O321  1  0.941110  0.058890  0.941110  1.0  -1.0199
  O  O322  1  0.941110  0.558890  0.441110  1.0  -1.0199
  O  O323  1  0.441110  0.058890  0.441110  1.0  -1.0199
  O  O324  1  0.441110  0.558890  0.941110  1.0  -1.0199
  O  O325  1  0.058890  0.941110  0.941110  1.0  -1.02
  O  O326  1  0.058890  0.441110  0.441110  1.0  -1.02
  O  O327  1  0.558890  0.941110  0.441110  1.0  -1.02
  O  O328  1  0.558890  0.441110  0.941110  1.0  -1.02
  O  O329  1  0.058890  0.058890  0.941110  1.0  -1.0205
  O  O330  1  0.058890  0.558890  0.441110  1.0  -1.0205
  O  O331  1  0.558890  0.058890  0.441110  1.0  -1.0205
  O  O332  1  0.558890  0.558890  0.941110  1.0  -1.0205
  O  O333  1  0.941110  0.941110  0.941110  1.0  -1.0194
  O  O334  1  0.941110  0.441110  0.441110  1.0  -1.0194
  O  O335  1  0.441110  0.941110  0.441110  1.0  -1.0194
  O  O336  1  0.441110  0.441110  0.941110  1.0  -1.0194
  O  O337  1  0.058890  0.941110  0.058890  1.0  -1.0206
  O  O338  1  0.058890  0.441110  0.558890  1.0  -1.0206
  O  O339  1  0.558890  0.941110  0.558890  1.0  -1.0206
  O  O340  1  0.558890  0.441110  0.058890  1.0  -1.0206
  O  O341  1  0.941110  0.058890  0.058890  1.0  -1.0203
  O  O342  1  0.941110  0.558890  0.558890  1.0  -1.0203
  O  O343  1  0.441110  0.058890  0.558890  1.0  -1.0203
  O  O344  1  0.441110  0.558890  0.058890  1.0  -1.0203
  O  O345  1  0.000000  0.900810  0.174220  1.0  -0.5979
  O  O346  1  0.000000  0.400810  0.674220  1.0  -0.5979
  O  O347  1  0.500000  0.900810  0.674220  1.0  -0.5979
  O  O348  1  0.500000  0.400810  0.174220  1.0  -0.5979
  O  O349  1  0.000000  0.099190  0.174220  1.0  -0.5981
  O  O350  1  0.000000  0.599190  0.674220  1.0  -0.5981
  O  O351  1  0.500000  0.099190  0.674220  1.0  -0.5981
  O  O352  1  0.500000  0.599190  0.174220  1.0  -0.5981
  O  O353  1  0.000000  0.900810  0.825780  1.0  -0.5981
  O  O354  1  0.000000  0.400810  0.325780  1.0  -0.5981
  O  O355  1  0.500000  0.900810  0.325780  1.0  -0.5981
  O  O356  1  0.500000  0.400810  0.825780  1.0  -0.5981
  O  O357  1  0.000000  0.099190  0.825780  1.0  -0.5976
  O  O358  1  0.000000  0.599190  0.325780  1.0  -0.5976
  O  O359  1  0.500000  0.099190  0.325780  1.0  -0.5976
  O  O360  1  0.500000  0.599190  0.825780  1.0  -0.5976
  O  O361  1  0.174220  0.000000  0.900810  1.0  -0.5963
  O  O362  1  0.174220  0.500000  0.400810  1.0  -0.5963
  O  O363  1  0.674220  0.000000  0.400810  1.0  -0.5963
  O  O364  1  0.674220  0.500000  0.900810  1.0  -0.5963
  O  O365  1  0.174220  0.000000  0.099190  1.0  -0.5962
  O  O366  1  0.174220  0.500000  0.599190  1.0  -0.5962
  O  O367  1  0.674220  0.000000  0.599190  1.0  -0.5962
  O  O368  1  0.674220  0.500000  0.099190  1.0  -0.5962
  O  O369  1  0.825780  0.000000  0.900810  1.0  -0.5966
  O  O370  1  0.825780  0.500000  0.400810  1.0  -0.5966
  O  O371  1  0.325780  0.000000  0.400810  1.0  -0.5966
  O  O372  1  0.325780  0.500000  0.900810  1.0  -0.5966
  O  O373  1  0.825780  0.000000  0.099190  1.0  -0.5955
  O  O374  1  0.825780  0.500000  0.599190  1.0  -0.5955
  O  O375  1  0.325780  0.000000  0.599190  1.0  -0.5955
  O  O376  1  0.325780  0.500000  0.099190  1.0  -0.5955
  O  O377  1  0.900810  0.174220  0.000000  1.0  -0.5991
  O  O378  1  0.900810  0.674220  0.500000  1.0  -0.5991
  O  O379  1  0.400810  0.174220  0.500000  1.0  -0.5991
  O  O380  1  0.400810  0.674220  0.000000  1.0  -0.5991
  O  O381  1  0.099190  0.174220  0.000000  1.0  -0.5967
  O  O382  1  0.099190  0.674220  0.500000  1.0  -0.5967
  O  O383  1  0.599190  0.174220  0.500000  1.0  -0.5967
  O  O384  1  0.599190  0.674220  0.000000  1.0  -0.5967
  O  O385  1  0.900810  0.825780  0.000000  1.0  -0.599
  O  O386  1  0.900810  0.325780  0.500000  1.0  -0.599
  O  O387  1  0.400810  0.825780  0.500000  1.0  -0.599
  O  O388  1  0.400810  0.325780  0.000000  1.0  -0.599
  O  O389  1  0.099190  0.825780  0.000000  1.0  -0.5971
  O  O390  1  0.099190  0.325780  0.500000  1.0  -0.5971
  O  O391  1  0.599190  0.825780  0.500000  1.0  -0.5971
  O  O392  1  0.599190  0.325780  0.000000  1.0  -0.5971
  O  O393  1  0.900810  0.000000  0.825780  1.0  -0.5976
  O  O394  1  0.900810  0.500000  0.325780  1.0  -0.5976
  O  O395  1  0.400810  0.000000  0.325780  1.0  -0.5976
  O  O396  1  0.400810  0.500000  0.825780  1.0  -0.5976
  O  O397  1  0.099190  0.000000  0.825780  1.0  -0.5948
  O  O398  1  0.099190  0.500000  0.325780  1.0  -0.5948
  O  O399  1  0.599190  0.000000  0.325780  1.0  -0.5948
  O  O400  1  0.599190  0.500000  0.825780  1.0  -0.5948
  O  O401  1  0.900810  0.000000  0.174220  1.0  -0.5976
  O  O402  1  0.900810  0.500000  0.674220  1.0  -0.5976
  O  O403  1  0.400810  0.000000  0.674220  1.0  -0.5976
  O  O404  1  0.400810  0.500000  0.174220  1.0  -0.5976
  O  O405  1  0.099190  0.000000  0.174220  1.0  -0.5948
  O  O406  1  0.099190  0.500000  0.674220  1.0  -0.5948
  O  O407  1  0.599190  0.000000  0.674220  1.0  -0.5948
  O  O408  1  0.599190  0.500000  0.174220  1.0  -0.5948
  O  O409  1  0.000000  0.174220  0.099190  1.0  -0.595
  O  O410  1  0.000000  0.674220  0.599190  1.0  -0.595
  O  O411  1  0.500000  0.174220  0.599190  1.0  -0.595
  O  O412  1  0.500000  0.674220  0.099190  1.0  -0.595
  O  O413  1  0.000000  0.174220  0.900810  1.0  -0.5957
  O  O414  1  0.000000  0.674220  0.400810  1.0  -0.5957
  O  O415  1  0.500000  0.174220  0.400810  1.0  -0.5957
  O  O416  1  0.500000  0.674220  0.900810  1.0  -0.5957
  O  O417  1  0.000000  0.825780  0.099190  1.0  -0.5954
  O  O418  1  0.000000  0.325780  0.599190  1.0  -0.5954
  O  O419  1  0.500000  0.825780  0.599190  1.0  -0.5954
  O  O420  1  0.500000  0.325780  0.099190  1.0  -0.5954
  O  O421  1  0.000000  0.825780  0.900810  1.0  -0.5957
  O  O422  1  0.000000  0.325780  0.400810  1.0  -0.5957
  O  O423  1  0.500000  0.825780  0.400810  1.0  -0.5957
  O  O424  1  0.500000  0.325780  0.900810  1.0  -0.5957
  O  O425  1  0.174220  0.900810  0.000000  1.0  -0.6008
  O  O426  1  0.174220  0.400810  0.500000  1.0  -0.6008
  O  O427  1  0.674220  0.900810  0.500000  1.0  -0.6008
  O  O428  1  0.674220  0.400810  0.000000  1.0  -0.6008
  O  O429  1  0.174220  0.099190  0.000000  1.0  -0.6012
  O  O430  1  0.174220  0.599190  0.500000  1.0  -0.6012
  O  O431  1  0.674220  0.099190  0.500000  1.0  -0.6012
  O  O432  1  0.674220  0.599190  0.000000  1.0  -0.6012
  O  O433  1  0.825780  0.900810  0.000000  1.0  -0.6012
  O  O434  1  0.825780  0.400810  0.500000  1.0  -0.6012
  O  O435  1  0.325780  0.900810  0.500000  1.0  -0.6012
  O  O436  1  0.325780  0.400810  0.000000  1.0  -0.6012
  O  O437  1  0.825780  0.099190  0.000000  1.0  -0.6016
  O  O438  1  0.825780  0.599190  0.500000  1.0  -0.6016
  O  O439  1  0.325780  0.099190  0.500000  1.0  -0.6016
  O  O440  1  0.325780  0.599190  0.000000  1.0  -0.6016
