# generated using pymatgen
data_BaH27C21(NO)6
_symmetry_space_group_name_H-M   'P 1'
_cell_length_a   7.35830000
_cell_length_b   27.28000000
_cell_length_c   27.85600000
_cell_angle_alpha   90.00000000
_cell_angle_beta   90.00000000
_cell_angle_gamma   90.00000000
_symmetry_Int_Tables_number   1
_chemical_formula_structural   BaH27C21(NO)6
_chemical_formula_sum   'Ba8 H216 C168 N48 O48'
_cell_volume   5591.65811494
_cell_formula_units_Z   8
loop_
 _symmetry_equiv_pos_site_id
 _symmetry_equiv_pos_as_xyz
  1  'x, y, z'
loop_
 _atom_site_type_symbol
 _atom_site_label
 _atom_site_symmetry_multiplicity
 _atom_site_fract_x
 _atom_site_fract_y
 _atom_site_fract_z
 _atom_site_occupancy
 _atom_site_charge
  Ba  Ba1  1  0.865120  0.139790  0.288420  1.0  1.6523
  Ba  Ba2  1  0.634880  0.860210  0.788420  1.0  1.6524
  Ba  Ba3  1  0.134880  0.639790  0.211580  1.0  1.6497
  Ba  Ba4  1  0.365120  0.360210  0.711580  1.0  1.6502
  Ba  Ba5  1  0.134880  0.860210  0.711580  1.0  1.6501
  Ba  Ba6  1  0.365120  0.139790  0.211580  1.0  1.6498
  Ba  Ba7  1  0.865120  0.360210  0.788420  1.0  1.6505
  Ba  Ba8  1  0.634880  0.639790  0.288420  1.0  1.6501
  H  H9  1  0.102900  0.042700  0.353700  1.0  0.0747
  H  H10  1  0.270000  0.010900  0.337700  1.0  0.083
  H  H11  1  0.287000  0.097800  0.392900  1.0  0.0778
  H  H12  1  0.596900  0.041000  0.369800  1.0  0.0888
  H  H13  1  0.596700  0.088100  0.402000  1.0  0.0962
  H  H14  1  0.615500  0.015600  0.449200  1.0  0.0764
  H  H15  1  0.444900  0.047100  0.463200  1.0  0.0762
  H  H16  1  0.140300  0.019400  0.432600  1.0  0.0671
  H  H17  1  0.132900  0.971700  0.401300  1.0  0.0699
  H  H18  1  0.172000  0.764700  0.282400  1.0  0.088
  H  H19  1  0.893300  0.936000  0.474000  1.0  0.075
  H  H20  1  0.042300  0.902800  0.450000  1.0  0.0642
  H  H21  1  0.931800  0.897800  0.546800  1.0  0.0734
  H  H22  1  0.124300  0.914400  0.529000  1.0  0.0732
  H  H23  1  0.988500  0.771100  0.511400  1.0  0.0856
  H  H24  1  0.842600  0.805900  0.534300  1.0  0.0807
  H  H25  1  0.966900  0.812500  0.438300  1.0  0.0756
  H  H26  1  0.771900  0.794800  0.453500  1.0  0.0809
  H  H27  1  0.435400  0.767900  0.390600  1.0  0.0861
  H  H28  1  0.449600  0.780100  0.335600  1.0  0.0898
  H  H29  1  0.952000  0.824600  0.296700  1.0  0.0722
  H  H30  1  0.943100  0.809600  0.351000  1.0  0.0825
  H  H31  1  0.247900  0.853100  0.305600  1.0  0.0805
  H  H32  1  0.127100  0.878600  0.344700  1.0  0.0826
  H  H33  1  0.197000  0.835300  0.505600  1.0  0.076
  H  H34  1  0.263000  0.711600  0.344600  1.0  0.0859
  H  H35  1  0.138400  0.739900  0.381000  1.0  0.0842
  H  H36  1  0.397100  0.957300  0.853700  1.0  0.0766
  H  H37  1  0.230000  0.989100  0.837700  1.0  0.0831
  H  H38  1  0.213000  0.902200  0.892900  1.0  0.0778
  H  H39  1  0.903100  0.959000  0.869800  1.0  0.0891
  H  H40  1  0.903300  0.911900  0.902000  1.0  0.0966
  H  H41  1  0.884500  0.984400  0.949200  1.0  0.0751
  H  H42  1  0.055100  0.952900  0.963200  1.0  0.0758
  H  H43  1  0.359700  0.980600  0.932600  1.0  0.0678
  H  H44  1  0.367100  0.028300  0.901300  1.0  0.0707
  H  H45  1  0.328000  0.235300  0.782400  1.0  0.0883
  H  H46  1  0.606700  0.064000  0.974000  1.0  0.0733
  H  H47  1  0.457700  0.097200  0.950000  1.0  0.0647
  H  H48  1  0.568200  0.102200  0.046800  1.0  0.0735
  H  H49  1  0.375700  0.085600  0.029000  1.0  0.0741
  H  H50  1  0.511500  0.228900  0.011400  1.0  0.0851
  H  H51  1  0.657400  0.194100  0.034300  1.0  0.0825
  H  H52  1  0.533100  0.187500  0.938300  1.0  0.0755
  H  H53  1  0.728100  0.205200  0.953500  1.0  0.0815
  H  H54  1  0.064600  0.232100  0.890600  1.0  0.086
  H  H55  1  0.050400  0.219900  0.835600  1.0  0.0885
  H  H56  1  0.548000  0.175400  0.796700  1.0  0.072
  H  H57  1  0.556900  0.190400  0.851000  1.0  0.0836
  H  H58  1  0.252100  0.146900  0.805600  1.0  0.0801
  H  H59  1  0.372900  0.121400  0.844700  1.0  0.0819
  H  H60  1  0.303000  0.164700  0.005600  1.0  0.0771
  H  H61  1  0.237000  0.288400  0.844600  1.0  0.0857
  H  H62  1  0.361600  0.260100  0.881000  1.0  0.084
  H  H63  1  0.897100  0.542700  0.146300  1.0  0.0744
  H  H64  1  0.730000  0.510900  0.162300  1.0  0.0852
  H  H65  1  0.713000  0.597800  0.107100  1.0  0.0781
  H  H66  1  0.403100  0.541000  0.130200  1.0  0.089
  H  H67  1  0.403300  0.588100  0.098000  1.0  0.0972
  H  H68  1  0.384500  0.515600  0.050800  1.0  0.0751
  H  H69  1  0.555100  0.547100  0.036800  1.0  0.0759
  H  H70  1  0.859700  0.519400  0.067400  1.0  0.0676
  H  H71  1  0.867100  0.471700  0.098700  1.0  0.0696
  H  H72  1  0.828000  0.264700  0.217600  1.0  0.0864
  H  H73  1  0.106700  0.436000  0.026000  1.0  0.0747
  H  H74  1  0.957700  0.402800  0.050000  1.0  0.0649
  H  H75  1  0.068200  0.397800  0.953200  1.0  0.0734
  H  H76  1  0.875700  0.414400  0.971000  1.0  0.0742
  H  H77  1  0.011500  0.271100  0.988600  1.0  0.086
  H  H78  1  0.157400  0.305900  0.965700  1.0  0.0824
  H  H79  1  0.033100  0.312500  0.061700  1.0  0.0752
  H  H80  1  0.228100  0.294800  0.046500  1.0  0.0818
  H  H81  1  0.564600  0.267900  0.109400  1.0  0.0862
  H  H82  1  0.550400  0.280100  0.164400  1.0  0.0879
  H  H83  1  0.048000  0.324600  0.203300  1.0  0.0722
  H  H84  1  0.056900  0.309600  0.149000  1.0  0.0829
  H  H85  1  0.752100  0.353100  0.194400  1.0  0.0802
  H  H86  1  0.872900  0.378600  0.155300  1.0  0.0811
  H  H87  1  0.803000  0.335300  0.994400  1.0  0.0772
  H  H88  1  0.737000  0.211600  0.155400  1.0  0.0871
  H  H89  1  0.861600  0.239900  0.119000  1.0  0.0839
  H  H90  1  0.602900  0.457300  0.646300  1.0  0.0757
  H  H91  1  0.770000  0.489100  0.662300  1.0  0.0847
  H  H92  1  0.787000  0.402200  0.607100  1.0  0.0788
  H  H93  1  0.096900  0.459000  0.630200  1.0  0.088
  H  H94  1  0.096700  0.411900  0.598000  1.0  0.0974
  H  H95  1  0.115500  0.484400  0.550800  1.0  0.0761
  H  H96  1  0.944900  0.452900  0.536800  1.0  0.0758
  H  H97  1  0.640300  0.480600  0.567400  1.0  0.0673
  H  H98  1  0.632900  0.528300  0.598700  1.0  0.0702
  H  H99  1  0.672000  0.735300  0.717600  1.0  0.0868
  H  H100  1  0.393300  0.564000  0.526000  1.0  0.075
  H  H101  1  0.542300  0.597200  0.550000  1.0  0.0647
  H  H102  1  0.431800  0.602200  0.453200  1.0  0.0738
  H  H103  1  0.624300  0.585600  0.471000  1.0  0.0725
  H  H104  1  0.488500  0.728900  0.488600  1.0  0.0859
  H  H105  1  0.342600  0.694100  0.465700  1.0  0.0813
  H  H106  1  0.466900  0.687500  0.561700  1.0  0.0753
  H  H107  1  0.271900  0.705200  0.546500  1.0  0.0815
  H  H108  1  0.935400  0.732100  0.609400  1.0  0.0861
  H  H109  1  0.949600  0.719900  0.664400  1.0  0.0896
  H  H110  1  0.452000  0.675400  0.703300  1.0  0.0736
  H  H111  1  0.443100  0.690400  0.649000  1.0  0.0816
  H  H112  1  0.747900  0.646900  0.694400  1.0  0.0816
  H  H113  1  0.627100  0.621400  0.655300  1.0  0.0814
  H  H114  1  0.697000  0.664700  0.494400  1.0  0.076
  H  H115  1  0.763000  0.788400  0.655400  1.0  0.0861
  H  H116  1  0.638400  0.760100  0.619000  1.0  0.0842
  H  H117  1  0.897100  0.957300  0.646300  1.0  0.0743
  H  H118  1  0.730000  0.989100  0.662300  1.0  0.0846
  H  H119  1  0.713000  0.902200  0.607100  1.0  0.0783
  H  H120  1  0.403100  0.959000  0.630200  1.0  0.0883
  H  H121  1  0.403300  0.911900  0.598000  1.0  0.0975
  H  H122  1  0.384500  0.984400  0.550800  1.0  0.0753
  H  H123  1  0.555100  0.952900  0.536800  1.0  0.0757
  H  H124  1  0.859700  0.980600  0.567400  1.0  0.0676
  H  H125  1  0.867100  0.028300  0.598700  1.0  0.0688
  H  H126  1  0.828000  0.235300  0.717600  1.0  0.0865
  H  H127  1  0.106700  0.064000  0.526000  1.0  0.0732
  H  H128  1  0.957700  0.097200  0.550000  1.0  0.0651
  H  H129  1  0.068200  0.102200  0.453200  1.0  0.0736
  H  H130  1  0.875700  0.085600  0.471000  1.0  0.0736
  H  H131  1  0.011500  0.228900  0.488600  1.0  0.0853
  H  H132  1  0.157400  0.194100  0.465700  1.0  0.0825
  H  H133  1  0.033100  0.187500  0.561700  1.0  0.0751
  H  H134  1  0.228100  0.205200  0.546500  1.0  0.0816
  H  H135  1  0.564600  0.232100  0.609400  1.0  0.0861
  H  H136  1  0.550400  0.219900  0.664400  1.0  0.088
  H  H137  1  0.048000  0.175400  0.703300  1.0  0.0724
  H  H138  1  0.056900  0.190400  0.649000  1.0  0.083
  H  H139  1  0.752100  0.146900  0.694400  1.0  0.0812
  H  H140  1  0.872900  0.121400  0.655300  1.0  0.0818
  H  H141  1  0.803000  0.164700  0.494400  1.0  0.0768
  H  H142  1  0.737000  0.288400  0.655400  1.0  0.0861
  H  H143  1  0.861600  0.260100  0.619000  1.0  0.0839
  H  H144  1  0.602900  0.042700  0.146300  1.0  0.0758
  H  H145  1  0.770000  0.010900  0.162300  1.0  0.0854
  H  H146  1  0.787000  0.097800  0.107100  1.0  0.0786
  H  H147  1  0.096900  0.041000  0.130200  1.0  0.0882
  H  H148  1  0.096700  0.088100  0.098000  1.0  0.0962
  H  H149  1  0.115500  0.015600  0.050800  1.0  0.076
  H  H150  1  0.944900  0.047100  0.036800  1.0  0.0762
  H  H151  1  0.640300  0.019400  0.067400  1.0  0.0675
  H  H152  1  0.632900  0.971700  0.098700  1.0  0.0702
  H  H153  1  0.672000  0.764700  0.217600  1.0  0.0868
  H  H154  1  0.393300  0.936000  0.026000  1.0  0.0747
  H  H155  1  0.542300  0.902800  0.050000  1.0  0.0642
  H  H156  1  0.431800  0.897800  0.953200  1.0  0.0741
  H  H157  1  0.624300  0.914400  0.971000  1.0  0.0733
  H  H158  1  0.488500  0.771100  0.988600  1.0  0.0857
  H  H159  1  0.342600  0.805900  0.965700  1.0  0.0813
  H  H160  1  0.466900  0.812500  0.061700  1.0  0.0758
  H  H161  1  0.271900  0.794800  0.046500  1.0  0.0816
  H  H162  1  0.935400  0.767900  0.109400  1.0  0.0864
  H  H163  1  0.949600  0.780100  0.164400  1.0  0.0894
  H  H164  1  0.452000  0.824600  0.203300  1.0  0.0729
  H  H165  1  0.443100  0.809600  0.149000  1.0  0.0817
  H  H166  1  0.747900  0.853100  0.194400  1.0  0.0805
  H  H167  1  0.627100  0.878600  0.155300  1.0  0.0819
  H  H168  1  0.697000  0.835300  0.994400  1.0  0.0765
  H  H169  1  0.763000  0.711600  0.155400  1.0  0.0868
  H  H170  1  0.638400  0.739900  0.119000  1.0  0.0841
  H  H171  1  0.102900  0.457300  0.853700  1.0  0.0747
  H  H172  1  0.270000  0.489100  0.837700  1.0  0.0827
  H  H173  1  0.287000  0.402200  0.892900  1.0  0.0782
  H  H174  1  0.596900  0.459000  0.869800  1.0  0.089
  H  H175  1  0.596700  0.411900  0.902000  1.0  0.0972
  H  H176  1  0.615500  0.484400  0.949200  1.0  0.0758
  H  H177  1  0.444900  0.452900  0.963200  1.0  0.076
  H  H178  1  0.140300  0.480600  0.932600  1.0  0.0672
  H  H179  1  0.132900  0.528300  0.901300  1.0  0.0716
  H  H180  1  0.172000  0.735300  0.782400  1.0  0.0882
  H  H181  1  0.893300  0.564000  0.974000  1.0  0.0751
  H  H182  1  0.042300  0.597200  0.950000  1.0  0.0643
  H  H183  1  0.931800  0.602200  0.046800  1.0  0.0732
  H  H184  1  0.124300  0.585600  0.029000  1.0  0.0731
  H  H185  1  0.988500  0.728900  0.011400  1.0  0.0857
  H  H186  1  0.842600  0.694100  0.034300  1.0  0.0805
  H  H187  1  0.966900  0.687500  0.938300  1.0  0.0756
  H  H188  1  0.771900  0.705200  0.953500  1.0  0.0814
  H  H189  1  0.435400  0.732100  0.890600  1.0  0.0858
  H  H190  1  0.449600  0.719900  0.835600  1.0  0.0897
  H  H191  1  0.952000  0.675400  0.796700  1.0  0.0723
  H  H192  1  0.943100  0.690400  0.851000  1.0  0.0832
  H  H193  1  0.247900  0.646900  0.805600  1.0  0.0804
  H  H194  1  0.127100  0.621400  0.844700  1.0  0.0803
  H  H195  1  0.197000  0.664700  0.005600  1.0  0.076
  H  H196  1  0.263000  0.788400  0.844600  1.0  0.0856
  H  H197  1  0.138400  0.760100  0.881000  1.0  0.0837
  H  H198  1  0.397100  0.542700  0.353700  1.0  0.0767
  H  H199  1  0.230000  0.510900  0.337700  1.0  0.0831
  H  H200  1  0.213000  0.597800  0.392900  1.0  0.0773
  H  H201  1  0.903100  0.541000  0.369800  1.0  0.089
  H  H202  1  0.903300  0.588100  0.402000  1.0  0.0969
  H  H203  1  0.884500  0.515600  0.449200  1.0  0.0756
  H  H204  1  0.055100  0.547100  0.463200  1.0  0.0758
  H  H205  1  0.359700  0.519400  0.432600  1.0  0.0675
  H  H206  1  0.367100  0.471700  0.401300  1.0  0.0699
  H  H207  1  0.328000  0.264700  0.282400  1.0  0.088
  H  H208  1  0.606700  0.436000  0.474000  1.0  0.075
  H  H209  1  0.457700  0.402800  0.450000  1.0  0.0649
  H  H210  1  0.568200  0.397800  0.546800  1.0  0.0735
  H  H211  1  0.375700  0.414400  0.529000  1.0  0.074
  H  H212  1  0.511500  0.271100  0.511400  1.0  0.0858
  H  H213  1  0.657400  0.305900  0.534300  1.0  0.0825
  H  H214  1  0.533100  0.312500  0.438300  1.0  0.0751
  H  H215  1  0.728100  0.294800  0.453500  1.0  0.0812
  H  H216  1  0.064600  0.267900  0.390600  1.0  0.0863
  H  H217  1  0.050400  0.280100  0.335600  1.0  0.0886
  H  H218  1  0.548000  0.324600  0.296700  1.0  0.072
  H  H219  1  0.556900  0.309600  0.351000  1.0  0.0827
  H  H220  1  0.252100  0.353100  0.305600  1.0  0.0805
  H  H221  1  0.372900  0.378600  0.344700  1.0  0.0821
  H  H222  1  0.303000  0.335300  0.505600  1.0  0.077
  H  H223  1  0.237000  0.211600  0.344600  1.0  0.0865
  H  H224  1  0.361600  0.239900  0.381000  1.0  0.0845
  C  C225  1  0.222300  0.031250  0.363330  1.0  -0.1374
  C  C226  1  0.347300  0.075430  0.370420  1.0  -0.177
  C  C227  1  0.527000  0.059290  0.393250  1.0  -0.1246
  C  C228  1  0.499000  0.027560  0.437900  1.0  -0.0034
  C  C229  1  0.204200  0.000710  0.408310  1.0  0.0115
  C  C230  1  0.443000  0.939530  0.422690  1.0  0.5611
  C  C231  1  0.648800  0.880720  0.440160  1.0  0.6057
  C  C232  1  0.398600  0.861550  0.397830  1.0  0.5654
  C  C233  1  0.940600  0.726940  0.298890  1.0  0.6975
  C  C234  1  0.094800  0.761570  0.310860  1.0  -0.1675
  C  C235  1  0.366900  0.102220  0.322570  1.0  0.6917
  C  C236  1  0.150200  0.828350  0.577390  1.0  0.6927
  C  C237  1  0.946000  0.903390  0.473780  1.0  0.004
  C  C238  1  0.024300  0.892110  0.522650  1.0  -0.1551
  C  C239  1  0.941800  0.804360  0.511380  1.0  -0.1313
  C  C240  1  0.870800  0.816760  0.461780  1.0  0.0206
  C  C241  1  0.367500  0.779160  0.362860  1.0  0.0016
  C  C242  1  0.022700  0.811990  0.323380  1.0  -0.1403
  C  C243  1  0.177400  0.847460  0.334520  1.0  0.0139
  C  C244  1  0.092300  0.839560  0.527000  1.0  -0.1704
  C  C245  1  0.212900  0.743490  0.352500  1.0  -0.1319
  C  C246  1  0.277700  0.968750  0.863330  1.0  -0.1388
  C  C247  1  0.152700  0.924570  0.870420  1.0  -0.1763
  C  C248  1  0.973000  0.940710  0.893250  1.0  -0.1253
  C  C249  1  0.001000  0.972440  0.937900  1.0  -0.0027
  C  C250  1  0.295800  0.999290  0.908310  1.0  0.0107
  C  C251  1  0.057000  0.060470  0.922690  1.0  0.5593
  C  C252  1  0.851200  0.119280  0.940160  1.0  0.6056
  C  C253  1  0.101400  0.138450  0.897830  1.0  0.5651
  C  C254  1  0.559400  0.273060  0.798890  1.0  0.6987
  C  C255  1  0.405200  0.238430  0.810860  1.0  -0.169
  C  C256  1  0.133100  0.897780  0.822570  1.0  0.6918
  C  C257  1  0.349800  0.171650  0.077390  1.0  0.6919
  C  C258  1  0.554000  0.096610  0.973780  1.0  0.0021
  C  C259  1  0.475700  0.107890  0.022650  1.0  -0.1556
  C  C260  1  0.558200  0.195640  0.011380  1.0  -0.1331
  C  C261  1  0.629200  0.183240  0.961780  1.0  0.021
  C  C262  1  0.132500  0.220840  0.862860  1.0  -0.0003
  C  C263  1  0.477300  0.188010  0.823380  1.0  -0.1423
  C  C264  1  0.322600  0.152540  0.834520  1.0  0.0145
  C  C265  1  0.407700  0.160440  0.027000  1.0  -0.1717
  C  C266  1  0.287100  0.256510  0.852500  1.0  -0.1326
  C  C267  1  0.777700  0.531250  0.136670  1.0  -0.138
  C  C268  1  0.652700  0.575430  0.129580  1.0  -0.1762
  C  C269  1  0.473000  0.559290  0.106750  1.0  -0.1268
  C  C270  1  0.501000  0.527560  0.062100  1.0  -0.0006
  C  C271  1  0.795800  0.500710  0.091690  1.0  0.0101
  C  C272  1  0.557000  0.439530  0.077310  1.0  0.5609
  C  C273  1  0.351200  0.380720  0.059840  1.0  0.6059
  C  C274  1  0.601400  0.361550  0.102170  1.0  0.5658
  C  C275  1  0.059400  0.226940  0.201110  1.0  0.6974
  C  C276  1  0.905200  0.261570  0.189140  1.0  -0.1677
  C  C277  1  0.633100  0.602220  0.177430  1.0  0.6969
  C  C278  1  0.849800  0.328350  0.922610  1.0  0.6923
  C  C279  1  0.054000  0.403390  0.026220  1.0  0.0022
  C  C280  1  0.975700  0.392110  0.977350  1.0  -0.1542
  C  C281  1  0.058200  0.304360  0.988620  1.0  -0.1319
  C  C282  1  0.129200  0.316760  0.038220  1.0  0.0207
  C  C283  1  0.632500  0.279160  0.137140  1.0  0.0004
  C  C284  1  0.977300  0.311990  0.176620  1.0  -0.1403
  C  C285  1  0.822600  0.347460  0.165480  1.0  0.0131
  C  C286  1  0.907700  0.339560  0.973000  1.0  -0.1701
  C  C287  1  0.787100  0.243490  0.147500  1.0  -0.131
  C  C288  1  0.722300  0.468750  0.636670  1.0  -0.1395
  C  C289  1  0.847300  0.424570  0.629580  1.0  -0.1764
  C  C290  1  0.027000  0.440710  0.606750  1.0  -0.1259
  C  C291  1  0.999000  0.472440  0.562100  1.0  -0.0011
  C  C292  1  0.704200  0.499290  0.591690  1.0  0.0099
  C  C293  1  0.943000  0.560470  0.577310  1.0  0.5615
  C  C294  1  0.148800  0.619280  0.559840  1.0  0.6066
  C  C295  1  0.898600  0.638450  0.602170  1.0  0.5657
  C  C296  1  0.440600  0.773060  0.701110  1.0  0.6976
  C  C297  1  0.594800  0.738430  0.689140  1.0  -0.1681
  C  C298  1  0.866900  0.397780  0.677430  1.0  0.6978
  C  C299  1  0.650200  0.671650  0.422610  1.0  0.6918
  C  C300  1  0.446000  0.596610  0.526220  1.0  0.0031
  C  C301  1  0.524300  0.607890  0.477350  1.0  -0.1554
  C  C302  1  0.441800  0.695640  0.488620  1.0  -0.1305
  C  C303  1  0.370800  0.683240  0.538220  1.0  0.0214
  C  C304  1  0.867500  0.720840  0.637140  1.0  0.0021
  C  C305  1  0.522700  0.688010  0.676620  1.0  -0.1406
  C  C306  1  0.677400  0.652540  0.665480  1.0  0.0175
  C  C307  1  0.592300  0.660440  0.473000  1.0  -0.1697
  C  C308  1  0.712900  0.756510  0.647500  1.0  -0.1317
  C  C309  1  0.777700  0.968750  0.636670  1.0  -0.1382
  C  C310  1  0.652700  0.924570  0.629580  1.0  -0.1759
  C  C311  1  0.473000  0.940710  0.606750  1.0  -0.1259
  C  C312  1  0.501000  0.972440  0.562100  1.0  -0.0008
  C  C313  1  0.795800  0.999290  0.591690  1.0  0.0105
  C  C314  1  0.557000  0.060470  0.577310  1.0  0.5604
  C  C315  1  0.351200  0.119280  0.559840  1.0  0.6061
  C  C316  1  0.601400  0.138450  0.602170  1.0  0.5653
  C  C317  1  0.059400  0.273060  0.701110  1.0  0.6977
  C  C318  1  0.905200  0.238430  0.689140  1.0  -0.1691
  C  C319  1  0.633100  0.897780  0.677430  1.0  0.6968
  C  C320  1  0.849800  0.171650  0.422610  1.0  0.692
  C  C321  1  0.054000  0.096610  0.526220  1.0  0.0019
  C  C322  1  0.975700  0.107890  0.477350  1.0  -0.1544
  C  C323  1  0.058200  0.195640  0.488620  1.0  -0.1315
  C  C324  1  0.129200  0.183240  0.538220  1.0  0.021
  C  C325  1  0.632500  0.220840  0.637140  1.0  0.0002
  C  C326  1  0.977300  0.188010  0.676620  1.0  -0.1407
  C  C327  1  0.822600  0.152540  0.665480  1.0  0.0173
  C  C328  1  0.907700  0.160440  0.473000  1.0  -0.1701
  C  C329  1  0.787100  0.256510  0.647500  1.0  -0.1315
  C  C330  1  0.722300  0.031250  0.136670  1.0  -0.1387
  C  C331  1  0.847300  0.075430  0.129580  1.0  -0.177
  C  C332  1  0.027000  0.059290  0.106750  1.0  -0.1257
  C  C333  1  0.999000  0.027560  0.062100  1.0  -0.0014
  C  C334  1  0.704200  0.000710  0.091690  1.0  0.0101
  C  C335  1  0.943000  0.939530  0.077310  1.0  0.5622
  C  C336  1  0.148800  0.880720  0.059840  1.0  0.6064
  C  C337  1  0.898600  0.861550  0.102170  1.0  0.5659
  C  C338  1  0.440600  0.726940  0.201110  1.0  0.6969
  C  C339  1  0.594800  0.761570  0.189140  1.0  -0.1666
  C  C340  1  0.866900  0.102220  0.177430  1.0  0.6977
  C  C341  1  0.650200  0.828350  0.922610  1.0  0.6925
  C  C342  1  0.446000  0.903390  0.026220  1.0  0.0034
  C  C343  1  0.524300  0.892110  0.977350  1.0  -0.1554
  C  C344  1  0.441800  0.804360  0.988620  1.0  -0.1311
  C  C345  1  0.370800  0.816760  0.038220  1.0  0.0212
  C  C346  1  0.867500  0.779160  0.137140  1.0  0.0021
  C  C347  1  0.522700  0.811990  0.176620  1.0  -0.1425
  C  C348  1  0.677400  0.847460  0.165480  1.0  0.0137
  C  C349  1  0.592300  0.839560  0.973000  1.0  -0.1703
  C  C350  1  0.712900  0.743490  0.147500  1.0  -0.131
  C  C351  1  0.222300  0.468750  0.863330  1.0  -0.1378
  C  C352  1  0.347300  0.424570  0.870420  1.0  -0.1769
  C  C353  1  0.527000  0.440710  0.893250  1.0  -0.1245
  C  C354  1  0.499000  0.472440  0.937900  1.0  -0.0032
  C  C355  1  0.204200  0.499290  0.908310  1.0  0.0106
  C  C356  1  0.443000  0.560470  0.922690  1.0  0.5607
  C  C357  1  0.648800  0.619280  0.940160  1.0  0.6059
  C  C358  1  0.398600  0.638450  0.897830  1.0  0.5653
  C  C359  1  0.940600  0.773060  0.798890  1.0  0.6988
  C  C360  1  0.094800  0.738430  0.810860  1.0  -0.1676
  C  C361  1  0.366900  0.397780  0.822570  1.0  0.6915
  C  C362  1  0.150200  0.671650  0.077390  1.0  0.6923
  C  C363  1  0.946000  0.596610  0.973780  1.0  0.0031
  C  C364  1  0.024300  0.607890  0.022650  1.0  -0.1561
  C  C365  1  0.941800  0.695640  0.011380  1.0  -0.1327
  C  C366  1  0.870800  0.683240  0.961780  1.0  0.021
  C  C367  1  0.367500  0.720840  0.862860  1.0  0.0015
  C  C368  1  0.022700  0.688010  0.823380  1.0  -0.1402
  C  C369  1  0.177400  0.652540  0.834520  1.0  0.0138
  C  C370  1  0.092300  0.660440  0.027000  1.0  -0.1701
  C  C371  1  0.212900  0.756510  0.852500  1.0  -0.133
  C  C372  1  0.277700  0.531250  0.363330  1.0  -0.1384
  C  C373  1  0.152700  0.575430  0.370420  1.0  -0.1757
  C  C374  1  0.973000  0.559290  0.393250  1.0  -0.1257
  C  C375  1  0.001000  0.527560  0.437900  1.0  -0.0022
  C  C376  1  0.295800  0.500710  0.408310  1.0  0.0103
  C  C377  1  0.057000  0.439530  0.422690  1.0  0.5595
  C  C378  1  0.851200  0.380720  0.440160  1.0  0.6053
  C  C379  1  0.101400  0.361550  0.397830  1.0  0.5655
  C  C380  1  0.559400  0.226940  0.298890  1.0  0.6982
  C  C381  1  0.405200  0.261570  0.310860  1.0  -0.1686
  C  C382  1  0.133100  0.602220  0.322570  1.0  0.6923
  C  C383  1  0.349800  0.328350  0.577390  1.0  0.6924
  C  C384  1  0.554000  0.403390  0.473780  1.0  0.0029
  C  C385  1  0.475700  0.392110  0.522650  1.0  -0.1545
  C  C386  1  0.558200  0.304360  0.511380  1.0  -0.1317
  C  C387  1  0.629200  0.316760  0.461780  1.0  0.0208
  C  C388  1  0.132500  0.279160  0.362860  1.0  1e-04
  C  C389  1  0.477300  0.311990  0.323380  1.0  -0.1401
  C  C390  1  0.322600  0.347460  0.334520  1.0  0.0143
  C  C391  1  0.407700  0.339560  0.527000  1.0  -0.1712
  C  C392  1  0.287100  0.243490  0.352500  1.0  -0.1316
  N  N393  1  0.380700  0.986140  0.426740  1.0  -0.166
  N  N394  1  0.334900  0.907750  0.398960  1.0  -0.5347
  N  N395  1  0.604400  0.928730  0.442300  1.0  -0.5714
  N  N396  1  0.549200  0.845290  0.418770  1.0  -0.6148
  N  N397  1  0.806600  0.867560  0.460910  1.0  -0.1718
  N  N398  1  0.296500  0.828620  0.372080  1.0  -0.1854
  N  N399  1  0.119300  0.013860  0.926740  1.0  -0.1652
  N  N400  1  0.165100  0.092250  0.898960  1.0  -0.5334
  N  N401  1  0.895600  0.071270  0.942300  1.0  -0.5724
  N  N402  1  0.950800  0.154710  0.918770  1.0  -0.6162
  N  N403  1  0.693400  0.132440  0.960910  1.0  -0.1712
  N  N404  1  0.203500  0.171380  0.872080  1.0  -0.1848
  N  N405  1  0.619300  0.486140  0.073260  1.0  -0.1628
  N  N406  1  0.665100  0.407750  0.101040  1.0  -0.5359
  N  N407  1  0.395600  0.428730  0.057700  1.0  -0.572
  N  N408  1  0.450800  0.345290  0.081230  1.0  -0.6157
  N  N409  1  0.193400  0.367560  0.039090  1.0  -0.1712
  N  N410  1  0.703500  0.328620  0.127920  1.0  -0.1849
  N  N411  1  0.880700  0.513860  0.573260  1.0  -0.1618
  N  N412  1  0.834900  0.592250  0.601040  1.0  -0.5354
  N  N413  1  0.104400  0.571270  0.557700  1.0  -0.5726
  N  N414  1  0.049200  0.654710  0.581230  1.0  -0.6149
  N  N415  1  0.306600  0.632440  0.539090  1.0  -0.1716
  N  N416  1  0.796500  0.671380  0.627920  1.0  -0.1854
  N  N417  1  0.619300  0.013860  0.573260  1.0  -0.162
  N  N418  1  0.665100  0.092250  0.601040  1.0  -0.5353
  N  N419  1  0.395600  0.071270  0.557700  1.0  -0.5728
  N  N420  1  0.450800  0.154710  0.581230  1.0  -0.6161
  N  N421  1  0.193400  0.132440  0.539090  1.0  -0.1712
  N  N422  1  0.703500  0.171380  0.627920  1.0  -0.185
  N  N423  1  0.880700  0.986140  0.073260  1.0  -0.1627
  N  N424  1  0.834900  0.907750  0.101040  1.0  -0.5361
  N  N425  1  0.104400  0.928730  0.057700  1.0  -0.5722
  N  N426  1  0.049200  0.845290  0.081230  1.0  -0.6144
  N  N427  1  0.306600  0.867560  0.039090  1.0  -0.1718
  N  N428  1  0.796500  0.828620  0.127920  1.0  -0.1854
  N  N429  1  0.380700  0.513860  0.926740  1.0  -0.1654
  N  N430  1  0.334900  0.592250  0.898960  1.0  -0.535
  N  N431  1  0.604400  0.571270  0.942300  1.0  -0.5715
  N  N432  1  0.549200  0.654710  0.918770  1.0  -0.6153
  N  N433  1  0.806600  0.632440  0.960910  1.0  -0.1717
  N  N434  1  0.296500  0.671380  0.872080  1.0  -0.1853
  N  N435  1  0.119300  0.486140  0.426740  1.0  -0.1657
  N  N436  1  0.165100  0.407750  0.398960  1.0  -0.5329
  N  N437  1  0.895600  0.428730  0.442300  1.0  -0.5719
  N  N438  1  0.950800  0.345290  0.418770  1.0  -0.616
  N  N439  1  0.693400  0.367560  0.460910  1.0  -0.1711
  N  N440  1  0.203500  0.328620  0.372080  1.0  -0.1851
  O  O441  1  0.520600  0.106490  0.303850  1.0  -0.7118
  O  O442  1  0.934000  0.707880  0.258170  1.0  -0.6991
  O  O443  1  0.818000  0.719170  0.329990  1.0  -0.6973
  O  O444  1  0.223400  0.117340  0.302820  1.0  -0.8071
  O  O445  1  0.087400  0.849400  0.611980  1.0  -0.5885
  O  O446  1  0.272000  0.793650  0.581010  1.0  -0.5805
  O  O447  1  0.979400  0.893510  0.803850  1.0  -0.7113
  O  O448  1  0.566000  0.292120  0.758170  1.0  -0.698
  O  O449  1  0.682000  0.280830  0.829990  1.0  -0.6982
  O  O450  1  0.276600  0.882660  0.802820  1.0  -0.8072
  O  O451  1  0.412600  0.150600  0.111980  1.0  -0.5897
  O  O452  1  0.228000  0.206350  0.081010  1.0  -0.5801
  O  O453  1  0.479400  0.606490  0.196150  1.0  -0.7126
  O  O454  1  0.066000  0.207880  0.241830  1.0  -0.6991
  O  O455  1  0.182000  0.219170  0.170010  1.0  -0.6993
  O  O456  1  0.776600  0.617340  0.197180  1.0  -0.8035
  O  O457  1  0.912600  0.349400  0.888020  1.0  -0.5869
  O  O458  1  0.728000  0.293650  0.918990  1.0  -0.5805
  O  O459  1  0.020600  0.393510  0.696150  1.0  -0.7133
  O  O460  1  0.434000  0.792120  0.741830  1.0  -0.6991
  O  O461  1  0.318000  0.780830  0.670010  1.0  -0.6982
  O  O462  1  0.723400  0.382660  0.697180  1.0  -0.8064
  O  O463  1  0.587400  0.650600  0.388020  1.0  -0.5871
  O  O464  1  0.772000  0.706350  0.418990  1.0  -0.5807
  O  O465  1  0.479400  0.893510  0.696150  1.0  -0.7134
  O  O466  1  0.066000  0.292120  0.741830  1.0  -0.6991
  O  O467  1  0.182000  0.280830  0.670010  1.0  -0.6982
  O  O468  1  0.776600  0.882660  0.697180  1.0  -0.804
  O  O469  1  0.912600  0.150600  0.388020  1.0  -0.5874
  O  O470  1  0.728000  0.206350  0.418990  1.0  -0.5806
  O  O471  1  0.020600  0.106490  0.196150  1.0  -0.7127
  O  O472  1  0.434000  0.707880  0.241830  1.0  -0.699
  O  O473  1  0.318000  0.719170  0.170010  1.0  -0.6987
  O  O474  1  0.723400  0.117340  0.197180  1.0  -0.8053
  O  O475  1  0.587400  0.849400  0.888020  1.0  -0.5866
  O  O476  1  0.772000  0.793650  0.918990  1.0  -0.5808
  O  O477  1  0.520600  0.393510  0.803850  1.0  -0.7111
  O  O478  1  0.934000  0.792120  0.758170  1.0  -0.698
  O  O479  1  0.818000  0.780830  0.829990  1.0  -0.6974
  O  O480  1  0.223400  0.382660  0.802820  1.0  -0.8064
  O  O481  1  0.087400  0.650600  0.111980  1.0  -0.5884
  O  O482  1  0.272000  0.706350  0.081010  1.0  -0.5802
  O  O483  1  0.979400  0.606490  0.303850  1.0  -0.7114
  O  O484  1  0.566000  0.207880  0.258170  1.0  -0.6991
  O  O485  1  0.682000  0.219170  0.329990  1.0  -0.6986
  O  O486  1  0.276600  0.617340  0.302820  1.0  -0.8064
  O  O487  1  0.412600  0.349400  0.611980  1.0  -0.5898
  O  O488  1  0.228000  0.293650  0.581010  1.0  -0.5804
