# generated using pymatgen
data_SrH27C21(NO)6
_symmetry_space_group_name_H-M   'P 1'
_cell_length_a   27.62700000
_cell_length_b   6.83480000
_cell_length_c   28.13500000
_cell_angle_alpha   90.00000000
_cell_angle_beta   90.00000000
_cell_angle_gamma   90.00000000
_symmetry_Int_Tables_number   1
_chemical_formula_structural   SrH27C21(NO)6
_chemical_formula_sum   'Sr8 H216 C168 N48 O48'
_cell_volume   5312.59192645
_cell_formula_units_Z   8
loop_
 _symmetry_equiv_pos_site_id
 _symmetry_equiv_pos_as_xyz
  1  'x, y, z'
loop_
 _atom_site_type_symbol
 _atom_site_label
 _atom_site_symmetry_multiplicity
 _atom_site_fract_x
 _atom_site_fract_y
 _atom_site_fract_z
 _atom_site_occupancy
 _atom_site_charge
  Sr  Sr1  1  0.713540  0.864260  0.143400  1.0  1.5767
  Sr  Sr2  1  0.786450  0.135740  0.643400  1.0  1.575
  Sr  Sr3  1  0.286460  0.364260  0.356600  1.0  1.5761
  Sr  Sr4  1  0.213540  0.635740  0.856600  1.0  1.5765
  Sr  Sr5  1  0.286460  0.135740  0.856600  1.0  1.5762
  Sr  Sr6  1  0.213540  0.864260  0.356600  1.0  1.5764
  Sr  Sr7  1  0.713540  0.635740  0.643400  1.0  1.5768
  Sr  Sr8  1  0.786450  0.364260  0.143400  1.0  1.575
  H  H9  1  0.553900  0.887200  0.514900  1.0  0.0806
  H  H10  1  0.541500  0.078200  0.543500  1.0  0.0727
  H  H11  1  0.576700  0.391100  0.516600  1.0  0.0793
  H  H12  1  0.610700  0.391200  0.471900  1.0  0.0787
  H  H13  1  0.524100  0.596400  0.437400  1.0  0.0845
  H  H14  1  0.545300  0.423400  0.407100  1.0  0.0721
  H  H15  1  0.562500  0.495200  0.318900  1.0  0.0803
  H  H16  1  0.553200  0.710400  0.301400  1.0  0.0889
  H  H17  1  0.619600  0.044900  0.275800  1.0  0.0877
  H  H18  1  0.675200  0.043300  0.287700  1.0  0.0891
  H  H19  1  0.702300  0.287700  0.356300  1.0  0.0813
  H  H20  1  0.660500  0.413000  0.378700  1.0  0.088
  H  H21  1  0.663800  0.227500  0.218900  1.0  0.0814
  H  H22  1  0.625400  0.359800  0.244600  1.0  0.0799
  H  H23  1  0.651600  0.590800  0.308400  1.0  0.0834
  H  H24  1  0.706300  0.600300  0.323300  1.0  0.085
  H  H25  1  0.724600  0.347000  0.269700  1.0  0.0841
  H  H26  1  0.469600  0.669300  0.309500  1.0  0.0919
  H  H27  1  0.489300  0.501100  0.276800  1.0  0.0859
  H  H28  1  0.488700  0.282000  0.340100  1.0  0.0883
  H  H29  1  0.463000  0.370600  0.414400  1.0  0.0811
  H  H30  1  0.451400  0.583600  0.397200  1.0  0.084
  H  H31  1  0.599200  0.901400  0.586000  1.0  0.0871
  H  H32  1  0.633400  0.894900  0.541500  1.0  0.0867
  H  H33  1  0.610800  0.232000  0.594700  1.0  0.0841
  H  H34  1  0.655200  0.419200  0.542400  1.0  0.0884
  H  H35  1  0.670700  0.234300  0.513200  1.0  0.0815
  H  H36  1  0.946100  0.112800  0.014900  1.0  0.0803
  H  H37  1  0.958500  0.921800  0.043500  1.0  0.073
  H  H38  1  0.923300  0.608900  0.016600  1.0  0.0792
  H  H39  1  0.889300  0.608800  0.971900  1.0  0.0791
  H  H40  1  0.975900  0.403600  0.937400  1.0  0.0852
  H  H41  1  0.954700  0.576600  0.907100  1.0  0.0719
  H  H42  1  0.937500  0.504800  0.818900  1.0  0.0812
  H  H43  1  0.946800  0.289600  0.801400  1.0  0.0885
  H  H44  1  0.880400  0.955100  0.775800  1.0  0.0891
  H  H45  1  0.824800  0.956700  0.787700  1.0  0.0892
  H  H46  1  0.797700  0.712300  0.856300  1.0  0.0821
  H  H47  1  0.839500  0.587000  0.878700  1.0  0.0907
  H  H48  1  0.836200  0.772500  0.718900  1.0  0.0815
  H  H49  1  0.874600  0.640200  0.744600  1.0  0.0772
  H  H50  1  0.848400  0.409200  0.808400  1.0  0.0834
  H  H51  1  0.793700  0.399700  0.823300  1.0  0.0867
  H  H52  1  0.775400  0.653000  0.769700  1.0  0.0822
  H  H53  1  0.030400  0.330700  0.809500  1.0  0.0948
  H  H54  1  0.010700  0.498900  0.776800  1.0  0.0852
  H  H55  1  0.011300  0.718000  0.840100  1.0  0.0895
  H  H56  1  0.037000  0.629400  0.914400  1.0  0.0791
  H  H57  1  0.048600  0.416400  0.897200  1.0  0.0832
  H  H58  1  0.900800  0.098600  0.086000  1.0  0.0866
  H  H59  1  0.866600  0.105100  0.041500  1.0  0.0875
  H  H60  1  0.889200  0.768000  0.094700  1.0  0.0838
  H  H61  1  0.844800  0.580800  0.042400  1.0  0.0902
  H  H62  1  0.829300  0.765700  0.013200  1.0  0.0826
  H  H63  1  0.446100  0.387200  0.985100  1.0  0.0811
  H  H64  1  0.458500  0.578200  0.956500  1.0  0.0728
  H  H65  1  0.423300  0.891100  0.983400  1.0  0.0785
  H  H66  1  0.389300  0.891200  0.028100  1.0  0.0784
  H  H67  1  0.475900  0.096400  0.062600  1.0  0.0861
  H  H68  1  0.454700  0.923400  0.092900  1.0  0.0716
  H  H69  1  0.437500  0.995200  0.181100  1.0  0.0806
  H  H70  1  0.446800  0.210400  0.198600  1.0  0.0874
  H  H71  1  0.380400  0.544900  0.224200  1.0  0.0887
  H  H72  1  0.324800  0.543300  0.212300  1.0  0.0895
  H  H73  1  0.297700  0.787700  0.143700  1.0  0.0798
  H  H74  1  0.339500  0.913000  0.121300  1.0  0.0893
  H  H75  1  0.336200  0.727500  0.281100  1.0  0.081
  H  H76  1  0.374600  0.859800  0.255400  1.0  0.0771
  H  H77  1  0.348400  0.090800  0.191600  1.0  0.0827
  H  H78  1  0.293700  0.100300  0.176700  1.0  0.0867
  H  H79  1  0.275400  0.847000  0.230300  1.0  0.0828
  H  H80  1  0.530400  0.169300  0.190500  1.0  0.0905
  H  H81  1  0.510700  0.001100  0.223200  1.0  0.0853
  H  H82  1  0.511300  0.782000  0.159900  1.0  0.0885
  H  H83  1  0.537000  0.870600  0.085600  1.0  0.0805
  H  H84  1  0.548600  0.083600  0.102800  1.0  0.083
  H  H85  1  0.400800  0.401400  0.914000  1.0  0.0872
  H  H86  1  0.366600  0.394900  0.958500  1.0  0.0889
  H  H87  1  0.389200  0.732000  0.905300  1.0  0.0838
  H  H88  1  0.344800  0.919200  0.957600  1.0  0.0895
  H  H89  1  0.329300  0.734300  0.986800  1.0  0.0814
  H  H90  1  0.053900  0.612800  0.485100  1.0  0.0809
  H  H91  1  0.041500  0.421800  0.456500  1.0  0.0725
  H  H92  1  0.076700  0.108900  0.483400  1.0  0.08
  H  H93  1  0.110700  0.108800  0.528100  1.0  0.0784
  H  H94  1  0.024100  0.903600  0.562600  1.0  0.0859
  H  H95  1  0.045300  0.076600  0.592900  1.0  0.072
  H  H96  1  0.062500  0.004800  0.681100  1.0  0.0797
  H  H97  1  0.053200  0.789600  0.698600  1.0  0.0881
  H  H98  1  0.119600  0.455100  0.724200  1.0  0.088
  H  H99  1  0.175200  0.456700  0.712300  1.0  0.0891
  H  H100  1  0.202300  0.212300  0.643700  1.0  0.0816
  H  H101  1  0.160500  0.087000  0.621300  1.0  0.0885
  H  H102  1  0.163800  0.272500  0.781100  1.0  0.0811
  H  H103  1  0.125400  0.140200  0.755400  1.0  0.0788
  H  H104  1  0.151600  0.909200  0.691600  1.0  0.0831
  H  H105  1  0.206300  0.899700  0.676700  1.0  0.0851
  H  H106  1  0.224600  0.153000  0.730300  1.0  0.0833
  H  H107  1  0.969600  0.830700  0.690500  1.0  0.0941
  H  H108  1  0.989300  0.998900  0.723200  1.0  0.0855
  H  H109  1  0.988700  0.218000  0.659900  1.0  0.089
  H  H110  1  0.963000  0.129400  0.585600  1.0  0.0812
  H  H111  1  0.951400  0.916400  0.602800  1.0  0.0833
  H  H112  1  0.099200  0.598600  0.414000  1.0  0.0877
  H  H113  1  0.133400  0.605100  0.458500  1.0  0.0857
  H  H114  1  0.110800  0.268000  0.405300  1.0  0.0847
  H  H115  1  0.155200  0.080800  0.457600  1.0  0.0903
  H  H116  1  0.170700  0.265700  0.486800  1.0  0.0803
  H  H117  1  0.446100  0.112800  0.485100  1.0  0.0803
  H  H118  1  0.458500  0.921800  0.456500  1.0  0.0729
  H  H119  1  0.423300  0.608900  0.483400  1.0  0.0791
  H  H120  1  0.389300  0.608800  0.528100  1.0  0.0796
  H  H121  1  0.475900  0.403600  0.562600  1.0  0.0861
  H  H122  1  0.454700  0.576600  0.592900  1.0  0.0721
  H  H123  1  0.437500  0.504800  0.681100  1.0  0.0801
  H  H124  1  0.446800  0.289600  0.698600  1.0  0.0883
  H  H125  1  0.380400  0.955100  0.724200  1.0  0.0887
  H  H126  1  0.324800  0.956700  0.712300  1.0  0.0892
  H  H127  1  0.297700  0.712300  0.643700  1.0  0.0797
  H  H128  1  0.339500  0.587000  0.621300  1.0  0.0894
  H  H129  1  0.336200  0.772500  0.781100  1.0  0.081
  H  H130  1  0.374600  0.640200  0.755400  1.0  0.0779
  H  H131  1  0.348400  0.409200  0.691600  1.0  0.0827
  H  H132  1  0.293700  0.399700  0.676700  1.0  0.086
  H  H133  1  0.275400  0.653000  0.730300  1.0  0.0822
  H  H134  1  0.530400  0.330700  0.690500  1.0  0.0949
  H  H135  1  0.510700  0.498900  0.723200  1.0  0.0856
  H  H136  1  0.511300  0.718000  0.659900  1.0  0.0891
  H  H137  1  0.537000  0.629400  0.585600  1.0  0.0812
  H  H138  1  0.548600  0.416400  0.602800  1.0  0.0831
  H  H139  1  0.400800  0.098600  0.414000  1.0  0.0875
  H  H140  1  0.366600  0.105100  0.458500  1.0  0.0872
  H  H141  1  0.389200  0.768000  0.405300  1.0  0.0841
  H  H142  1  0.344800  0.580800  0.457600  1.0  0.0907
  H  H143  1  0.329300  0.765700  0.486800  1.0  0.081
  H  H144  1  0.053900  0.887200  0.985100  1.0  0.0812
  H  H145  1  0.041500  0.078200  0.956500  1.0  0.0727
  H  H146  1  0.076700  0.391100  0.983400  1.0  0.0794
  H  H147  1  0.110700  0.391200  0.028100  1.0  0.0777
  H  H148  1  0.024100  0.596400  0.062600  1.0  0.086
  H  H149  1  0.045300  0.423400  0.092900  1.0  0.0719
  H  H150  1  0.062500  0.495200  0.181100  1.0  0.0803
  H  H151  1  0.053200  0.710400  0.198600  1.0  0.0873
  H  H152  1  0.119600  0.044900  0.224200  1.0  0.088
  H  H153  1  0.175200  0.043300  0.212300  1.0  0.0889
  H  H154  1  0.202300  0.287700  0.143700  1.0  0.081
  H  H155  1  0.160500  0.413000  0.121300  1.0  0.089
  H  H156  1  0.163800  0.227500  0.281100  1.0  0.0811
  H  H157  1  0.125400  0.359800  0.255400  1.0  0.0784
  H  H158  1  0.151600  0.590800  0.191600  1.0  0.0829
  H  H159  1  0.206300  0.600300  0.176700  1.0  0.0862
  H  H160  1  0.224600  0.347000  0.230300  1.0  0.084
  H  H161  1  0.969600  0.669300  0.190500  1.0  0.0905
  H  H162  1  0.989300  0.501100  0.223200  1.0  0.0854
  H  H163  1  0.988700  0.282000  0.159900  1.0  0.0883
  H  H164  1  0.963000  0.370600  0.085600  1.0  0.0817
  H  H165  1  0.951400  0.583600  0.102800  1.0  0.0838
  H  H166  1  0.099200  0.901400  0.914000  1.0  0.0873
  H  H167  1  0.133400  0.894900  0.958500  1.0  0.0873
  H  H168  1  0.110800  0.232000  0.905300  1.0  0.0845
  H  H169  1  0.155200  0.419200  0.957600  1.0  0.0887
  H  H170  1  0.170700  0.234300  0.986800  1.0  0.0803
  H  H171  1  0.553900  0.612800  0.014900  1.0  0.0809
  H  H172  1  0.541500  0.421800  0.043500  1.0  0.0727
  H  H173  1  0.576700  0.108900  0.016600  1.0  0.0799
  H  H174  1  0.610700  0.108800  0.971900  1.0  0.078
  H  H175  1  0.524100  0.903600  0.937400  1.0  0.085
  H  H176  1  0.545300  0.076600  0.907100  1.0  0.0717
  H  H177  1  0.562500  0.004800  0.818900  1.0  0.0805
  H  H178  1  0.553200  0.789600  0.801400  1.0  0.0884
  H  H179  1  0.619600  0.455100  0.775800  1.0  0.0886
  H  H180  1  0.675200  0.456700  0.787700  1.0  0.089
  H  H181  1  0.702300  0.212300  0.856300  1.0  0.081
  H  H182  1  0.660500  0.087000  0.878700  1.0  0.0878
  H  H183  1  0.663800  0.272500  0.718900  1.0  0.0816
  H  H184  1  0.625400  0.140200  0.744600  1.0  0.0793
  H  H185  1  0.651600  0.909200  0.808400  1.0  0.084
  H  H186  1  0.706300  0.899700  0.823300  1.0  0.0861
  H  H187  1  0.724600  0.153000  0.769700  1.0  0.0833
  H  H188  1  0.469600  0.830700  0.809500  1.0  0.0941
  H  H189  1  0.489300  0.998900  0.776800  1.0  0.0853
  H  H190  1  0.488700  0.218000  0.840100  1.0  0.0891
  H  H191  1  0.463000  0.129400  0.914400  1.0  0.0795
  H  H192  1  0.451400  0.916400  0.897200  1.0  0.0834
  H  H193  1  0.599200  0.598600  0.086000  1.0  0.0868
  H  H194  1  0.633400  0.605100  0.041500  1.0  0.0859
  H  H195  1  0.610800  0.268000  0.094700  1.0  0.0843
  H  H196  1  0.655200  0.080800  0.042400  1.0  0.09
  H  H197  1  0.670700  0.265700  0.013200  1.0  0.0813
  H  H198  1  0.946100  0.387200  0.514900  1.0  0.0805
  H  H199  1  0.958500  0.578200  0.543500  1.0  0.0728
  H  H200  1  0.923300  0.891100  0.516600  1.0  0.0785
  H  H201  1  0.889300  0.891200  0.471900  1.0  0.0795
  H  H202  1  0.975900  0.096400  0.437400  1.0  0.0846
  H  H203  1  0.954700  0.923400  0.407100  1.0  0.072
  H  H204  1  0.937500  0.995200  0.318900  1.0  0.0806
  H  H205  1  0.946800  0.210400  0.301400  1.0  0.0891
  H  H206  1  0.880400  0.544900  0.275800  1.0  0.0884
  H  H207  1  0.824800  0.543300  0.287700  1.0  0.0897
  H  H208  1  0.797700  0.787700  0.356300  1.0  0.0832
  H  H209  1  0.839500  0.913000  0.378700  1.0  0.0895
  H  H210  1  0.836200  0.727500  0.218900  1.0  0.0815
  H  H211  1  0.874600  0.859800  0.244600  1.0  0.0774
  H  H212  1  0.848400  0.090800  0.308400  1.0  0.083
  H  H213  1  0.793700  0.100300  0.323300  1.0  0.0853
  H  H214  1  0.775400  0.847000  0.269700  1.0  0.083
  H  H215  1  0.030400  0.169300  0.309500  1.0  0.092
  H  H216  1  0.010700  0.001100  0.276800  1.0  0.0856
  H  H217  1  0.011300  0.782000  0.340100  1.0  0.0881
  H  H218  1  0.037000  0.870600  0.414400  1.0  0.081
  H  H219  1  0.048600  0.083600  0.397200  1.0  0.0832
  H  H220  1  0.900800  0.401400  0.586000  1.0  0.0873
  H  H221  1  0.866600  0.394900  0.541500  1.0  0.0883
  H  H222  1  0.889200  0.732000  0.594700  1.0  0.0834
  H  H223  1  0.844800  0.919200  0.542400  1.0  0.0889
  H  H224  1  0.829300  0.734300  0.513200  1.0  0.083
  C  C225  1  0.565820  0.840000  0.384420  1.0  0.5751
  C  C226  1  0.611300  0.101700  0.365430  1.0  0.6107
  C  C227  1  0.585900  0.061000  0.440820  1.0  0.5493
  C  C228  1  0.566800  0.011000  0.526040  1.0  0.0074
  C  C229  1  0.601400  0.317300  0.499900  1.0  0.0176
  C  C230  1  0.524220  0.536900  0.406100  1.0  0.0125
  C  C231  1  0.541480  0.608100  0.322340  1.0  0.0089
  C  C232  1  0.646700  0.125800  0.285660  1.0  0.0109
  C  C233  1  0.672000  0.353800  0.349450  1.0  0.0077
  C  C234  1  0.655110  0.286200  0.249080  1.0  -0.1411
  C  C235  1  0.680820  0.513800  0.312380  1.0  -0.1463
  C  C236  1  0.695220  0.424100  0.264830  1.0  -0.1655
  C  C237  1  0.489730  0.553100  0.308870  1.0  -0.1368
  C  C238  1  0.469170  0.401600  0.342910  1.0  -0.1642
  C  C239  1  0.473190  0.473700  0.392980  1.0  -0.1468
  C  C240  1  0.609900  0.974500  0.558330  1.0  -0.1196
  C  C241  1  0.634150  0.161700  0.574710  1.0  -0.1814
  C  C242  1  0.644510  0.291700  0.531470  1.0  -0.134
  C  C243  1  0.705880  0.576000  0.228350  1.0  0.7108
  C  C244  1  0.417630  0.351300  0.329840  1.0  0.6598
  C  C245  1  0.679600  0.133000  0.603950  1.0  0.7091
  C  C246  1  0.934180  0.160000  0.884420  1.0  0.5739
  C  C247  1  0.888700  0.898300  0.865430  1.0  0.61
  C  C248  1  0.914100  0.939000  0.940820  1.0  0.5486
  C  C249  1  0.933200  0.989000  0.026040  1.0  0.0051
  C  C250  1  0.898600  0.682700  0.999900  1.0  0.0161
  C  C251  1  0.975780  0.463100  0.906100  1.0  0.0137
  C  C252  1  0.958520  0.391900  0.822340  1.0  0.0104
  C  C253  1  0.853300  0.874200  0.785660  1.0  0.0104
  C  C254  1  0.828000  0.646200  0.849450  1.0  0.0073
  C  C255  1  0.844890  0.713800  0.749080  1.0  -0.1429
  C  C256  1  0.819180  0.486200  0.812380  1.0  -0.1439
  C  C257  1  0.804780  0.575900  0.764830  1.0  -0.1673
  C  C258  1  0.010270  0.446900  0.808870  1.0  -0.1374
  C  C259  1  0.030830  0.598400  0.842910  1.0  -0.1646
  C  C260  1  0.026810  0.526300  0.892980  1.0  -0.1465
  C  C261  1  0.890100  0.025500  0.058330  1.0  -0.1196
  C  C262  1  0.865850  0.838300  0.074710  1.0  -0.1821
  C  C263  1  0.855490  0.708300  0.031470  1.0  -0.1338
  C  C264  1  0.794120  0.424000  0.728350  1.0  0.7119
  C  C265  1  0.082370  0.648700  0.829840  1.0  0.6602
  C  C266  1  0.820400  0.867000  0.103950  1.0  0.7071
  C  C267  1  0.434180  0.340000  0.115580  1.0  0.5744
  C  C268  1  0.388700  0.601700  0.134570  1.0  0.6092
  C  C269  1  0.414100  0.561000  0.059180  1.0  0.5467
  C  C270  1  0.433200  0.511000  0.973960  1.0  0.0046
  C  C271  1  0.398600  0.817300  0.000100  1.0  0.0162
  C  C272  1  0.475780  0.036900  0.093900  1.0  0.0127
  C  C273  1  0.458520  0.108100  0.177660  1.0  0.0108
  C  C274  1  0.353300  0.625800  0.214340  1.0  0.011
  C  C275  1  0.328000  0.853800  0.150550  1.0  0.0055
  C  C276  1  0.344890  0.786200  0.250920  1.0  -0.1436
  C  C277  1  0.319180  0.013800  0.187620  1.0  -0.1452
  C  C278  1  0.304780  0.924100  0.235170  1.0  -0.167
  C  C279  1  0.510270  0.053100  0.191130  1.0  -0.1392
  C  C280  1  0.530830  0.901600  0.157090  1.0  -0.165
  C  C281  1  0.526810  0.973700  0.107020  1.0  -0.1468
  C  C282  1  0.390100  0.474500  0.941670  1.0  -0.1184
  C  C283  1  0.365850  0.661700  0.925290  1.0  -0.1831
  C  C284  1  0.355490  0.791700  0.968530  1.0  -0.1338
  C  C285  1  0.294120  0.076000  0.271650  1.0  0.7075
  C  C286  1  0.582370  0.851300  0.170160  1.0  0.6624
  C  C287  1  0.320400  0.633000  0.896050  1.0  0.706
  C  C288  1  0.065820  0.660000  0.615580  1.0  0.5745
  C  C289  1  0.111300  0.398300  0.634570  1.0  0.6111
  C  C290  1  0.085900  0.439000  0.559180  1.0  0.5502
  C  C291  1  0.066800  0.489000  0.473960  1.0  0.0075
  C  C292  1  0.101400  0.182700  0.500100  1.0  0.0175
  C  C293  1  0.024220  0.963100  0.593900  1.0  0.0122
  C  C294  1  0.041480  0.891900  0.677660  1.0  0.0109
  C  C295  1  0.146700  0.374200  0.714340  1.0  0.0104
  C  C296  1  0.172000  0.146200  0.650550  1.0  0.0053
  C  C297  1  0.155110  0.213800  0.750920  1.0  -0.1441
  C  C298  1  0.180820  0.986200  0.687620  1.0  -0.144
  C  C299  1  0.195220  0.075900  0.735170  1.0  -0.166
  C  C300  1  0.989730  0.946900  0.691130  1.0  -0.1396
  C  C301  1  0.969170  0.098400  0.657090  1.0  -0.1642
  C  C302  1  0.973190  0.026300  0.607020  1.0  -0.1471
  C  C303  1  0.109900  0.525500  0.441670  1.0  -0.1192
  C  C304  1  0.134150  0.338300  0.425290  1.0  -0.1817
  C  C305  1  0.144510  0.208300  0.468530  1.0  -0.1349
  C  C306  1  0.205880  0.924000  0.771650  1.0  0.7091
  C  C307  1  0.917630  0.148700  0.670160  1.0  0.6587
  C  C308  1  0.179600  0.367000  0.396050  1.0  0.7067
  C  C309  1  0.434180  0.160000  0.615580  1.0  0.5739
  C  C310  1  0.388700  0.898300  0.634570  1.0  0.6098
  C  C311  1  0.414100  0.939000  0.559180  1.0  0.5483
  C  C312  1  0.433200  0.989000  0.473960  1.0  0.0053
  C  C313  1  0.398600  0.682700  0.500100  1.0  0.0167
  C  C314  1  0.475780  0.463100  0.593900  1.0  0.0136
  C  C315  1  0.458520  0.391900  0.677660  1.0  0.012
  C  C316  1  0.353300  0.874200  0.714340  1.0  0.0102
  C  C317  1  0.328000  0.646200  0.650550  1.0  0.0057
  C  C318  1  0.344890  0.713800  0.750920  1.0  -0.1438
  C  C319  1  0.319180  0.486200  0.687620  1.0  -0.1445
  C  C320  1  0.304780  0.575900  0.735170  1.0  -0.167
  C  C321  1  0.510270  0.446900  0.691130  1.0  -0.1394
  C  C322  1  0.530830  0.598400  0.657090  1.0  -0.1647
  C  C323  1  0.526810  0.526300  0.607020  1.0  -0.1468
  C  C324  1  0.390100  0.025500  0.441670  1.0  -0.1182
  C  C325  1  0.365850  0.838300  0.425290  1.0  -0.1828
  C  C326  1  0.355490  0.708300  0.468530  1.0  -0.1336
  C  C327  1  0.294120  0.424000  0.771650  1.0  0.7087
  C  C328  1  0.582370  0.648700  0.670160  1.0  0.6605
  C  C329  1  0.320400  0.867000  0.396050  1.0  0.7065
  C  C330  1  0.065820  0.840000  0.115580  1.0  0.5751
  C  C331  1  0.111300  0.101700  0.134570  1.0  0.6104
  C  C332  1  0.085900  0.061000  0.059180  1.0  0.5493
  C  C333  1  0.066800  0.011000  0.973960  1.0  0.008
  C  C334  1  0.101400  0.317300  0.000100  1.0  0.0173
  C  C335  1  0.024220  0.536900  0.093900  1.0  0.0116
  C  C336  1  0.041480  0.608100  0.177660  1.0  0.0101
  C  C337  1  0.146700  0.125800  0.214340  1.0  0.0112
  C  C338  1  0.172000  0.353800  0.150550  1.0  0.0049
  C  C339  1  0.155110  0.286200  0.250920  1.0  -0.1437
  C  C340  1  0.180820  0.513800  0.187620  1.0  -0.1452
  C  C341  1  0.195220  0.424100  0.235170  1.0  -0.1655
  C  C342  1  0.989730  0.553100  0.191130  1.0  -0.1398
  C  C343  1  0.969170  0.401600  0.157090  1.0  -0.1645
  C  C344  1  0.973190  0.473700  0.107020  1.0  -0.147
  C  C345  1  0.109900  0.974500  0.941670  1.0  -0.1191
  C  C346  1  0.134150  0.161700  0.925290  1.0  -0.182
  C  C347  1  0.144510  0.291700  0.968530  1.0  -0.1337
  C  C348  1  0.205880  0.576000  0.271650  1.0  0.7081
  C  C349  1  0.917630  0.351300  0.170160  1.0  0.6606
  C  C350  1  0.179600  0.133000  0.896050  1.0  0.7062
  C  C351  1  0.565820  0.660000  0.884420  1.0  0.5745
  C  C352  1  0.611300  0.398300  0.865430  1.0  0.611
  C  C353  1  0.585900  0.439000  0.940820  1.0  0.5505
  C  C354  1  0.566800  0.489000  0.026040  1.0  0.007
  C  C355  1  0.601400  0.182700  0.999900  1.0  0.0172
  C  C356  1  0.524220  0.963100  0.906100  1.0  0.0136
  C  C357  1  0.541480  0.891900  0.822340  1.0  0.0091
  C  C358  1  0.646700  0.374200  0.785660  1.0  0.0105
  C  C359  1  0.672000  0.146200  0.849450  1.0  0.0077
  C  C360  1  0.655110  0.213800  0.749080  1.0  -0.1416
  C  C361  1  0.680820  0.986200  0.812380  1.0  -0.1438
  C  C362  1  0.695220  0.075900  0.764830  1.0  -0.1671
  C  C363  1  0.489730  0.946900  0.808870  1.0  -0.1362
  C  C364  1  0.469170  0.098400  0.842910  1.0  -0.1633
  C  C365  1  0.473190  0.026300  0.892980  1.0  -0.1472
  C  C366  1  0.609900  0.525500  0.058330  1.0  -0.1201
  C  C367  1  0.634150  0.338300  0.074710  1.0  -0.1814
  C  C368  1  0.644510  0.208300  0.031470  1.0  -0.1359
  C  C369  1  0.705880  0.924000  0.728350  1.0  0.712
  C  C370  1  0.417630  0.148700  0.829840  1.0  0.6589
  C  C371  1  0.679600  0.367000  0.103950  1.0  0.7091
  C  C372  1  0.934180  0.340000  0.384420  1.0  0.5744
  C  C373  1  0.888700  0.601700  0.365430  1.0  0.6096
  C  C374  1  0.914100  0.561000  0.440820  1.0  0.5467
  C  C375  1  0.933200  0.511000  0.526040  1.0  0.0045
  C  C376  1  0.898600  0.817300  0.499900  1.0  0.0164
  C  C377  1  0.975780  0.036900  0.406100  1.0  0.0125
  C  C378  1  0.958520  0.108100  0.322340  1.0  0.0101
  C  C379  1  0.853300  0.625800  0.285660  1.0  0.0107
  C  C380  1  0.828000  0.853800  0.349450  1.0  0.0074
  C  C381  1  0.844890  0.786200  0.249080  1.0  -0.1427
  C  C382  1  0.819180  0.013800  0.312380  1.0  -0.1468
  C  C383  1  0.804780  0.924100  0.264830  1.0  -0.1666
  C  C384  1  0.010270  0.053100  0.308870  1.0  -0.1379
  C  C385  1  0.030830  0.901600  0.342910  1.0  -0.165
  C  C386  1  0.026810  0.973700  0.392980  1.0  -0.1462
  C  C387  1  0.890100  0.474500  0.558330  1.0  -0.1186
  C  C388  1  0.865850  0.661700  0.574710  1.0  -0.1822
  C  C389  1  0.855490  0.791700  0.531470  1.0  -0.1337
  C  C390  1  0.794120  0.076000  0.228350  1.0  0.711
  C  C391  1  0.082370  0.851300  0.329840  1.0  0.6617
  C  C392  1  0.820400  0.633000  0.603950  1.0  0.7071
  N  N393  1  0.588200  0.943700  0.350110  1.0  -0.6238
  N  N394  1  0.564120  0.889100  0.430600  1.0  -0.5892
  N  N395  1  0.611460  0.169600  0.410040  1.0  -0.5311
  N  N396  1  0.542480  0.676400  0.371420  1.0  -0.1566
  N  N397  1  0.581910  0.129800  0.485570  1.0  -0.1233
  N  N398  1  0.636390  0.210600  0.332620  1.0  -0.1806
  N  N399  1  0.911800  0.056300  0.850110  1.0  -0.623
  N  N400  1  0.935880  0.110900  0.930600  1.0  -0.5881
  N  N401  1  0.888540  0.830400  0.910040  1.0  -0.532
  N  N402  1  0.957520  0.323600  0.871420  1.0  -0.1586
  N  N403  1  0.918090  0.870200  0.985570  1.0  -0.1227
  N  N404  1  0.863610  0.789400  0.832620  1.0  -0.1812
  N  N405  1  0.411800  0.443700  0.149890  1.0  -0.6235
  N  N406  1  0.435880  0.389100  0.069400  1.0  -0.5885
  N  N407  1  0.388540  0.669600  0.089960  1.0  -0.5328
  N  N408  1  0.457520  0.176400  0.128580  1.0  -0.157
  N  N409  1  0.418090  0.629800  0.014430  1.0  -0.1234
  N  N410  1  0.363610  0.710600  0.167380  1.0  -0.1793
  N  N411  1  0.088200  0.556300  0.649890  1.0  -0.6229
  N  N412  1  0.064120  0.610900  0.569400  1.0  -0.5883
  N  N413  1  0.111460  0.330400  0.589960  1.0  -0.5313
  N  N414  1  0.042480  0.823600  0.628580  1.0  -0.1581
  N  N415  1  0.081910  0.370200  0.514430  1.0  -0.1234
  N  N416  1  0.136390  0.289400  0.667380  1.0  -0.1803
  N  N417  1  0.411800  0.056300  0.649890  1.0  -0.6231
  N  N418  1  0.435880  0.110900  0.569400  1.0  -0.588
  N  N419  1  0.388540  0.830400  0.589960  1.0  -0.5327
  N  N420  1  0.457520  0.323600  0.628580  1.0  -0.1583
  N  N421  1  0.418090  0.870200  0.514430  1.0  -0.1232
  N  N422  1  0.363610  0.789400  0.667380  1.0  -0.1799
  N  N423  1  0.088200  0.943700  0.149890  1.0  -0.6234
  N  N424  1  0.064120  0.889100  0.069400  1.0  -0.5889
  N  N425  1  0.111460  0.169600  0.089960  1.0  -0.5315
  N  N426  1  0.042480  0.676400  0.128580  1.0  -0.1563
  N  N427  1  0.081910  0.129800  0.014430  1.0  -0.1235
  N  N428  1  0.136390  0.210600  0.167380  1.0  -0.1798
  N  N429  1  0.588200  0.556300  0.850110  1.0  -0.6226
  N  N430  1  0.564120  0.610900  0.930600  1.0  -0.589
  N  N431  1  0.611460  0.330400  0.910040  1.0  -0.5309
  N  N432  1  0.542480  0.823600  0.871420  1.0  -0.1585
  N  N433  1  0.581910  0.370200  0.985570  1.0  -0.1226
  N  N434  1  0.636390  0.289400  0.832620  1.0  -0.1813
  N  N435  1  0.911800  0.443700  0.350110  1.0  -0.6242
  N  N436  1  0.935880  0.389100  0.430600  1.0  -0.5885
  N  N437  1  0.888540  0.669600  0.410040  1.0  -0.5322
  N  N438  1  0.957520  0.176400  0.371420  1.0  -0.1576
  N  N439  1  0.918090  0.629800  0.485570  1.0  -0.1237
  N  N440  1  0.863610  0.710600  0.332620  1.0  -0.1806
  O  O441  1  0.744510  0.568400  0.204790  1.0  -0.777
  O  O442  1  0.675890  0.713400  0.221200  1.0  -0.6906
  O  O443  1  0.382960  0.408900  0.352080  1.0  -0.5742
  O  O444  1  0.413870  0.245300  0.291100  1.0  -0.5843
  O  O445  1  0.701320  0.283200  0.618450  1.0  -0.8024
  O  O446  1  0.695840  0.967800  0.610350  1.0  -0.7353
  O  O447  1  0.755490  0.431600  0.704790  1.0  -0.7761
  O  O448  1  0.824110  0.286600  0.721200  1.0  -0.6924
  O  O449  1  0.117040  0.591100  0.852080  1.0  -0.5746
  O  O450  1  0.086130  0.754700  0.791100  1.0  -0.5846
  O  O451  1  0.798680  0.716800  0.118450  1.0  -0.8017
  O  O452  1  0.804160  0.032200  0.110350  1.0  -0.7353
  O  O453  1  0.255490  0.068400  0.295210  1.0  -0.7761
  O  O454  1  0.324110  0.213400  0.278800  1.0  -0.6932
  O  O455  1  0.617040  0.908900  0.147920  1.0  -0.5743
  O  O456  1  0.586130  0.745300  0.208900  1.0  -0.5836
  O  O457  1  0.298680  0.783200  0.881550  1.0  -0.8028
  O  O458  1  0.304160  0.467800  0.889650  1.0  -0.734
  O  O459  1  0.244510  0.931600  0.795210  1.0  -0.7759
  O  O460  1  0.175890  0.786600  0.778800  1.0  -0.6916
  O  O461  1  0.882960  0.091100  0.647920  1.0  -0.5744
  O  O462  1  0.913870  0.254700  0.708900  1.0  -0.5848
  O  O463  1  0.201320  0.216800  0.381550  1.0  -0.8011
  O  O464  1  0.195840  0.532200  0.389650  1.0  -0.7339
  O  O465  1  0.255490  0.431600  0.795210  1.0  -0.7761
  O  O466  1  0.324110  0.286600  0.778800  1.0  -0.693
  O  O467  1  0.617040  0.591100  0.647920  1.0  -0.5744
  O  O468  1  0.586130  0.754700  0.708900  1.0  -0.5847
  O  O469  1  0.298680  0.716800  0.381550  1.0  -0.8019
  O  O470  1  0.304160  0.032200  0.389650  1.0  -0.7353
  O  O471  1  0.244510  0.568400  0.295210  1.0  -0.776
  O  O472  1  0.175890  0.713400  0.278800  1.0  -0.6917
  O  O473  1  0.882960  0.408900  0.147920  1.0  -0.574
  O  O474  1  0.913870  0.245300  0.208900  1.0  -0.5837
  O  O475  1  0.201320  0.283200  0.881550  1.0  -0.8018
  O  O476  1  0.195840  0.967800  0.889650  1.0  -0.7349
  O  O477  1  0.744510  0.931600  0.704790  1.0  -0.7769
  O  O478  1  0.675890  0.786600  0.721200  1.0  -0.691
  O  O479  1  0.382960  0.091100  0.852080  1.0  -0.5747
  O  O480  1  0.413870  0.254700  0.791100  1.0  -0.5849
  O  O481  1  0.701320  0.216800  0.118450  1.0  -0.8016
  O  O482  1  0.695840  0.532200  0.110350  1.0  -0.7344
  O  O483  1  0.755490  0.068400  0.204790  1.0  -0.7761
  O  O484  1  0.824110  0.213400  0.221200  1.0  -0.692
  O  O485  1  0.117040  0.908900  0.352080  1.0  -0.5743
  O  O486  1  0.086130  0.745300  0.291100  1.0  -0.5841
  O  O487  1  0.798680  0.783200  0.618450  1.0  -0.8025
  O  O488  1  0.804160  0.467800  0.610350  1.0  -0.7344
