# generated using pymatgen
data_Cu3H37C52N6(O4F9)3
_symmetry_space_group_name_H-M   'P 1'
_cell_length_a   15.63990000
_cell_length_b   17.98430000
_cell_length_c   31.77410000
_cell_angle_alpha   95.67420000
_cell_angle_beta   104.24700000
_cell_angle_gamma   90.00000000
_symmetry_Int_Tables_number   1
_chemical_formula_structural   Cu3H37C52N6(O4F9)3
_chemical_formula_sum   'Cu12 H148 C208 N24 O48 F108'
_cell_volume   8617.12430127
_cell_formula_units_Z   4
loop_
 _symmetry_equiv_pos_site_id
 _symmetry_equiv_pos_as_xyz
  1  'x, y, z'
loop_
 _atom_site_type_symbol
 _atom_site_label
 _atom_site_symmetry_multiplicity
 _atom_site_fract_x
 _atom_site_fract_y
 _atom_site_fract_z
 _atom_site_occupancy
 _atom_site_charge
  Cu  Cu1  1  0.900370  0.476120  0.689380  1.0  0.9488
  Cu  Cu2  1  0.901630  0.364670  0.414240  1.0  0.6914
  Cu  Cu3  1  0.210990  0.023880  0.310620  1.0  0.9514
  Cu  Cu4  1  0.487390  0.135330  0.585760  1.0  0.6945
  Cu  Cu5  1  0.099630  0.523880  0.310620  1.0  0.9502
  Cu  Cu6  1  0.098370  0.635330  0.585760  1.0  0.6897
  Cu  Cu7  1  0.789010  0.976120  0.689380  1.0  0.9505
  Cu  Cu8  1  0.512610  0.864670  0.414240  1.0  0.6954
  Cu  Cu9  1  0.000000  0.500000  0.000000  1.0  0.7989
  Cu  Cu10  1  0.000000  0.000000  0.000000  1.0  0.7989
  Cu  Cu11  1  0.747040  0.750000  0.000000  1.0  0.8844
  Cu  Cu12  1  0.252960  0.250000  0.000000  1.0  0.8846
  H  H13  1  0.939600  0.540500  0.905800  1.0  0.1086
  H  H14  1  0.876700  0.618900  0.012200  1.0  0.0592
  H  H15  1  0.782700  0.713500  0.906600  1.0  0.1015
  H  H16  1  0.972000  0.589200  0.848600  1.0  0.1455
  H  H17  1  0.842300  0.658300  0.734400  1.0  0.1304
  H  H18  1  0.732000  0.699100  0.765000  1.0  0.113
  H  H19  1  0.734700  0.682600  0.836200  1.0  0.1387
  H  H20  1  0.080700  0.659500  0.843600  1.0  0.129
  H  H21  1  0.103600  0.699600  0.806000  1.0  0.1363
  H  H22  1  0.174800  0.652100  0.834800  1.0  0.1343
  H  H23  1  0.061000  0.516500  0.833400  1.0  0.1311
  H  H24  1  0.155200  0.509500  0.824600  1.0  0.143
  H  H25  1  0.073100  0.473200  0.790000  1.0  0.1324
  H  H26  1  0.126600  0.626100  0.740200  1.0  0.1382
  H  H27  1  0.112100  0.539100  0.733600  1.0  0.1219
  H  H28  1  0.194900  0.575200  0.768000  1.0  0.1305
  H  H29  1  0.922700  0.592600  0.532800  1.0  0.1237
  H  H30  1  0.028800  0.563100  0.654200  1.0  0.0707
  H  H31  1  0.794100  0.478700  0.599400  1.0  0.1025
  H  H32  1  0.854500  0.506500  0.477000  1.0  0.126
  H  H33  1  0.599700  0.455900  0.417200  1.0  0.1232
  H  H34  1  0.564400  0.482600  0.483400  1.0  0.1157
  H  H35  1  0.670200  0.513400  0.546000  1.0  0.1409
  H  H36  1  0.604300  0.533500  0.372400  1.0  0.1209
  H  H37  1  0.679900  0.577800  0.360400  1.0  0.1311
  H  H38  1  0.606200  0.535200  0.323400  1.0  0.1314
  H  H39  1  0.791200  0.512300  0.329600  1.0  0.13
  H  H40  1  0.795600  0.424900  0.326400  1.0  0.1359
  H  H41  1  0.721100  0.463400  0.293800  1.0  0.1201
  H  H42  1  0.605000  0.389800  0.364200  1.0  0.1382
  H  H43  1  0.605800  0.389600  0.315000  1.0  0.1332
  H  H44  1  0.680600  0.350000  0.346800  1.0  0.1357
  H  H45  1  0.982600  0.248700  0.679800  1.0  0.1095
  H  H46  1  0.691500  0.461000  0.751200  1.0  0.1137
  H  H47  1  0.902000  0.139200  0.357600  1.0  0.1156
  H  H48  1  0.190900  0.679500  0.023800  1.0  0.1147
  H  H49  1  0.550400  0.899100  0.947400  1.0  0.1143
  H  H50  1  0.033800  0.959500  0.094200  1.0  0.1077
  H  H51  1  0.864500  0.881100  0.987800  1.0  0.0598
  H  H52  1  0.876100  0.786500  0.093400  1.0  0.1013
  H  H53  1  0.123400  0.910800  0.151400  1.0  0.1468
  H  H54  1  0.107900  0.841700  0.265600  1.0  0.1285
  H  H55  1  0.967000  0.800900  0.235000  1.0  0.1145
  H  H56  1  0.898500  0.817400  0.163800  1.0  0.1395
  H  H57  1  0.237100  0.840500  0.156400  1.0  0.1265
  H  H58  1  0.297600  0.800400  0.194000  1.0  0.135
  H  H59  1  0.340000  0.847900  0.165200  1.0  0.1343
  H  H60  1  0.227600  0.983500  0.166600  1.0  0.1302
  H  H61  1  0.330600  0.990500  0.175400  1.0  0.1386
  H  H62  1  0.283100  0.026800  0.210000  1.0  0.1338
  H  H63  1  0.386400  0.873900  0.259800  1.0  0.1376
  H  H64  1  0.378500  0.960900  0.266400  1.0  0.121
  H  H65  1  0.426900  0.924800  0.232000  1.0  0.1308
  H  H66  1  0.389900  0.907400  0.467200  1.0  0.1241
  H  H67  1  0.374600  0.936900  0.345800  1.0  0.0723
  H  H68  1  0.194700  0.021300  0.400600  1.0  0.1027
  H  H69  1  0.377500  0.993500  0.523000  1.0  0.1262
  H  H70  1  0.182500  0.044100  0.582800  1.0  0.1232
  H  H71  1  0.081000  0.017400  0.516600  1.0  0.1154
  H  H72  1  0.124200  0.986600  0.454000  1.0  0.1405
  H  H73  1  0.231900  0.966500  0.627600  1.0  0.1225
  H  H74  1  0.319500  0.922200  0.639600  1.0  0.131
  H  H75  1  0.282800  0.964800  0.676600  1.0  0.1335
  H  H76  1  0.461600  0.987700  0.670400  1.0  0.1299
  H  H77  1  0.469200  0.075100  0.673600  1.0  0.1363
  H  H78  1  0.427300  0.036600  0.706200  1.0  0.1202
  H  H79  1  0.240800  0.110200  0.635800  1.0  0.1401
  H  H80  1  0.290800  0.110400  0.685000  1.0  0.1369
  H  H81  1  0.333800  0.150000  0.653200  1.0  0.1357
  H  H82  1  0.302800  0.251300  0.320200  1.0  0.1088
  H  H83  1  0.940300  0.039000  0.248800  1.0  0.1152
  H  H84  1  0.544400  0.360800  0.642400  1.0  0.1156
  H  H85  1  0.167100  0.820500  0.976200  1.0  0.1155
  H  H86  1  0.603000  0.600900  0.052600  1.0  0.115
  H  H87  1  0.060400  0.459500  0.094200  1.0  0.1089
  H  H88  1  0.123300  0.381100  0.987800  1.0  0.0596
  H  H89  1  0.217300  0.286500  0.093400  1.0  0.1007
  H  H90  1  0.028000  0.410800  0.151400  1.0  0.1458
  H  H91  1  0.157700  0.341700  0.265600  1.0  0.1292
  H  H92  1  0.268000  0.300900  0.235000  1.0  0.1134
  H  H93  1  0.265300  0.317400  0.163800  1.0  0.1381
  H  H94  1  0.919300  0.340500  0.156400  1.0  0.1285
  H  H95  1  0.896400  0.300400  0.194000  1.0  0.1358
  H  H96  1  0.825200  0.347900  0.165200  1.0  0.1348
  H  H97  1  0.939000  0.483500  0.166600  1.0  0.1314
  H  H98  1  0.844800  0.490500  0.175400  1.0  0.1396
  H  H99  1  0.926900  0.526800  0.210000  1.0  0.134
  H  H100  1  0.873400  0.373900  0.259800  1.0  0.1376
  H  H101  1  0.887900  0.460900  0.266400  1.0  0.1216
  H  H102  1  0.805100  0.424800  0.232000  1.0  0.1308
  H  H103  1  0.077300  0.407400  0.467200  1.0  0.1238
  H  H104  1  0.971200  0.436900  0.345800  1.0  0.0708
  H  H105  1  0.205900  0.521300  0.400600  1.0  0.1023
  H  H106  1  0.145500  0.493500  0.523000  1.0  0.1262
  H  H107  1  0.400300  0.544100  0.582800  1.0  0.1234
  H  H108  1  0.435600  0.517400  0.516600  1.0  0.1136
  H  H109  1  0.329800  0.486600  0.454000  1.0  0.1413
  H  H110  1  0.395700  0.466500  0.627600  1.0  0.122
  H  H111  1  0.320100  0.422200  0.639600  1.0  0.1297
  H  H112  1  0.393800  0.464800  0.676600  1.0  0.1329
  H  H113  1  0.208800  0.487700  0.670400  1.0  0.1315
  H  H114  1  0.204400  0.575100  0.673600  1.0  0.1361
  H  H115  1  0.278900  0.536600  0.706200  1.0  0.1197
  H  H116  1  0.395000  0.610200  0.635800  1.0  0.1383
  H  H117  1  0.394200  0.610400  0.685000  1.0  0.1336
  H  H118  1  0.319400  0.650000  0.653200  1.0  0.1375
  H  H119  1  0.017400  0.751300  0.320200  1.0  0.1097
  H  H120  1  0.308500  0.539000  0.248800  1.0  0.1136
  H  H121  1  0.098000  0.860800  0.642400  1.0  0.1158
  H  H122  1  0.809100  0.320500  0.976200  1.0  0.1154
  H  H123  1  0.449600  0.100900  0.052600  1.0  0.1142
  H  H124  1  0.966200  0.040500  0.905800  1.0  0.1079
  H  H125  1  0.135500  0.118900  0.012200  1.0  0.0593
  H  H126  1  0.123900  0.213500  0.906600  1.0  0.1004
  H  H127  1  0.876600  0.089200  0.848600  1.0  0.1455
  H  H128  1  0.892100  0.158300  0.734400  1.0  0.1288
  H  H129  1  0.033000  0.199100  0.765000  1.0  0.1136
  H  H130  1  0.101500  0.182600  0.836200  1.0  0.1387
  H  H131  1  0.762900  0.159500  0.843600  1.0  0.1257
  H  H132  1  0.702400  0.199600  0.806000  1.0  0.1352
  H  H133  1  0.660000  0.152100  0.834800  1.0  0.1339
  H  H134  1  0.772400  0.016500  0.833400  1.0  0.1289
  H  H135  1  0.669400  0.009500  0.824600  1.0  0.1388
  H  H136  1  0.716900  0.973200  0.790000  1.0  0.1315
  H  H137  1  0.613600  0.126100  0.740200  1.0  0.1386
  H  H138  1  0.621500  0.039100  0.733600  1.0  0.1209
  H  H139  1  0.573100  0.075200  0.768000  1.0  0.1293
  H  H140  1  0.610100  0.092600  0.532800  1.0  0.1237
  H  H141  1  0.625400  0.063100  0.654200  1.0  0.0727
  H  H142  1  0.805300  0.978700  0.599400  1.0  0.1031
  H  H143  1  0.622500  0.006500  0.477000  1.0  0.1272
  H  H144  1  0.817500  0.955900  0.417200  1.0  0.1223
  H  H145  1  0.919000  0.982600  0.483400  1.0  0.1137
  H  H146  1  0.875800  0.013400  0.546000  1.0  0.1402
  H  H147  1  0.768100  0.033500  0.372400  1.0  0.124
  H  H148  1  0.680500  0.077800  0.360400  1.0  0.1318
  H  H149  1  0.717200  0.035200  0.323400  1.0  0.1318
  H  H150  1  0.538400  0.012300  0.329600  1.0  0.1301
  H  H151  1  0.530800  0.924900  0.326400  1.0  0.1363
  H  H152  1  0.572700  0.963400  0.293800  1.0  0.1197
  H  H153  1  0.759200  0.889800  0.364200  1.0  0.1376
  H  H154  1  0.709200  0.889600  0.315000  1.0  0.136
  H  H155  1  0.666200  0.850000  0.346800  1.0  0.1365
  H  H156  1  0.697200  0.748700  0.679800  1.0  0.1093
  H  H157  1  0.059700  0.961000  0.751200  1.0  0.1143
  H  H158  1  0.455600  0.639200  0.357600  1.0  0.1156
  H  H159  1  0.832900  0.179500  0.023800  1.0  0.1156
  H  H160  1  0.397000  0.399100  0.947400  1.0  0.1142
  C  C161  1  0.909890  0.575200  0.920180  1.0  0.1946
  C  C162  1  0.872760  0.621500  0.982720  1.0  0.3759
  C  C163  1  0.817510  0.677100  0.920820  1.0  0.1798
  C  C164  1  0.860580  0.627900  0.896760  1.0  0.1029
  C  C165  1  0.854750  0.634800  0.850100  1.0  0.0356
  C  C166  1  0.922980  0.610800  0.831760  1.0  -0.0866
  C  C167  1  0.918340  0.619000  0.787680  1.0  0.1875
  C  C168  1  0.845910  0.652200  0.763420  1.0  -0.1754
  C  C169  1  0.779990  0.676000  0.781780  1.0  -0.0816
  C  C170  1  0.781600  0.667200  0.824600  1.0  -0.1521
  C  C171  1  0.081090  0.586600  0.789580  1.0  0.3149
  C  C172  1  0.113020  0.655900  0.821440  1.0  -0.3591
  C  C173  1  0.093790  0.514900  0.811380  1.0  -0.3467
  C  C174  1  0.133570  0.581300  0.754540  1.0  -0.362
  C  C175  1  0.919810  0.571800  0.558020  1.0  0.1706
  C  C176  1  0.981470  0.555500  0.629740  1.0  0.3624
  C  C177  1  0.843600  0.505800  0.597600  1.0  0.1814
  C  C178  1  0.845130  0.531100  0.558460  1.0  0.0936
  C  C179  1  0.773850  0.513100  0.518100  1.0  0.0452
  C  C180  1  0.795990  0.501000  0.478180  1.0  -0.1221
  C  C181  1  0.730630  0.480600  0.440060  1.0  0.1936
  C  C182  1  0.643510  0.471500  0.442220  1.0  -0.2598
  C  C183  1  0.623070  0.486100  0.482140  1.0  -0.0739
  C  C184  1  0.685800  0.505400  0.519600  1.0  -0.1328
  C  C185  1  0.696950  0.464700  0.355100  1.0  0.2955
  C  C186  1  0.641780  0.534200  0.352560  1.0  -0.3614
  C  C187  1  0.756900  0.466500  0.323200  1.0  -0.3554
  C  C188  1  0.641920  0.391700  0.344240  1.0  -0.371
  C  C189  1  0.817250  0.243500  0.639700  1.0  0.434
  C  C190  1  0.876510  0.311000  0.658820  1.0  0.3723
  C  C191  1  0.965280  0.297900  0.677560  1.0  -0.0937
  C  C192  1  0.027750  0.353800  0.692700  1.0  0.3145
  C  C193  1  0.121800  0.329600  0.707000  1.0  0.4947
  C  C194  1  0.634970  0.542600  0.685940  1.0  0.4746
  C  C195  1  0.721900  0.507300  0.701400  1.0  0.3501
  C  C196  1  0.737840  0.467700  0.738280  1.0  -0.0701
  C  C197  1  0.817010  0.438700  0.756220  1.0  0.3526
  C  C198  1  0.830000  0.396500  0.796600  1.0  0.5203
  C  C199  1  0.005730  0.151300  0.434860  1.0  0.5546
  C  C200  1  0.958190  0.210600  0.408780  1.0  0.3286
  C  C201  1  0.907980  0.189900  0.367360  1.0  -0.0874
  C  C202  1  0.865220  0.240200  0.338840  1.0  0.389
  C  C203  1  0.815290  0.209800  0.293980  1.0  0.4924
  C  C204  1  0.213780  0.595800  0.956560  1.0  0.5675
  C  C205  1  0.149170  0.585400  0.984940  1.0  0.3419
  C  C206  1  0.151390  0.639200  0.019580  1.0  -0.112
  C  C207  1  0.097510  0.636200  0.048420  1.0  0.337
  C  C208  1  0.106200  0.701000  0.083400  1.0  0.4729
  C  C209  1  0.651470  0.869400  0.891940  1.0  0.4018
  C  C210  1  0.656480  0.847100  0.938560  1.0  0.2993
  C  C211  1  0.596500  0.870100  0.960800  1.0  0.0322
  C  C212  1  0.600500  0.852800  0.002200  1.0  0.1967
  C  C213  1  0.989710  0.924800  0.079820  1.0  0.1946
  C  C214  1  0.890040  0.878500  0.017280  1.0  0.375
  C  C215  1  0.896690  0.822900  0.079180  1.0  0.1784
  C  C216  1  0.963820  0.872100  0.103240  1.0  0.1031
  C  C217  1  0.004650  0.865200  0.149900  1.0  0.036
  C  C218  1  0.091220  0.889200  0.168240  1.0  -0.0863
  C  C219  1  0.130660  0.881000  0.212320  1.0  0.1876
  C  C220  1  0.082490  0.847800  0.236580  1.0  -0.1773
  C  C221  1  0.998210  0.824000  0.218220  1.0  -0.0821
  C  C222  1  0.957000  0.832800  0.175400  1.0  -0.153
  C  C223  1  0.291510  0.913400  0.210420  1.0  0.3156
  C  C224  1  0.291580  0.844100  0.178560  1.0  -0.3594
  C  C225  1  0.282410  0.985100  0.188620  1.0  -0.3481
  C  C226  1  0.379030  0.918700  0.245460  1.0  -0.3594
  C  C227  1  0.361790  0.928200  0.441980  1.0  0.1709
  C  C228  1  0.351730  0.944500  0.370260  1.0  0.3638
  C  C229  1  0.246000  0.994200  0.402400  1.0  0.1823
  C  C230  1  0.286670  0.968900  0.441540  1.0  0.0922
  C  C231  1  0.255750  0.986900  0.481900  1.0  0.0456
  C  C232  1  0.317810  0.999000  0.521820  1.0  -0.1219
  C  C233  1  0.290570  0.019400  0.559940  1.0  0.1954
  C  C234  1  0.201290  0.028500  0.557780  1.0  -0.2625
  C  C235  1  0.140930  0.013900  0.517860  1.0  -0.0749
  C  C236  1  0.166200  0.994600  0.480400  1.0  -0.1318
  C  C237  1  0.341850  0.035300  0.644900  1.0  0.2948
  C  C238  1  0.289220  0.965800  0.647440  1.0  -0.3604
  C  C239  1  0.433700  0.033500  0.676800  1.0  -0.3539
  C  C240  1  0.297680  0.108300  0.655760  1.0  -0.3706
  C  C241  1  0.177550  0.256500  0.360300  1.0  0.4369
  C  C242  1  0.217690  0.189000  0.341180  1.0  0.3718
  C  C243  1  0.287720  0.202100  0.322440  1.0  -0.0965
  C  C244  1  0.335050  0.146200  0.307300  1.0  0.3166
  C  C245  1  0.414800  0.170400  0.293000  1.0  0.4952
  C  C246  1  0.949030  0.957400  0.314060  1.0  0.475
  C  C247  1  0.020500  0.992700  0.298600  1.0  0.3482
  C  C248  1  0.999560  0.032300  0.261720  1.0  -0.0711
  C  C249  1  0.060790  0.061300  0.243780  1.0  0.3519
  C  C250  1  0.033400  0.103500  0.203400  1.0  0.5167
  C  C251  1  0.570870  0.348700  0.565140  1.0  0.5542
  C  C252  1  0.549410  0.289400  0.591220  1.0  0.3286
  C  C253  1  0.540620  0.310100  0.632640  1.0  -0.0887
  C  C254  1  0.526380  0.259800  0.661160  1.0  0.3887
  C  C255  1  0.521310  0.290200  0.706020  1.0  0.4928
  C  C256  1  0.257220  0.904200  0.043440  1.0  0.5671
  C  C257  1  0.164230  0.914600  0.015060  1.0  0.3376
  C  C258  1  0.131810  0.860800  0.980420  1.0  -0.1135
  C  C259  1  0.049090  0.863800  0.951580  1.0  0.3359
  C  C260  1  0.022800  0.799000  0.916600  1.0  0.4736
  C  C261  1  0.759530  0.630600  0.108060  1.0  0.4023
  C  C262  1  0.717920  0.652900  0.061440  1.0  0.297
  C  C263  1  0.635700  0.629900  0.039200  1.0  0.0325
  C  C264  1  0.598300  0.647200  0.997800  1.0  0.198
  C  C265  1  0.090110  0.424800  0.079820  1.0  0.1945
  C  C266  1  0.127240  0.378500  0.017280  1.0  0.3762
  C  C267  1  0.182490  0.322900  0.079180  1.0  0.1794
  C  C268  1  0.139420  0.372100  0.103240  1.0  0.1012
  C  C269  1  0.145250  0.365200  0.149900  1.0  0.0352
  C  C270  1  0.077020  0.389200  0.168240  1.0  -0.0877
  C  C271  1  0.081660  0.381000  0.212320  1.0  0.1874
  C  C272  1  0.154090  0.347800  0.236580  1.0  -0.1756
  C  C273  1  0.220010  0.324000  0.218220  1.0  -0.0815
  C  C274  1  0.218400  0.332800  0.175400  1.0  -0.1504
  C  C275  1  0.918910  0.413400  0.210420  1.0  0.3154
  C  C276  1  0.886980  0.344100  0.178560  1.0  -0.3605
  C  C277  1  0.906210  0.485100  0.188620  1.0  -0.3486
  C  C278  1  0.866430  0.418700  0.245460  1.0  -0.3628
  C  C279  1  0.080190  0.428200  0.441980  1.0  0.1713
  C  C280  1  0.018530  0.444500  0.370260  1.0  0.363
  C  C281  1  0.156400  0.494200  0.402400  1.0  0.1828
  C  C282  1  0.154870  0.468900  0.441540  1.0  0.0932
  C  C283  1  0.226150  0.486900  0.481900  1.0  0.0452
  C  C284  1  0.204010  0.499000  0.521820  1.0  -0.1225
  C  C285  1  0.269370  0.519400  0.559940  1.0  0.1947
  C  C286  1  0.356490  0.528500  0.557780  1.0  -0.2588
  C  C287  1  0.376930  0.513900  0.517860  1.0  -0.073
  C  C288  1  0.314200  0.494600  0.480400  1.0  -0.1337
  C  C289  1  0.303050  0.535300  0.644900  1.0  0.294
  C  C290  1  0.358220  0.465800  0.647440  1.0  -0.3617
  C  C291  1  0.243100  0.533500  0.676800  1.0  -0.356
  C  C292  1  0.358080  0.608300  0.655760  1.0  -0.3711
  C  C293  1  0.182750  0.756500  0.360300  1.0  0.4338
  C  C294  1  0.123490  0.689000  0.341180  1.0  0.3714
  C  C295  1  0.034720  0.702100  0.322440  1.0  -0.0977
  C  C296  1  0.972250  0.646200  0.307300  1.0  0.3161
  C  C297  1  0.878200  0.670400  0.293000  1.0  0.4935
  C  C298  1  0.365030  0.457400  0.314060  1.0  0.4734
  C  C299  1  0.278100  0.492700  0.298600  1.0  0.3505
  C  C300  1  0.262160  0.532300  0.261720  1.0  -0.0685
  C  C301  1  0.182990  0.561300  0.243780  1.0  0.3517
  C  C302  1  0.170000  0.603500  0.203400  1.0  0.5176
  C  C303  1  0.994270  0.848700  0.565140  1.0  0.5543
  C  C304  1  0.041810  0.789400  0.591220  1.0  0.3303
  C  C305  1  0.092020  0.810100  0.632640  1.0  -0.0885
  C  C306  1  0.134780  0.759800  0.661160  1.0  0.3892
  C  C307  1  0.184710  0.790200  0.706020  1.0  0.4904
  C  C308  1  0.786220  0.404200  0.043440  1.0  0.572
  C  C309  1  0.850830  0.414600  0.015060  1.0  0.3401
  C  C310  1  0.848610  0.360800  0.980420  1.0  -0.1111
  C  C311  1  0.902490  0.363800  0.951580  1.0  0.3374
  C  C312  1  0.893800  0.299000  0.916600  1.0  0.4736
  C  C313  1  0.348530  0.130600  0.108060  1.0  0.404
  C  C314  1  0.343520  0.152900  0.061440  1.0  0.3023
  C  C315  1  0.403500  0.129900  0.039200  1.0  0.0341
  C  C316  1  0.399500  0.147200  0.997800  1.0  0.2037
  C  C317  1  0.010290  0.075200  0.920180  1.0  0.1946
  C  C318  1  0.109960  0.121500  0.982720  1.0  0.3761
  C  C319  1  0.103310  0.177100  0.920820  1.0  0.1794
  C  C320  1  0.036180  0.127900  0.896760  1.0  0.1023
  C  C321  1  0.995350  0.134800  0.850100  1.0  0.035
  C  C322  1  0.908780  0.110800  0.831760  1.0  -0.0866
  C  C323  1  0.869340  0.119000  0.787680  1.0  0.1875
  C  C324  1  0.917510  0.152200  0.763420  1.0  -0.1786
  C  C325  1  0.001790  0.176000  0.781780  1.0  -0.0808
  C  C326  1  0.043000  0.167200  0.824600  1.0  -0.1542
  C  C327  1  0.708490  0.086600  0.789580  1.0  0.3172
  C  C328  1  0.708420  0.155900  0.821440  1.0  -0.3586
  C  C329  1  0.717590  0.014900  0.811380  1.0  -0.3476
  C  C330  1  0.620970  0.081300  0.754540  1.0  -0.3587
  C  C331  1  0.638210  0.071800  0.558020  1.0  0.17
  C  C332  1  0.648270  0.055500  0.629740  1.0  0.3651
  C  C333  1  0.754000  0.005800  0.597600  1.0  0.1809
  C  C334  1  0.713330  0.031100  0.558460  1.0  0.093
  C  C335  1  0.744250  0.013100  0.518100  1.0  0.0454
  C  C336  1  0.682190  0.001000  0.478180  1.0  -0.1222
  C  C337  1  0.709430  0.980600  0.440060  1.0  0.195
  C  C338  1  0.798710  0.971500  0.442220  1.0  -0.2587
  C  C339  1  0.859070  0.986100  0.482140  1.0  -0.073
  C  C340  1  0.833800  0.005400  0.519600  1.0  -0.1316
  C  C341  1  0.658150  0.964700  0.355100  1.0  0.2941
  C  C342  1  0.710780  0.034200  0.352560  1.0  -0.3619
  C  C343  1  0.566300  0.966500  0.323200  1.0  -0.3555
  C  C344  1  0.702320  0.891700  0.344240  1.0  -0.3718
  C  C345  1  0.822450  0.743500  0.639700  1.0  0.4362
  C  C346  1  0.782310  0.811000  0.658820  1.0  0.3718
  C  C347  1  0.712280  0.797900  0.677560  1.0  -0.0942
  C  C348  1  0.664950  0.853800  0.692700  1.0  0.315
  C  C349  1  0.585200  0.829600  0.707000  1.0  0.4978
  C  C350  1  0.050970  0.042600  0.685940  1.0  0.4719
  C  C351  1  0.979500  0.007300  0.701400  1.0  0.3475
  C  C352  1  0.000440  0.967700  0.738280  1.0  -0.0675
  C  C353  1  0.939210  0.938700  0.756220  1.0  0.3526
  C  C354  1  0.966600  0.896500  0.796600  1.0  0.5175
  C  C355  1  0.429130  0.651300  0.434860  1.0  0.5544
  C  C356  1  0.450590  0.710600  0.408780  1.0  0.3273
  C  C357  1  0.459380  0.689900  0.367360  1.0  -0.0867
  C  C358  1  0.473620  0.740200  0.338840  1.0  0.3891
  C  C359  1  0.478690  0.709800  0.293980  1.0  0.4941
  C  C360  1  0.742780  0.095800  0.956560  1.0  0.5668
  C  C361  1  0.835770  0.085400  0.984940  1.0  0.3364
  C  C362  1  0.868190  0.139200  0.019580  1.0  -0.1126
  C  C363  1  0.950910  0.136200  0.048420  1.0  0.3356
  C  C364  1  0.977200  0.201000  0.083400  1.0  0.4737
  C  C365  1  0.240470  0.369400  0.891940  1.0  0.4009
  C  C366  1  0.282080  0.347100  0.938560  1.0  0.3001
  C  C367  1  0.364300  0.370100  0.960800  1.0  0.0339
  C  C368  1  0.401700  0.352800  0.002200  1.0  0.2027
  N  N369  1  0.916570  0.572100  0.963140  1.0  -0.2957
  N  N370  1  0.823760  0.674300  0.963520  1.0  -0.3063
  N  N371  1  0.986010  0.594000  0.767420  1.0  -0.0927
  N  N372  1  0.989040  0.582300  0.593480  1.0  -0.2907
  N  N373  1  0.910450  0.518400  0.633500  1.0  -0.3098
  N  N374  1  0.757400  0.466700  0.400600  1.0  -0.1102
  N  N375  1  0.953430  0.927900  0.036860  1.0  -0.2971
  N  N376  1  0.860240  0.825700  0.036480  1.0  -0.305
  N  N377  1  0.218590  0.906000  0.232580  1.0  -0.094
  N  N378  1  0.395560  0.917700  0.406520  1.0  -0.2904
  N  N379  1  0.276950  0.981600  0.366500  1.0  -0.3081
  N  N380  1  0.356800  0.033300  0.599400  1.0  -0.1106
  N  N381  1  0.083430  0.427900  0.036860  1.0  -0.2949
  N  N382  1  0.176240  0.325700  0.036480  1.0  -0.305
  N  N383  1  0.013990  0.406000  0.232580  1.0  -0.0946
  N  N384  1  0.010960  0.417700  0.406520  1.0  -0.292
  N  N385  1  0.089550  0.481600  0.366500  1.0  -0.3099
  N  N386  1  0.242600  0.533300  0.599400  1.0  -0.1102
  N  N387  1  0.046570  0.072100  0.963140  1.0  -0.2973
  N  N388  1  0.139760  0.174300  0.963520  1.0  -0.3046
  N  N389  1  0.781410  0.094000  0.767420  1.0  -0.0929
  N  N390  1  0.604440  0.082300  0.593480  1.0  -0.2932
  N  N391  1  0.723050  0.018400  0.633500  1.0  -0.3092
  N  N392  1  0.643200  0.966700  0.400600  1.0  -0.1143
  O  O393  1  0.962200  0.580900  0.725200  1.0  -0.6011
  O  O394  1  0.841060  0.459500  0.404120  1.0  -0.5886
  O  O395  1  0.840290  0.373000  0.654780  1.0  -0.5597
  O  O396  1  0.018820  0.423500  0.695040  1.0  -0.5642
  O  O397  1  0.775070  0.519800  0.678740  1.0  -0.5662
  O  O398  1  0.887250  0.440700  0.743500  1.0  -0.5589
  O  O399  1  0.972230  0.275200  0.428460  1.0  -0.5932
  O  O400  1  0.866310  0.309700  0.346020  1.0  -0.582
  O  O401  1  0.099860  0.529300  0.972920  1.0  -0.5505
  O  O402  1  0.041450  0.588000  0.049100  1.0  -0.5512
  O  O403  1  0.723890  0.808100  0.950580  1.0  -0.5901
  O  O404  1  0.658880  0.818400  0.026160  1.0  -0.5427
  O  O405  1  0.237000  0.919100  0.274800  1.0  -0.5984
  O  O406  1  0.436940  0.040500  0.595880  1.0  -0.592
  O  O407  1  0.185510  0.127000  0.345220  1.0  -0.5601
  O  O408  1  0.323780  0.076500  0.304960  1.0  -0.5637
  O  O409  1  0.096330  0.980200  0.321260  1.0  -0.5649
  O  O410  1  0.143750  0.059300  0.256500  1.0  -0.5592
  O  O411  1  0.543770  0.224800  0.571540  1.0  -0.5952
  O  O412  1  0.520290  0.190300  0.653980  1.0  -0.5824
  O  O413  1  0.126940  0.970700  0.027080  1.0  -0.5498
  O  O414  1  0.992350  0.912000  0.950900  1.0  -0.5493
  O  O415  1  0.773310  0.691900  0.049420  1.0  -0.5915
  O  O416  1  0.632720  0.681600  0.973840  1.0  -0.5376
  O  O417  1  0.037800  0.419100  0.274800  1.0  -0.5996
  O  O418  1  0.158940  0.540500  0.595880  1.0  -0.5872
  O  O419  1  0.159710  0.627000  0.345220  1.0  -0.5601
  O  O420  1  0.981180  0.576500  0.304960  1.0  -0.5636
  O  O421  1  0.224930  0.480200  0.321260  1.0  -0.5654
  O  O422  1  0.112750  0.559300  0.256500  1.0  -0.5585
  O  O423  1  0.027770  0.724800  0.571540  1.0  -0.5924
  O  O424  1  0.133690  0.690300  0.653980  1.0  -0.5806
  O  O425  1  0.900140  0.470700  0.027080  1.0  -0.5501
  O  O426  1  0.958550  0.412000  0.950900  1.0  -0.5504
  O  O427  1  0.276110  0.191900  0.049420  1.0  -0.589
  O  O428  1  0.341120  0.181600  0.973840  1.0  -0.5406
  O  O429  1  0.763000  0.080900  0.725200  1.0  -0.5971
  O  O430  1  0.563060  0.959500  0.404120  1.0  -0.59
  O  O431  1  0.814490  0.873000  0.654780  1.0  -0.5595
  O  O432  1  0.676220  0.923500  0.695040  1.0  -0.5646
  O  O433  1  0.903670  0.019800  0.678740  1.0  -0.5645
  O  O434  1  0.856250  0.940700  0.743500  1.0  -0.5592
  O  O435  1  0.456230  0.775200  0.428460  1.0  -0.5945
  O  O436  1  0.479710  0.809700  0.346020  1.0  -0.5821
  O  O437  1  0.873060  0.029300  0.972920  1.0  -0.5512
  O  O438  1  0.007650  0.088000  0.049100  1.0  -0.5494
  O  O439  1  0.226690  0.308100  0.950580  1.0  -0.5909
  O  O440  1  0.367280  0.318400  0.026160  1.0  -0.5345
  F  F441  1  0.786900  0.240500  0.595200  1.0  -0.1839
  F  F442  1  0.843600  0.181600  0.651600  1.0  -0.1974
  F  F443  1  0.744200  0.255900  0.661200  1.0  -0.3607
  F  F444  1  0.134640  0.265100  0.721080  1.0  -0.1654
  F  F445  1  0.173600  0.382100  0.735000  1.0  -0.1931
  F  F446  1  0.161600  0.336400  0.672200  1.0  -0.2258
  F  F447  1  0.641200  0.612000  0.680400  1.0  -0.2027
  F  F448  1  0.581600  0.504600  0.654000  1.0  -0.2036
  F  F449  1  0.584400  0.543500  0.716400  1.0  -0.2429
  F  F450  1  0.813700  0.328400  0.786800  1.0  -0.1677
  F  F451  1  0.767300  0.418100  0.818600  1.0  -0.2027
  F  F452  1  0.906000  0.416800  0.826600  1.0  -0.1854
  F  F453  1  0.995050  0.156600  0.476100  1.0  -0.1672
  F  F454  1  0.978700  0.081300  0.420200  1.0  -0.1868
  F  F455  1  0.095000  0.155800  0.443400  1.0  -0.1543
  F  F456  1  0.786270  0.142100  0.288740  1.0  -0.1608
  F  F457  1  0.756400  0.254300  0.273600  1.0  -0.1775
  F  F458  1  0.874700  0.215900  0.266400  1.0  -0.2684
  F  F459  1  0.284100  0.554500  0.969600  1.0  -0.2271
  F  F460  1  0.242000  0.668600  0.959200  1.0  -0.159
  F  F461  1  0.189400  0.562600  0.917200  1.0  -0.2112
  F  F462  1  0.125630  0.766000  0.074260  1.0  -0.1998
  F  F463  1  0.034010  0.698600  0.104220  1.0  -0.2933
  F  F464  1  0.174600  0.690700  0.118000  1.0  -0.2412
  F  F465  1  0.597800  0.925600  0.883200  1.0  -0.1599
  F  F466  1  0.716100  0.880100  0.881800  1.0  -0.1989
  F  F467  1  0.612400  0.801000  0.866800  1.0  -0.2858
  F  F468  1  0.191700  0.259500  0.404800  1.0  -0.1858
  F  F469  1  0.192000  0.318400  0.348400  1.0  -0.1998
  F  F470  1  0.083000  0.244100  0.338800  1.0  -0.3574
  F  F471  1  0.413560  0.234900  0.278920  1.0  -0.1643
  F  F472  1  0.438600  0.117900  0.265000  1.0  -0.1978
  F  F473  1  0.489400  0.163600  0.327800  1.0  -0.2242
  F  F474  1  0.960800  0.888000  0.319600  1.0  -0.2032
  F  F475  1  0.927600  0.995400  0.346000  1.0  -0.2046
  F  F476  1  0.868000  0.956500  0.283600  1.0  -0.2422
  F  F477  1  0.026900  0.171600  0.213200  1.0  -0.1672
  F  F478  1  0.948700  0.081900  0.181400  1.0  -0.1994
  F  F479  1  0.079400  0.083200  0.173400  1.0  -0.1889
  F  F480  1  0.518950  0.343400  0.523900  1.0  -0.1657
  F  F481  1  0.558500  0.418700  0.579800  1.0  -0.1868
  F  F482  1  0.651600  0.344200  0.556600  1.0  -0.1562
  F  F483  1  0.497530  0.357900  0.711260  1.0  -0.158
  F  F484  1  0.482800  0.245700  0.726400  1.0  -0.1782
  F  F485  1  0.608300  0.284100  0.733600  1.0  -0.2651
  F  F486  1  0.314500  0.945500  0.030400  1.0  -0.2368
  F  F487  1  0.282800  0.831400  0.040800  1.0  -0.1592
  F  F488  1  0.272200  0.937400  0.082800  1.0  -0.2136
  F  F489  1  0.051370  0.734000  0.925740  1.0  -0.1986
  F  F490  1  0.929790  0.801400  0.895780  1.0  -0.2909
  F  F491  1  0.056600  0.809300  0.882000  1.0  -0.2431
  F  F492  1  0.714600  0.574400  0.116800  1.0  -0.1609
  F  F493  1  0.834300  0.619900  0.118200  1.0  -0.1985
  F  F494  1  0.745600  0.699000  0.133200  1.0  -0.2894
  F  F495  1  0.213100  0.759500  0.404800  1.0  -0.183
  F  F496  1  0.156400  0.818400  0.348400  1.0  -0.1976
  F  F497  1  0.255800  0.744100  0.338800  1.0  -0.3603
  F  F498  1  0.865360  0.734900  0.278920  1.0  -0.1644
  F  F499  1  0.826400  0.617900  0.265000  1.0  -0.1939
  F  F500  1  0.838400  0.663600  0.327800  1.0  -0.2283
  F  F501  1  0.358800  0.388000  0.319600  1.0  -0.2039
  F  F502  1  0.418400  0.495400  0.346000  1.0  -0.2039
  F  F503  1  0.415600  0.456500  0.283600  1.0  -0.2464
  F  F504  1  0.186300  0.671600  0.213200  1.0  -0.1664
  F  F505  1  0.232700  0.581900  0.181400  1.0  -0.2007
  F  F506  1  0.094000  0.583200  0.173400  1.0  -0.1828
  F  F507  1  0.004950  0.843400  0.523900  1.0  -0.1666
  F  F508  1  0.021300  0.918700  0.579800  1.0  -0.1868
  F  F509  1  0.905000  0.844200  0.556600  1.0  -0.1556
  F  F510  1  0.213730  0.857900  0.711260  1.0  -0.1596
  F  F511  1  0.243600  0.745700  0.726400  1.0  -0.1785
  F  F512  1  0.125300  0.784100  0.733600  1.0  -0.263
  F  F513  1  0.715900  0.445500  0.030400  1.0  -0.2268
  F  F514  1  0.758000  0.331400  0.040800  1.0  -0.1609
  F  F515  1  0.810600  0.437400  0.082800  1.0  -0.2139
  F  F516  1  0.874370  0.234000  0.925740  1.0  -0.1998
  F  F517  1  0.965990  0.301400  0.895780  1.0  -0.2933
  F  F518  1  0.825400  0.309300  0.882000  1.0  -0.2416
  F  F519  1  0.402200  0.074400  0.116800  1.0  -0.1583
  F  F520  1  0.283900  0.119900  0.118200  1.0  -0.2003
  F  F521  1  0.387600  0.199000  0.133200  1.0  -0.2871
  F  F522  1  0.808300  0.740500  0.595200  1.0  -0.1859
  F  F523  1  0.808000  0.681600  0.651600  1.0  -0.1983
  F  F524  1  0.917000  0.755900  0.661200  1.0  -0.358
  F  F525  1  0.586440  0.765100  0.721080  1.0  -0.165
  F  F526  1  0.561400  0.882100  0.735000  1.0  -0.1964
  F  F527  1  0.510600  0.836400  0.672200  1.0  -0.224
  F  F528  1  0.039200  0.112000  0.680400  1.0  -0.2027
  F  F529  1  0.072400  0.004600  0.654000  1.0  -0.2041
  F  F530  1  0.132000  0.043500  0.716400  1.0  -0.2458
  F  F531  1  0.973100  0.828400  0.786800  1.0  -0.1679
  F  F532  1  0.051300  0.918100  0.818600  1.0  -0.2011
  F  F533  1  0.920600  0.916800  0.826600  1.0  -0.1891
  F  F534  1  0.481050  0.656600  0.476100  1.0  -0.1655
  F  F535  1  0.441500  0.581300  0.420200  1.0  -0.1866
  F  F536  1  0.348400  0.655800  0.443400  1.0  -0.1592
  F  F537  1  0.502470  0.642100  0.288740  1.0  -0.1611
  F  F538  1  0.517200  0.754300  0.273600  1.0  -0.1795
  F  F539  1  0.391700  0.715900  0.266400  1.0  -0.2637
  F  F540  1  0.685500  0.054500  0.969600  1.0  -0.2359
  F  F541  1  0.717200  0.168600  0.959200  1.0  -0.1603
  F  F542  1  0.727800  0.062600  0.917200  1.0  -0.2115
  F  F543  1  0.948630  0.266000  0.074260  1.0  -0.1989
  F  F544  1  0.070210  0.198600  0.104220  1.0  -0.2933
  F  F545  1  0.943400  0.190700  0.118000  1.0  -0.2432
  F  F546  1  0.285400  0.425600  0.883200  1.0  -0.1629
  F  F547  1  0.165700  0.380100  0.881800  1.0  -0.1994
  F  F548  1  0.254400  0.301000  0.866800  1.0  -0.2866
