# generated using pymatgen
data_Cu3H37C53N6O12F29
_symmetry_space_group_name_H-M   'P 1'
_cell_length_a   15.42680000
_cell_length_b   17.60130000
_cell_length_c   31.40760000
_cell_angle_alpha   95.20790000
_cell_angle_beta   104.21700000
_cell_angle_gamma   90.00000000
_symmetry_Int_Tables_number   1
_chemical_formula_structural   Cu3H37C53N6O12F29
_chemical_formula_sum   'Cu12 H148 C212 N24 O48 F116'
_cell_volume   8230.64178186
_cell_formula_units_Z   4
loop_
 _symmetry_equiv_pos_site_id
 _symmetry_equiv_pos_as_xyz
  1  'x, y, z'
loop_
 _atom_site_type_symbol
 _atom_site_label
 _atom_site_symmetry_multiplicity
 _atom_site_fract_x
 _atom_site_fract_y
 _atom_site_fract_z
 _atom_site_occupancy
 _atom_site_charge
  Cu  Cu1  1  0.900010  0.480560  0.691120  1.0  0.9165
  Cu  Cu2  1  0.901240  0.363640  0.415280  1.0  0.7762
  Cu  Cu3  1  0.208890  0.019440  0.308880  1.0  0.9185
  Cu  Cu4  1  0.485960  0.136360  0.584720  1.0  0.7809
  Cu  Cu5  1  0.099990  0.519440  0.308880  1.0  0.9173
  Cu  Cu6  1  0.098760  0.636360  0.584720  1.0  0.7801
  Cu  Cu7  1  0.791110  0.980560  0.691120  1.0  0.9188
  Cu  Cu8  1  0.514040  0.863640  0.415280  1.0  0.7809
  Cu  Cu9  1  0.000000  0.500000  0.000000  1.0  0.8578
  Cu  Cu10  1  0.000000  0.000000  0.000000  1.0  0.8579
  Cu  Cu11  1  0.739880  0.750000  0.000000  1.0  0.9034
  Cu  Cu12  1  0.260120  0.250000  0.000000  1.0  0.9034
  H  H13  1  0.934700  0.536900  0.904200  1.0  0.1205
  H  H14  1  0.874200  0.618700  0.013800  1.0  0.0887
  H  H15  1  0.775700  0.716400  0.905800  1.0  0.1101
  H  H16  1  0.965900  0.585900  0.846200  1.0  0.1408
  H  H17  1  0.831900  0.660900  0.729800  1.0  0.1317
  H  H18  1  0.717900  0.702200  0.762200  1.0  0.1217
  H  H19  1  0.724400  0.684300  0.835200  1.0  0.1358
  H  H20  1  0.070300  0.660900  0.841600  1.0  0.1188
  H  H21  1  0.093700  0.704500  0.803000  1.0  0.1321
  H  H22  1  0.168700  0.656600  0.833400  1.0  0.1338
  H  H23  1  0.058200  0.513300  0.831600  1.0  0.1333
  H  H24  1  0.155400  0.508000  0.822000  1.0  0.1377
  H  H25  1  0.070400  0.469900  0.786400  1.0  0.1315
  H  H26  1  0.119300  0.634800  0.737200  1.0  0.1339
  H  H27  1  0.107600  0.543900  0.729000  1.0  0.113
  H  H28  1  0.192500  0.581800  0.764800  1.0  0.1192
  H  H29  1  0.921900  0.594800  0.530800  1.0  0.1219
  H  H30  1  0.029100  0.565400  0.655200  1.0  0.0988
  H  H31  1  0.786500  0.482400  0.600600  1.0  0.12
  H  H32  1  0.853600  0.507500  0.476400  1.0  0.1323
  H  H33  1  0.592700  0.463900  0.413800  1.0  0.1492
  H  H34  1  0.554200  0.489200  0.480400  1.0  0.1231
  H  H35  1  0.663100  0.523000  0.545600  1.0  0.1393
  H  H36  1  0.601400  0.538800  0.368200  1.0  0.1191
  H  H37  1  0.682300  0.581700  0.356000  1.0  0.1347
  H  H38  1  0.605700  0.538000  0.317800  1.0  0.1301
  H  H39  1  0.792500  0.509900  0.326600  1.0  0.1391
  H  H40  1  0.794900  0.418800  0.324800  1.0  0.1334
  H  H41  1  0.719100  0.459000  0.290400  1.0  0.1136
  H  H42  1  0.601700  0.389700  0.364200  1.0  0.1338
  H  H43  1  0.601100  0.387400  0.313000  1.0  0.1354
  H  H44  1  0.678800  0.346600  0.346200  1.0  0.1386
  H  H45  1  0.989100  0.247600  0.680200  1.0  0.1193
  H  H46  1  0.686900  0.460600  0.756800  1.0  0.1265
  H  H47  1  0.909500  0.130800  0.360200  1.0  0.1137
  H  H48  1  0.194000  0.684200  0.022600  1.0  0.1222
  H  H49  1  0.538300  0.903500  0.946600  1.0  0.117
  H  H50  1  0.030500  0.963100  0.095800  1.0  0.1194
  H  H51  1  0.860400  0.881300  0.986200  1.0  0.0888
  H  H52  1  0.869900  0.783600  0.094200  1.0  0.11
  H  H53  1  0.119700  0.914100  0.153800  1.0  0.1407
  H  H54  1  0.102100  0.839100  0.270200  1.0  0.13
  H  H55  1  0.955700  0.797800  0.237800  1.0  0.1223
  H  H56  1  0.889200  0.815700  0.164800  1.0  0.1362
  H  H57  1  0.228700  0.839100  0.158400  1.0  0.1175
  H  H58  1  0.290700  0.795500  0.197000  1.0  0.128
  H  H59  1  0.335300  0.843400  0.166600  1.0  0.133
  H  H60  1  0.226600  0.986700  0.168400  1.0  0.1326
  H  H61  1  0.333400  0.992000  0.178000  1.0  0.134
  H  H62  1  0.284000  0.030100  0.213600  1.0  0.1326
  H  H63  1  0.382100  0.865200  0.262800  1.0  0.1345
  H  H64  1  0.378600  0.956100  0.271000  1.0  0.1115
  H  H65  1  0.427700  0.918200  0.235200  1.0  0.1169
  H  H66  1  0.391100  0.905200  0.469200  1.0  0.1212
  H  H67  1  0.373900  0.934600  0.344800  1.0  0.1006
  H  H68  1  0.185900  0.017600  0.399400  1.0  0.1204
  H  H69  1  0.377200  0.992500  0.523600  1.0  0.1324
  H  H70  1  0.178900  0.036100  0.586200  1.0  0.149
  H  H71  1  0.073800  0.010800  0.519600  1.0  0.1231
  H  H72  1  0.117500  0.977000  0.454400  1.0  0.1385
  H  H73  1  0.233200  0.961200  0.631800  1.0  0.1174
  H  H74  1  0.326300  0.918300  0.644000  1.0  0.1337
  H  H75  1  0.287900  0.962000  0.682200  1.0  0.131
  H  H76  1  0.465900  0.990100  0.673400  1.0  0.1376
  H  H77  1  0.470100  0.081200  0.675200  1.0  0.132
  H  H78  1  0.428700  0.041000  0.709600  1.0  0.1129
  H  H79  1  0.237500  0.110300  0.635800  1.0  0.1317
  H  H80  1  0.288100  0.112600  0.687000  1.0  0.1376
  H  H81  1  0.332600  0.153400  0.653800  1.0  0.14
  H  H82  1  0.308900  0.252400  0.319800  1.0  0.1189
  H  H83  1  0.930100  0.039400  0.243200  1.0  0.1273
  H  H84  1  0.549300  0.369200  0.639800  1.0  0.1141
  H  H85  1  0.171400  0.815800  0.977400  1.0  0.1234
  H  H86  1  0.591700  0.596500  0.053400  1.0  0.1172
  H  H87  1  0.065300  0.463100  0.095800  1.0  0.1201
  H  H88  1  0.125800  0.381300  0.986200  1.0  0.0887
  H  H89  1  0.224300  0.283600  0.094200  1.0  0.1094
  H  H90  1  0.034100  0.414100  0.153800  1.0  0.1407
  H  H91  1  0.168100  0.339100  0.270200  1.0  0.1305
  H  H92  1  0.282100  0.297800  0.237800  1.0  0.1219
  H  H93  1  0.275600  0.315700  0.164800  1.0  0.1354
  H  H94  1  0.929700  0.339100  0.158400  1.0  0.1181
  H  H95  1  0.906300  0.295500  0.197000  1.0  0.1283
  H  H96  1  0.831300  0.343400  0.166600  1.0  0.1345
  H  H97  1  0.941800  0.486700  0.168400  1.0  0.1337
  H  H98  1  0.844600  0.492000  0.178000  1.0  0.136
  H  H99  1  0.929600  0.530100  0.213600  1.0  0.1317
  H  H100  1  0.880700  0.365200  0.262800  1.0  0.1333
  H  H101  1  0.892400  0.456100  0.271000  1.0  0.112
  H  H102  1  0.807500  0.418200  0.235200  1.0  0.1186
  H  H103  1  0.078100  0.405200  0.469200  1.0  0.1217
  H  H104  1  0.970900  0.434600  0.344800  1.0  0.0984
  H  H105  1  0.213500  0.517600  0.399400  1.0  0.1201
  H  H106  1  0.146400  0.492500  0.523600  1.0  0.1319
  H  H107  1  0.407300  0.536100  0.586200  1.0  0.1523
  H  H108  1  0.445800  0.510800  0.519600  1.0  0.123
  H  H109  1  0.336900  0.477000  0.454400  1.0  0.1395
  H  H110  1  0.398600  0.461200  0.631800  1.0  0.1184
  H  H111  1  0.317700  0.418300  0.644000  1.0  0.1324
  H  H112  1  0.394300  0.462000  0.682200  1.0  0.1305
  H  H113  1  0.207500  0.490100  0.673400  1.0  0.1388
  H  H114  1  0.205100  0.581200  0.675200  1.0  0.1347
  H  H115  1  0.280900  0.541000  0.709600  1.0  0.1129
  H  H116  1  0.398300  0.610300  0.635800  1.0  0.1339
  H  H117  1  0.398900  0.612600  0.687000  1.0  0.1355
  H  H118  1  0.321200  0.653400  0.653800  1.0  0.1406
  H  H119  1  0.010900  0.752400  0.319800  1.0  0.1209
  H  H120  1  0.313100  0.539400  0.243200  1.0  0.1265
  H  H121  1  0.090500  0.869200  0.639800  1.0  0.1131
  H  H122  1  0.806000  0.315800  0.977400  1.0  0.123
  H  H123  1  0.461700  0.096500  0.053400  1.0  0.1164
  H  H124  1  0.969500  0.036900  0.904200  1.0  0.1202
  H  H125  1  0.139600  0.118700  0.013800  1.0  0.089
  H  H126  1  0.130100  0.216400  0.905800  1.0  0.1094
  H  H127  1  0.880300  0.085900  0.846200  1.0  0.1403
  H  H128  1  0.897900  0.160900  0.729800  1.0  0.13
  H  H129  1  0.044300  0.202200  0.762200  1.0  0.122
  H  H130  1  0.110800  0.184300  0.835200  1.0  0.1362
  H  H131  1  0.771300  0.160900  0.841600  1.0  0.116
  H  H132  1  0.709300  0.204500  0.803000  1.0  0.1311
  H  H133  1  0.664700  0.156600  0.833400  1.0  0.134
  H  H134  1  0.773400  0.013300  0.831600  1.0  0.1324
  H  H135  1  0.666667  0.008000  0.822000  1.0  0.1331
  H  H136  1  0.716000  0.969900  0.786400  1.0  0.1306
  H  H137  1  0.617900  0.134800  0.737200  1.0  0.1341
  H  H138  1  0.621400  0.043900  0.729000  1.0  0.1124
  H  H139  1  0.572300  0.081800  0.764800  1.0  0.1167
  H  H140  1  0.608900  0.094800  0.530800  1.0  0.1211
  H  H141  1  0.626100  0.065400  0.655200  1.0  0.0989
  H  H142  1  0.814100  0.982400  0.600600  1.0  0.1202
  H  H143  1  0.622800  0.007500  0.476400  1.0  0.1326
  H  H144  1  0.821100  0.963900  0.413800  1.0  0.1497
  H  H145  1  0.926200  0.989200  0.480400  1.0  0.1232
  H  H146  1  0.882500  0.023000  0.545600  1.0  0.1387
  H  H147  1  0.766800  0.038800  0.368200  1.0  0.1193
  H  H148  1  0.673700  0.081700  0.356000  1.0  0.1353
  H  H149  1  0.712100  0.038000  0.317800  1.0  0.1314
  H  H150  1  0.534100  0.009900  0.326600  1.0  0.1388
  H  H151  1  0.529900  0.918800  0.324800  1.0  0.1327
  H  H152  1  0.571300  0.959000  0.290400  1.0  0.1131
  H  H153  1  0.762500  0.889700  0.364200  1.0  0.1317
  H  H154  1  0.711900  0.887400  0.313000  1.0  0.1373
  H  H155  1  0.667400  0.846600  0.346200  1.0  0.1397
  H  H156  1  0.691100  0.747600  0.680200  1.0  0.1206
  H  H157  1  0.069900  0.960600  0.756800  1.0  0.1277
  H  H158  1  0.450700  0.630800  0.360200  1.0  0.1137
  H  H159  1  0.828600  0.184200  0.022600  1.0  0.1237
  H  H160  1  0.408300  0.403500  0.946600  1.0  0.1169
  C  C161  1  0.904990  0.573500  0.919380  1.0  0.1483
  C  C162  1  0.869060  0.621400  0.983120  1.0  0.3549
  C  C163  1  0.811110  0.677900  0.920420  1.0  0.1551
  C  C164  1  0.854060  0.627200  0.896120  1.0  0.1109
  C  C165  1  0.846760  0.634400  0.848520  1.0  0.0414
  C  C166  1  0.915310  0.609400  0.829220  1.0  -0.1221
  C  C167  1  0.909910  0.618700  0.785020  1.0  0.149
  C  C168  1  0.835660  0.653900  0.759920  1.0  -0.136
  C  C169  1  0.768170  0.678100  0.779140  1.0  -0.0605
  C  C170  1  0.772260  0.668200  0.822720  1.0  -0.1034
  C  C171  1  0.076400  0.587700  0.786800  1.0  0.2764
  C  C172  1  0.104860  0.658800  0.819120  1.0  -0.3622
  C  C173  1  0.091460  0.513000  0.808720  1.0  -0.3358
  C  C174  1  0.128640  0.587000  0.751280  1.0  -0.3469
  C  C175  1  0.918370  0.574160  0.557340  1.0  0.1414
  C  C176  1  0.979860  0.558100  0.630120  1.0  0.3039
  C  C177  1  0.838290  0.509350  0.598380  1.0  0.1548
  C  C178  1  0.841170  0.534430  0.558140  1.0  0.1098
  C  C179  1  0.769300  0.516930  0.517400  1.0  0.0421
  C  C180  1  0.792740  0.503190  0.477280  1.0  -0.1273
  C  C181  1  0.727320  0.483200  0.438440  1.0  0.1912
  C  C182  1  0.637650  0.477800  0.439900  1.0  -0.1936
  C  C183  1  0.615220  0.492600  0.479640  1.0  -0.0635
  C  C184  1  0.679850  0.512500  0.518500  1.0  -0.1367
  C  C185  1  0.695360  0.464100  0.352520  1.0  0.283
  C  C186  1  0.641340  0.537200  0.348280  1.0  -0.3658
  C  C187  1  0.755860  0.462800  0.320720  1.0  -0.3659
  C  C188  1  0.639290  0.390300  0.343180  1.0  -0.3534
  C  C189  1  0.817940  0.250400  0.643480  1.0  0.5386
  C  C190  1  0.884200  0.316500  0.662000  1.0  0.3027
  C  C191  1  0.973390  0.299700  0.678780  1.0  -0.1322
  C  C192  1  0.041220  0.356100  0.693640  1.0  0.3369
  C  C193  1  0.137430  0.329500  0.706060  1.0  0.4858
  C  C194  1  0.619060  0.545600  0.692520  1.0  0.5069
  C  C195  1  0.712050  0.510200  0.704500  1.0  0.3572
  C  C196  1  0.732720  0.468900  0.742240  1.0  -0.1121
  C  C197  1  0.816180  0.440300  0.758760  1.0  0.3588
  C  C198  1  0.829430  0.396000  0.799260  1.0  0.4222
  C  C199  1  0.013040  0.146900  0.440480  1.0  0.5162
  C  C200  1  0.963030  0.206400  0.411860  1.0  0.2838
  C  C201  1  0.914800  0.183800  0.369600  1.0  -0.1318
  C  C202  1  0.873340  0.235200  0.339880  1.0  0.3637
  C  C203  1  0.828490  0.203300  0.292780  1.0  0.4067
  C  C204  1  0.208160  0.595400  0.953920  1.0  0.5528
  C  C205  1  0.145910  0.588500  0.984020  1.0  0.3121
  C  C206  1  0.152000  0.643300  0.019200  1.0  -0.1282
  C  C207  1  0.100230  0.642400  0.050060  1.0  0.345
  C  C208  1  0.117740  0.709400  0.086080  1.0  0.5332
  C  C209  1  0.641870  0.875300  0.891940  1.0  0.4029
  C  C210  1  0.648980  0.851500  0.938360  1.0  0.3338
  C  C211  1  0.587000  0.874400  0.960800  1.0  -0.1021
  C  C212  1  0.592220  0.856400  0.004040  1.0  0.3126
  C  C213  1  0.510440  0.883500  0.022880  1.0  0.4672
  C  C214  1  0.985610  0.926500  0.080620  1.0  0.1459
  C  C215  1  0.885940  0.878600  0.016880  1.0  0.3549
  C  C216  1  0.890690  0.822100  0.079580  1.0  0.1539
  C  C217  1  0.957940  0.872800  0.103880  1.0  0.1118
  C  C218  1  0.998240  0.865600  0.151480  1.0  0.0422
  C  C219  1  0.086090  0.890600  0.170780  1.0  -0.1218
  C  C220  1  0.124890  0.881300  0.214980  1.0  0.149
  C  C221  1  0.075740  0.846100  0.240080  1.0  -0.137
  C  C222  1  0.989030  0.821900  0.220860  1.0  -0.0602
  C  C223  1  0.949540  0.831800  0.177280  1.0  -0.1032
  C  C224  1  0.289600  0.912300  0.213200  1.0  0.2767
  C  C225  1  0.285740  0.841200  0.180880  1.0  -0.3621
  C  C226  1  0.282740  0.987000  0.191280  1.0  -0.3364
  C  C227  1  0.377360  0.913000  0.248720  1.0  -0.3444
  C  C228  1  0.361030  0.925840  0.442660  1.0  0.1412
  C  C229  1  0.349740  0.941900  0.369880  1.0  0.3049
  C  C230  1  0.239910  0.990650  0.401620  1.0  0.1563
  C  C231  1  0.283030  0.965570  0.441860  1.0  0.1084
  C  C232  1  0.251900  0.983070  0.482600  1.0  0.0424
  C  C233  1  0.315460  0.996810  0.522720  1.0  -0.1276
  C  C234  1  0.288880  0.016800  0.561560  1.0  0.1914
  C  C235  1  0.197750  0.022200  0.560100  1.0  -0.1965
  C  C236  1  0.135580  0.007400  0.520360  1.0  -0.0654
  C  C237  1  0.161350  0.987500  0.481500  1.0  -0.1365
  C  C238  1  0.342840  0.035900  0.647480  1.0  0.2833
  C  C239  1  0.293060  0.962800  0.651720  1.0  -0.3659
  C  C240  1  0.435140  0.037200  0.679280  1.0  -0.3658
  C  C241  1  0.296110  0.109700  0.656820  1.0  -0.3543
  C  C242  1  0.174460  0.249600  0.356520  1.0  0.5384
  C  C243  1  0.222200  0.183500  0.338000  1.0  0.3023
  C  C244  1  0.294610  0.200300  0.321220  1.0  -0.1325
  C  C245  1  0.347580  0.143900  0.306360  1.0  0.3374
  C  C246  1  0.431370  0.170500  0.293940  1.0  0.4844
  C  C247  1  0.926540  0.954400  0.307480  1.0  0.5076
  C  C248  1  0.007550  0.989800  0.295500  1.0  0.3541
  C  C249  1  0.990480  0.031100  0.257760  1.0  -0.1101
  C  C250  1  0.057420  0.059700  0.241240  1.0  0.3573
  C  C251  1  0.030170  0.104000  0.200740  1.0  0.4218
  C  C252  1  0.572560  0.353100  0.559520  1.0  0.5157
  C  C253  1  0.551170  0.293600  0.588140  1.0  0.2843
  C  C254  1  0.545200  0.316200  0.630400  1.0  -0.1342
  C  C255  1  0.533460  0.264800  0.660120  1.0  0.3635
  C  C256  1  0.535710  0.296700  0.707220  1.0  0.4065
  C  C257  1  0.254240  0.904600  0.046080  1.0  0.5516
  C  C258  1  0.161890  0.911500  0.015980  1.0  0.3115
  C  C259  1  0.132800  0.856700  0.980800  1.0  -0.1293
  C  C260  1  0.050170  0.857600  0.949940  1.0  0.3436
  C  C261  1  0.031660  0.790600  0.913920  1.0  0.5327
  C  C262  1  0.749930  0.624700  0.108060  1.0  0.4028
  C  C263  1  0.710620  0.648500  0.061640  1.0  0.3325
  C  C264  1  0.626200  0.625600  0.039200  1.0  -0.1041
  C  C265  1  0.588180  0.643600  0.995960  1.0  0.3163
  C  C266  1  0.487560  0.616500  0.977120  1.0  0.4644
  C  C267  1  0.095010  0.426500  0.080620  1.0  0.1468
  C  C268  1  0.130940  0.378600  0.016880  1.0  0.3557
  C  C269  1  0.188890  0.322100  0.079580  1.0  0.1544
  C  C270  1  0.145940  0.372800  0.103880  1.0  0.1097
  C  C271  1  0.153240  0.365600  0.151480  1.0  0.0412
  C  C272  1  0.084690  0.390600  0.170780  1.0  -0.1224
  C  C273  1  0.090090  0.381300  0.214980  1.0  0.1492
  C  C274  1  0.164340  0.346100  0.240080  1.0  -0.1361
  C  C275  1  0.231830  0.321900  0.220860  1.0  -0.0606
  C  C276  1  0.227740  0.331800  0.177280  1.0  -0.1041
  C  C277  1  0.923600  0.412300  0.213200  1.0  0.2761
  C  C278  1  0.895140  0.341200  0.180880  1.0  -0.3625
  C  C279  1  0.908540  0.487000  0.191280  1.0  -0.3358
  C  C280  1  0.871360  0.413000  0.248720  1.0  -0.3469
  C  C281  1  0.081630  0.425840  0.442660  1.0  0.1427
  C  C282  1  0.020140  0.441900  0.369880  1.0  0.3046
  C  C283  1  0.161710  0.490650  0.401620  1.0  0.1568
  C  C284  1  0.158830  0.465570  0.441860  1.0  0.1101
  C  C285  1  0.230700  0.483070  0.482600  1.0  0.0422
  C  C286  1  0.207260  0.496810  0.522720  1.0  -0.1282
  C  C287  1  0.272680  0.516800  0.561560  1.0  0.1899
  C  C288  1  0.362350  0.522200  0.560100  1.0  -0.194
  C  C289  1  0.384780  0.507400  0.520360  1.0  -0.0638
  C  C290  1  0.320150  0.487500  0.481500  1.0  -0.1374
  C  C291  1  0.304640  0.535900  0.647480  1.0  0.2821
  C  C292  1  0.358660  0.462800  0.651720  1.0  -0.3661
  C  C293  1  0.244140  0.537200  0.679280  1.0  -0.3651
  C  C294  1  0.360710  0.609700  0.656820  1.0  -0.355
  C  C295  1  0.182060  0.749600  0.356520  1.0  0.5372
  C  C296  1  0.115800  0.683500  0.338000  1.0  0.3017
  C  C297  1  0.026610  0.700300  0.321220  1.0  -0.1391
  C  C298  1  0.958780  0.643900  0.306360  1.0  0.3374
  C  C299  1  0.862570  0.670500  0.293940  1.0  0.4888
  C  C300  1  0.380940  0.454400  0.307480  1.0  0.5055
  C  C301  1  0.287950  0.489800  0.295500  1.0  0.3559
  C  C302  1  0.267280  0.531100  0.257760  1.0  -0.1117
  C  C303  1  0.183820  0.559700  0.241240  1.0  0.3581
  C  C304  1  0.170570  0.604000  0.200740  1.0  0.4201
  C  C305  1  0.986960  0.853100  0.559520  1.0  0.5146
  C  C306  1  0.036970  0.793600  0.588140  1.0  0.2843
  C  C307  1  0.085200  0.816200  0.630400  1.0  -0.1343
  C  C308  1  0.126660  0.764800  0.660120  1.0  0.3637
  C  C309  1  0.171510  0.796700  0.707220  1.0  0.4067
  C  C310  1  0.791840  0.404600  0.046080  1.0  0.5577
  C  C311  1  0.854090  0.411500  0.015980  1.0  0.3104
  C  C312  1  0.848000  0.356700  0.980800  1.0  -0.1282
  C  C313  1  0.899770  0.357600  0.949940  1.0  0.3432
  C  C314  1  0.882260  0.290600  0.913920  1.0  0.5348
  C  C315  1  0.358130  0.124700  0.108060  1.0  0.4036
  C  C316  1  0.351020  0.148500  0.061640  1.0  0.3342
  C  C317  1  0.413000  0.125600  0.039200  1.0  -0.1023
  C  C318  1  0.407780  0.143600  0.995960  1.0  0.3146
  C  C319  1  0.489560  0.116500  0.977120  1.0  0.4708
  C  C320  1  0.014390  0.073500  0.919380  1.0  0.1486
  C  C321  1  0.114060  0.121400  0.983120  1.0  0.3554
  C  C322  1  0.109310  0.177900  0.920420  1.0  0.1542
  C  C323  1  0.042060  0.127200  0.896120  1.0  0.1101
  C  C324  1  0.001760  0.134400  0.848520  1.0  0.0402
  C  C325  1  0.913910  0.109400  0.829220  1.0  -0.1206
  C  C326  1  0.875110  0.118700  0.785020  1.0  0.1488
  C  C327  1  0.924260  0.153900  0.759920  1.0  -0.1389
  C  C328  1  0.010970  0.178100  0.779140  1.0  -0.0608
  C  C329  1  0.050460  0.168200  0.822720  1.0  -0.103
  C  C330  1  0.710400  0.087700  0.786800  1.0  0.2783
  C  C331  1  0.714260  0.158800  0.819120  1.0  -0.3596
  C  C332  1  0.717260  0.013000  0.808720  1.0  -0.336
  C  C333  1  0.622640  0.087000  0.751280  1.0  -0.3438
  C  C334  1  0.638970  0.074160  0.557340  1.0  0.1413
  C  C335  1  0.650260  0.058100  0.630120  1.0  0.3075
  C  C336  1  0.760090  0.009350  0.598380  1.0  0.1542
  C  C337  1  0.716970  0.034430  0.558140  1.0  0.1094
  C  C338  1  0.748100  0.016930  0.517400  1.0  0.0424
  C  C339  1  0.684540  0.003190  0.477280  1.0  -0.1282
  C  C340  1  0.711120  0.983200  0.438440  1.0  0.1915
  C  C341  1  0.802250  0.977800  0.439900  1.0  -0.1951
  C  C342  1  0.864420  0.992600  0.479640  1.0  -0.0649
  C  C343  1  0.838650  0.012500  0.518500  1.0  -0.1361
  C  C344  1  0.657160  0.964100  0.352520  1.0  0.2826
  C  C345  1  0.706940  0.037200  0.348280  1.0  -0.3668
  C  C346  1  0.564860  0.962800  0.320720  1.0  -0.3658
  C  C347  1  0.703890  0.890300  0.343180  1.0  -0.3548
  C  C348  1  0.825540  0.750400  0.643480  1.0  0.5382
  C  C349  1  0.777800  0.816500  0.662000  1.0  0.3032
  C  C350  1  0.705390  0.799700  0.678780  1.0  -0.1368
  C  C351  1  0.652420  0.856100  0.693640  1.0  0.3366
  C  C352  1  0.568630  0.829500  0.706060  1.0  0.4909
  C  C353  1  0.073460  0.045600  0.692520  1.0  0.507
  C  C354  1  0.992450  0.010200  0.704500  1.0  0.3535
  C  C355  1  0.009520  0.968900  0.742240  1.0  -0.1095
  C  C356  1  0.942580  0.940300  0.758760  1.0  0.3592
  C  C357  1  0.969830  0.896000  0.799260  1.0  0.4203
  C  C358  1  0.427440  0.646900  0.440480  1.0  0.5171
  C  C359  1  0.448830  0.706400  0.411860  1.0  0.2842
  C  C360  1  0.454800  0.683800  0.369600  1.0  -0.1323
  C  C361  1  0.466540  0.735200  0.339880  1.0  0.3643
  C  C362  1  0.464290  0.703300  0.292780  1.0  0.4092
  C  C363  1  0.745760  0.095400  0.953920  1.0  0.5539
  C  C364  1  0.838110  0.088500  0.984020  1.0  0.3102
  C  C365  1  0.867200  0.143300  0.019200  1.0  -0.1288
  C  C366  1  0.949830  0.142400  0.050060  1.0  0.3438
  C  C367  1  0.968340  0.209400  0.086080  1.0  0.5353
  C  C368  1  0.250070  0.375300  0.891940  1.0  0.4004
  C  C369  1  0.289380  0.351500  0.938360  1.0  0.3324
  C  C370  1  0.373800  0.374400  0.960800  1.0  -0.1024
  C  C371  1  0.411820  0.356400  0.004040  1.0  0.3149
  C  C372  1  0.512440  0.383500  0.022880  1.0  0.461
  N  N373  1  0.914130  0.571180  0.963060  1.0  -0.3001
  N  N374  1  0.817780  0.674570  0.963560  1.0  -0.3018
  N  N375  1  0.978150  0.593800  0.764100  1.0  -0.1346
  N  N376  1  0.988010  0.584360  0.592580  1.0  -0.2927
  N  N377  1  0.906720  0.522220  0.634240  1.0  -0.2968
  N  N378  1  0.755890  0.467960  0.399040  1.0  -0.1313
  N  N379  1  0.951070  0.928820  0.036940  1.0  -0.3
  N  N380  1  0.854220  0.825430  0.036440  1.0  -0.3013
  N  N381  1  0.214050  0.906200  0.235900  1.0  -0.1363
  N  N382  1  0.395430  0.915640  0.407420  1.0  -0.2918
  N  N383  1  0.272480  0.977780  0.365760  1.0  -0.295
  N  N384  1  0.356850  0.032040  0.600960  1.0  -0.131
  N  N385  1  0.085870  0.428820  0.036940  1.0  -0.2988
  N  N386  1  0.182220  0.325430  0.036440  1.0  -0.2998
  N  N387  1  0.021850  0.406200  0.235900  1.0  -0.1355
  N  N388  1  0.011990  0.415640  0.407420  1.0  -0.2947
  N  N389  1  0.093280  0.477780  0.365760  1.0  -0.2965
  N  N390  1  0.244110  0.532040  0.600960  1.0  -0.1305
  N  N391  1  0.048930  0.071180  0.963060  1.0  -0.3
  N  N392  1  0.145780  0.174570  0.963560  1.0  -0.2991
  N  N393  1  0.785950  0.093800  0.764100  1.0  -0.1338
  N  N394  1  0.604570  0.084360  0.592580  1.0  -0.2944
  N  N395  1  0.727520  0.022220  0.634240  1.0  -0.2954
  N  N396  1  0.643150  0.967960  0.399040  1.0  -0.1347
  O  O397  1  0.954110  0.580330  0.721540  1.0  -0.5835
  O  O398  1  0.840970  0.460140  0.403120  1.0  -0.5837
  O  O399  1  0.847620  0.380820  0.659060  1.0  -0.5628
  O  O400  1  0.033460  0.426400  0.696880  1.0  -0.5823
  O  O401  1  0.759240  0.522310  0.679260  1.0  -0.5553
  O  O402  1  0.887510  0.445120  0.745940  1.0  -0.5696
  O  O403  1  0.973390  0.272770  0.432100  1.0  -0.5935
  O  O404  1  0.869590  0.305930  0.346480  1.0  -0.5683
  O  O405  1  0.094540  0.530190  0.972540  1.0  -0.5621
  O  O406  1  0.042490  0.595400  0.052280  1.0  -0.5509
  O  O407  1  0.717090  0.810860  0.950580  1.0  -0.5829
  O  O408  1  0.650630  0.819600  0.027460  1.0  -0.5403
  O  O409  1  0.232570  0.919670  0.278460  1.0  -0.5832
  O  O410  1  0.437850  0.039860  0.596880  1.0  -0.5851
  O  O411  1  0.188560  0.119180  0.340940  1.0  -0.5638
  O  O412  1  0.336580  0.073600  0.303120  1.0  -0.5832
  O  O413  1  0.079980  0.977690  0.320740  1.0  -0.5539
  O  O414  1  0.141570  0.054880  0.254060  1.0  -0.5692
  O  O415  1  0.541290  0.227230  0.567900  1.0  -0.5983
  O  O416  1  0.523110  0.194070  0.653520  1.0  -0.5682
  O  O417  1  0.122000  0.969810  0.027460  1.0  -0.5628
  O  O418  1  0.990210  0.904600  0.947720  1.0  -0.5486
  O  O419  1  0.766510  0.689140  0.049420  1.0  -0.5831
  O  O420  1  0.623170  0.680400  0.972540  1.0  -0.5399
  O  O421  1  0.045890  0.419670  0.278460  1.0  -0.5835
  O  O422  1  0.159030  0.539860  0.596880  1.0  -0.5812
  O  O423  1  0.152380  0.619180  0.340940  1.0  -0.564
  O  O424  1  0.966540  0.573600  0.303120  1.0  -0.5827
  O  O425  1  0.240760  0.477690  0.320740  1.0  -0.5534
  O  O426  1  0.112490  0.554880  0.254060  1.0  -0.5695
  O  O427  1  0.026610  0.727230  0.567900  1.0  -0.5942
  O  O428  1  0.130410  0.694070  0.653520  1.0  -0.5663
  O  O429  1  0.905460  0.469810  0.027460  1.0  -0.5632
  O  O430  1  0.957510  0.404600  0.947720  1.0  -0.5494
  O  O431  1  0.282910  0.189140  0.049420  1.0  -0.5825
  O  O432  1  0.349370  0.180400  0.972540  1.0  -0.5405
  O  O433  1  0.767430  0.080330  0.721540  1.0  -0.5825
  O  O434  1  0.562150  0.960140  0.403120  1.0  -0.5845
  O  O435  1  0.811440  0.880820  0.659060  1.0  -0.5637
  O  O436  1  0.663420  0.926400  0.696880  1.0  -0.5841
  O  O437  1  0.920020  0.022310  0.679260  1.0  -0.5533
  O  O438  1  0.858430  0.945120  0.745940  1.0  -0.5693
  O  O439  1  0.458710  0.772770  0.432100  1.0  -0.5963
  O  O440  1  0.476890  0.805930  0.346480  1.0  -0.5666
  O  O441  1  0.878000  0.030190  0.972540  1.0  -0.5624
  O  O442  1  0.009790  0.095400  0.052280  1.0  -0.549
  O  O443  1  0.233490  0.310860  0.950580  1.0  -0.5824
  O  O444  1  0.376830  0.319600  0.027460  1.0  -0.5391
  F  F445  1  0.788520  0.252200  0.598040  1.0  -0.1888
  F  F446  1  0.849280  0.182400  0.649760  1.0  -0.1834
  F  F447  1  0.748270  0.250700  0.658340  1.0  -0.2094
  F  F448  1  0.146670  0.259700  0.718340  1.0  -0.1664
  F  F449  1  0.192210  0.379300  0.734420  1.0  -0.1653
  F  F450  1  0.168910  0.328300  0.666820  1.0  -0.1916
  F  F451  1  0.624840  0.617600  0.679080  1.0  -0.2178
  F  F452  1  0.564360  0.506900  0.661320  1.0  -0.2312
  F  F453  1  0.572750  0.536000  0.725100  1.0  -0.2602
  F  F454  1  0.828830  0.327800  0.791860  1.0  -0.2021
  F  F455  1  0.773660  0.410100  0.824320  1.0  -0.1941
  F  F456  1  0.914260  0.417000  0.829320  1.0  -0.255
  F  F457  1  0.986620  0.150400  0.480440  1.0  -0.1718
  F  F458  1  0.991680  0.073500  0.422960  1.0  -0.1862
  F  F459  1  0.102460  0.158200  0.450720  1.0  -0.1401
  F  F460  1  0.823520  0.123700  0.290440  1.0  -0.1799
  F  F461  1  0.752800  0.237500  0.276400  1.0  -0.116
  F  F462  1  0.271890  0.550800  0.960380  1.0  -0.1857
  F  F463  1  0.243270  0.669000  0.957540  1.0  -0.2059
  F  F464  1  0.165260  0.577000  0.910720  1.0  -0.2177
  F  F465  1  0.120660  0.776800  0.073120  1.0  -0.2182
  F  F466  1  0.047940  0.706900  0.110680  1.0  -0.32
  F  F467  1  0.189250  0.700500  0.116700  1.0  -0.1869
  F  F468  1  0.585040  0.933600  0.882280  1.0  -0.2009
  F  F469  1  0.709430  0.898400  0.884460  1.0  -0.2346
  F  F470  1  0.614820  0.807100  0.864240  1.0  -0.1907
  F  F471  1  0.431970  0.886300  0.990740  1.0  -0.1655
  F  F472  1  0.506600  0.847500  0.056000  1.0  -0.2038
  F  F473  1  0.542700  0.950600  0.051400  1.0  -0.2583
  F  F474  1  0.190480  0.247800  0.401960  1.0  -0.188
  F  F475  1  0.199520  0.317600  0.350240  1.0  -0.18
  F  F476  1  0.089930  0.249300  0.341660  1.0  -0.2149
  F  F477  1  0.428330  0.240300  0.281660  1.0  -0.1672
  F  F478  1  0.457790  0.120700  0.265580  1.0  -0.1713
  F  F479  1  0.502090  0.171700  0.333180  1.0  -0.1921
  F  F480  1  0.945760  0.882400  0.320920  1.0  -0.2191
  F  F481  1  0.903040  0.993100  0.338680  1.0  -0.2316
  F  F482  1  0.847650  0.964000  0.274900  1.0  -0.2573
  F  F483  1  0.036970  0.172200  0.208140  1.0  -0.2034
  F  F484  1  0.949340  0.089900  0.175680  1.0  -0.1929
  F  F485  1  0.084940  0.083000  0.170680  1.0  -0.2601
  F  F486  1  0.506180  0.349600  0.519560  1.0  -0.1705
  F  F487  1  0.568720  0.426500  0.577040  1.0  -0.1858
  F  F488  1  0.651740  0.341800  0.549280  1.0  -0.1432
  F  F489  1  0.533080  0.376300  0.709560  1.0  -0.1787
  F  F490  1  0.476400  0.262500  0.723600  1.0  -0.1188
  F  F491  1  0.311510  0.949200  0.039620  1.0  -0.1849
  F  F492  1  0.285730  0.831000  0.042460  1.0  -0.2053
  F  F493  1  0.254540  0.923000  0.089280  1.0  -0.22
  F  F494  1  0.047540  0.723200  0.926880  1.0  -0.2191
  F  F495  1  0.937260  0.793100  0.889320  1.0  -0.3188
  F  F496  1  0.072550  0.799500  0.883300  1.0  -0.1876
  F  F497  1  0.702760  0.566400  0.117720  1.0  -0.2028
  F  F498  1  0.824970  0.601600  0.115540  1.0  -0.2316
  F  F499  1  0.750580  0.692900  0.135760  1.0  -0.1927
  F  F500  1  0.441230  0.613700  0.009260  1.0  -0.1707
  F  F501  1  0.450600  0.652500  0.944000  1.0  -0.2037
  F  F502  1  0.491300  0.549400  0.948600  1.0  -0.2614
  F  F503  1  0.211480  0.747800  0.401960  1.0  -0.1846
  F  F504  1  0.150720  0.817600  0.350240  1.0  -0.1822
  F  F505  1  0.251730  0.749300  0.341660  1.0  -0.2105
  F  F506  1  0.853330  0.740300  0.281660  1.0  -0.1664
  F  F507  1  0.807790  0.620700  0.265580  1.0  -0.1687
  F  F508  1  0.831090  0.671700  0.333180  1.0  -0.1941
  F  F509  1  0.375160  0.382400  0.320920  1.0  -0.2172
  F  F510  1  0.435640  0.493100  0.338680  1.0  -0.2331
  F  F511  1  0.427250  0.464000  0.274900  1.0  -0.2599
  F  F512  1  0.171170  0.672200  0.208140  1.0  -0.2029
  F  F513  1  0.226340  0.589900  0.175680  1.0  -0.1927
  F  F514  1  0.085740  0.583000  0.170680  1.0  -0.2546
  F  F515  1  0.013380  0.849600  0.519560  1.0  -0.1704
  F  F516  1  0.008320  0.926500  0.577040  1.0  -0.1871
  F  F517  1  0.897540  0.841800  0.549280  1.0  -0.1402
  F  F518  1  0.176480  0.876300  0.709560  1.0  -0.1802
  F  F519  1  0.247200  0.762500  0.723600  1.0  -0.1131
  F  F520  1  0.728110  0.449200  0.039620  1.0  -0.1848
  F  F521  1  0.756730  0.331000  0.042460  1.0  -0.2035
  F  F522  1  0.834740  0.423000  0.089280  1.0  -0.221
  F  F523  1  0.879340  0.223200  0.926880  1.0  -0.2185
  F  F524  1  0.952060  0.293100  0.889320  1.0  -0.3216
  F  F525  1  0.810750  0.299500  0.883300  1.0  -0.1855
  F  F526  1  0.414960  0.066400  0.117720  1.0  -0.1994
  F  F527  1  0.290570  0.101600  0.115540  1.0  -0.2321
  F  F528  1  0.385180  0.192900  0.135760  1.0  -0.1882
  F  F529  1  0.568030  0.113700  0.009260  1.0  -0.1648
  F  F530  1  0.493400  0.152500  0.944000  1.0  -0.2021
  F  F531  1  0.457300  0.049400  0.948600  1.0  -0.2589
  F  F532  1  0.809520  0.752200  0.598040  1.0  -0.1887
  F  F533  1  0.800480  0.682400  0.649760  1.0  -0.1805
  F  F534  1  0.910070  0.750700  0.658340  1.0  -0.212
  F  F535  1  0.571670  0.759700  0.718340  1.0  -0.1674
  F  F536  1  0.542210  0.879300  0.734420  1.0  -0.1697
  F  F537  1  0.497910  0.828300  0.666820  1.0  -0.192
  F  F538  1  0.054240  0.117600  0.679080  1.0  -0.2184
  F  F539  1  0.096960  0.006900  0.661320  1.0  -0.2316
  F  F540  1  0.152350  0.036000  0.725100  1.0  -0.2605
  F  F541  1  0.963030  0.827800  0.791860  1.0  -0.2034
  F  F542  1  0.050660  0.910100  0.824320  1.0  -0.1901
  F  F543  1  0.915060  0.917000  0.829320  1.0  -0.2598
  F  F544  1  0.493820  0.650400  0.480440  1.0  -0.1718
  F  F545  1  0.431280  0.573500  0.422960  1.0  -0.186
  F  F546  1  0.348260  0.658200  0.450720  1.0  -0.1429
  F  F547  1  0.466920  0.623700  0.290440  1.0  -0.1795
  F  F548  1  0.523600  0.737500  0.276400  1.0  -0.1158
  F  F549  1  0.688490  0.050800  0.960380  1.0  -0.1834
  F  F550  1  0.714270  0.169000  0.957540  1.0  -0.2052
  F  F551  1  0.745460  0.077000  0.910720  1.0  -0.2188
  F  F552  1  0.952460  0.276800  0.073120  1.0  -0.2191
  F  F553  1  0.062740  0.206900  0.110680  1.0  -0.318
  F  F554  1  0.927450  0.200500  0.116700  1.0  -0.187
  F  F555  1  0.297240  0.433600  0.882280  1.0  -0.2042
  F  F556  1  0.175030  0.398400  0.884460  1.0  -0.2314
  F  F557  1  0.249420  0.307100  0.864240  1.0  -0.1929
  F  F558  1  0.558770  0.386300  0.990740  1.0  -0.1716
  F  F559  1  0.549400  0.347500  0.056000  1.0  -0.2039
  F  F560  1  0.508700  0.450600  0.051400  1.0  -0.2588
