# generated using pymatgen
data_NiH9C8NO4
_symmetry_space_group_name_H-M   'P 1'
_cell_length_a   18.80490000
_cell_length_b   18.80490000
_cell_length_c   18.80490000
_cell_angle_alpha   60.00000000
_cell_angle_beta   60.00000000
_cell_angle_gamma   60.00000000
_symmetry_Int_Tables_number   1
_chemical_formula_structural   NiH9C8NO4
_chemical_formula_sum   'Ni12 H108 C96 N12 O48'
_cell_volume   4702.16740895
_cell_formula_units_Z   12
loop_
 _symmetry_equiv_pos_site_id
 _symmetry_equiv_pos_as_xyz
  1  'x, y, z'
loop_
 _atom_site_type_symbol
 _atom_site_label
 _atom_site_symmetry_multiplicity
 _atom_site_fract_x
 _atom_site_fract_y
 _atom_site_fract_z
 _atom_site_occupancy
 _atom_site_charge
  Ni  Ni1  1  0.927860  0.500000  0.072140  1.0  0.8035
  Ni  Ni2  1  0.500000  0.927860  0.500000  1.0  0.8033
  Ni  Ni3  1  0.072140  0.500000  0.927860  1.0  0.8034
  Ni  Ni4  1  0.500000  0.072140  0.500000  1.0  0.8031
  Ni  Ni5  1  0.927860  0.072140  0.500000  1.0  0.803
  Ni  Ni6  1  0.500000  0.500000  0.072140  1.0  0.8046
  Ni  Ni7  1  0.072140  0.927860  0.500000  1.0  0.803
  Ni  Ni8  1  0.500000  0.500000  0.927860  1.0  0.8044
  Ni  Ni9  1  0.927860  0.500000  0.500000  1.0  0.8035
  Ni  Ni10  1  0.500000  0.072140  0.927860  1.0  0.8033
  Ni  Ni11  1  0.072140  0.500000  0.500000  1.0  0.8031
  Ni  Ni12  1  0.500000  0.927860  0.072140  1.0  0.8032
  H  H13  1  0.738800  0.524200  0.129800  1.0  0.1081
  H  H14  1  0.524200  0.738800  0.607200  1.0  0.1063
  H  H15  1  0.129800  0.607200  0.738800  1.0  0.1058
  H  H16  1  0.607200  0.129800  0.524200  1.0  0.1027
  H  H17  1  0.738800  0.129800  0.607200  1.0  0.1073
  H  H18  1  0.524200  0.607200  0.129800  1.0  0.1084
  H  H19  1  0.129800  0.738800  0.524200  1.0  0.1075
  H  H20  1  0.607200  0.524200  0.738800  1.0  0.1029
  H  H21  1  0.738800  0.607200  0.524200  1.0  0.1069
  H  H22  1  0.524200  0.129800  0.738800  1.0  0.1075
  H  H23  1  0.129800  0.524200  0.607200  1.0  0.1054
  H  H24  1  0.607200  0.738800  0.129800  1.0  0.1061
  H  H25  1  0.475800  0.261200  0.870200  1.0  0.1069
  H  H26  1  0.261200  0.475800  0.392800  1.0  0.1083
  H  H27  1  0.392800  0.870200  0.261200  1.0  0.1044
  H  H28  1  0.870200  0.392800  0.475800  1.0  0.1069
  H  H29  1  0.870200  0.261200  0.392800  1.0  0.108
  H  H30  1  0.392800  0.475800  0.870200  1.0  0.1041
  H  H31  1  0.261200  0.870200  0.475800  1.0  0.1073
  H  H32  1  0.475800  0.392800  0.261200  1.0  0.1088
  H  H33  1  0.392800  0.261200  0.475800  1.0  0.1068
  H  H34  1  0.870200  0.475800  0.261200  1.0  0.1063
  H  H35  1  0.475800  0.870200  0.392800  1.0  0.1076
  H  H36  1  0.261200  0.392800  0.870200  1.0  0.1082
  H  H37  1  0.261200  0.475800  0.870200  1.0  0.1063
  H  H38  1  0.475800  0.261200  0.392800  1.0  0.1096
  H  H39  1  0.870200  0.392800  0.261200  1.0  0.1061
  H  H40  1  0.392800  0.870200  0.475800  1.0  0.104
  H  H41  1  0.261200  0.870200  0.392800  1.0  0.1084
  H  H42  1  0.475800  0.392800  0.870200  1.0  0.1084
  H  H43  1  0.870200  0.261200  0.475800  1.0  0.1074
  H  H44  1  0.392800  0.475800  0.261200  1.0  0.1052
  H  H45  1  0.261200  0.392800  0.475800  1.0  0.108
  H  H46  1  0.475800  0.870200  0.261200  1.0  0.1066
  H  H47  1  0.870200  0.475800  0.392800  1.0  0.1076
  H  H48  1  0.392800  0.261200  0.870200  1.0  0.1066
  H  H49  1  0.524200  0.738800  0.129800  1.0  0.1084
  H  H50  1  0.738800  0.524200  0.607200  1.0  0.1057
  H  H51  1  0.607200  0.129800  0.738800  1.0  0.1031
  H  H52  1  0.129800  0.607200  0.524200  1.0  0.1064
  H  H53  1  0.129800  0.738800  0.607200  1.0  0.1062
  H  H54  1  0.607200  0.524200  0.129800  1.0  0.1034
  H  H55  1  0.738800  0.129800  0.524200  1.0  0.1081
  H  H56  1  0.524200  0.607200  0.738800  1.0  0.1072
  H  H57  1  0.607200  0.738800  0.524200  1.0  0.106
  H  H58  1  0.129800  0.524200  0.738800  1.0  0.1062
  H  H59  1  0.524200  0.129800  0.607200  1.0  0.107
  H  H60  1  0.738800  0.607200  0.129800  1.0  0.1071
  H  H61  1  0.776000  0.500000  0.224000  1.0  0.1089
  H  H62  1  0.500000  0.776000  0.500000  1.0  0.1066
  H  H63  1  0.224000  0.500000  0.776000  1.0  0.1053
  H  H64  1  0.500000  0.224000  0.500000  1.0  0.1053
  H  H65  1  0.776000  0.224000  0.500000  1.0  0.1101
  H  H66  1  0.500000  0.500000  0.224000  1.0  0.1107
  H  H67  1  0.224000  0.776000  0.500000  1.0  0.1055
  H  H68  1  0.500000  0.500000  0.776000  1.0  0.1079
  H  H69  1  0.776000  0.500000  0.500000  1.0  0.1083
  H  H70  1  0.500000  0.224000  0.776000  1.0  0.1036
  H  H71  1  0.224000  0.500000  0.500000  1.0  0.1063
  H  H72  1  0.500000  0.776000  0.224000  1.0  0.1078
  H  H73  1  0.014200  0.226800  0.226800  1.0  0.1087
  H  H74  1  0.226800  0.014200  0.532200  1.0  0.1099
  H  H75  1  0.226800  0.532200  0.014200  1.0  0.1103
  H  H76  1  0.532200  0.226800  0.226800  1.0  0.11
  H  H77  1  0.014200  0.226800  0.532200  1.0  0.109
  H  H78  1  0.226800  0.532200  0.226800  1.0  0.1106
  H  H79  1  0.226800  0.014200  0.226800  1.0  0.1096
  H  H80  1  0.532200  0.226800  0.014200  1.0  0.1099
  H  H81  1  0.014200  0.532200  0.226800  1.0  0.1086
  H  H82  1  0.226800  0.226800  0.014200  1.0  0.1094
  H  H83  1  0.226800  0.226800  0.532200  1.0  0.1094
  H  H84  1  0.532200  0.014200  0.226800  1.0  0.1108
  H  H85  1  0.773200  0.985800  0.773200  1.0  0.1093
  H  H86  1  0.985800  0.773200  0.467800  1.0  0.1091
  H  H87  1  0.467800  0.773200  0.985800  1.0  0.11
  H  H88  1  0.773200  0.467800  0.773200  1.0  0.1108
  H  H89  1  0.773200  0.985800  0.467800  1.0  0.1088
  H  H90  1  0.467800  0.773200  0.773200  1.0  0.1102
  H  H91  1  0.985800  0.773200  0.773200  1.0  0.1093
  H  H92  1  0.773200  0.467800  0.985800  1.0  0.1111
  H  H93  1  0.467800  0.985800  0.773200  1.0  0.1092
  H  H94  1  0.773200  0.773200  0.985800  1.0  0.1094
  H  H95  1  0.773200  0.773200  0.467800  1.0  0.1096
  H  H96  1  0.985800  0.467800  0.773200  1.0  0.1092
  H  H97  1  0.696300  0.543000  0.217700  1.0  0.1243
  H  H98  1  0.543000  0.696300  0.543000  1.0  0.1267
  H  H99  1  0.217700  0.543000  0.696300  1.0  0.1286
  H  H100  1  0.543000  0.217700  0.543000  1.0  0.1266
  H  H101  1  0.696300  0.217700  0.543000  1.0  0.1229
  H  H102  1  0.543000  0.543000  0.217700  1.0  0.1287
  H  H103  1  0.217700  0.696300  0.543000  1.0  0.1283
  H  H104  1  0.543000  0.543000  0.696300  1.0  0.1283
  H  H105  1  0.696300  0.543000  0.543000  1.0  0.124
  H  H106  1  0.543000  0.217700  0.696300  1.0  0.1258
  H  H107  1  0.217700  0.543000  0.543000  1.0  0.1298
  H  H108  1  0.543000  0.696300  0.217700  1.0  0.1281
  H  H109  1  0.457000  0.303700  0.782300  1.0  0.1255
  H  H110  1  0.303700  0.457000  0.457000  1.0  0.1262
  H  H111  1  0.457000  0.782300  0.303700  1.0  0.1279
  H  H112  1  0.782300  0.457000  0.457000  1.0  0.1243
  H  H113  1  0.782300  0.303700  0.457000  1.0  0.1225
  H  H114  1  0.457000  0.457000  0.782300  1.0  0.128
  H  H115  1  0.303700  0.782300  0.457000  1.0  0.1251
  H  H116  1  0.457000  0.457000  0.303700  1.0  0.1283
  H  H117  1  0.457000  0.303700  0.457000  1.0  0.1254
  H  H118  1  0.782300  0.457000  0.303700  1.0  0.1243
  H  H119  1  0.457000  0.782300  0.457000  1.0  0.1264
  H  H120  1  0.303700  0.457000  0.782300  1.0  0.125
  C  C121  1  0.069400  0.334760  0.069400  1.0  0.7025
  C  C122  1  0.113600  0.241940  0.113600  1.0  -0.1737
  C  C123  1  0.334760  0.069400  0.526440  1.0  0.7026
  C  C124  1  0.241940  0.113600  0.530860  1.0  -0.1746
  C  C125  1  0.069400  0.526440  0.069400  1.0  0.7022
  C  C126  1  0.113600  0.530860  0.113600  1.0  -0.1752
  C  C127  1  0.526440  0.069400  0.334760  1.0  0.7032
  C  C128  1  0.530860  0.113600  0.241940  1.0  -0.1758
  C  C129  1  0.069400  0.069400  0.526440  1.0  0.7032
  C  C130  1  0.113600  0.113600  0.530860  1.0  -0.1737
  C  C131  1  0.334760  0.526440  0.069400  1.0  0.7028
  C  C132  1  0.241940  0.530860  0.113600  1.0  -0.1748
  C  C133  1  0.069400  0.069400  0.334760  1.0  0.7032
  C  C134  1  0.113600  0.113600  0.241940  1.0  -0.1748
  C  C135  1  0.526440  0.334760  0.069400  1.0  0.7026
  C  C136  1  0.530860  0.241940  0.113600  1.0  -0.1744
  C  C137  1  0.069400  0.526440  0.334760  1.0  0.702
  C  C138  1  0.113600  0.530860  0.241940  1.0  -0.1757
  C  C139  1  0.334760  0.069400  0.069400  1.0  0.7029
  C  C140  1  0.241940  0.113600  0.113600  1.0  -0.1746
  C  C141  1  0.069400  0.334760  0.526440  1.0  0.7027
  C  C142  1  0.113600  0.241940  0.530860  1.0  -0.1738
  C  C143  1  0.526440  0.069400  0.069400  1.0  0.7036
  C  C144  1  0.530860  0.113600  0.113600  1.0  -0.1748
  C  C145  1  0.665240  0.930600  0.930600  1.0  0.7035
  C  C146  1  0.758060  0.886400  0.886400  1.0  -0.1746
  C  C147  1  0.930600  0.665240  0.473560  1.0  0.7027
  C  C148  1  0.886400  0.758060  0.469140  1.0  -0.1743
  C  C149  1  0.473560  0.930600  0.930600  1.0  0.7034
  C  C150  1  0.469140  0.886400  0.886400  1.0  -0.1755
  C  C151  1  0.930600  0.473560  0.665240  1.0  0.7008
  C  C152  1  0.886400  0.469140  0.758060  1.0  -0.1749
  C  C153  1  0.930600  0.930600  0.473560  1.0  0.7027
  C  C154  1  0.886400  0.886400  0.469140  1.0  -0.1739
  C  C155  1  0.473560  0.665240  0.930600  1.0  0.7029
  C  C156  1  0.469140  0.758060  0.886400  1.0  -0.1754
  C  C157  1  0.930600  0.930600  0.665240  1.0  0.7031
  C  C158  1  0.886400  0.886400  0.758060  1.0  -0.1729
  C  C159  1  0.665240  0.473560  0.930600  1.0  0.7028
  C  C160  1  0.758060  0.469140  0.886400  1.0  -0.1752
  C  C161  1  0.473560  0.930600  0.665240  1.0  0.7037
  C  C162  1  0.469140  0.886400  0.758060  1.0  -0.1755
  C  C163  1  0.930600  0.665240  0.930600  1.0  0.7024
  C  C164  1  0.886400  0.758060  0.886400  1.0  -0.1741
  C  C165  1  0.665240  0.930600  0.473560  1.0  0.7035
  C  C166  1  0.758060  0.886400  0.469140  1.0  -0.1743
  C  C167  1  0.930600  0.473560  0.930600  1.0  0.7007
  C  C168  1  0.886400  0.469140  0.886400  1.0  -0.175
  C  C169  1  0.071540  0.198500  0.198500  1.0  0.0337
  C  C170  1  0.198500  0.071540  0.531460  1.0  0.0327
  C  C171  1  0.198500  0.531460  0.071540  1.0  0.0339
  C  C172  1  0.531460  0.198500  0.198500  1.0  0.0328
  C  C173  1  0.071540  0.198500  0.531460  1.0  0.0339
  C  C174  1  0.198500  0.531460  0.198500  1.0  0.0345
  C  C175  1  0.198500  0.071540  0.198500  1.0  0.0332
  C  C176  1  0.531460  0.198500  0.071540  1.0  0.0322
  C  C177  1  0.071540  0.531460  0.198500  1.0  0.034
  C  C178  1  0.198500  0.198500  0.071540  1.0  0.0322
  C  C179  1  0.198500  0.198500  0.531460  1.0  0.0325
  C  C180  1  0.531460  0.071540  0.198500  1.0  0.0332
  C  C181  1  0.801500  0.928460  0.801500  1.0  0.0338
  C  C182  1  0.928460  0.801500  0.468540  1.0  0.0339
  C  C183  1  0.468540  0.801500  0.928460  1.0  0.0326
  C  C184  1  0.801500  0.468540  0.801500  1.0  0.0336
  C  C185  1  0.801500  0.928460  0.468540  1.0  0.0337
  C  C186  1  0.468540  0.801500  0.801500  1.0  0.0322
  C  C187  1  0.928460  0.801500  0.801500  1.0  0.034
  C  C188  1  0.801500  0.468540  0.928460  1.0  0.034
  C  C189  1  0.468540  0.928460  0.801500  1.0  0.0345
  C  C190  1  0.801500  0.801500  0.928460  1.0  0.0322
  C  C191  1  0.801500  0.801500  0.468540  1.0  0.0321
  C  C192  1  0.928460  0.468540  0.801500  1.0  0.0349
  C  C193  1  0.743000  0.547000  0.163000  1.0  -0.2637
  C  C194  1  0.547000  0.743000  0.547000  1.0  -0.2606
  C  C195  1  0.163000  0.547000  0.743000  1.0  -0.2661
  C  C196  1  0.547000  0.163000  0.547000  1.0  -0.2645
  C  C197  1  0.743000  0.163000  0.547000  1.0  -0.2648
  C  C198  1  0.547000  0.547000  0.163000  1.0  -0.2626
  C  C199  1  0.163000  0.743000  0.547000  1.0  -0.2606
  C  C200  1  0.547000  0.547000  0.743000  1.0  -0.2631
  C  C201  1  0.743000  0.547000  0.547000  1.0  -0.2639
  C  C202  1  0.547000  0.163000  0.743000  1.0  -0.2651
  C  C203  1  0.163000  0.547000  0.547000  1.0  -0.2661
  C  C204  1  0.547000  0.743000  0.163000  1.0  -0.2609
  C  C205  1  0.453000  0.257000  0.837000  1.0  -0.2608
  C  C206  1  0.257000  0.453000  0.453000  1.0  -0.2652
  C  C207  1  0.453000  0.837000  0.257000  1.0  -0.2637
  C  C208  1  0.837000  0.453000  0.453000  1.0  -0.2644
  C  C209  1  0.837000  0.257000  0.453000  1.0  -0.2606
  C  C210  1  0.453000  0.453000  0.837000  1.0  -0.2629
  C  C211  1  0.257000  0.837000  0.453000  1.0  -0.2636
  C  C212  1  0.453000  0.453000  0.257000  1.0  -0.263
  C  C213  1  0.453000  0.257000  0.453000  1.0  -0.2609
  C  C214  1  0.837000  0.453000  0.257000  1.0  -0.2645
  C  C215  1  0.453000  0.837000  0.453000  1.0  -0.2628
  C  C216  1  0.257000  0.453000  0.837000  1.0  -0.264
  N  N217  1  0.823000  0.500000  0.177000  1.0  -0.0098
  N  N218  1  0.500000  0.823000  0.500000  1.0  -0.0176
  N  N219  1  0.177000  0.500000  0.823000  1.0  -0.0149
  N  N220  1  0.500000  0.177000  0.500000  1.0  -0.0186
  N  N221  1  0.823000  0.177000  0.500000  1.0  -0.0159
  N  N222  1  0.500000  0.500000  0.177000  1.0  -0.0083
  N  N223  1  0.177000  0.823000  0.500000  1.0  -0.0171
  N  N224  1  0.500000  0.500000  0.823000  1.0  -0.0104
  N  N225  1  0.823000  0.500000  0.500000  1.0  -0.0088
  N  N226  1  0.500000  0.177000  0.823000  1.0  -0.018
  N  N227  1  0.177000  0.500000  0.500000  1.0  -0.0152
  N  N228  1  0.500000  0.823000  0.177000  1.0  -0.0175
  O  O229  1  0.994010  0.372050  0.112490  1.0  -0.5978
  O  O230  1  0.372050  0.994010  0.521450  1.0  -0.601
  O  O231  1  0.112490  0.521450  0.994010  1.0  -0.5965
  O  O232  1  0.521450  0.112490  0.372050  1.0  -0.5976
  O  O233  1  0.994010  0.112490  0.521450  1.0  -0.5954
  O  O234  1  0.372050  0.521450  0.112490  1.0  -0.5977
  O  O235  1  0.112490  0.994010  0.372050  1.0  -0.5992
  O  O236  1  0.521450  0.372050  0.994010  1.0  -0.5974
  O  O237  1  0.994010  0.521450  0.372050  1.0  -0.596
  O  O238  1  0.372050  0.112490  0.994010  1.0  -0.5991
  O  O239  1  0.112490  0.372050  0.521450  1.0  -0.5964
  O  O240  1  0.521450  0.994010  0.112490  1.0  -0.5999
  O  O241  1  0.627950  0.005990  0.887510  1.0  -0.6009
  O  O242  1  0.005990  0.627950  0.478550  1.0  -0.5973
  O  O243  1  0.478550  0.887510  0.005990  1.0  -0.597
  O  O244  1  0.887510  0.478550  0.627950  1.0  -0.5965
  O  O245  1  0.887510  0.005990  0.478550  1.0  -0.5997
  O  O246  1  0.478550  0.627950  0.887510  1.0  -0.5967
  O  O247  1  0.005990  0.887510  0.627950  1.0  -0.5959
  O  O248  1  0.627950  0.478550  0.005990  1.0  -0.598
  O  O249  1  0.478550  0.005990  0.627950  1.0  -0.5992
  O  O250  1  0.887510  0.627950  0.005990  1.0  -0.5957
  O  O251  1  0.627950  0.887510  0.478550  1.0  -0.5982
  O  O252  1  0.005990  0.478550  0.887510  1.0  -0.597
  O  O253  1  0.005990  0.627950  0.887510  1.0  -0.598
  O  O254  1  0.627950  0.005990  0.478550  1.0  -0.6011
  O  O255  1  0.887510  0.478550  0.005990  1.0  -0.598
  O  O256  1  0.478550  0.887510  0.627950  1.0  -0.5961
  O  O257  1  0.005990  0.887510  0.478550  1.0  -0.5969
  O  O258  1  0.627950  0.478550  0.887510  1.0  -0.5978
  O  O259  1  0.887510  0.005990  0.627950  1.0  -0.5989
  O  O260  1  0.478550  0.627950  0.005990  1.0  -0.597
  O  O261  1  0.005990  0.478550  0.627950  1.0  -0.5962
  O  O262  1  0.627950  0.887510  0.005990  1.0  -0.5983
  O  O263  1  0.887510  0.627950  0.478550  1.0  -0.5952
  O  O264  1  0.478550  0.005990  0.887510  1.0  -0.6
  O  O265  1  0.372050  0.994010  0.112490  1.0  -0.6
  O  O266  1  0.994010  0.372050  0.521450  1.0  -0.5981
  O  O267  1  0.521450  0.112490  0.994010  1.0  -0.5966
  O  O268  1  0.112490  0.521450  0.372050  1.0  -0.5976
  O  O269  1  0.112490  0.994010  0.521450  1.0  -0.5993
  O  O270  1  0.521450  0.372050  0.112490  1.0  -0.5976
  O  O271  1  0.994010  0.112490  0.372050  1.0  -0.5962
  O  O272  1  0.372050  0.521450  0.994010  1.0  -0.5972
  O  O273  1  0.521450  0.994010  0.372050  1.0  -0.5998
  O  O274  1  0.112490  0.372050  0.994010  1.0  -0.5969
  O  O275  1  0.372050  0.112490  0.521450  1.0  -0.5989
  O  O276  1  0.994010  0.521450  0.112490  1.0  -0.5953
