# generated using pymatgen
data_CdH12C15(NO)4
_symmetry_space_group_name_H-M   'P 1'
_cell_length_a   25.46270000
_cell_length_b   9.88680000
_cell_length_c   21.95260000
_cell_angle_alpha   90.00000000
_cell_angle_beta   130.15680000
_cell_angle_gamma   90.00000000
_symmetry_Int_Tables_number   1
_chemical_formula_structural   CdH12C15(NO)4
_chemical_formula_sum   'Cd8 H96 C120 N32 O32'
_cell_volume   4223.76811789
_cell_formula_units_Z   8
loop_
 _symmetry_equiv_pos_site_id
 _symmetry_equiv_pos_as_xyz
  1  'x, y, z'
loop_
 _atom_site_type_symbol
 _atom_site_label
 _atom_site_symmetry_multiplicity
 _atom_site_fract_x
 _atom_site_fract_y
 _atom_site_fract_z
 _atom_site_occupancy
 _atom_site_charge
  Cd  Cd1  1  0.732010  0.410640  0.061640  1.0  0.9772
  Cd  Cd2  1  0.232010  0.910640  0.061640  1.0  0.9772
  Cd  Cd3  1  0.267990  0.410640  0.438360  1.0  0.9771
  Cd  Cd4  1  0.767990  0.910640  0.438360  1.0  0.9771
  Cd  Cd5  1  0.267990  0.589360  0.938360  1.0  0.977
  Cd  Cd6  1  0.767990  0.089360  0.938360  1.0  0.977
  Cd  Cd7  1  0.732010  0.589360  0.561640  1.0  0.9769
  Cd  Cd8  1  0.232010  0.089360  0.561640  1.0  0.9769
  H  H9  1  0.762000  0.325200  0.226200  1.0  0.0667
  H  H10  1  0.729300  0.364200  0.300100  1.0  0.1114
  H  H11  1  0.599800  0.649100  0.140400  1.0  0.1157
  H  H12  1  0.640000  0.607400  0.075600  1.0  0.077
  H  H13  1  0.493800  0.815800  0.179200  1.0  0.1291
  H  H14  1  0.379000  0.791500  0.071600  1.0  0.0711
  H  H15  1  0.400700  0.408500  0.056100  1.0  0.0779
  H  H16  1  0.515100  0.416000  0.162400  1.0  0.1222
  H  H17  1  0.603600  0.244700  0.338600  1.0  0.1327
  H  H18  1  0.620900  0.267400  0.282500  1.0  0.1106
  H  H19  1  0.709000  0.380000  0.441000  1.0  0.0745
  H  H20  1  0.391130  0.735430  0.224310  1.0  0.1194
  H  H21  1  0.262000  0.825200  0.226200  1.0  0.0667
  H  H22  1  0.229300  0.864200  0.300100  1.0  0.1114
  H  H23  1  0.099800  0.149100  0.140400  1.0  0.1157
  H  H24  1  0.140000  0.107400  0.075600  1.0  0.077
  H  H25  1  0.993800  0.315800  0.179200  1.0  0.1291
  H  H26  1  0.879000  0.291500  0.071600  1.0  0.0711
  H  H27  1  0.900700  0.908500  0.056100  1.0  0.0779
  H  H28  1  0.015100  0.916000  0.162400  1.0  0.1222
  H  H29  1  0.103600  0.744700  0.338600  1.0  0.1327
  H  H30  1  0.120900  0.767400  0.282500  1.0  0.1106
  H  H31  1  0.209000  0.880000  0.441000  1.0  0.0745
  H  H32  1  0.891130  0.235430  0.224310  1.0  0.1168
  H  H33  1  0.238000  0.325200  0.273800  1.0  0.0663
  H  H34  1  0.270700  0.364200  0.199900  1.0  0.1117
  H  H35  1  0.400200  0.649100  0.359600  1.0  0.115
  H  H36  1  0.360000  0.607400  0.424400  1.0  0.0736
  H  H37  1  0.506200  0.815800  0.320800  1.0  0.1283
  H  H38  1  0.621000  0.791500  0.428400  1.0  0.0703
  H  H39  1  0.599300  0.408500  0.443900  1.0  0.0775
  H  H40  1  0.484900  0.416000  0.337600  1.0  0.1223
  H  H41  1  0.396400  0.244700  0.161400  1.0  0.1293
  H  H42  1  0.379100  0.267400  0.217500  1.0  0.1105
  H  H43  1  0.291000  0.380000  0.059000  1.0  0.0735
  H  H44  1  0.608870  0.735430  0.275690  1.0  0.1163
  H  H45  1  0.738000  0.825200  0.273800  1.0  0.0663
  H  H46  1  0.770700  0.864200  0.199900  1.0  0.1117
  H  H47  1  0.900200  0.149100  0.359600  1.0  0.115
  H  H48  1  0.860000  0.107400  0.424400  1.0  0.0736
  H  H49  1  0.006200  0.315800  0.320800  1.0  0.1283
  H  H50  1  0.121000  0.291500  0.428400  1.0  0.0703
  H  H51  1  0.099300  0.908500  0.443900  1.0  0.0775
  H  H52  1  0.984900  0.916000  0.337600  1.0  0.1223
  H  H53  1  0.896400  0.744700  0.161400  1.0  0.1293
  H  H54  1  0.879100  0.767400  0.217500  1.0  0.1105
  H  H55  1  0.791000  0.880000  0.059000  1.0  0.0735
  H  H56  1  0.108870  0.235430  0.275690  1.0  0.1163
  H  H57  1  0.238000  0.674800  0.773800  1.0  0.0665
  H  H58  1  0.270700  0.635800  0.699900  1.0  0.112
  H  H59  1  0.400200  0.350900  0.859600  1.0  0.115
  H  H60  1  0.360000  0.392600  0.924400  1.0  0.0727
  H  H61  1  0.506200  0.184200  0.820800  1.0  0.1288
  H  H62  1  0.621000  0.208500  0.928400  1.0  0.0707
  H  H63  1  0.599300  0.591500  0.943900  1.0  0.0785
  H  H64  1  0.484900  0.584000  0.837600  1.0  0.1238
  H  H65  1  0.396400  0.755300  0.661400  1.0  0.1289
  H  H66  1  0.379100  0.732600  0.717500  1.0  0.1106
  H  H67  1  0.291000  0.620000  0.559000  1.0  0.0741
  H  H68  1  0.608870  0.264570  0.775690  1.0  0.1148
  H  H69  1  0.738000  0.174800  0.773800  1.0  0.0665
  H  H70  1  0.770700  0.135800  0.699900  1.0  0.112
  H  H71  1  0.900200  0.850900  0.859600  1.0  0.115
  H  H72  1  0.860000  0.892600  0.924400  1.0  0.0732
  H  H73  1  0.006200  0.684200  0.820800  1.0  0.1288
  H  H74  1  0.121000  0.708500  0.928400  1.0  0.0707
  H  H75  1  0.099300  0.091500  0.943900  1.0  0.0785
  H  H76  1  0.984900  0.084000  0.837600  1.0  0.1238
  H  H77  1  0.896400  0.255300  0.661400  1.0  0.1289
  H  H78  1  0.879100  0.232600  0.717500  1.0  0.1106
  H  H79  1  0.791000  0.120000  0.559000  1.0  0.0741
  H  H80  1  0.108870  0.764570  0.775690  1.0  0.1148
  H  H81  1  0.762000  0.674800  0.726200  1.0  0.0665
  H  H82  1  0.729300  0.635800  0.800100  1.0  0.1111
  H  H83  1  0.599800  0.350900  0.640400  1.0  0.1145
  H  H84  1  0.640000  0.392600  0.575600  1.0  0.0761
  H  H85  1  0.493800  0.184200  0.679200  1.0  0.1292
  H  H86  1  0.379000  0.208500  0.571600  1.0  0.0709
  H  H87  1  0.400700  0.591500  0.556100  1.0  0.0787
  H  H88  1  0.515100  0.584000  0.662400  1.0  0.1228
  H  H89  1  0.603600  0.755300  0.838600  1.0  0.1317
  H  H90  1  0.620900  0.732600  0.782500  1.0  0.1104
  H  H91  1  0.709000  0.620000  0.941000  1.0  0.0743
  H  H92  1  0.391130  0.264570  0.724310  1.0  0.1164
  H  H93  1  0.262000  0.174800  0.726200  1.0  0.0665
  H  H94  1  0.229300  0.135800  0.800100  1.0  0.1111
  H  H95  1  0.099800  0.850900  0.640400  1.0  0.1145
  H  H96  1  0.140000  0.892600  0.575600  1.0  0.0762
  H  H97  1  0.993800  0.684200  0.679200  1.0  0.1292
  H  H98  1  0.879000  0.708500  0.571600  1.0  0.0709
  H  H99  1  0.900700  0.091500  0.556100  1.0  0.0787
  H  H100  1  0.015100  0.084000  0.662400  1.0  0.1228
  H  H101  1  0.103600  0.255300  0.838600  1.0  0.1317
  H  H102  1  0.120900  0.232600  0.782500  1.0  0.1104
  H  H103  1  0.209000  0.120000  0.941000  1.0  0.0743
  H  H104  1  0.891130  0.764570  0.724310  1.0  0.1163
  C  C105  1  0.729000  0.391100  0.208900  1.0  0.1748
  C  C106  1  0.709400  0.413400  0.253700  1.0  -0.2611
  C  C107  1  0.659100  0.511300  0.228600  1.0  0.1741
  C  C108  1  0.633100  0.583000  0.159500  1.0  -0.2595
  C  C109  1  0.656900  0.555700  0.120300  1.0  0.1737
  C  C110  1  0.519500  0.618900  0.182200  1.0  0.2082
  C  C111  1  0.476500  0.732100  0.154600  1.0  -0.2196
  C  C112  1  0.407100  0.715800  0.089400  1.0  0.1876
  C  C113  1  0.420200  0.491500  0.080700  1.0  0.1655
  C  C114  1  0.489000  0.494700  0.144400  1.0  -0.2499
  C  C115  1  0.722300  0.618000  0.404900  1.0  0.6829
  C  C116  1  0.677400  0.501500  0.352100  1.0  0.1316
  C  C117  1  0.678100  0.384700  0.381400  1.0  -0.0642
  C  C118  1  0.640800  0.258100  0.337700  1.0  -0.34
  C  C119  1  0.687400  0.135200  0.373500  1.0  0.7344
  C  C120  1  0.229000  0.891100  0.208900  1.0  0.1748
  C  C121  1  0.209400  0.913400  0.253700  1.0  -0.262
  C  C122  1  0.159100  0.011300  0.228600  1.0  0.1741
  C  C123  1  0.133100  0.083000  0.159500  1.0  -0.2595
  C  C124  1  0.156900  0.055700  0.120300  1.0  0.1737
  C  C125  1  0.019500  0.118900  0.182200  1.0  0.2082
  C  C126  1  0.976500  0.232100  0.154600  1.0  -0.2264
  C  C127  1  0.907100  0.215800  0.089400  1.0  0.1876
  C  C128  1  0.920200  0.991500  0.080700  1.0  0.1655
  C  C129  1  0.989000  0.994700  0.144400  1.0  -0.2499
  C  C130  1  0.222300  0.118000  0.404900  1.0  0.6829
  C  C131  1  0.177400  0.001500  0.352100  1.0  0.1316
  C  C132  1  0.178100  0.884700  0.381400  1.0  -0.0642
  C  C133  1  0.140800  0.758100  0.337700  1.0  -0.34
  C  C134  1  0.187400  0.635200  0.373500  1.0  0.7344
  C  C135  1  0.271000  0.391100  0.291100  1.0  0.1742
  C  C136  1  0.290600  0.413400  0.246300  1.0  -0.2654
  C  C137  1  0.340900  0.511300  0.271400  1.0  0.1744
  C  C138  1  0.366900  0.583000  0.340500  1.0  -0.2607
  C  C139  1  0.343100  0.555700  0.379700  1.0  0.1722
  C  C140  1  0.480500  0.618900  0.317800  1.0  0.2078
  C  C141  1  0.523500  0.732100  0.345400  1.0  -0.2213
  C  C142  1  0.592900  0.715800  0.410600  1.0  0.1859
  C  C143  1  0.579800  0.491500  0.419300  1.0  0.1662
  C  C144  1  0.511000  0.494700  0.355600  1.0  -0.2493
  C  C145  1  0.277700  0.618000  0.095100  1.0  0.6841
  C  C146  1  0.322600  0.501500  0.147900  1.0  0.1303
  C  C147  1  0.321900  0.384700  0.118600  1.0  -0.0651
  C  C148  1  0.359200  0.258100  0.162300  1.0  -0.3409
  C  C149  1  0.312600  0.135200  0.126500  1.0  0.7326
  C  C150  1  0.771000  0.891100  0.291100  1.0  0.1742
  C  C151  1  0.790600  0.913400  0.246300  1.0  -0.2654
  C  C152  1  0.840900  0.011300  0.271400  1.0  0.1744
  C  C153  1  0.866900  0.083000  0.340500  1.0  -0.2607
  C  C154  1  0.843100  0.055700  0.379700  1.0  0.1722
  C  C155  1  0.980500  0.118900  0.317800  1.0  0.2078
  C  C156  1  0.023500  0.232100  0.345400  1.0  -0.2213
  C  C157  1  0.092900  0.215800  0.410600  1.0  0.1859
  C  C158  1  0.079800  0.991500  0.419300  1.0  0.1662
  C  C159  1  0.011000  0.994700  0.355600  1.0  -0.2493
  C  C160  1  0.777700  0.118000  0.095100  1.0  0.6841
  C  C161  1  0.822600  0.001500  0.147900  1.0  0.1303
  C  C162  1  0.821900  0.884700  0.118600  1.0  -0.0651
  C  C163  1  0.859200  0.758100  0.162300  1.0  -0.3409
  C  C164  1  0.812600  0.635200  0.126500  1.0  0.7326
  C  C165  1  0.271000  0.608900  0.791100  1.0  0.1742
  C  C166  1  0.290600  0.586600  0.746300  1.0  -0.2655
  C  C167  1  0.340900  0.488700  0.771400  1.0  0.1744
  C  C168  1  0.366900  0.417000  0.840500  1.0  -0.2601
  C  C169  1  0.343100  0.444300  0.879700  1.0  0.1726
  C  C170  1  0.480500  0.381100  0.817800  1.0  0.2077
  C  C171  1  0.523500  0.267900  0.845400  1.0  -0.2281
  C  C172  1  0.592900  0.284200  0.910600  1.0  0.1875
  C  C173  1  0.579800  0.508500  0.919300  1.0  0.1657
  C  C174  1  0.511000  0.505300  0.855600  1.0  -0.2506
  C  C175  1  0.277700  0.382000  0.595100  1.0  0.6842
  C  C176  1  0.322600  0.498500  0.647900  1.0  0.1304
  C  C177  1  0.321900  0.615300  0.618600  1.0  -0.0643
  C  C178  1  0.359200  0.741900  0.662300  1.0  -0.3409
  C  C179  1  0.312600  0.864800  0.626500  1.0  0.733
  C  C180  1  0.771000  0.108900  0.791100  1.0  0.1742
  C  C181  1  0.790600  0.086600  0.746300  1.0  -0.2655
  C  C182  1  0.840900  0.988700  0.771400  1.0  0.1744
  C  C183  1  0.866900  0.917000  0.840500  1.0  -0.2593
  C  C184  1  0.843100  0.944300  0.879700  1.0  0.1726
  C  C185  1  0.980500  0.881100  0.817800  1.0  0.2077
  C  C186  1  0.023500  0.767900  0.845400  1.0  -0.2272
  C  C187  1  0.092900  0.784200  0.910600  1.0  0.1875
  C  C188  1  0.079800  0.008500  0.919300  1.0  0.1657
  C  C189  1  0.011000  0.005300  0.855600  1.0  -0.2506
  C  C190  1  0.777700  0.882000  0.595100  1.0  0.6842
  C  C191  1  0.822600  0.998500  0.647900  1.0  0.1304
  C  C192  1  0.821900  0.115300  0.618600  1.0  -0.0643
  C  C193  1  0.859200  0.241900  0.662300  1.0  -0.3409
  C  C194  1  0.812600  0.364800  0.626500  1.0  0.733
  C  C195  1  0.729000  0.608900  0.708900  1.0  0.1754
  C  C196  1  0.709400  0.586600  0.753700  1.0  -0.2622
  C  C197  1  0.659100  0.488700  0.728600  1.0  0.1743
  C  C198  1  0.633100  0.417000  0.659500  1.0  -0.26
  C  C199  1  0.656900  0.444300  0.620300  1.0  0.1738
  C  C200  1  0.519500  0.381100  0.682200  1.0  0.208
  C  C201  1  0.476500  0.267900  0.654600  1.0  -0.2273
  C  C202  1  0.407100  0.284200  0.589400  1.0  0.1868
  C  C203  1  0.420200  0.508500  0.580700  1.0  0.1655
  C  C204  1  0.489000  0.505300  0.644400  1.0  -0.2492
  C  C205  1  0.722300  0.382000  0.904900  1.0  0.6836
  C  C206  1  0.677400  0.498500  0.852100  1.0  0.1314
  C  C207  1  0.678100  0.615300  0.881400  1.0  -0.0635
  C  C208  1  0.640800  0.741900  0.837700  1.0  -0.3407
  C  C209  1  0.687400  0.864800  0.873500  1.0  0.736
  C  C210  1  0.229000  0.108900  0.708900  1.0  0.1754
  C  C211  1  0.209400  0.086600  0.753700  1.0  -0.2622
  C  C212  1  0.159100  0.988700  0.728600  1.0  0.1743
  C  C213  1  0.133100  0.917000  0.659500  1.0  -0.2604
  C  C214  1  0.156900  0.944300  0.620300  1.0  0.1738
  C  C215  1  0.019500  0.881100  0.682200  1.0  0.208
  C  C216  1  0.976500  0.767900  0.654600  1.0  -0.2246
  C  C217  1  0.907100  0.784200  0.589400  1.0  0.1868
  C  C218  1  0.920200  0.008500  0.580700  1.0  0.1655
  C  C219  1  0.989000  0.005300  0.644400  1.0  -0.2492
  C  C220  1  0.222300  0.882000  0.904900  1.0  0.6836
  C  C221  1  0.177400  0.998500  0.852100  1.0  0.1314
  C  C222  1  0.178100  0.115300  0.881400  1.0  -0.0635
  C  C223  1  0.140800  0.241900  0.837700  1.0  -0.3407
  C  C224  1  0.187400  0.364800  0.873500  1.0  0.736
  N  N225  1  0.703400  0.458300  0.142100  1.0  -0.3614
  N  N226  1  0.633600  0.527500  0.268300  1.0  -0.0771
  N  N227  1  0.588500  0.636800  0.244400  1.0  -0.0723
  N  N228  1  0.378300  0.601200  0.051000  1.0  -0.3508
  N  N229  1  0.203400  0.958300  0.142100  1.0  -0.3614
  N  N230  1  0.133600  0.027500  0.268300  1.0  -0.0771
  N  N231  1  0.088500  0.136800  0.244400  1.0  -0.0723
  N  N232  1  0.878300  0.101200  0.051000  1.0  -0.3508
  N  N233  1  0.296600  0.458300  0.357900  1.0  -0.3608
  N  N234  1  0.366400  0.527500  0.231700  1.0  -0.0767
  N  N235  1  0.411500  0.636800  0.255600  1.0  -0.0719
  N  N236  1  0.621700  0.601200  0.449000  1.0  -0.3488
  N  N237  1  0.796600  0.958300  0.357900  1.0  -0.3608
  N  N238  1  0.866400  0.027500  0.231700  1.0  -0.0767
  N  N239  1  0.911500  0.136800  0.255600  1.0  -0.0719
  N  N240  1  0.121700  0.101200  0.449000  1.0  -0.3499
  N  N241  1  0.296600  0.541700  0.857900  1.0  -0.3615
  N  N242  1  0.366400  0.472500  0.731700  1.0  -0.0765
  N  N243  1  0.411500  0.363200  0.755600  1.0  -0.0705
  N  N244  1  0.621700  0.398800  0.949000  1.0  -0.3486
  N  N245  1  0.796600  0.041700  0.857900  1.0  -0.3615
  N  N246  1  0.866400  0.972500  0.731700  1.0  -0.0765
  N  N247  1  0.911500  0.863200  0.755600  1.0  -0.0705
  N  N248  1  0.121700  0.898800  0.949000  1.0  -0.3486
  N  N249  1  0.703400  0.541700  0.642100  1.0  -0.3611
  N  N250  1  0.633600  0.472500  0.768300  1.0  -0.0769
  N  N251  1  0.588500  0.363200  0.744400  1.0  -0.075
  N  N252  1  0.378300  0.398800  0.551000  1.0  -0.3503
  N  N253  1  0.203400  0.041700  0.642100  1.0  -0.3611
  N  N254  1  0.133600  0.972500  0.768300  1.0  -0.0769
  N  N255  1  0.088500  0.863200  0.744400  1.0  -0.0723
  N  N256  1  0.878300  0.898800  0.551000  1.0  -0.3503
  O  O257  1  0.717360  0.723100  0.369200  1.0  -0.589
  O  O258  1  0.762070  0.604400  0.479600  1.0  -0.6738
  O  O259  1  0.661300  0.020200  0.347200  1.0  -0.6277
  O  O260  1  0.751220  0.151800  0.429500  1.0  -0.6561
  O  O261  1  0.217360  0.223100  0.369200  1.0  -0.589
  O  O262  1  0.262070  0.104400  0.479600  1.0  -0.6738
  O  O263  1  0.161300  0.520200  0.347200  1.0  -0.6277
  O  O264  1  0.251220  0.651800  0.429500  1.0  -0.6561
  O  O265  1  0.282640  0.723100  0.130800  1.0  -0.589
  O  O266  1  0.237930  0.604400  0.020400  1.0  -0.6728
  O  O267  1  0.338700  0.020200  0.152800  1.0  -0.628
  O  O268  1  0.248780  0.151800  0.070500  1.0  -0.6538
  O  O269  1  0.782640  0.223100  0.130800  1.0  -0.589
  O  O270  1  0.737930  0.104400  0.020400  1.0  -0.6728
  O  O271  1  0.838700  0.520200  0.152800  1.0  -0.628
  O  O272  1  0.748780  0.651800  0.070500  1.0  -0.6538
  O  O273  1  0.282640  0.276900  0.630800  1.0  -0.5874
  O  O274  1  0.237930  0.395600  0.520400  1.0  -0.6727
  O  O275  1  0.338700  0.979800  0.652800  1.0  -0.6279
  O  O276  1  0.248780  0.848200  0.570500  1.0  -0.658
  O  O277  1  0.782640  0.776900  0.630800  1.0  -0.5874
  O  O278  1  0.737930  0.895600  0.520400  1.0  -0.6727
  O  O279  1  0.838700  0.479800  0.652800  1.0  -0.6279
  O  O280  1  0.748780  0.348200  0.570500  1.0  -0.6579
  O  O281  1  0.717360  0.276900  0.869200  1.0  -0.5885
  O  O282  1  0.762070  0.395600  0.979600  1.0  -0.6737
  O  O283  1  0.661300  0.979800  0.847200  1.0  -0.6282
  O  O284  1  0.751220  0.848200  0.929500  1.0  -0.6565
  O  O285  1  0.217360  0.776900  0.869200  1.0  -0.5885
  O  O286  1  0.262070  0.895600  0.979600  1.0  -0.6737
  O  O287  1  0.161300  0.479800  0.847200  1.0  -0.6282
  O  O288  1  0.251220  0.348200  0.929500  1.0  -0.6565
