# generated using pymatgen
data_ZnH12C15(NO)4
_symmetry_space_group_name_H-M   'P 1'
_cell_length_a   8.74100000
_cell_length_b   14.79600000
_cell_length_c   19.34000000
_cell_angle_alpha   90.00000000
_cell_angle_beta   90.00000000
_cell_angle_gamma   90.00000000
_symmetry_Int_Tables_number   1
_chemical_formula_structural   ZnH12C15(NO)4
_chemical_formula_sum   'Zn4 H48 C60 N16 O16'
_cell_volume   2501.27770824
_cell_formula_units_Z   4
loop_
 _symmetry_equiv_pos_site_id
 _symmetry_equiv_pos_as_xyz
  1  'x, y, z'
loop_
 _atom_site_type_symbol
 _atom_site_label
 _atom_site_symmetry_multiplicity
 _atom_site_fract_x
 _atom_site_fract_y
 _atom_site_fract_z
 _atom_site_occupancy
 _atom_site_charge
  Zn  Zn1  1  0.368540  0.044480  0.926700  1.0  0.8855
  Zn  Zn2  1  0.131460  0.955520  0.426700  1.0  0.8865
  Zn  Zn3  1  0.631460  0.544480  0.573300  1.0  0.8869
  Zn  Zn4  1  0.868540  0.455520  0.073300  1.0  0.8872
  H  H5  1  0.696300  0.865900  0.500400  1.0  0.124
  H  H6  1  0.155700  0.028800  0.691300  1.0  0.1377
  H  H7  1  0.737300  0.712100  0.499500  1.0  0.066
  H  H8  1  0.832700  0.116600  0.580200  1.0  0.153
  H  H9  1  0.778100  0.021600  0.606000  1.0  0.1194
  H  H10  1  0.158800  0.049300  0.808300  1.0  0.0855
  H  H11  1  0.374300  0.826900  0.644200  1.0  0.1297
  H  H12  1  0.418500  0.677900  0.638700  1.0  0.0834
  H  H13  1  0.589900  0.986000  0.819800  1.0  0.0884
  H  H14  1  0.605700  0.965400  0.702300  1.0  0.1346
  H  H15  1  0.295000  0.999000  0.595000  1.0  0.2888
  H  H16  1  0.689000  0.074000  0.467000  1.0  0.0965
  H  H17  1  0.803700  0.134100  0.000400  1.0  0.1241
  H  H18  1  0.344300  0.971200  0.191300  1.0  0.1378
  H  H19  1  0.762700  0.287900  0.999500  1.0  0.0659
  H  H20  1  0.667300  0.883400  0.080200  1.0  0.1551
  H  H21  1  0.721900  0.978400  0.106000  1.0  0.1199
  H  H22  1  0.341200  0.950700  0.308300  1.0  0.0854
  H  H23  1  0.125700  0.173100  0.144200  1.0  0.1309
  H  H24  1  0.081500  0.322100  0.138700  1.0  0.0828
  H  H25  1  0.910100  0.014000  0.319800  1.0  0.0883
  H  H26  1  0.894300  0.034600  0.202300  1.0  0.1348
  H  H27  1  0.205000  0.001000  0.095000  1.0  0.2892
  H  H28  1  0.811000  0.926000  0.967000  1.0  0.0962
  H  H29  1  0.303700  0.365900  0.999600  1.0  0.1241
  H  H30  1  0.844300  0.528800  0.808700  1.0  0.1389
  H  H31  1  0.262700  0.212100  0.000500  1.0  0.0659
  H  H32  1  0.167300  0.616600  0.919800  1.0  0.1534
  H  H33  1  0.221900  0.521600  0.894000  1.0  0.1189
  H  H34  1  0.841200  0.549300  0.691700  1.0  0.0859
  H  H35  1  0.625700  0.326900  0.855800  1.0  0.1308
  H  H36  1  0.581500  0.177900  0.861300  1.0  0.0829
  H  H37  1  0.410100  0.486000  0.680200  1.0  0.0886
  H  H38  1  0.394300  0.465400  0.797700  1.0  0.1345
  H  H39  1  0.705000  0.499000  0.905000  1.0  0.2892
  H  H40  1  0.311000  0.574000  0.033000  1.0  0.0948
  H  H41  1  0.196300  0.634100  0.499600  1.0  0.1241
  H  H42  1  0.655700  0.471200  0.308700  1.0  0.1379
  H  H43  1  0.237300  0.787900  0.500500  1.0  0.0658
  H  H44  1  0.332700  0.383400  0.419800  1.0  0.1543
  H  H45  1  0.278100  0.478400  0.394000  1.0  0.1178
  H  H46  1  0.658800  0.450700  0.191700  1.0  0.086
  H  H47  1  0.874300  0.673100  0.355800  1.0  0.1306
  H  H48  1  0.918500  0.822100  0.361300  1.0  0.0831
  H  H49  1  0.089900  0.514000  0.180200  1.0  0.0887
  H  H50  1  0.105700  0.534600  0.297700  1.0  0.1347
  H  H51  1  0.795000  0.501000  0.405000  1.0  0.2891
  H  H52  1  0.189000  0.426000  0.533000  1.0  0.0932
  C  C53  1  0.682400  0.058400  0.516700  1.0  0.0182
  C  C54  1  0.382500  0.997900  0.682500  1.0  0.268
  C  C55  1  0.551600  0.015200  0.521000  1.0  -0.1473
  C  C56  1  0.531700  0.865300  0.573300  1.0  0.2342
  C  C57  1  0.639500  0.828700  0.529400  1.0  -0.2638
  C  C58  1  0.245800  0.020900  0.716100  1.0  -0.2794
  C  C59  1  0.662800  0.735200  0.529000  1.0  0.1991
  C  C60  1  0.809300  0.055500  0.565500  1.0  -0.326
  C  C61  1  0.951900  0.013300  0.536000  1.0  0.7276
  C  C62  1  0.248600  0.031400  0.786500  1.0  0.1877
  C  C63  1  0.448900  0.805100  0.614300  1.0  -0.2619
  C  C64  1  0.476500  0.715700  0.610600  1.0  0.1765
  C  C65  1  0.502600  0.994500  0.793100  1.0  0.1852
  C  C66  1  0.513900  0.982800  0.722700  1.0  -0.3116
  C  C67  1  0.432900  0.018200  0.464700  1.0  0.658
  C  C68  1  0.817600  0.941600  0.016700  1.0  0.0181
  C  C69  1  0.117500  0.002100  0.182500  1.0  0.2658
  C  C70  1  0.948400  0.984800  0.021000  1.0  -0.1404
  C  C71  1  0.968300  0.134700  0.073300  1.0  0.2343
  C  C72  1  0.860500  0.171300  0.029400  1.0  -0.2637
  C  C73  1  0.254200  0.979100  0.216100  1.0  -0.2777
  C  C74  1  0.837200  0.264800  0.029000  1.0  0.2004
  C  C75  1  0.690700  0.944500  0.065500  1.0  -0.3246
  C  C76  1  0.548100  0.986700  0.036000  1.0  0.7278
  C  C77  1  0.251400  0.968600  0.286500  1.0  0.1857
  C  C78  1  0.051100  0.194900  0.114300  1.0  -0.2625
  C  C79  1  0.023500  0.284300  0.110600  1.0  0.1762
  C  C80  1  0.997400  0.005500  0.293100  1.0  0.1849
  C  C81  1  0.986100  0.017200  0.222700  1.0  -0.3098
  C  C82  1  0.067100  0.981800  0.964700  1.0  0.6545
  C  C83  1  0.317600  0.558400  0.983300  1.0  0.0122
  C  C84  1  0.617500  0.497900  0.817500  1.0  0.2679
  C  C85  1  0.448400  0.515200  0.979000  1.0  -0.1454
  C  C86  1  0.468300  0.365300  0.926700  1.0  0.2342
  C  C87  1  0.360500  0.328700  0.970600  1.0  -0.2642
  C  C88  1  0.754200  0.520900  0.783900  1.0  -0.2774
  C  C89  1  0.337200  0.235200  0.971000  1.0  0.2004
  C  C90  1  0.190700  0.555500  0.934500  1.0  -0.3241
  C  C91  1  0.048100  0.513300  0.964000  1.0  0.7293
  C  C92  1  0.751400  0.531400  0.713500  1.0  0.1844
  C  C93  1  0.551100  0.305100  0.885700  1.0  -0.2634
  C  C94  1  0.523500  0.215700  0.889400  1.0  0.1762
  C  C95  1  0.497400  0.494500  0.706900  1.0  0.185
  C  C96  1  0.486100  0.482800  0.777300  1.0  -0.3103
  C  C97  1  0.567100  0.518200  0.035300  1.0  0.655
  C  C98  1  0.182400  0.441600  0.483300  1.0  0.0126
  C  C99  1  0.882500  0.502100  0.317500  1.0  0.2668
  C  C100  1  0.051600  0.484800  0.479000  1.0  -0.1434
  C  C101  1  0.031700  0.634700  0.426700  1.0  0.2338
  C  C102  1  0.139500  0.671300  0.470600  1.0  -0.2652
  C  C103  1  0.745800  0.479100  0.283900  1.0  -0.28
  C  C104  1  0.162800  0.764800  0.471000  1.0  0.2002
  C  C105  1  0.309300  0.444500  0.434500  1.0  -0.3247
  C  C106  1  0.451900  0.486700  0.464000  1.0  0.7266
  C  C107  1  0.748600  0.468600  0.213500  1.0  0.1874
  C  C108  1  0.948900  0.694900  0.385700  1.0  -0.2638
  C  C109  1  0.976500  0.784300  0.389400  1.0  0.1764
  C  C110  1  0.002600  0.505500  0.206900  1.0  0.1861
  C  C111  1  0.013900  0.517200  0.277300  1.0  -0.312
  C  C112  1  0.932900  0.481800  0.535300  1.0  0.6547
  N  N113  1  0.379400  0.988500  0.612600  1.0  -0.2693
  N  N114  1  0.511600  0.957200  0.578300  1.0  0.0395
  N  N115  1  0.584100  0.676400  0.568600  1.0  -0.3881
  N  N116  1  0.371700  0.017600  0.825500  1.0  -0.3862
  N  N117  1  0.120600  0.011500  0.112600  1.0  -0.2696
  N  N118  1  0.988400  0.042800  0.078300  1.0  0.0379
  N  N119  1  0.915900  0.323600  0.068600  1.0  -0.3863
  N  N120  1  0.128300  0.982400  0.325500  1.0  -0.3847
  N  N121  1  0.620600  0.488500  0.887400  1.0  -0.2684
  N  N122  1  0.488400  0.457200  0.921700  1.0  0.037
  N  N123  1  0.415900  0.176400  0.931400  1.0  -0.3873
  N  N124  1  0.628300  0.517600  0.674500  1.0  -0.3844
  N  N125  1  0.879400  0.511500  0.387400  1.0  -0.2698
  N  N126  1  0.011600  0.542800  0.421700  1.0  0.0394
  N  N127  1  0.084100  0.823600  0.431400  1.0  -0.3865
  N  N128  1  0.871700  0.482400  0.174500  1.0  -0.3851
  O  O129  1  0.967700  0.023500  0.470300  1.0  -0.6355
  O  O130  1  0.045100  0.973400  0.572800  1.0  -0.6065
  O  O131  1  0.444400  0.071300  0.415000  1.0  -0.586
  O  O132  1  0.325700  0.960400  0.472500  1.0  -0.626
  O  O133  1  0.532300  0.976500  0.970300  1.0  -0.6337
  O  O134  1  0.454900  0.026600  0.072800  1.0  -0.6071
  O  O135  1  0.055600  0.928700  0.915000  1.0  -0.5838
  O  O136  1  0.174300  0.039600  0.972500  1.0  -0.6255
  O  O137  1  0.032300  0.523500  0.029700  1.0  -0.6352
  O  O138  1  0.954900  0.473400  0.927200  1.0  -0.6072
  O  O139  1  0.555600  0.571300  0.085000  1.0  -0.5867
  O  O140  1  0.674300  0.460400  0.027500  1.0  -0.626
  O  O141  1  0.467700  0.476500  0.529700  1.0  -0.6354
  O  O142  1  0.545100  0.526600  0.427200  1.0  -0.6072
  O  O143  1  0.944400  0.428700  0.585000  1.0  -0.5866
  O  O144  1  0.825700  0.539600  0.527500  1.0  -0.6255
