# generated using pymatgen
data_CdH6(C3O)4
_symmetry_space_group_name_H-M   'P 1'
_cell_length_a   7.57810000
_cell_length_b   9.81130000
_cell_length_c   11.79860000
_cell_angle_alpha   114.06000000
_cell_angle_beta   108.04500000
_cell_angle_gamma   91.34400000
_symmetry_Int_Tables_number   1
_chemical_formula_structural   CdH6(C3O)4
_chemical_formula_sum   'Cd2 H12 C24 O8'
_cell_volume   750.20935622
_cell_formula_units_Z   2
loop_
 _symmetry_equiv_pos_site_id
 _symmetry_equiv_pos_as_xyz
  1  'x, y, z'
loop_
 _atom_site_type_symbol
 _atom_site_label
 _atom_site_symmetry_multiplicity
 _atom_site_fract_x
 _atom_site_fract_y
 _atom_site_fract_z
 _atom_site_occupancy
 _atom_site_charge
  Cd  Cd1  1  0.242470  0.481970  0.001630  1.0  1.1035
  Cd  Cd2  1  0.757530  0.518030  0.998370  1.0  1.1043
  H  H3  1  0.571200  0.267300  0.699400  1.0  0.1447
  H  H4  1  0.953000  0.970300  0.655800  1.0  0.1435
  H  H5  1  0.484500  0.595500  0.616000  1.0  0.1389
  H  H6  1  0.266000  0.582500  0.423300  1.0  0.1552
  H  H7  1  0.038900  0.466400  0.716200  1.0  0.1662
  H  H8  1  0.271200  0.200800  0.536700  1.0  0.1386
  H  H9  1  0.428800  0.732700  0.300600  1.0  0.1443
  H  H10  1  0.047000  0.029700  0.344200  1.0  0.1444
  H  H11  1  0.515500  0.404500  0.384000  1.0  0.1386
  H  H12  1  0.734000  0.417500  0.576700  1.0  0.1553
  H  H13  1  0.961100  0.533600  0.283800  1.0  0.1667
  H  H14  1  0.728800  0.799200  0.463300  1.0  0.1388
  C  C15  1  0.964000  0.260000  0.808000  1.0  0.3394
  C  C16  1  0.808000  0.147000  0.688000  1.0  -0.086
  C  C17  1  0.613000  0.179000  0.649500  1.0  -0.0069
  C  C18  1  0.508000  0.069000  0.536800  1.0  0.1847
  C  C19  1  0.836000  0.999000  0.622000  1.0  -0.0461
  C  C20  1  0.434000  0.520000  0.798000  1.0  0.3536
  C  C21  1  0.303000  0.522000  0.682300  1.0  -0.0479
  C  C22  1  0.355000  0.564000  0.596000  1.0  -0.1043
  C  C23  1  0.226000  0.562000  0.484000  1.0  -0.0916
  C  C24  1  0.090000  0.483000  0.657600  1.0  -0.0254
  C  C25  1  0.008000  0.524000  0.459500  1.0  0.1486
  C  C26  1  0.299000  0.105000  0.488000  1.0  -0.0852
  C  C27  1  0.036000  0.740000  0.192000  1.0  0.34
  C  C28  1  0.192000  0.853000  0.312000  1.0  -0.0848
  C  C29  1  0.387000  0.821000  0.350500  1.0  -0.005
  C  C30  1  0.492000  0.931000  0.463200  1.0  0.1794
  C  C31  1  0.164000  0.001000  0.378000  1.0  -0.0473
  C  C32  1  0.566000  0.480000  0.202000  1.0  0.3553
  C  C33  1  0.697000  0.478000  0.317700  1.0  -0.0492
  C  C34  1  0.645000  0.436000  0.404000  1.0  -0.1044
  C  C35  1  0.774000  0.438000  0.516000  1.0  -0.0877
  C  C36  1  0.910000  0.517000  0.342400  1.0  -0.0278
  C  C37  1  0.992000  0.476000  0.540500  1.0  0.1476
  C  C38  1  0.701000  0.895000  0.512000  1.0  -0.0867
  O  O39  1  0.140000  0.228100  0.847600  1.0  -0.5409
  O  O40  1  0.410900  0.432500  0.850400  1.0  -0.6385
  O  O41  1  0.935900  0.417400  0.858300  1.0  -0.7066
  O  O42  1  0.643000  0.601000  0.839200  1.0  -0.637
  O  O43  1  0.860000  0.771900  0.152400  1.0  -0.5356
  O  O44  1  0.589100  0.567500  0.149600  1.0  -0.642
  O  O45  1  0.064100  0.582600  0.141700  1.0  -0.7077
  O  O46  1  0.357000  0.399000  0.160800  1.0  -0.6368
