# generated using pymatgen
data_ZnH10C10(NO4)2
_symmetry_space_group_name_H-M   'P 1'
_cell_length_a   9.59200000
_cell_length_b   9.59200000
_cell_length_c   11.02100000
_cell_angle_alpha   91.42040000
_cell_angle_beta   91.42040000
_cell_angle_gamma   105.97950000
_symmetry_Int_Tables_number   1
_chemical_formula_structural   ZnH10C10(NO4)2
_chemical_formula_sum   'Zn2 H20 C20 N4 O16'
_cell_volume   973.99554852
_cell_formula_units_Z   2
loop_
 _symmetry_equiv_pos_site_id
 _symmetry_equiv_pos_as_xyz
  1  'x, y, z'
loop_
 _atom_site_type_symbol
 _atom_site_label
 _atom_site_symmetry_multiplicity
 _atom_site_fract_x
 _atom_site_fract_y
 _atom_site_fract_z
 _atom_site_occupancy
 _atom_site_charge
  Zn  Zn1  1  0.500400  0.502230  0.252940  1.0  1.1547
  Zn  Zn2  1  0.497370  0.505190  0.752830  1.0  1.1466
  H  H3  1  0.532240  0.053280  0.724870  1.0  0.113
  H  H4  1  0.949670  0.472110  0.780890  1.0  0.116
  H  H5  1  0.464910  0.953910  0.281030  1.0  0.1164
  H  H6  1  0.048090  0.535370  0.225020  1.0  0.1115
  H  H7  1  0.876830  0.812500  0.457110  1.0  0.3646
  H  H8  1  0.827700  0.812400  0.604800  1.0  0.3702
  H  H9  1  0.918830  0.693470  0.554630  1.0  0.4136
  H  H10  1  0.238650  0.127430  0.861950  1.0  0.3902
  H  H11  1  0.225850  0.224360  0.991060  1.0  0.3713
  H  H12  1  0.361910  0.142400  0.979090  1.0  0.4137
  H  H13  1  0.146430  0.260640  0.367420  1.0  0.3791
  H  H14  1  0.080930  0.354780  0.474860  1.0  0.4086
  H  H15  1  0.247190  0.325750  0.496590  1.0  0.3034
  H  H16  1  0.770600  0.920300  0.967900  1.0  0.3797
  H  H17  1  0.680710  0.897740  0.100750  1.0  0.3804
  H  H18  1  0.828300  0.833190  0.083910  1.0  0.3365
  H  H19  1  0.670110  0.751950  0.005740  1.0  0.3829
  H  H20  1  0.743220  0.671560  0.507880  1.0  0.3787
  H  H21  1  0.094230  0.184780  0.503140  1.0  0.3586
  H  H22  1  0.187430  0.039980  0.993300  1.0  0.369
  C  C23  1  0.500200  0.119600  0.423840  1.0  -0.0991
  C  C24  1  0.493410  0.235120  0.336800  1.0  0.6131
  C  C25  1  0.519880  0.145730  0.551170  1.0  -0.0721
  C  C26  1  0.516550  0.030270  0.627860  1.0  -0.1048
  C  C27  1  0.544890  0.290850  0.609000  1.0  0.6512
  C  C28  1  0.882760  0.501820  0.082070  1.0  -0.1113
  C  C29  1  0.767230  0.507990  0.169230  1.0  0.6056
  C  C30  1  0.856900  0.483530  0.954610  1.0  -0.0846
  C  C31  1  0.972480  0.487150  0.877960  1.0  -0.0986
  C  C32  1  0.711810  0.458800  0.896630  1.0  0.6483
  C  C33  1  0.496970  0.887570  0.582070  1.0  -0.1117
  C  C34  1  0.503410  0.772090  0.669210  1.0  0.6126
  C  C35  1  0.477610  0.861470  0.454680  1.0  -0.073
  C  C36  1  0.480730  0.976910  0.378030  1.0  -0.1046
  C  C37  1  0.453000  0.716360  0.396790  1.0  0.6455
  C  C38  1  0.115020  0.505900  0.923850  1.0  -0.1188
  C  C39  1  0.230520  0.499140  0.836780  1.0  0.6079
  C  C40  1  0.140920  0.524520  0.051270  1.0  -0.0826
  C  C41  1  0.025310  0.520660  0.127940  1.0  -0.1047
  C  C42  1  0.286050  0.549410  0.109100  1.0  0.6493
  N  N43  1  0.841770  0.747550  0.531140  1.0  -0.7178
  N  N44  1  0.253440  0.133590  0.956340  1.0  -0.7098
  N  N45  1  0.142160  0.281490  0.460490  1.0  -0.7056
  N  N46  1  0.737440  0.850870  0.039600  1.0  -0.7231
  O  O47  1  0.515640  0.378940  0.375760  1.0  -0.6287
  O  O48  1  0.467480  0.204160  0.229120  1.0  -0.5445
  O  O49  1  0.653470  0.386960  0.587860  1.0  -0.5336
  O  O50  1  0.447410  0.316010  0.692350  1.0  -0.7363
  O  O51  1  0.623660  0.487120  0.130170  1.0  -0.6294
  O  O52  1  0.797930  0.532260  0.277090  1.0  -0.5436
  O  O53  1  0.615330  0.350670  0.918120  1.0  -0.5294
  O  O54  1  0.686920  0.555920  0.812810  1.0  -0.7387
  O  O55  1  0.481550  0.628350  0.630190  1.0  -0.6283
  O  O56  1  0.528760  0.802940  0.776930  1.0  -0.5471
  O  O57  1  0.344730  0.619930  0.418090  1.0  -0.5241
  O  O58  1  0.550460  0.691570  0.313270  1.0  -0.7361
  O  O59  1  0.374090  0.519780  0.875910  1.0  -0.6327
  O  O60  1  0.199800  0.474680  0.728930  1.0  -0.5512
  O  O61  1  0.382250  0.657910  0.087910  1.0  -0.527
  O  O62  1  0.311220  0.451870  0.192390  1.0  -0.7395
