# generated using pymatgen
data_AgH8(CN)6
_symmetry_space_group_name_H-M   'P 1'
_cell_length_a   8.70110000
_cell_length_b   20.85700000
_cell_length_c   8.28680000
_cell_angle_alpha   90.00000000
_cell_angle_beta   90.00000000
_cell_angle_gamma   90.00000000
_symmetry_Int_Tables_number   1
_chemical_formula_structural   AgH8(CN)6
_chemical_formula_sum   'Ag4 H32 C24 N24'
_cell_volume   1503.87887369
_cell_formula_units_Z   4
loop_
 _symmetry_equiv_pos_site_id
 _symmetry_equiv_pos_as_xyz
  1  'x, y, z'
loop_
 _atom_site_type_symbol
 _atom_site_label
 _atom_site_symmetry_multiplicity
 _atom_site_fract_x
 _atom_site_fract_y
 _atom_site_fract_z
 _atom_site_occupancy
 _atom_site_charge
  Ag  Ag1  1  0.500000  0.000000  0.750000  1.0  0.2954
  Ag  Ag2  1  0.000000  0.500000  0.750000  1.0  0.2954
  Ag  Ag3  1  0.500000  0.000000  0.250000  1.0  0.2954
  Ag  Ag4  1  0.000000  0.500000  0.250000  1.0  0.2954
  H  H5  1  0.698600  0.861100  0.764300  1.0  0.056
  H  H6  1  0.874500  0.771400  0.095900  1.0  0.0748
  H  H7  1  0.198600  0.361100  0.764300  1.0  0.056
  H  H8  1  0.374500  0.271400  0.095900  1.0  0.0748
  H  H9  1  0.301400  0.138900  0.764300  1.0  0.0564
  H  H10  1  0.125500  0.228600  0.095900  1.0  0.0751
  H  H11  1  0.801400  0.638900  0.764300  1.0  0.0564
  H  H12  1  0.625500  0.728600  0.095900  1.0  0.0751
  H  H13  1  0.301400  0.861100  0.735700  1.0  0.0563
  H  H14  1  0.125500  0.771400  0.404100  1.0  0.0759
  H  H15  1  0.801400  0.361100  0.735700  1.0  0.0563
  H  H16  1  0.625500  0.271400  0.404100  1.0  0.0759
  H  H17  1  0.698600  0.138900  0.735700  1.0  0.0558
  H  H18  1  0.874500  0.228600  0.404100  1.0  0.0756
  H  H19  1  0.198600  0.638900  0.735700  1.0  0.0558
  H  H20  1  0.374500  0.728600  0.404100  1.0  0.0756
  H  H21  1  0.301400  0.138900  0.235700  1.0  0.0564
  H  H22  1  0.125500  0.228600  0.904100  1.0  0.0756
  H  H23  1  0.801400  0.638900  0.235700  1.0  0.0564
  H  H24  1  0.625500  0.728600  0.904100  1.0  0.0756
  H  H25  1  0.698600  0.861100  0.235700  1.0  0.0556
  H  H26  1  0.874500  0.771400  0.904100  1.0  0.0759
  H  H27  1  0.198600  0.361100  0.235700  1.0  0.0556
  H  H28  1  0.374500  0.271400  0.904100  1.0  0.0759
  H  H29  1  0.698600  0.138900  0.264300  1.0  0.0559
  H  H30  1  0.874500  0.228600  0.595900  1.0  0.0748
  H  H31  1  0.198600  0.638900  0.264300  1.0  0.0559
  H  H32  1  0.374500  0.728600  0.595900  1.0  0.0748
  H  H33  1  0.301400  0.861100  0.264300  1.0  0.0566
  H  H34  1  0.125500  0.771400  0.595900  1.0  0.0753
  H  H35  1  0.801400  0.361100  0.264300  1.0  0.0566
  H  H36  1  0.625500  0.271400  0.595900  1.0  0.0753
  C  C37  1  0.684800  0.873700  0.872300  1.0  0.0947
  C  C38  1  0.184800  0.373700  0.872300  1.0  0.0947
  C  C39  1  0.315200  0.126300  0.872300  1.0  0.0939
  C  C40  1  0.815200  0.626300  0.872300  1.0  0.0939
  C  C41  1  0.315200  0.873700  0.627700  1.0  0.0921
  C  C42  1  0.815200  0.373700  0.627700  1.0  0.0921
  C  C43  1  0.684800  0.126300  0.627700  1.0  0.0922
  C  C44  1  0.184800  0.626300  0.627700  1.0  0.0922
  C  C45  1  0.315200  0.126300  0.127700  1.0  0.0921
  C  C46  1  0.815200  0.626300  0.127700  1.0  0.0921
  C  C47  1  0.684800  0.873700  0.127700  1.0  0.0925
  C  C48  1  0.184800  0.373700  0.127700  1.0  0.0925
  C  C49  1  0.684800  0.126300  0.372300  1.0  0.0937
  C  C50  1  0.184800  0.626300  0.372300  1.0  0.0937
  C  C51  1  0.315200  0.873700  0.372300  1.0  0.0946
  C  C52  1  0.815200  0.373700  0.372300  1.0  0.0946
  C  C53  1  0.809300  0.775400  0.000000  1.0  -0.0499
  C  C54  1  0.309300  0.275400  0.000000  1.0  -0.0499
  C  C55  1  0.190700  0.224600  0.000000  1.0  -0.0473
  C  C56  1  0.690700  0.724600  0.000000  1.0  -0.0473
  C  C57  1  0.190700  0.775400  0.500000  1.0  -0.0479
  C  C58  1  0.690700  0.275400  0.500000  1.0  -0.0479
  C  C59  1  0.809300  0.224600  0.500000  1.0  -0.0493
  C  C60  1  0.309300  0.724600  0.500000  1.0  -0.0493
  N  N61  1  0.619300  0.927200  0.917700  1.0  -0.2582
  N  N62  1  0.119300  0.427200  0.917700  1.0  -0.2582
  N  N63  1  0.380700  0.072800  0.917700  1.0  -0.2574
  N  N64  1  0.880700  0.572800  0.917700  1.0  -0.2574
  N  N65  1  0.380700  0.927200  0.582300  1.0  -0.2582
  N  N66  1  0.880700  0.427200  0.582300  1.0  -0.2582
  N  N67  1  0.619300  0.072800  0.582300  1.0  -0.2589
  N  N68  1  0.119300  0.572800  0.582300  1.0  -0.2589
  N  N69  1  0.380700  0.072800  0.082300  1.0  -0.2584
  N  N70  1  0.880700  0.572800  0.082300  1.0  -0.2584
  N  N71  1  0.619300  0.927200  0.082300  1.0  -0.2567
  N  N72  1  0.119300  0.427200  0.082300  1.0  -0.2567
  N  N73  1  0.619300  0.072800  0.417700  1.0  -0.2579
  N  N74  1  0.119300  0.572800  0.417700  1.0  -0.2579
  N  N75  1  0.380700  0.927200  0.417700  1.0  -0.2596
  N  N76  1  0.880700  0.427200  0.417700  1.0  -0.2596
  N  N77  1  0.729500  0.839100  0.000000  1.0  -0.0326
  N  N78  1  0.229500  0.339100  0.000000  1.0  -0.0326
  N  N79  1  0.270500  0.160900  0.000000  1.0  -0.0319
  N  N80  1  0.770500  0.660900  0.000000  1.0  -0.0319
  N  N81  1  0.270500  0.839100  0.500000  1.0  -0.0317
  N  N82  1  0.770500  0.339100  0.500000  1.0  -0.0317
  N  N83  1  0.729500  0.160900  0.500000  1.0  -0.0326
  N  N84  1  0.229500  0.660900  0.500000  1.0  -0.0326
