# generated using pymatgen
data_Cu2H15C18(NO)6
_symmetry_space_group_name_H-M   'P 1'
_cell_length_a   12.72310000
_cell_length_b   12.72310000
_cell_length_c   16.48120000
_cell_angle_alpha   90.00000000
_cell_angle_beta   90.00000000
_cell_angle_gamma   120.00000000
_symmetry_Int_Tables_number   1
_chemical_formula_structural   Cu2H15C18(NO)6
_chemical_formula_sum   'Cu8 H60 C72 N24 O24'
_cell_volume   2310.49664666
_cell_formula_units_Z   4
loop_
 _symmetry_equiv_pos_site_id
 _symmetry_equiv_pos_as_xyz
  1  'x, y, z'
loop_
 _atom_site_type_symbol
 _atom_site_label
 _atom_site_symmetry_multiplicity
 _atom_site_fract_x
 _atom_site_fract_y
 _atom_site_fract_z
 _atom_site_occupancy
 _atom_site_charge
  Cu  Cu1  1  0.488860  0.977710  0.250000  1.0  0.7942
  Cu  Cu2  1  0.022290  0.511140  0.250000  1.0  0.7915
  Cu  Cu3  1  0.488860  0.511140  0.250000  1.0  0.792
  Cu  Cu4  1  0.511140  0.022290  0.750000  1.0  0.7924
  Cu  Cu5  1  0.977710  0.488850  0.750000  1.0  0.7907
  Cu  Cu6  1  0.511140  0.488850  0.750000  1.0  0.7909
  Cu  Cu7  1  0.666667  0.333333  0.250000  1.0  0.3946
  Cu  Cu8  1  0.333333  0.666667  0.750000  1.0  0.3968
  H  H9  1  0.247000  0.145000  0.928700  1.0  0.2335
  H  H10  1  0.265000  0.249200  0.804300  1.0  0.1011
  H  H11  1  0.574500  0.431600  0.925100  1.0  0.1031
  H  H12  1  0.523200  0.292000  0.057300  1.0  0.0901
  H  H13  1  0.302700  0.072800  0.054000  1.0  0.0933
  H  H14  1  0.855000  0.102000  0.928700  1.0  0.235
  H  H15  1  0.750800  0.015800  0.804300  1.0  0.1018
  H  H16  1  0.568400  0.142900  0.925100  1.0  0.0997
  H  H17  1  0.708000  0.231200  0.057300  1.0  0.0901
  H  H18  1  0.927200  0.229900  0.054000  1.0  0.0943
  H  H19  1  0.898000  0.753000  0.928700  1.0  0.2352
  H  H20  1  0.984200  0.735000  0.804300  1.0  0.0976
  H  H21  1  0.857100  0.425500  0.925100  1.0  0.1028
  H  H22  1  0.768800  0.476800  0.057300  1.0  0.091
  H  H23  1  0.770100  0.697300  0.054000  1.0  0.0945
  H  H24  1  0.753000  0.855000  0.428700  1.0  0.234
  H  H25  1  0.735000  0.750800  0.304300  1.0  0.1008
  H  H26  1  0.425500  0.568400  0.425100  1.0  0.1003
  H  H27  1  0.476800  0.708000  0.557300  1.0  0.0907
  H  H28  1  0.697300  0.927200  0.554000  1.0  0.0948
  H  H29  1  0.145000  0.898000  0.428700  1.0  0.2336
  H  H30  1  0.249200  0.984200  0.304300  1.0  0.1017
  H  H31  1  0.431600  0.857100  0.425100  1.0  0.1041
  H  H32  1  0.292000  0.768800  0.557300  1.0  0.0902
  H  H33  1  0.072800  0.770100  0.554000  1.0  0.0955
  H  H34  1  0.102000  0.247000  0.428700  1.0  0.2348
  H  H35  1  0.015800  0.265000  0.304300  1.0  0.1001
  H  H36  1  0.142900  0.574500  0.425100  1.0  0.1009
  H  H37  1  0.231200  0.523200  0.557300  1.0  0.0907
  H  H38  1  0.229900  0.302700  0.554000  1.0  0.0945
  H  H39  1  0.145000  0.247000  0.071300  1.0  0.2351
  H  H40  1  0.249200  0.265000  0.195700  1.0  0.098
  H  H41  1  0.431600  0.574500  0.074900  1.0  0.1039
  H  H42  1  0.292000  0.523200  0.942700  1.0  0.0905
  H  H43  1  0.072800  0.302700  0.946000  1.0  0.0936
  H  H44  1  0.102000  0.855000  0.071300  1.0  0.2346
  H  H45  1  0.015800  0.750800  0.195700  1.0  0.0982
  H  H46  1  0.142900  0.568400  0.074900  1.0  0.102
  H  H47  1  0.231200  0.708000  0.942700  1.0  0.0902
  H  H48  1  0.229900  0.927200  0.946000  1.0  0.0927
  H  H49  1  0.753000  0.898000  0.071300  1.0  0.2352
  H  H50  1  0.735000  0.984200  0.195700  1.0  0.098
  H  H51  1  0.425500  0.857100  0.074900  1.0  0.0994
  H  H52  1  0.476800  0.768800  0.942700  1.0  0.09
  H  H53  1  0.697300  0.770100  0.946000  1.0  0.0934
  H  H54  1  0.855000  0.753000  0.571300  1.0  0.2354
  H  H55  1  0.750800  0.735000  0.695700  1.0  0.1
  H  H56  1  0.568400  0.425500  0.574900  1.0  0.1007
  H  H57  1  0.708000  0.476800  0.442700  1.0  0.0903
  H  H58  1  0.927200  0.697300  0.446000  1.0  0.0936
  H  H59  1  0.898000  0.145000  0.571300  1.0  0.2338
  H  H60  1  0.984200  0.249200  0.695700  1.0  0.099
  H  H61  1  0.857100  0.431600  0.574900  1.0  0.1033
  H  H62  1  0.768800  0.292000  0.442700  1.0  0.0904
  H  H63  1  0.770100  0.072800  0.446000  1.0  0.0943
  H  H64  1  0.247000  0.102000  0.571300  1.0  0.2338
  H  H65  1  0.265000  0.015800  0.695700  1.0  0.102
  H  H66  1  0.574500  0.142900  0.574900  1.0  0.1039
  H  H67  1  0.523200  0.231200  0.442700  1.0  0.0898
  H  H68  1  0.302700  0.229900  0.446000  1.0  0.0921
  C  C69  1  0.325900  0.273100  0.844800  1.0  0.2109
  C  C70  1  0.494100  0.371600  0.910900  1.0  0.0472
  C  C71  1  0.419800  0.274200  0.956700  1.0  0.1142
  C  C72  1  0.448600  0.235500  0.032500  1.0  -0.1065
  C  C73  1  0.382400  0.129100  0.072100  1.0  -0.1087
  C  C74  1  0.434100  0.100200  0.143700  1.0  0.6876
  C  C75  1  0.726900  0.052800  0.844800  1.0  0.2106
  C  C76  1  0.628400  0.122500  0.910900  1.0  0.0472
  C  C77  1  0.725800  0.145600  0.956700  1.0  0.1143
  C  C78  1  0.764500  0.213100  0.032500  1.0  -0.1066
  C  C79  1  0.870900  0.253300  0.072100  1.0  -0.1104
  C  C80  1  0.899800  0.333900  0.143700  1.0  0.6898
  C  C81  1  0.947200  0.674100  0.844800  1.0  0.2096
  C  C82  1  0.877500  0.505900  0.910900  1.0  0.0447
  C  C83  1  0.854400  0.580200  0.956700  1.0  0.1139
  C  C84  1  0.786900  0.551400  0.032500  1.0  -0.1079
  C  C85  1  0.746700  0.617600  0.072100  1.0  -0.1102
  C  C86  1  0.666100  0.565900  0.143700  1.0  0.6887
  C  C87  1  0.674100  0.726900  0.344800  1.0  0.2098
  C  C88  1  0.505900  0.628400  0.410900  1.0  0.046
  C  C89  1  0.580200  0.725800  0.456700  1.0  0.114
  C  C90  1  0.551400  0.764500  0.532500  1.0  -0.107
  C  C91  1  0.617600  0.870900  0.572100  1.0  -0.1089
  C  C92  1  0.565900  0.899800  0.643700  1.0  0.6881
  C  C93  1  0.273100  0.947200  0.344800  1.0  0.2098
  C  C94  1  0.371600  0.877500  0.410900  1.0  0.0481
  C  C95  1  0.274200  0.854400  0.456700  1.0  0.1118
  C  C96  1  0.235500  0.786900  0.532500  1.0  -0.1075
  C  C97  1  0.129100  0.746700  0.572100  1.0  -0.1112
  C  C98  1  0.100200  0.666100  0.643700  1.0  0.6888
  C  C99  1  0.052800  0.325900  0.344800  1.0  0.2103
  C  C100  1  0.122500  0.494100  0.410900  1.0  0.0442
  C  C101  1  0.145600  0.419800  0.456700  1.0  0.1144
  C  C102  1  0.213100  0.448600  0.532500  1.0  -0.1069
  C  C103  1  0.253300  0.382400  0.572100  1.0  -0.1094
  C  C104  1  0.333900  0.434100  0.643700  1.0  0.6887
  C  C105  1  0.273100  0.325900  0.155200  1.0  0.2113
  C  C106  1  0.371600  0.494100  0.089100  1.0  0.0454
  C  C107  1  0.274200  0.419800  0.043300  1.0  0.1145
  C  C108  1  0.235500  0.448600  0.967500  1.0  -0.1061
  C  C109  1  0.129100  0.382400  0.927900  1.0  -0.1092
  C  C110  1  0.100200  0.434100  0.856300  1.0  0.6883
  C  C111  1  0.052800  0.726900  0.155200  1.0  0.2111
  C  C112  1  0.122500  0.628400  0.089100  1.0  0.0482
  C  C113  1  0.145600  0.725800  0.043300  1.0  0.1141
  C  C114  1  0.213100  0.764500  0.967500  1.0  -0.1065
  C  C115  1  0.253300  0.870900  0.927900  1.0  -0.1098
  C  C116  1  0.333900  0.899800  0.856300  1.0  0.6888
  C  C117  1  0.674100  0.947200  0.155200  1.0  0.2123
  C  C118  1  0.505900  0.877500  0.089100  1.0  0.0487
  C  C119  1  0.580200  0.854400  0.043300  1.0  0.1139
  C  C120  1  0.551400  0.786900  0.967500  1.0  -0.1063
  C  C121  1  0.617600  0.746700  0.927900  1.0  -0.1111
  C  C122  1  0.565900  0.666100  0.856300  1.0  0.69
  C  C123  1  0.726900  0.674100  0.655200  1.0  0.2121
  C  C124  1  0.628400  0.505900  0.589100  1.0  0.0459
  C  C125  1  0.725800  0.580200  0.543300  1.0  0.1151
  C  C126  1  0.764500  0.551400  0.467500  1.0  -0.1078
  C  C127  1  0.870900  0.617600  0.427900  1.0  -0.1103
  C  C128  1  0.899800  0.565900  0.356300  1.0  0.6896
  C  C129  1  0.947200  0.273100  0.655200  1.0  0.2127
  C  C130  1  0.877500  0.371600  0.589100  1.0  0.0472
  C  C131  1  0.854400  0.274200  0.543300  1.0  0.1142
  C  C132  1  0.786900  0.235500  0.467500  1.0  -0.1058
  C  C133  1  0.746700  0.129100  0.427900  1.0  -0.1087
  C  C134  1  0.666100  0.100200  0.356300  1.0  0.688
  C  C135  1  0.325900  0.052800  0.655200  1.0  0.2116
  C  C136  1  0.494100  0.122500  0.589100  1.0  0.0487
  C  C137  1  0.419800  0.145600  0.543300  1.0  0.1146
  C  C138  1  0.448600  0.213100  0.467500  1.0  -0.1073
  C  C139  1  0.382400  0.253300  0.427900  1.0  -0.1117
  C  C140  1  0.434100  0.333900  0.356300  1.0  0.6892
  N  N141  1  0.434800  0.370700  0.840000  1.0  -0.4046
  N  N142  1  0.312400  0.212300  0.913500  1.0  -0.2702
  N  N143  1  0.629300  0.064100  0.840000  1.0  -0.4073
  N  N144  1  0.787700  0.100100  0.913500  1.0  -0.2699
  N  N145  1  0.935900  0.565200  0.840000  1.0  -0.4076
  N  N146  1  0.899900  0.687600  0.913500  1.0  -0.2684
  N  N147  1  0.565200  0.629300  0.340000  1.0  -0.406
  N  N148  1  0.687600  0.787700  0.413500  1.0  -0.2708
  N  N149  1  0.370700  0.935900  0.340000  1.0  -0.4075
  N  N150  1  0.212300  0.899900  0.413500  1.0  -0.2711
  N  N151  1  0.064100  0.434800  0.340000  1.0  -0.4075
  N  N152  1  0.100100  0.312400  0.413500  1.0  -0.2725
  N  N153  1  0.370700  0.434800  0.160000  1.0  -0.4083
  N  N154  1  0.212300  0.312400  0.086500  1.0  -0.2705
  N  N155  1  0.064100  0.629300  0.160000  1.0  -0.4056
  N  N156  1  0.100100  0.787700  0.086500  1.0  -0.2683
  N  N157  1  0.565200  0.935900  0.160000  1.0  -0.4079
  N  N158  1  0.687600  0.899900  0.086500  1.0  -0.272
  N  N159  1  0.629300  0.565200  0.660000  1.0  -0.4076
  N  N160  1  0.787700  0.687600  0.586500  1.0  -0.2705
  N  N161  1  0.935900  0.370700  0.660000  1.0  -0.4058
  N  N162  1  0.899900  0.212300  0.586500  1.0  -0.2701
  N  N163  1  0.434800  0.064100  0.660000  1.0  -0.4076
  N  N164  1  0.312400  0.100100  0.586500  1.0  -0.2703
  O  O165  1  0.377000  0.993200  0.172200  1.0  -0.5956
  O  O166  1  0.533600  0.179500  0.170500  1.0  -0.6538
  O  O167  1  0.006800  0.383800  0.172200  1.0  -0.596
  O  O168  1  0.820500  0.354100  0.170500  1.0  -0.6524
  O  O169  1  0.616200  0.623000  0.172200  1.0  -0.5954
  O  O170  1  0.645900  0.466400  0.170500  1.0  -0.6541
  O  O171  1  0.623000  0.006800  0.672200  1.0  -0.5971
  O  O172  1  0.466400  0.820500  0.670500  1.0  -0.6536
  O  O173  1  0.993200  0.616200  0.672200  1.0  -0.5956
  O  O174  1  0.179500  0.645900  0.670500  1.0  -0.6525
  O  O175  1  0.383800  0.377000  0.672200  1.0  -0.5949
  O  O176  1  0.354100  0.533600  0.670500  1.0  -0.6541
  O  O177  1  0.993200  0.377000  0.827800  1.0  -0.5953
  O  O178  1  0.179500  0.533600  0.829500  1.0  -0.6539
  O  O179  1  0.383800  0.006800  0.827800  1.0  -0.5963
  O  O180  1  0.354100  0.820500  0.829500  1.0  -0.6538
  O  O181  1  0.623000  0.616200  0.827800  1.0  -0.596
  O  O182  1  0.466400  0.645900  0.829500  1.0  -0.6524
  O  O183  1  0.006800  0.623000  0.327800  1.0  -0.5956
  O  O184  1  0.820500  0.466400  0.329500  1.0  -0.6541
  O  O185  1  0.616200  0.993200  0.327800  1.0  -0.5959
  O  O186  1  0.645900  0.179500  0.329500  1.0  -0.6529
  O  O187  1  0.377000  0.383800  0.327800  1.0  -0.5959
  O  O188  1  0.533600  0.354100  0.329500  1.0  -0.6521
