# generated using pymatgen
data_KEuC8(NO4)2
_symmetry_space_group_name_H-M   'P 1'
_cell_length_a   15.40000000
_cell_length_b   6.72870000
_cell_length_c   14.25200000
_cell_angle_alpha   90.00000000
_cell_angle_beta   90.00000000
_cell_angle_gamma   90.00000000
_symmetry_Int_Tables_number   1
_chemical_formula_structural   KEuC8(NO4)2
_chemical_formula_sum   'K4 Eu4 C32 N8 O32'
_cell_volume   1476.82045896
_cell_formula_units_Z   4
loop_
 _symmetry_equiv_pos_site_id
 _symmetry_equiv_pos_as_xyz
  1  'x, y, z'
loop_
 _atom_site_type_symbol
 _atom_site_label
 _atom_site_symmetry_multiplicity
 _atom_site_fract_x
 _atom_site_fract_y
 _atom_site_fract_z
 _atom_site_occupancy
 _atom_site_charge
  K  K1  1  0.732800  0.250000  0.690500  1.0  0.9405
  K  K2  1  0.767200  0.750000  0.190500  1.0  0.9399
  K  K3  1  0.267200  0.750000  0.309500  1.0  0.9396
  K  K4  1  0.232800  0.250000  0.809500  1.0  0.9418
  Eu  Eu5  1  0.803350  0.250000  0.376410  1.0  2.0964
  Eu  Eu6  1  0.696650  0.750000  0.876410  1.0  2.096
  Eu  Eu7  1  0.196650  0.750000  0.623590  1.0  2.0957
  Eu  Eu8  1  0.303350  0.250000  0.123590  1.0  2.0952
  C  C9  1  0.496700  0.250000  0.007400  1.0  0.098
  C  C10  1  0.520100  0.250000  0.167400  1.0  0.1477
  C  C11  1  0.609600  0.250000  0.150800  1.0  0.139
  C  C12  1  0.586700  0.250000  0.992400  1.0  0.1452
  C  C13  1  0.427700  0.250000  0.931700  1.0  0.5917
  C  C14  1  0.477300  0.250000  0.262300  1.0  0.6329
  C  C15  1  0.676700  0.250000  0.227200  1.0  0.645
  C  C16  1  0.628400  0.250000  0.895900  1.0  0.7053
  C  C17  1  0.003300  0.750000  0.507400  1.0  0.0977
  C  C18  1  0.979900  0.750000  0.667400  1.0  0.1478
  C  C19  1  0.890400  0.750000  0.650800  1.0  0.1402
  C  C20  1  0.913300  0.750000  0.492400  1.0  0.1438
  C  C21  1  0.072300  0.750000  0.431700  1.0  0.5921
  C  C22  1  0.022700  0.750000  0.762300  1.0  0.6338
  C  C23  1  0.823300  0.750000  0.727200  1.0  0.6432
  C  C24  1  0.871600  0.750000  0.395900  1.0  0.7089
  C  C25  1  0.503300  0.750000  0.992600  1.0  0.0979
  C  C26  1  0.479900  0.750000  0.832600  1.0  0.1435
  C  C27  1  0.390400  0.750000  0.849200  1.0  0.1404
  C  C28  1  0.413300  0.750000  0.007600  1.0  0.1442
  C  C29  1  0.572300  0.750000  0.068300  1.0  0.5924
  C  C30  1  0.522700  0.750000  0.737700  1.0  0.6302
  C  C31  1  0.323300  0.750000  0.772800  1.0  0.6441
  C  C32  1  0.371600  0.750000  0.104100  1.0  0.7101
  C  C33  1  0.996700  0.250000  0.492600  1.0  0.0983
  C  C34  1  0.020100  0.250000  0.332600  1.0  0.1433
  C  C35  1  0.109600  0.250000  0.349200  1.0  0.1392
  C  C36  1  0.086700  0.250000  0.507600  1.0  0.1449
  C  C37  1  0.927700  0.250000  0.568300  1.0  0.59
  C  C38  1  0.977300  0.250000  0.237700  1.0  0.6317
  C  C39  1  0.176700  0.250000  0.272800  1.0  0.6448
  C  C40  1  0.128400  0.250000  0.604100  1.0  0.7074
  N  N41  1  0.466600  0.250000  0.094800  1.0  -0.3815
  N  N42  1  0.642100  0.250000  0.063500  1.0  -0.3915
  N  N43  1  0.033400  0.750000  0.594800  1.0  -0.382
  N  N44  1  0.857900  0.750000  0.563500  1.0  -0.3931
  N  N45  1  0.533400  0.750000  0.905200  1.0  -0.3831
  N  N46  1  0.357900  0.750000  0.936500  1.0  -0.3933
  N  N47  1  0.966600  0.250000  0.405200  1.0  -0.3819
  N  N48  1  0.142100  0.250000  0.436500  1.0  -0.3916
  O  O49  1  0.710000  0.408300  0.251000  1.0  -0.6923
  O  O50  1  0.648100  0.413700  0.861100  1.0  -0.7552
  O  O51  1  0.790000  0.591700  0.751000  1.0  -0.6908
  O  O52  1  0.851900  0.586300  0.361100  1.0  -0.7552
  O  O53  1  0.290000  0.908300  0.749000  1.0  -0.6922
  O  O54  1  0.351900  0.913700  0.138900  1.0  -0.7548
  O  O55  1  0.210000  0.091700  0.249000  1.0  -0.6913
  O  O56  1  0.148100  0.086300  0.638900  1.0  -0.7548
  O  O57  1  0.290000  0.591700  0.749000  1.0  -0.6915
  O  O58  1  0.351900  0.586300  0.138900  1.0  -0.7538
  O  O59  1  0.210000  0.408300  0.249000  1.0  -0.6917
  O  O60  1  0.148100  0.413700  0.638900  1.0  -0.7547
  O  O61  1  0.710000  0.091700  0.251000  1.0  -0.6905
  O  O62  1  0.648100  0.086300  0.861100  1.0  -0.7553
  O  O63  1  0.790000  0.908300  0.751000  1.0  -0.6926
  O  O64  1  0.851900  0.913700  0.361100  1.0  -0.7557
  O  O65  1  0.349200  0.250000  0.963500  1.0  -0.7543
  O  O66  1  0.450800  0.250000  0.850100  1.0  -0.5208
  O  O67  1  0.395200  0.250000  0.261500  1.0  -0.7013
  O  O68  1  0.524000  0.250000  0.333100  1.0  -0.4951
  O  O69  1  0.150800  0.750000  0.463500  1.0  -0.7518
  O  O70  1  0.049200  0.750000  0.350100  1.0  -0.5189
  O  O71  1  0.104800  0.750000  0.761500  1.0  -0.7021
  O  O72  1  0.976000  0.750000  0.833100  1.0  -0.4944
  O  O73  1  0.650800  0.750000  0.036500  1.0  -0.7512
  O  O74  1  0.549200  0.750000  0.149900  1.0  -0.5256
  O  O75  1  0.604800  0.750000  0.738500  1.0  -0.7003
  O  O76  1  0.476000  0.750000  0.666900  1.0  -0.498
  O  O77  1  0.849200  0.250000  0.536500  1.0  -0.7548
  O  O78  1  0.950800  0.250000  0.649900  1.0  -0.527
  O  O79  1  0.895200  0.250000  0.238500  1.0  -0.6978
  O  O80  1  0.024000  0.250000  0.166900  1.0  -0.4961
