# generated using pymatgen
data_KMnH16(C4O5)3
_symmetry_space_group_name_H-M   'P 1'
_cell_length_a   5.84780000
_cell_length_b   9.10800000
_cell_length_c   11.03490000
_cell_angle_alpha   91.71300000
_cell_angle_beta   93.05400000
_cell_angle_gamma   97.67200000
_symmetry_Int_Tables_number   1
_chemical_formula_structural   KMnH16(C4O5)3
_chemical_formula_sum   'K1 Mn1 H16 C12 O15'
_cell_volume   581.24308024
_cell_formula_units_Z   1
loop_
 _symmetry_equiv_pos_site_id
 _symmetry_equiv_pos_as_xyz
  1  'x, y, z'
loop_
 _atom_site_type_symbol
 _atom_site_label
 _atom_site_symmetry_multiplicity
 _atom_site_fract_x
 _atom_site_fract_y
 _atom_site_fract_z
 _atom_site_occupancy
 _atom_site_charge
  K  K1  1  0.177900  0.954200  0.574800  1.0  0.8219
  Mn  Mn2  1  0.556800  0.854710  0.844980  1.0  0.899
  H  H3  1  0.166000  0.937000  0.865000  1.0  0.4197
  H  H4  1  0.116000  0.297000  0.658000  1.0  0.3417
  H  H5  1  0.752000  0.593000  0.781000  1.0  0.3704
  H  H6  1  0.900000  0.626000  0.561000  1.0  0.3515
  H  H7  1  0.025000  0.937000  0.302000  1.0  0.3604
  H  H8  1  0.377000  0.844000  0.072000  1.0  0.4
  H  H9  1  0.565000  0.855000  0.638000  1.0  0.3782
  H  H10  1  0.704000  0.991000  0.632000  1.0  0.3504
  H  H11  1  0.268700  0.154400  0.968900  1.0  0.0884
  H  H12  1  0.055000  0.288700  0.851700  1.0  0.0801
  H  H13  1  0.366300  0.449000  0.923500  1.0  0.0988
  H  H14  1  0.466100  0.468300  0.675100  1.0  0.0838
  H  H15  1  0.742400  0.550500  0.393300  1.0  0.0363
  H  H16  1  0.004900  0.687600  0.280800  1.0  0.0786
  H  H17  1  0.682800  0.948200  0.171500  1.0  0.077
  H  H18  1  0.664400  0.639600  0.162200  1.0  0.0892
  C  C19  1  0.558200  0.190000  0.873700  1.0  0.5154
  C  C20  1  0.303400  0.149600  0.884900  1.0  0.0487
  C  C21  1  0.200900  0.269900  0.818400  1.0  0.1551
  C  C22  1  0.393800  0.401100  0.847900  1.0  0.0697
  C  C23  1  0.435100  0.516800  0.751900  1.0  0.0744
  C  C24  1  0.221700  0.598900  0.734300  1.0  0.6327
  C  C25  1  0.513800  0.702100  0.393200  1.0  0.5754
  C  C26  1  0.751700  0.657800  0.408300  1.0  0.0928
  C  C27  1  0.878400  0.738900  0.307700  1.0  0.1352
  C  C28  1  0.688100  0.858500  0.124500  1.0  0.0529
  C  C29  1  0.678900  0.730800  0.209600  1.0  0.0652
  C  C30  1  0.910700  0.875000  0.055100  1.0  0.6378
  O  O31  1  0.701700  0.107600  0.869700  1.0  -0.52
  O  O32  1  0.609400  0.333100  0.859600  1.0  -0.3564
  O  O33  1  0.249600  0.005100  0.836900  1.0  -0.5908
  O  O34  1  0.173100  0.231600  0.694700  1.0  -0.6302
  O  O35  1  0.628200  0.623100  0.790600  1.0  -0.5435
  O  O36  1  0.036300  0.519700  0.694700  1.0  -0.5954
  O  O37  1  0.243500  0.733200  0.760700  1.0  -0.599
  O  O38  1  0.380600  0.716000  0.471800  1.0  -0.5587
  O  O39  1  0.470700  0.736200  0.278200  1.0  -0.325
  O  O40  1  0.847200  0.696000  0.528200  1.0  -0.5581
  O  O41  1  0.958400  0.885500  0.352000  1.0  -0.6357
  O  O42  1  0.495100  0.833900  0.037200  1.0  -0.5643
  O  O43  1  0.892000  0.860800  0.941200  1.0  -0.5723
  O  O44  1  0.096900  0.902600  0.117600  1.0  -0.5948
  O  O45  1  0.686700  0.909200  0.667600  1.0  -0.7366
