# generated using pymatgen
data_Nd2H18(C5O4)3
_symmetry_space_group_name_H-M   'P 1'
_cell_length_a   8.06100000
_cell_length_b   8.54970000
_cell_length_c   19.74000000
_cell_angle_alpha   88.25670000
_cell_angle_beta   86.30000000
_cell_angle_gamma   61.87330000
_symmetry_Int_Tables_number   1
_chemical_formula_structural   Nd2H18(C5O4)3
_chemical_formula_sum   'Nd4 H36 C30 O24'
_cell_volume   1197.30195506
_cell_formula_units_Z   2
loop_
 _symmetry_equiv_pos_site_id
 _symmetry_equiv_pos_as_xyz
  1  'x, y, z'
loop_
 _atom_site_type_symbol
 _atom_site_label
 _atom_site_symmetry_multiplicity
 _atom_site_fract_x
 _atom_site_fract_y
 _atom_site_fract_z
 _atom_site_occupancy
 _atom_site_charge
  Nd  Nd1  1  0.707840  0.075460  0.011880  1.0  2.2882
  Nd  Nd2  1  0.216700  0.075460  0.488120  1.0  2.2888
  Nd  Nd3  1  0.292160  0.924540  0.988120  1.0  2.2883
  Nd  Nd4  1  0.783300  0.924540  0.511880  1.0  2.2875
  H  H5  1  0.807000  0.286000  0.162000  1.0  0.1124
  H  H6  1  0.995000  0.244000  0.199000  1.0  0.1218
  H  H7  1  0.852000  0.548000  0.175000  1.0  0.0753
  H  H8  1  0.030000  0.458000  0.122000  1.0  0.0796
  H  H9  1  0.654000  0.556000  0.091000  1.0  0.1196
  H  H10  1  0.833000  0.468000  0.038000  1.0  0.133
  H  H11  1  0.444000  0.448000  0.209000  1.0  0.1121
  H  H12  1  0.255000  0.466000  0.180000  1.0  0.1113
  H  H13  1  0.317000  0.190000  0.233000  1.0  0.0796
  H  H14  1  0.907000  0.286000  0.338000  1.0  0.1127
  H  H15  1  0.761000  0.244000  0.301000  1.0  0.1215
  H  H16  1  0.600000  0.548000  0.325000  1.0  0.0748
  H  H17  1  0.512000  0.458000  0.378000  1.0  0.0788
  H  H18  1  0.790000  0.556000  0.409000  1.0  0.1172
  H  H19  1  0.699000  0.468000  0.462000  1.0  0.1327
  H  H20  1  0.108000  0.448000  0.291000  1.0  0.1131
  H  H21  1  0.279000  0.466000  0.320000  1.0  0.11
  H  H22  1  0.493000  0.190000  0.267000  1.0  0.0796
  H  H23  1  0.193000  0.714000  0.838000  1.0  0.1125
  H  H24  1  0.005000  0.756000  0.801000  1.0  0.1211
  H  H25  1  0.148000  0.452000  0.825000  1.0  0.0745
  H  H26  1  0.970000  0.542000  0.878000  1.0  0.0788
  H  H27  1  0.346000  0.444000  0.909000  1.0  0.1177
  H  H28  1  0.167000  0.532000  0.962000  1.0  0.1327
  H  H29  1  0.556000  0.552000  0.791000  1.0  0.1128
  H  H30  1  0.745000  0.534000  0.820000  1.0  0.1117
  H  H31  1  0.683000  0.810000  0.767000  1.0  0.0793
  H  H32  1  0.093000  0.714000  0.662000  1.0  0.1122
  H  H33  1  0.239000  0.756000  0.699000  1.0  0.1213
  H  H34  1  0.400000  0.452000  0.675000  1.0  0.0764
  H  H35  1  0.488000  0.542000  0.622000  1.0  0.0795
  H  H36  1  0.210000  0.444000  0.591000  1.0  0.1195
  H  H37  1  0.301000  0.532000  0.538000  1.0  0.1326
  H  H38  1  0.892000  0.552000  0.709000  1.0  0.1122
  H  H39  1  0.721000  0.534000  0.680000  1.0  0.1119
  H  H40  1  0.507000  0.810000  0.733000  1.0  0.0794
  C  C41  1  0.046900  0.148600  0.101900  1.0  0.8117
  C  C42  1  0.931300  0.281400  0.155300  1.0  -0.3436
  C  C43  1  0.906400  0.468200  0.135400  1.0  -0.0243
  C  C44  1  0.777300  0.548600  0.077900  1.0  -0.3644
  C  C45  1  0.752200  0.727400  0.057300  1.0  0.8125
  C  C46  1  0.496500  0.274400  0.129800  1.0  0.7348
  C  C47  1  0.383400  0.381000  0.192100  1.0  -0.3363
  C  C48  1  0.804500  0.148600  0.398100  1.0  0.811
  C  C49  1  0.787300  0.281400  0.344700  1.0  -0.3452
  C  C50  1  0.625400  0.468200  0.364600  1.0  -0.0233
  C  C51  1  0.674100  0.548600  0.422100  1.0  -0.3639
  C  C52  1  0.520400  0.727400  0.442700  1.0  0.8115
  C  C53  1  0.229100  0.274400  0.370200  1.0  0.7325
  C  C54  1  0.235600  0.381000  0.307900  1.0  -0.3364
  C  C55  1  0.953100  0.851400  0.898100  1.0  0.81
  C  C56  1  0.068700  0.718600  0.844700  1.0  -0.3455
  C  C57  1  0.093600  0.531800  0.864600  1.0  -0.0245
  C  C58  1  0.222700  0.451400  0.922100  1.0  -0.362
  C  C59  1  0.247800  0.272600  0.942700  1.0  0.8116
  C  C60  1  0.503500  0.725600  0.870200  1.0  0.7316
  C  C61  1  0.616600  0.619000  0.807900  1.0  -0.335
  C  C62  1  0.195500  0.851400  0.601900  1.0  0.8111
  C  C63  1  0.212700  0.718600  0.655300  1.0  -0.3454
  C  C64  1  0.374600  0.531800  0.635400  1.0  -0.0259
  C  C65  1  0.325900  0.451400  0.577900  1.0  -0.3637
  C  C66  1  0.479600  0.272600  0.557300  1.0  0.8124
  C  C67  1  0.770900  0.725600  0.629800  1.0  0.7346
  C  C68  1  0.764400  0.619000  0.692100  1.0  -0.3357
  C  C69  1  0.366900  0.266200  0.250000  1.0  -0.034
  C  C70  1  0.633100  0.733800  0.750000  1.0  -0.0345
  O  O71  1  0.968400  0.089800  0.062100  1.0  -0.8961
  O  O72  1  0.780900  0.901600  0.905800  1.0  -0.663
  O  O73  1  0.595000  0.839600  0.034000  1.0  -0.8726
  O  O74  1  0.882800  0.767200  0.060700  1.0  -0.6656
  O  O75  1  0.599100  0.110400  0.132800  1.0  -0.6723
  O  O76  1  0.490300  0.354800  0.074000  1.0  -0.7323
  O  O77  1  0.941800  0.089800  0.437900  1.0  -0.8951
  O  O78  1  0.317500  0.901600  0.594200  1.0  -0.6637
  O  O79  1  0.565400  0.839600  0.466000  1.0  -0.8718
  O  O80  1  0.350000  0.767200  0.439300  1.0  -0.6646
  O  O81  1  0.290500  0.110400  0.367200  1.0  -0.6725
  O  O82  1  0.154900  0.354800  0.426000  1.0  -0.735
  O  O83  1  0.031600  0.910200  0.937900  1.0  -0.8989
  O  O84  1  0.219100  0.098400  0.094200  1.0  -0.6624
  O  O85  1  0.405000  0.160400  0.966000  1.0  -0.8696
  O  O86  1  0.117200  0.232800  0.939300  1.0  -0.6653
  O  O87  1  0.400900  0.889600  0.867200  1.0  -0.6714
  O  O88  1  0.509700  0.645200  0.926000  1.0  -0.7338
  O  O89  1  0.058200  0.910200  0.562100  1.0  -0.8981
  O  O90  1  0.682500  0.098400  0.405800  1.0  -0.6612
  O  O91  1  0.434600  0.160400  0.534000  1.0  -0.8699
  O  O92  1  0.650000  0.232800  0.560700  1.0  -0.6654
  O  O93  1  0.709500  0.889600  0.632800  1.0  -0.6715
  O  O94  1  0.845100  0.645200  0.574000  1.0  -0.7334
