# generated using pymatgen
data_Zn3B2H32C40(N2O)8
_symmetry_space_group_name_H-M   'P 1'
_cell_length_a   12.48950000
_cell_length_b   12.48950000
_cell_length_c   18.25400000
_cell_angle_alpha   98.75670000
_cell_angle_beta   98.75670000
_cell_angle_gamma   116.37800000
_symmetry_Int_Tables_number   1
_chemical_formula_structural   Zn3B2H32C40(N2O)8
_chemical_formula_sum   'Zn6 B4 H64 C80 N32 O16'
_cell_volume   2442.22675540
_cell_formula_units_Z   2
loop_
 _symmetry_equiv_pos_site_id
 _symmetry_equiv_pos_as_xyz
  1  'x, y, z'
loop_
 _atom_site_type_symbol
 _atom_site_label
 _atom_site_symmetry_multiplicity
 _atom_site_fract_x
 _atom_site_fract_y
 _atom_site_fract_z
 _atom_site_occupancy
 _atom_site_charge
  Zn  Zn1  1  0.802180  0.659060  0.040910  1.0  0.8801
  Zn  Zn2  1  0.340940  0.197820  0.459090  1.0  0.8808
  Zn  Zn3  1  0.197820  0.340940  0.959090  1.0  0.8807
  Zn  Zn4  1  0.659060  0.802180  0.540910  1.0  0.8803
  Zn  Zn5  1  0.248550  0.751450  0.750000  1.0  0.8686
  Zn  Zn6  1  0.751450  0.248550  0.250000  1.0  0.8684
  B  B7  1  0.715900  0.029500  0.950000  1.0  0.4561
  B  B8  1  0.970500  0.284100  0.550000  1.0  0.4562
  B  B9  1  0.284100  0.970500  0.050000  1.0  0.4561
  B  B10  1  0.029500  0.715900  0.450000  1.0  0.4561
  H  H11  1  0.799000  0.969000  0.820000  1.0  0.1316
  H  H12  1  0.036000  0.116000  0.831000  1.0  0.0991
  H  H13  1  0.954000  0.238000  0.009000  1.0  0.0902
  H  H14  1  0.581000  0.705000  0.072000  1.0  0.1167
  H  H15  1  0.536000  0.880000  0.039000  1.0  0.1085
  H  H16  1  0.838000  0.896000  0.964000  1.0  0.0842
  H  H17  1  0.787000  0.067000  0.118000  1.0  0.1153
  H  H18  1  0.753000  0.355000  0.110000  1.0  0.103
  H  H19  1  0.708000  0.268000  0.963000  1.0  0.1165
  H  H20  1  0.662500  0.124900  0.821600  1.0  0.1119
  H  H21  1  0.482000  0.976000  0.726000  1.0  0.097
  H  H22  1  0.513000  0.817000  0.889000  1.0  0.0998
  H  H23  1  0.793000  0.535000  0.740000  1.0  0.0939
  H  H24  1  0.583000  0.355000  0.870000  1.0  0.1021
  H  H25  1  0.735000  0.639000  0.315000  1.0  0.0899
  H  H26  1  0.031000  0.201000  0.680000  1.0  0.1311
  H  H27  1  0.884000  0.964000  0.669000  1.0  0.1001
  H  H28  1  0.762000  0.046000  0.491000  1.0  0.0907
  H  H29  1  0.295000  0.419000  0.428000  1.0  0.1163
  H  H30  1  0.120000  0.464000  0.461000  1.0  0.1082
  H  H31  1  0.104000  0.162000  0.536000  1.0  0.0856
  H  H32  1  0.933000  0.213000  0.382000  1.0  0.115
  H  H33  1  0.645000  0.247000  0.390000  1.0  0.0979
  H  H34  1  0.732000  0.292000  0.537000  1.0  0.1169
  H  H35  1  0.875100  0.337500  0.678400  1.0  0.1109
  H  H36  1  0.024000  0.518000  0.774000  1.0  0.0966
  H  H37  1  0.183000  0.487000  0.611000  1.0  0.0998
  H  H38  1  0.465000  0.207000  0.760000  1.0  0.0911
  H  H39  1  0.645000  0.417000  0.630000  1.0  0.1004
  H  H40  1  0.361000  0.265000  0.185000  1.0  0.0915
  H  H41  1  0.201000  0.031000  0.180000  1.0  0.1304
  H  H42  1  0.964000  0.884000  0.169000  1.0  0.0991
  H  H43  1  0.046000  0.762000  0.991000  1.0  0.0902
  H  H44  1  0.419000  0.295000  0.928000  1.0  0.1162
  H  H45  1  0.464000  0.120000  0.961000  1.0  0.1085
  H  H46  1  0.162000  0.104000  0.036000  1.0  0.0848
  H  H47  1  0.213000  0.933000  0.882000  1.0  0.115
  H  H48  1  0.247000  0.645000  0.890000  1.0  0.1014
  H  H49  1  0.292000  0.732000  0.037000  1.0  0.1162
  H  H50  1  0.337500  0.875100  0.178400  1.0  0.1118
  H  H51  1  0.518000  0.024000  0.274000  1.0  0.0971
  H  H52  1  0.487000  0.183000  0.111000  1.0  0.1007
  H  H53  1  0.207000  0.465000  0.260000  1.0  0.0944
  H  H54  1  0.417000  0.645000  0.130000  1.0  0.1012
  H  H55  1  0.265000  0.361000  0.685000  1.0  0.0903
  H  H56  1  0.969000  0.799000  0.320000  1.0  0.1327
  H  H57  1  0.116000  0.036000  0.331000  1.0  0.1002
  H  H58  1  0.238000  0.954000  0.509000  1.0  0.0901
  H  H59  1  0.705000  0.581000  0.572000  1.0  0.116
  H  H60  1  0.880000  0.536000  0.539000  1.0  0.1079
  H  H61  1  0.896000  0.838000  0.464000  1.0  0.0855
  H  H62  1  0.067000  0.787000  0.618000  1.0  0.1153
  H  H63  1  0.355000  0.753000  0.610000  1.0  0.1112
  H  H64  1  0.268000  0.708000  0.463000  1.0  0.1146
  H  H65  1  0.124900  0.662500  0.321600  1.0  0.1111
  H  H66  1  0.976000  0.482000  0.226000  1.0  0.0968
  H  H67  1  0.817000  0.513000  0.389000  1.0  0.0994
  H  H68  1  0.535000  0.793000  0.240000  1.0  0.0893
  H  H69  1  0.355000  0.583000  0.370000  1.0  0.1013
  H  H70  1  0.639000  0.735000  0.815000  1.0  0.0903
  H  H71  1  0.499310  0.404060  0.104150  1.0  0.1157
  H  H72  1  0.595940  0.500690  0.395850  1.0  0.1145
  H  H73  1  0.500690  0.595940  0.895850  1.0  0.1165
  H  H74  1  0.404060  0.499310  0.604150  1.0  0.1153
  C  C75  1  0.858100  0.034100  0.855400  1.0  -0.048
  C  C76  1  0.973700  0.114500  0.854800  1.0  0.0056
  C  C77  1  0.939100  0.187700  0.960400  1.0  0.2001
  C  C78  1  0.622600  0.761200  0.038200  1.0  0.0389
  C  C79  1  0.604500  0.852300  0.019300  1.0  -0.0715
  C  C80  1  0.763700  0.856100  0.980800  1.0  0.1716
  C  C81  1  0.757300  0.133100  0.092300  1.0  0.1068
  C  C82  1  0.756000  0.302600  0.087000  1.0  0.1273
  C  C83  1  0.721300  0.236100  0.013100  1.0  -0.1227
  C  C84  1  0.601400  0.047800  0.822400  1.0  -0.0679
  C  C85  1  0.496300  0.978100  0.769200  1.0  0.0765
  C  C86  1  0.497300  0.881500  0.855500  1.0  0.1633
  C  C87  1  0.793400  0.551600  0.890800  1.0  0.6441
  C  C88  1  0.730400  0.474600  0.746600  1.0  -0.0274
  C  C89  1  0.708300  0.455300  0.816600  1.0  -0.1166
  C  C90  1  0.607200  0.351800  0.819500  1.0  -0.1305
  C  C91  1  0.718300  0.613300  0.172500  1.0  0.6739
  C  C92  1  0.628900  0.528900  0.212200  1.0  -0.1516
  C  C93  1  0.651400  0.559800  0.292200  1.0  -0.0639
  C  C94  1  0.521300  0.425700  0.169300  1.0  -0.1049
  C  C95  1  0.965900  0.141900  0.644600  1.0  -0.0466
  C  C96  1  0.885500  0.026300  0.645200  1.0  0.006
  C  C97  1  0.812300  0.060900  0.539600  1.0  0.2007
  C  C98  1  0.238800  0.377400  0.461800  1.0  0.0387
  C  C99  1  0.147700  0.395500  0.480700  1.0  -0.0713
  C  C100  1  0.143900  0.236300  0.519200  1.0  0.1724
  C  C101  1  0.866900  0.242700  0.407700  1.0  0.1067
  C  C102  1  0.697400  0.244000  0.413000  1.0  0.128
  C  C103  1  0.763900  0.278700  0.486900  1.0  -0.1233
  C  C104  1  0.952200  0.398600  0.677600  1.0  -0.068
  C  C105  1  0.021900  0.503700  0.730800  1.0  0.079
  C  C106  1  0.118500  0.502700  0.644500  1.0  0.1651
  C  C107  1  0.448400  0.206600  0.609200  1.0  0.6408
  C  C108  1  0.525400  0.269600  0.753400  1.0  -0.0262
  C  C109  1  0.544700  0.291700  0.683400  1.0  -0.1136
  C  C110  1  0.648200  0.392800  0.680500  1.0  -0.1334
  C  C111  1  0.386700  0.281700  0.327500  1.0  0.675
  C  C112  1  0.471100  0.371100  0.287800  1.0  -0.1481
  C  C113  1  0.440200  0.348600  0.207800  1.0  -0.0659
  C  C114  1  0.574300  0.478700  0.330700  1.0  -0.1046
  C  C115  1  0.141900  0.965900  0.144600  1.0  -0.0474
  C  C116  1  0.026300  0.885500  0.145200  1.0  0.0055
  C  C117  1  0.060900  0.812300  0.039600  1.0  0.1984
  C  C118  1  0.377400  0.238800  0.961800  1.0  0.0388
  C  C119  1  0.395500  0.147700  0.980700  1.0  -0.0694
  C  C120  1  0.236300  0.143900  0.019200  1.0  0.1722
  C  C121  1  0.242700  0.866900  0.907700  1.0  0.1003
  C  C122  1  0.244000  0.697400  0.913000  1.0  0.1289
  C  C123  1  0.278700  0.763900  0.986900  1.0  -0.1227
  C  C124  1  0.398600  0.952200  0.177600  1.0  -0.0699
  C  C125  1  0.503700  0.021900  0.230800  1.0  0.0784
  C  C126  1  0.502700  0.118500  0.144500  1.0  0.1644
  C  C127  1  0.206600  0.448400  0.109200  1.0  0.6433
  C  C128  1  0.269600  0.525400  0.253400  1.0  -0.0266
  C  C129  1  0.291700  0.544700  0.183400  1.0  -0.1166
  C  C130  1  0.392800  0.648200  0.180500  1.0  -0.1295
  C  C131  1  0.281700  0.386700  0.827500  1.0  0.6743
  C  C132  1  0.371100  0.471100  0.787800  1.0  -0.1501
  C  C133  1  0.348600  0.440200  0.707800  1.0  -0.0638
  C  C134  1  0.478700  0.574300  0.830700  1.0  -0.1034
  C  C135  1  0.034100  0.858100  0.355400  1.0  -0.0467
  C  C136  1  0.114500  0.973700  0.354800  1.0  0.0058
  C  C137  1  0.187700  0.939100  0.460400  1.0  0.1992
  C  C138  1  0.761200  0.622600  0.538200  1.0  0.0385
  C  C139  1  0.852300  0.604500  0.519300  1.0  -0.0687
  C  C140  1  0.856100  0.763700  0.480800  1.0  0.1739
  C  C141  1  0.133100  0.757300  0.592300  1.0  0.1036
  C  C142  1  0.302600  0.756000  0.587000  1.0  0.122
  C  C143  1  0.236100  0.721300  0.513100  1.0  -0.122
  C  C144  1  0.047800  0.601400  0.322400  1.0  -0.0683
  C  C145  1  0.978100  0.496300  0.269200  1.0  0.0782
  C  C146  1  0.881500  0.497300  0.355500  1.0  0.1618
  C  C147  1  0.551600  0.793400  0.390800  1.0  0.6428
  C  C148  1  0.474600  0.730400  0.246600  1.0  -0.0271
  C  C149  1  0.455300  0.708300  0.316600  1.0  -0.1134
  C  C150  1  0.351800  0.607200  0.319500  1.0  -0.1308
  C  C151  1  0.613300  0.718300  0.672500  1.0  0.6741
  C  C152  1  0.528900  0.628900  0.712200  1.0  -0.1509
  C  C153  1  0.559800  0.651400  0.792200  1.0  -0.0653
  C  C154  1  0.425700  0.521300  0.669300  1.0  -0.1056
  N  N155  1  0.024400  0.212000  0.920600  1.0  -0.4113
  N  N156  1  0.834500  0.081100  0.922600  1.0  -0.2073
  N  N157  1  0.722200  0.762000  0.014300  1.0  -0.4111
  N  N158  1  0.695400  0.914600  0.982200  1.0  -0.1932
  N  N159  1  0.773400  0.238000  0.137200  1.0  -0.4082
  N  N160  1  0.722700  0.128700  0.016700  1.0  -0.1465
  N  N161  1  0.605400  0.987200  0.879200  1.0  -0.1751
  N  N162  1  0.428600  0.872000  0.789800  1.0  -0.3975
  N  N163  1  0.788000  0.975600  0.579400  1.0  -0.4133
  N  N164  1  0.918900  0.165500  0.577400  1.0  -0.2087
  N  N165  1  0.238000  0.277800  0.485700  1.0  -0.4128
  N  N166  1  0.085400  0.304600  0.517800  1.0  -0.1945
  N  N167  1  0.762000  0.226600  0.362800  1.0  -0.4095
  N  N168  1  0.871300  0.277300  0.483300  1.0  -0.1452
  N  N169  1  0.012800  0.394600  0.620800  1.0  -0.1746
  N  N170  1  0.128000  0.571400  0.710200  1.0  -0.3973
  N  N171  1  0.975600  0.788000  0.079400  1.0  -0.4131
  N  N172  1  0.165500  0.918900  0.077400  1.0  -0.2101
  N  N173  1  0.277800  0.238000  0.985700  1.0  -0.4149
  N  N174  1  0.304600  0.085400  0.017800  1.0  -0.1934
  N  N175  1  0.226600  0.762000  0.862800  1.0  -0.4092
  N  N176  1  0.277300  0.871300  0.983300  1.0  -0.1454
  N  N177  1  0.394600  0.012800  0.120800  1.0  -0.1736
  N  N178  1  0.571400  0.128000  0.210200  1.0  -0.396
  N  N179  1  0.212000  0.024400  0.420600  1.0  -0.4125
  N  N180  1  0.081100  0.834500  0.422600  1.0  -0.2088
  N  N181  1  0.762000  0.722200  0.514300  1.0  -0.4144
  N  N182  1  0.914600  0.695400  0.482200  1.0  -0.1936
  N  N183  1  0.238000  0.773400  0.637200  1.0  -0.4107
  N  N184  1  0.128700  0.722700  0.516700  1.0  -0.1468
  N  N185  1  0.987200  0.605400  0.379200  1.0  -0.1757
  N  N186  1  0.872000  0.428600  0.289800  1.0  -0.3965
  O  O187  1  0.875800  0.650400  0.887700  1.0  -0.5904
  O  O188  1  0.763300  0.525900  0.953700  1.0  -0.6357
  O  O189  1  0.793900  0.720700  0.207200  1.0  -0.5686
  O  O190  1  0.705900  0.562100  0.102700  1.0  -0.6017
  O  O191  1  0.349600  0.124200  0.612300  1.0  -0.5893
  O  O192  1  0.474100  0.236700  0.546300  1.0  -0.6331
  O  O193  1  0.279300  0.206100  0.292800  1.0  -0.5696
  O  O194  1  0.437900  0.294100  0.397300  1.0  -0.6003
  O  O195  1  0.124200  0.349600  0.112300  1.0  -0.5906
  O  O196  1  0.236700  0.474100  0.046300  1.0  -0.6338
  O  O197  1  0.206100  0.279300  0.792800  1.0  -0.5686
  O  O198  1  0.294100  0.437900  0.897300  1.0  -0.6025
  O  O199  1  0.650400  0.875800  0.387700  1.0  -0.5885
  O  O200  1  0.525900  0.763300  0.453700  1.0  -0.6345
  O  O201  1  0.720700  0.793900  0.707200  1.0  -0.5693
  O  O202  1  0.562100  0.705900  0.602700  1.0  -0.6001
