# generated using pymatgen
data_AgH20C10SN5O3
_symmetry_space_group_name_H-M   'P 1'
_cell_length_a   6.39020000
_cell_length_b   10.54280000
_cell_length_c   31.16190000
_cell_angle_alpha   90.00000000
_cell_angle_beta   90.00000000
_cell_angle_gamma   93.77000000
_symmetry_Int_Tables_number   1
_chemical_formula_structural   AgH20C10SN5O3
_chemical_formula_sum   'Ag4 H80 C40 S4 N20 O12'
_cell_volume   2094.85289294
_cell_formula_units_Z   4
loop_
 _symmetry_equiv_pos_site_id
 _symmetry_equiv_pos_as_xyz
  1  'x, y, z'
loop_
 _atom_site_type_symbol
 _atom_site_label
 _atom_site_symmetry_multiplicity
 _atom_site_fract_x
 _atom_site_fract_y
 _atom_site_fract_z
 _atom_site_occupancy
 _atom_site_charge
  Ag  Ag1  1  0.864120  0.585360  0.751670  1.0  0.3753
  Ag  Ag2  1  0.364120  0.085360  0.748330  1.0  0.3748
  Ag  Ag3  1  0.635880  0.914640  0.251670  1.0  0.375
  Ag  Ag4  1  0.135880  0.414640  0.248330  1.0  0.3745
  H  H5  1  0.203000  0.241700  0.835600  1.0  0.0886
  H  H6  1  0.454100  0.248500  0.837800  1.0  0.082
  H  H7  1  0.151100  0.569600  0.834900  1.0  0.0962
  H  H8  1  0.021900  0.434300  0.833900  1.0  0.0675
  H  H9  1  0.650300  0.454600  0.838800  1.0  0.0696
  H  H10  1  0.527000  0.582000  0.837400  1.0  0.095
  H  H11  1  0.027600  0.301800  0.770900  1.0  0.0666
  H  H12  1  0.159800  0.348400  0.729500  1.0  0.0879
  H  H13  1  0.359700  0.553700  0.730400  1.0  0.0938
  H  H14  1  0.354600  0.642500  0.772100  1.0  0.0717
  H  H15  1  0.544000  0.360000  0.732500  1.0  0.0961
  H  H16  1  0.658900  0.320000  0.775600  1.0  0.0662
  H  H17  1  0.703000  0.741700  0.664400  1.0  0.0869
  H  H18  1  0.954100  0.748500  0.662200  1.0  0.0802
  H  H19  1  0.651100  0.069600  0.665100  1.0  0.096
  H  H20  1  0.521900  0.934300  0.666100  1.0  0.0654
  H  H21  1  0.150300  0.954600  0.661200  1.0  0.069
  H  H22  1  0.027000  0.082000  0.662600  1.0  0.0966
  H  H23  1  0.527600  0.801800  0.729100  1.0  0.068
  H  H24  1  0.659800  0.848400  0.770500  1.0  0.0874
  H  H25  1  0.859700  0.053700  0.769600  1.0  0.0922
  H  H26  1  0.854600  0.142500  0.727900  1.0  0.0703
  H  H27  1  0.044000  0.860000  0.767500  1.0  0.0968
  H  H28  1  0.158900  0.820000  0.724400  1.0  0.0656
  H  H29  1  0.297000  0.258300  0.335600  1.0  0.0877
  H  H30  1  0.045900  0.251500  0.337800  1.0  0.0818
  H  H31  1  0.348900  0.930400  0.334900  1.0  0.0968
  H  H32  1  0.478100  0.065700  0.333900  1.0  0.068
  H  H33  1  0.849700  0.045400  0.338800  1.0  0.0677
  H  H34  1  0.973000  0.918000  0.337400  1.0  0.0968
  H  H35  1  0.472400  0.198200  0.270900  1.0  0.064
  H  H36  1  0.340200  0.151600  0.229500  1.0  0.0876
  H  H37  1  0.140300  0.946300  0.230400  1.0  0.0937
  H  H38  1  0.145400  0.857500  0.272100  1.0  0.0725
  H  H39  1  0.956000  0.140000  0.232500  1.0  0.096
  H  H40  1  0.841100  0.180000  0.275600  1.0  0.0684
  H  H41  1  0.797000  0.758300  0.164400  1.0  0.0879
  H  H42  1  0.545900  0.751500  0.162200  1.0  0.0817
  H  H43  1  0.848900  0.430400  0.165100  1.0  0.0955
  H  H44  1  0.978100  0.565700  0.166100  1.0  0.0674
  H  H45  1  0.349700  0.545400  0.161200  1.0  0.0669
  H  H46  1  0.473000  0.418000  0.162600  1.0  0.0959
  H  H47  1  0.972400  0.698200  0.229100  1.0  0.0639
  H  H48  1  0.840200  0.651600  0.270500  1.0  0.0873
  H  H49  1  0.640300  0.446300  0.269600  1.0  0.0922
  H  H50  1  0.645400  0.357500  0.227900  1.0  0.0716
  H  H51  1  0.456000  0.640000  0.267500  1.0  0.0962
  H  H52  1  0.341100  0.680000  0.224400  1.0  0.0683
  H  H53  1  0.928600  0.544900  0.592300  1.0  0.1376
  H  H54  1  0.929700  0.398900  0.578400  1.0  0.1444
  H  H55  1  0.564200  0.371200  0.586800  1.0  0.0565
  H  H56  1  0.555700  0.511300  0.606200  1.0  0.0824
  H  H57  1  0.326600  0.587900  0.557200  1.0  0.0787
  H  H58  1  0.292400  0.445600  0.539200  1.0  0.0517
  H  H59  1  0.586200  0.337400  0.512700  1.0  0.0452
  H  H60  1  0.816100  0.408100  0.512500  1.0  0.0687
  H  H61  1  0.071400  0.455100  0.407700  1.0  0.1391
  H  H62  1  0.070300  0.601100  0.421600  1.0  0.1446
  H  H63  1  0.435800  0.628800  0.413200  1.0  0.0555
  H  H64  1  0.444300  0.488700  0.393800  1.0  0.0847
  H  H65  1  0.673400  0.412100  0.442800  1.0  0.0818
  H  H66  1  0.707600  0.554400  0.460800  1.0  0.0489
  H  H67  1  0.413800  0.662600  0.487300  1.0  0.0577
  H  H68  1  0.183900  0.591900  0.487500  1.0  0.069
  H  H69  1  0.571400  0.955100  0.092300  1.0  0.1386
  H  H70  1  0.570300  0.101100  0.078400  1.0  0.1449
  H  H71  1  0.935800  0.128800  0.086800  1.0  0.0553
  H  H72  1  0.944300  0.988700  0.106200  1.0  0.0827
  H  H73  1  0.173400  0.912100  0.057200  1.0  0.0799
  H  H74  1  0.207600  0.054400  0.039200  1.0  0.0489
  H  H75  1  0.913800  0.162600  0.012700  1.0  0.0579
  H  H76  1  0.683900  0.091900  0.012500  1.0  0.0693
  H  H77  1  0.428600  0.044900  0.907700  1.0  0.1372
  H  H78  1  0.429700  0.898900  0.921600  1.0  0.1447
  H  H79  1  0.064200  0.871200  0.913200  1.0  0.0569
  H  H80  1  0.055700  0.011300  0.893800  1.0  0.0838
  H  H81  1  0.826600  0.087900  0.942800  1.0  0.0856
  H  H82  1  0.792400  0.945600  0.960800  1.0  0.0509
  H  H83  1  0.086200  0.837400  0.987300  1.0  0.0453
  H  H84  1  0.316100  0.908100  0.987500  1.0  0.0682
  C  C85  1  0.332300  0.289900  0.825830  1.0  0.11
  C  C86  1  0.152100  0.481500  0.823970  1.0  0.1162
  C  C87  1  0.526300  0.493500  0.826750  1.0  0.1171
  C  C88  1  0.157400  0.349900  0.761230  1.0  0.0851
  C  C89  1  0.353500  0.553200  0.762190  1.0  0.0855
  C  C90  1  0.535400  0.360900  0.764180  1.0  0.079
  C  C91  1  0.832300  0.789900  0.674170  1.0  0.1068
  C  C92  1  0.652100  0.981500  0.676030  1.0  0.1176
  C  C93  1  0.026300  0.993500  0.673250  1.0  0.1167
  C  C94  1  0.657400  0.849900  0.738770  1.0  0.0842
  C  C95  1  0.853500  0.053200  0.737810  1.0  0.0834
  C  C96  1  0.035400  0.860900  0.735820  1.0  0.078
  C  C97  1  0.167700  0.210100  0.325830  1.0  0.1103
  C  C98  1  0.347900  0.018500  0.323970  1.0  0.1159
  C  C99  1  0.973700  0.006500  0.326750  1.0  0.1149
  C  C100  1  0.342600  0.150100  0.261230  1.0  0.0886
  C  C101  1  0.146500  0.946800  0.262190  1.0  0.085
  C  C102  1  0.964600  0.139100  0.264180  1.0  0.0822
  C  C103  1  0.667700  0.710100  0.174170  1.0  0.1083
  C  C104  1  0.847900  0.518500  0.176030  1.0  0.1157
  C  C105  1  0.473700  0.506500  0.173250  1.0  0.1136
  C  C106  1  0.842600  0.650100  0.238770  1.0  0.0876
  C  C107  1  0.646500  0.446800  0.237810  1.0  0.0833
  C  C108  1  0.464600  0.639100  0.235820  1.0  0.0796
  C  C109  1  0.860700  0.459000  0.597260  1.0  -0.4413
  C  C110  1  0.628400  0.459100  0.585210  1.0  0.0779
  C  C111  1  0.374500  0.527800  0.535410  1.0  0.0259
  C  C112  1  0.664900  0.420800  0.509060  1.0  0.0216
  C  C113  1  0.139300  0.541000  0.402740  1.0  -0.4437
  C  C114  1  0.371600  0.540900  0.414790  1.0  0.0818
  C  C115  1  0.625500  0.472200  0.464590  1.0  0.0253
  C  C116  1  0.335100  0.579200  0.490940  1.0  0.0234
  C  C117  1  0.639300  0.041000  0.097260  1.0  -0.4413
  C  C118  1  0.871600  0.040900  0.085210  1.0  0.079
  C  C119  1  0.125500  0.972200  0.035410  1.0  0.0246
  C  C120  1  0.835100  0.079200  0.009060  1.0  0.0236
  C  C121  1  0.360700  0.959000  0.902740  1.0  -0.4435
  C  C122  1  0.128400  0.959100  0.914790  1.0  0.0775
  C  C123  1  0.874500  0.027800  0.964590  1.0  0.0252
  C  C124  1  0.164900  0.920800  0.990940  1.0  0.0213
  S  S125  1  0.898750  0.415520  0.651350  1.0  1.3894
  S  S126  1  0.101250  0.584480  0.348650  1.0  1.388
  S  S127  1  0.601250  0.084480  0.151350  1.0  1.3889
  S  S128  1  0.398750  0.915520  0.848650  1.0  1.3879
  N  N129  1  0.540800  0.494400  0.779360  1.0  -0.2791
  N  N130  1  0.333600  0.421600  0.841580  1.0  -0.374
  N  N131  1  0.342200  0.287400  0.777950  1.0  -0.2603
  N  N132  1  0.155200  0.483700  0.776250  1.0  -0.2732
  N  N133  1  0.040800  0.994400  0.720640  1.0  -0.2793
  N  N134  1  0.833600  0.921600  0.658420  1.0  -0.3734
  N  N135  1  0.842200  0.787400  0.722050  1.0  -0.2594
  N  N136  1  0.655200  0.983700  0.723750  1.0  -0.2726
  N  N137  1  0.959200  0.005600  0.279360  1.0  -0.2797
  N  N138  1  0.166400  0.078400  0.341580  1.0  -0.3742
  N  N139  1  0.157800  0.212600  0.277950  1.0  -0.2609
  N  N140  1  0.344800  0.016300  0.276250  1.0  -0.2736
  N  N141  1  0.459200  0.505600  0.220640  1.0  -0.279
  N  N142  1  0.666400  0.578400  0.158420  1.0  -0.3734
  N  N143  1  0.657800  0.712600  0.222050  1.0  -0.2597
  N  N144  1  0.844800  0.516300  0.223750  1.0  -0.2729
  N  N145  1  0.598600  0.509500  0.542060  1.0  -0.3845
  N  N146  1  0.401400  0.490500  0.457940  1.0  -0.386
  N  N147  1  0.901400  0.990500  0.042060  1.0  -0.3857
  N  N148  1  0.098600  0.009500  0.957940  1.0  -0.3843
  O  O149  1  0.781700  0.500600  0.677740  1.0  -0.7055
  O  O150  1  0.820400  0.283200  0.656150  1.0  -0.7069
  O  O151  1  0.126400  0.432300  0.658140  1.0  -0.7066
  O  O152  1  0.218300  0.499400  0.322260  1.0  -0.7066
  O  O153  1  0.179600  0.716800  0.343850  1.0  -0.7067
  O  O154  1  0.873600  0.567700  0.341860  1.0  -0.7071
  O  O155  1  0.718300  0.999400  0.177740  1.0  -0.7058
  O  O156  1  0.679600  0.216800  0.156150  1.0  -0.7058
  O  O157  1  0.373600  0.067700  0.158140  1.0  -0.7078
  O  O158  1  0.281700  0.000600  0.822260  1.0  -0.7056
  O  O159  1  0.320400  0.783200  0.843850  1.0  -0.7083
  O  O160  1  0.626400  0.932300  0.841860  1.0  -0.7059
