# generated using pymatgen
data_Er4H28C15N3O16
_symmetry_space_group_name_H-M   'P 1'
_cell_length_a   14.61900000
_cell_length_b   17.21100000
_cell_length_c   21.21500000
_cell_angle_alpha   90.00000000
_cell_angle_beta   90.00000000
_cell_angle_gamma   90.00000000
_symmetry_Int_Tables_number   1
_chemical_formula_structural   Er4H28C15N3O16
_chemical_formula_sum   'Er16 H112 C60 N12 O64'
_cell_volume   5337.85542493
_cell_formula_units_Z   4
loop_
 _symmetry_equiv_pos_site_id
 _symmetry_equiv_pos_as_xyz
  1  'x, y, z'
loop_
 _atom_site_type_symbol
 _atom_site_label
 _atom_site_symmetry_multiplicity
 _atom_site_fract_x
 _atom_site_fract_y
 _atom_site_fract_z
 _atom_site_occupancy
 _atom_site_charge
  Er  Er1  1  0.724900  0.560700  0.942600  1.0  1.482
  Er  Er2  1  0.626700  0.360700  0.943700  1.0  1.4931
  Er  Er3  1  0.501400  0.522900  0.861100  1.0  1.4833
  Er  Er4  1  0.517500  0.515600  0.037900  1.0  1.4903
  Er  Er5  1  0.775100  0.439300  0.442600  1.0  1.4804
  Er  Er6  1  0.873300  0.639300  0.443700  1.0  1.4919
  Er  Er7  1  0.998600  0.477100  0.361100  1.0  1.4831
  Er  Er8  1  0.982500  0.484400  0.537900  1.0  1.4914
  Er  Er9  1  0.275100  0.060700  0.557400  1.0  1.48
  Er  Er10  1  0.373300  0.860700  0.556300  1.0  1.4922
  Er  Er11  1  0.498600  0.022900  0.638900  1.0  1.4845
  Er  Er12  1  0.482500  0.015600  0.462100  1.0  1.4903
  Er  Er13  1  0.224900  0.939300  0.057400  1.0  1.4815
  Er  Er14  1  0.126700  0.139300  0.056300  1.0  1.4921
  Er  Er15  1  0.001400  0.977100  0.138900  1.0  1.4826
  Er  Er16  1  0.017500  0.984400  0.962100  1.0  1.4911
  H  H17  1  0.551900  0.640100  0.949300  1.0  0.4082
  H  H18  1  0.678400  0.459300  0.836800  1.0  0.3888
  H  H19  1  0.435800  0.410300  0.949300  1.0  0.398
  H  H20  1  0.698600  0.453900  0.042100  1.0  0.3732
  H  H21  1  0.478100  0.696200  0.781700  1.0  0.2386
  H  H22  1  0.435600  0.710100  0.719100  1.0  0.2156
  H  H23  1  0.407700  0.757800  0.774200  1.0  0.2094
  H  H24  1  0.537600  0.822700  0.778600  1.0  0.0557
  H  H25  1  0.606000  0.707500  0.695200  1.0  0.0761
  H  H26  1  0.654100  0.790500  0.697800  1.0  0.0721
  H  H27  1  0.688800  0.768900  0.804900  1.0  0.0997
  H  H28  1  0.739900  0.712100  0.757400  1.0  0.0953
  H  H29  1  0.027500  0.415000  0.816000  1.0  0.2198
  H  H30  1  0.994200  0.462800  0.869500  1.0  0.2078
  H  H31  1  0.945400  0.464900  0.808100  1.0  0.1705
  H  H32  1  0.893300  0.339800  0.818800  1.0  0.057
  H  H33  1  0.987700  0.336300  0.937900  1.0  0.0653
  H  H34  1  0.033400  0.302000  0.875200  1.0  0.0491
  H  H35  1  0.867800  0.243700  0.932000  1.0  0.0938
  H  H36  1  0.905400  0.212500  0.865900  1.0  0.0854
  H  H37  1  0.721500  0.769100  0.972200  1.0  0.1576
  H  H38  1  0.822700  0.776600  0.971200  1.0  0.2057
  H  H39  1  0.764900  0.837300  0.941400  1.0  0.1818
  H  H40  1  0.712800  0.883400  0.033000  1.0  0.0613
  H  H41  1  0.754600  0.822200  0.130500  1.0  0.0718
  H  H42  1  0.794400  0.751200  0.090800  1.0  0.0826
  H  H43  1  0.635700  0.745200  0.137500  1.0  0.1055
  H  H44  1  0.607800  0.788900  0.074000  1.0  0.1019
  H  H45  1  0.948100  0.359900  0.449300  1.0  0.4097
  H  H46  1  0.821600  0.540700  0.336800  1.0  0.3892
  H  H47  1  0.064200  0.589700  0.449300  1.0  0.3941
  H  H48  1  0.801400  0.546100  0.542100  1.0  0.3747
  H  H49  1  0.021900  0.303800  0.281700  1.0  0.2367
  H  H50  1  0.064400  0.289900  0.219100  1.0  0.2166
  H  H51  1  0.092300  0.242200  0.274200  1.0  0.2099
  H  H52  1  0.962400  0.177300  0.278600  1.0  0.0568
  H  H53  1  0.894000  0.292500  0.195200  1.0  0.0757
  H  H54  1  0.845900  0.209500  0.197800  1.0  0.0711
  H  H55  1  0.811200  0.231100  0.304900  1.0  0.101
  H  H56  1  0.760100  0.287900  0.257400  1.0  0.0938
  H  H57  1  0.472500  0.585000  0.316000  1.0  0.2172
  H  H58  1  0.505800  0.537200  0.369500  1.0  0.2083
  H  H59  1  0.554600  0.535100  0.308100  1.0  0.1681
  H  H60  1  0.606700  0.660200  0.318800  1.0  0.0574
  H  H61  1  0.512300  0.663700  0.437900  1.0  0.0669
  H  H62  1  0.466600  0.698000  0.375200  1.0  0.0493
  H  H63  1  0.632200  0.756300  0.432000  1.0  0.0937
  H  H64  1  0.594600  0.787500  0.365900  1.0  0.0851
  H  H65  1  0.778500  0.230900  0.472200  1.0  0.1594
  H  H66  1  0.677300  0.223400  0.471200  1.0  0.2024
  H  H67  1  0.735100  0.162700  0.441400  1.0  0.1813
  H  H68  1  0.787200  0.116600  0.533000  1.0  0.0619
  H  H69  1  0.745400  0.177800  0.630500  1.0  0.071
  H  H70  1  0.705600  0.248800  0.590800  1.0  0.0816
  H  H71  1  0.864300  0.254800  0.637500  1.0  0.1043
  H  H72  1  0.892200  0.211100  0.574000  1.0  0.1022
  H  H73  1  0.448100  0.140100  0.550700  1.0  0.4076
  H  H74  1  0.321600  0.959300  0.663200  1.0  0.3878
  H  H75  1  0.564200  0.910300  0.550700  1.0  0.3943
  H  H76  1  0.301400  0.953900  0.457900  1.0  0.3709
  H  H77  1  0.521900  0.196200  0.718300  1.0  0.2378
  H  H78  1  0.564400  0.210100  0.780900  1.0  0.2164
  H  H79  1  0.592300  0.257800  0.725800  1.0  0.2115
  H  H80  1  0.462400  0.322700  0.721400  1.0  0.0545
  H  H81  1  0.394000  0.207500  0.804800  1.0  0.0789
  H  H82  1  0.345900  0.290500  0.802200  1.0  0.0723
  H  H83  1  0.311200  0.268900  0.695100  1.0  0.1004
  H  H84  1  0.260100  0.212100  0.742600  1.0  0.0937
  H  H85  1  0.972500  0.915000  0.684000  1.0  0.2177
  H  H86  1  0.005800  0.962800  0.630500  1.0  0.2089
  H  H87  1  0.054600  0.964900  0.691900  1.0  0.1706
  H  H88  1  0.106700  0.839800  0.681200  1.0  0.0583
  H  H89  1  0.012300  0.836300  0.562100  1.0  0.0669
  H  H90  1  0.966600  0.802000  0.624800  1.0  0.0494
  H  H91  1  0.132200  0.743700  0.568000  1.0  0.0938
  H  H92  1  0.094600  0.712500  0.634100  1.0  0.0857
  H  H93  1  0.278500  0.269100  0.527800  1.0  0.1595
  H  H94  1  0.177300  0.276600  0.528800  1.0  0.2018
  H  H95  1  0.235100  0.337300  0.558600  1.0  0.1836
  H  H96  1  0.287200  0.383400  0.467000  1.0  0.0614
  H  H97  1  0.245400  0.322200  0.369500  1.0  0.0699
  H  H98  1  0.205600  0.251200  0.409200  1.0  0.0816
  H  H99  1  0.364300  0.245200  0.362500  1.0  0.1056
  H  H100  1  0.392200  0.288900  0.426000  1.0  0.1037
  H  H101  1  0.051900  0.859900  0.050700  1.0  0.4094
  H  H102  1  0.178400  0.040700  0.163200  1.0  0.3873
  H  H103  1  0.935800  0.089700  0.050700  1.0  0.3976
  H  H104  1  0.198600  0.046100  0.957900  1.0  0.3721
  H  H105  1  0.978100  0.803800  0.218300  1.0  0.24
  H  H106  1  0.935600  0.789900  0.280900  1.0  0.2177
  H  H107  1  0.907700  0.742200  0.225800  1.0  0.209
  H  H108  1  0.037600  0.677300  0.221400  1.0  0.054
  H  H109  1  0.106000  0.792500  0.304800  1.0  0.0777
  H  H110  1  0.154100  0.709500  0.302200  1.0  0.072
  H  H111  1  0.188800  0.731100  0.195100  1.0  0.1004
  H  H112  1  0.239900  0.787900  0.242600  1.0  0.0959
  H  H113  1  0.527500  0.085000  0.184000  1.0  0.2216
  H  H114  1  0.494200  0.037200  0.130500  1.0  0.2093
  H  H115  1  0.445400  0.035100  0.191900  1.0  0.1701
  H  H116  1  0.393300  0.160200  0.181200  1.0  0.0575
  H  H117  1  0.487700  0.163700  0.062100  1.0  0.0674
  H  H118  1  0.533400  0.198000  0.124800  1.0  0.0497
  H  H119  1  0.367800  0.256300  0.068000  1.0  0.0939
  H  H120  1  0.405400  0.287500  0.134100  1.0  0.0845
  H  H121  1  0.221500  0.730900  0.027800  1.0  0.1558
  H  H122  1  0.322700  0.723400  0.028800  1.0  0.2042
  H  H123  1  0.264900  0.662700  0.058600  1.0  0.1823
  H  H124  1  0.212800  0.616600  0.967000  1.0  0.0612
  H  H125  1  0.254600  0.677800  0.869500  1.0  0.0698
  H  H126  1  0.294400  0.748800  0.909200  1.0  0.0837
  H  H127  1  0.135700  0.754800  0.862500  1.0  0.1041
  H  H128  1  0.107800  0.711100  0.926000  1.0  0.1017
  C  C129  1  0.498800  0.842600  0.687700  1.0  0.6449
  C  C130  1  0.527500  0.789900  0.740300  1.0  0.1738
  C  C131  1  0.618900  0.752400  0.723000  1.0  -0.1218
  C  C132  1  0.679500  0.724600  0.775800  1.0  -0.3831
  C  C133  1  0.649600  0.653900  0.816200  1.0  0.6749
  C  C134  1  0.835400  0.401900  0.893900  1.0  0.6133
  C  C135  1  0.916900  0.368000  0.856600  1.0  0.1073
  C  C136  1  0.974400  0.311900  0.896600  1.0  -0.1408
  C  C137  1  0.924100  0.233700  0.907400  1.0  -0.3727
  C  C138  1  0.979600  0.174100  0.940900  1.0  0.7713
  C  C139  1  0.851200  0.896900  0.041900  1.0  0.6495
  C  C140  1  0.766000  0.847000  0.035600  1.0  0.1172
  C  C141  1  0.747000  0.792300  0.091000  1.0  -0.1601
  C  C142  1  0.652900  0.752800  0.092800  1.0  -0.3688
  C  C143  1  0.644600  0.675600  0.059500  1.0  0.7348
  C  C144  1  0.001200  0.157400  0.187700  1.0  0.6448
  C  C145  1  0.972500  0.210100  0.240300  1.0  0.1728
  C  C146  1  0.881100  0.247600  0.223000  1.0  -0.1213
  C  C147  1  0.820500  0.275400  0.275800  1.0  -0.3819
  C  C148  1  0.850400  0.346100  0.316200  1.0  0.6741
  C  C149  1  0.664600  0.598100  0.393900  1.0  0.6139
  C  C150  1  0.583100  0.632000  0.356600  1.0  0.1102
  C  C151  1  0.525600  0.688100  0.396600  1.0  -0.1406
  C  C152  1  0.575900  0.766300  0.407400  1.0  -0.3717
  C  C153  1  0.520400  0.825900  0.440900  1.0  0.7702
  C  C154  1  0.648800  0.103100  0.541900  1.0  0.6507
  C  C155  1  0.734000  0.153000  0.535600  1.0  0.1194
  C  C156  1  0.753000  0.207700  0.591000  1.0  -0.1587
  C  C157  1  0.847100  0.247200  0.592800  1.0  -0.3704
  C  C158  1  0.855400  0.324400  0.559500  1.0  0.7349
  C  C159  1  0.501200  0.342600  0.812300  1.0  0.6438
  C  C160  1  0.472500  0.289900  0.759700  1.0  0.173
  C  C161  1  0.381100  0.252400  0.777000  1.0  -0.1251
  C  C162  1  0.320500  0.224600  0.724200  1.0  -0.3822
  C  C163  1  0.350400  0.153900  0.683800  1.0  0.6714
  C  C164  1  0.164600  0.901900  0.606100  1.0  0.6136
  C  C165  1  0.083100  0.868000  0.643400  1.0  0.1098
  C  C166  1  0.025600  0.811900  0.603400  1.0  -0.14
  C  C167  1  0.075900  0.733700  0.592600  1.0  -0.3711
  C  C168  1  0.020400  0.674100  0.559100  1.0  0.7693
  C  C169  1  0.148800  0.396900  0.458100  1.0  0.6497
  C  C170  1  0.234000  0.347000  0.464400  1.0  0.1187
  C  C171  1  0.253000  0.292300  0.409000  1.0  -0.1567
  C  C172  1  0.347100  0.252800  0.407200  1.0  -0.3703
  C  C173  1  0.355400  0.175600  0.440500  1.0  0.7329
  C  C174  1  0.998800  0.657400  0.312300  1.0  0.6456
  C  C175  1  0.027500  0.710100  0.259700  1.0  0.1726
  C  C176  1  0.118900  0.747600  0.277000  1.0  -0.1249
  C  C177  1  0.179500  0.775400  0.224200  1.0  -0.382
  C  C178  1  0.149600  0.846100  0.183800  1.0  0.6737
  C  C179  1  0.335400  0.098100  0.106100  1.0  0.6142
  C  C180  1  0.416900  0.132000  0.143400  1.0  0.1079
  C  C181  1  0.474400  0.188100  0.103400  1.0  -0.1408
  C  C182  1  0.424100  0.266300  0.092600  1.0  -0.3738
  C  C183  1  0.479600  0.325900  0.059100  1.0  0.7706
  C  C184  1  0.351200  0.603100  0.958100  1.0  0.6501
  C  C185  1  0.266000  0.653000  0.964400  1.0  0.1188
  C  C186  1  0.247000  0.707700  0.909000  1.0  -0.1574
  C  C187  1  0.152900  0.747200  0.907200  1.0  -0.3682
  C  C188  1  0.144600  0.824400  0.940500  1.0  0.7356
  N  N189  1  0.455300  0.733100  0.755200  1.0  -0.3675
  N  N190  1  0.976900  0.434200  0.835500  1.0  -0.3953
  N  N191  1  0.769100  0.803100  0.974000  1.0  -0.394
  N  N192  1  0.044700  0.266900  0.255200  1.0  -0.3683
  N  N193  1  0.523100  0.565800  0.335500  1.0  -0.3924
  N  N194  1  0.730900  0.196900  0.474000  1.0  -0.3948
  N  N195  1  0.544700  0.233100  0.744800  1.0  -0.3677
  N  N196  1  0.023100  0.934200  0.664500  1.0  -0.3943
  N  N197  1  0.230900  0.303100  0.526000  1.0  -0.3957
  N  N198  1  0.955300  0.766900  0.244800  1.0  -0.3676
  N  N199  1  0.476900  0.065800  0.164500  1.0  -0.3945
  N  N200  1  0.269100  0.696900  0.026000  1.0  -0.3948
  O  O201  1  0.566900  0.583500  0.947400  1.0  -0.9714
  O  O202  1  0.645400  0.471300  0.876900  1.0  -0.9849
  O  O203  1  0.493900  0.440800  0.947700  1.0  -0.9402
  O  O204  1  0.658700  0.467600  0.005400  1.0  -0.932
  O  O205  1  0.533900  0.907500  0.688200  1.0  -0.6833
  O  O206  1  0.443900  0.815200  0.647100  1.0  -0.6745
  O  O207  1  0.708700  0.635300  0.854000  1.0  -0.7046
  O  O208  1  0.569800  0.627800  0.811500  1.0  -0.6518
  O  O209  1  0.836700  0.472900  0.907200  1.0  -0.7215
  O  O210  1  0.773700  0.355200  0.904500  1.0  -0.7016
  O  O211  1  0.036600  0.196000  0.980500  1.0  -0.7386
  O  O212  1  0.966200  0.104100  0.927100  1.0  -0.7273
  O  O213  1  0.877200  0.912800  0.096700  1.0  -0.6886
  O  O214  1  0.886100  0.921500  0.991600  1.0  -0.7134
  O  O215  1  0.578600  0.632600  0.073500  1.0  -0.7606
  O  O216  1  0.702800  0.659400  0.016500  1.0  -0.6874
  O  O217  1  0.933100  0.416500  0.447400  1.0  -0.9726
  O  O218  1  0.854600  0.528700  0.376900  1.0  -0.9834
  O  O219  1  0.006100  0.559200  0.447700  1.0  -0.9385
  O  O220  1  0.841300  0.532400  0.505400  1.0  -0.9375
  O  O221  1  0.966100  0.092500  0.188200  1.0  -0.6821
  O  O222  1  0.056100  0.184800  0.147100  1.0  -0.6743
  O  O223  1  0.791300  0.364700  0.354000  1.0  -0.7064
  O  O224  1  0.930200  0.372200  0.311500  1.0  -0.6504
  O  O225  1  0.663300  0.527100  0.407200  1.0  -0.7207
  O  O226  1  0.726300  0.644800  0.404500  1.0  -0.7018
  O  O227  1  0.463400  0.804000  0.480500  1.0  -0.7385
  O  O228  1  0.533800  0.895900  0.427100  1.0  -0.7267
  O  O229  1  0.622800  0.087200  0.596700  1.0  -0.6877
  O  O230  1  0.613900  0.078500  0.491600  1.0  -0.7125
  O  O231  1  0.921400  0.367400  0.573500  1.0  -0.759
  O  O232  1  0.797200  0.340600  0.516500  1.0  -0.6839
  O  O233  1  0.433100  0.083500  0.552600  1.0  -0.9708
  O  O234  1  0.354600  0.971300  0.623100  1.0  -0.9826
  O  O235  1  0.506100  0.940800  0.552300  1.0  -0.9382
  O  O236  1  0.341300  0.967600  0.494600  1.0  -0.9376
  O  O237  1  0.466100  0.407500  0.811800  1.0  -0.6829
  O  O238  1  0.556100  0.315200  0.852900  1.0  -0.6734
  O  O239  1  0.291300  0.135300  0.646000  1.0  -0.7067
  O  O240  1  0.430200  0.127800  0.688500  1.0  -0.6495
  O  O241  1  0.163300  0.972900  0.592800  1.0  -0.7222
  O  O242  1  0.226300  0.855200  0.595500  1.0  -0.7012
  O  O243  1  0.963400  0.696000  0.519500  1.0  -0.7381
  O  O244  1  0.033800  0.604100  0.572900  1.0  -0.7279
  O  O245  1  0.122800  0.412800  0.403300  1.0  -0.686
  O  O246  1  0.113900  0.421500  0.508400  1.0  -0.7137
  O  O247  1  0.421400  0.132600  0.426500  1.0  -0.7597
  O  O248  1  0.297200  0.159400  0.483500  1.0  -0.6858
  O  O249  1  0.066900  0.916500  0.052600  1.0  -0.9731
  O  O250  1  0.145400  0.028700  0.123100  1.0  -0.9821
  O  O251  1  0.993900  0.059200  0.052300  1.0  -0.9395
  O  O252  1  0.158700  0.032400  0.994600  1.0  -0.9339
  O  O253  1  0.033900  0.592500  0.311800  1.0  -0.6835
  O  O254  1  0.943900  0.684800  0.352900  1.0  -0.6731
  O  O255  1  0.208700  0.864700  0.146000  1.0  -0.7039
  O  O256  1  0.069800  0.872200  0.188500  1.0  -0.6511
  O  O257  1  0.336700  0.027100  0.092800  1.0  -0.7211
  O  O258  1  0.273700  0.144800  0.095500  1.0  -0.7018
  O  O259  1  0.536600  0.304000  0.019500  1.0  -0.7377
  O  O260  1  0.466200  0.395900  0.072900  1.0  -0.7275
  O  O261  1  0.377200  0.587200  0.903300  1.0  -0.6864
  O  O262  1  0.386100  0.578500  0.008400  1.0  -0.7148
  O  O263  1  0.078600  0.867400  0.926500  1.0  -0.7593
  O  O264  1  0.202800  0.840600  0.983500  1.0  -0.6869
