# generated using pymatgen
data_AgH36C30(SN)4
_symmetry_space_group_name_H-M   'P 1'
_cell_length_a   24.41650000
_cell_length_b   24.41650000
_cell_length_c   13.74570000
_cell_angle_alpha   90.00000000
_cell_angle_beta   90.00000000
_cell_angle_gamma   90.00000000
_symmetry_Int_Tables_number   1
_chemical_formula_structural   AgH36C30(SN)4
_chemical_formula_sum   'Ag8 H288 C240 S32 N32'
_cell_volume   8194.71173191
_cell_formula_units_Z   8
loop_
 _symmetry_equiv_pos_site_id
 _symmetry_equiv_pos_as_xyz
  1  'x, y, z'
loop_
 _atom_site_type_symbol
 _atom_site_label
 _atom_site_symmetry_multiplicity
 _atom_site_fract_x
 _atom_site_fract_y
 _atom_site_fract_z
 _atom_site_occupancy
 _atom_site_charge
  Ag  Ag1  1  0.250000  0.078130  0.375000  1.0  0.3531
  Ag  Ag2  1  0.750000  0.578130  0.875000  1.0  0.3531
  Ag  Ag3  1  0.750000  0.921870  0.375000  1.0  0.3515
  Ag  Ag4  1  0.250000  0.421870  0.875000  1.0  0.3515
  Ag  Ag5  1  0.078130  0.750000  0.625000  1.0  0.3509
  Ag  Ag6  1  0.921870  0.250000  0.625000  1.0  0.3504
  Ag  Ag7  1  0.421870  0.750000  0.125000  1.0  0.3504
  Ag  Ag8  1  0.578130  0.250000  0.125000  1.0  0.3509
  H  H9  1  0.255700  0.039900  0.606400  1.0  0.0933
  H  H10  1  0.351400  0.134600  0.375700  1.0  0.1134
  H  H11  1  0.363700  0.182800  0.451400  1.0  0.1152
  H  H12  1  0.397200  0.120600  0.633500  1.0  0.098
  H  H13  1  0.328900  0.065000  0.726600  1.0  0.1093
  H  H14  1  0.445600  0.164000  0.387600  1.0  0.1199
  H  H15  1  0.447100  0.134900  0.491600  1.0  0.1112
  H  H16  1  0.473300  0.171300  0.073500  1.0  0.0969
  H  H17  1  0.340400  0.072500  0.075900  1.0  0.1068
  H  H18  1  0.301800  0.162700  0.981800  1.0  0.106
  H  H19  1  0.318500  0.153600  0.870400  1.0  0.1123
  H  H20  1  0.317700  0.102800  0.943900  1.0  0.0941
  H  H21  1  0.414500  0.085800  0.884500  1.0  0.1122
  H  H22  1  0.410600  0.140100  0.819800  1.0  0.104
  H  H23  1  0.459300  0.133100  0.896700  1.0  0.114
  H  H24  1  0.381700  0.229800  0.900200  1.0  0.107
  H  H25  1  0.374900  0.231400  0.015900  1.0  0.096
  H  H26  1  0.434000  0.221900  0.968800  1.0  0.093
  H  H27  1  0.755700  0.539900  0.106400  1.0  0.0933
  H  H28  1  0.851400  0.634600  0.875700  1.0  0.1134
  H  H29  1  0.863700  0.682800  0.951400  1.0  0.1152
  H  H30  1  0.897200  0.620600  0.133500  1.0  0.098
  H  H31  1  0.828900  0.565000  0.226600  1.0  0.1093
  H  H32  1  0.945600  0.664000  0.887600  1.0  0.1199
  H  H33  1  0.947100  0.634900  0.991600  1.0  0.1112
  H  H34  1  0.973300  0.671300  0.573500  1.0  0.0969
  H  H35  1  0.840400  0.572500  0.575900  1.0  0.1068
  H  H36  1  0.801800  0.662700  0.481800  1.0  0.106
  H  H37  1  0.818500  0.653600  0.370400  1.0  0.1123
  H  H38  1  0.817700  0.602800  0.443900  1.0  0.0941
  H  H39  1  0.914500  0.585800  0.384500  1.0  0.1122
  H  H40  1  0.910600  0.640100  0.319800  1.0  0.104
  H  H41  1  0.959300  0.633100  0.396700  1.0  0.114
  H  H42  1  0.881700  0.729800  0.400200  1.0  0.107
  H  H43  1  0.874900  0.731400  0.515900  1.0  0.096
  H  H44  1  0.934000  0.721900  0.468800  1.0  0.093
  H  H45  1  0.744300  0.960100  0.606400  1.0  0.0934
  H  H46  1  0.648600  0.865400  0.375700  1.0  0.1132
  H  H47  1  0.636300  0.817200  0.451400  1.0  0.1169
  H  H48  1  0.602800  0.879400  0.633500  1.0  0.0987
  H  H49  1  0.671100  0.935000  0.726600  1.0  0.1091
  H  H50  1  0.554400  0.836000  0.387600  1.0  0.1206
  H  H51  1  0.552900  0.865100  0.491600  1.0  0.1114
  H  H52  1  0.526700  0.828700  0.073500  1.0  0.0975
  H  H53  1  0.659600  0.927500  0.075900  1.0  0.1064
  H  H54  1  0.698200  0.837300  0.981800  1.0  0.1065
  H  H55  1  0.681500  0.846400  0.870400  1.0  0.1138
  H  H56  1  0.682300  0.897200  0.943900  1.0  0.0949
  H  H57  1  0.585500  0.914200  0.884500  1.0  0.1126
  H  H58  1  0.589400  0.859900  0.819800  1.0  0.104
  H  H59  1  0.540700  0.866900  0.896700  1.0  0.1115
  H  H60  1  0.618300  0.770200  0.900200  1.0  0.1056
  H  H61  1  0.625100  0.768600  0.015900  1.0  0.0963
  H  H62  1  0.566000  0.778100  0.968800  1.0  0.0931
  H  H63  1  0.244300  0.460100  0.106400  1.0  0.0934
  H  H64  1  0.148600  0.365400  0.875700  1.0  0.1132
  H  H65  1  0.136300  0.317200  0.951400  1.0  0.1169
  H  H66  1  0.102800  0.379400  0.133500  1.0  0.0987
  H  H67  1  0.171100  0.435000  0.226600  1.0  0.1091
  H  H68  1  0.054400  0.336000  0.887600  1.0  0.1206
  H  H69  1  0.052900  0.365100  0.991600  1.0  0.1114
  H  H70  1  0.026700  0.328700  0.573500  1.0  0.0975
  H  H71  1  0.159600  0.427500  0.575900  1.0  0.1064
  H  H72  1  0.198200  0.337300  0.481800  1.0  0.1065
  H  H73  1  0.181500  0.346400  0.370400  1.0  0.1138
  H  H74  1  0.182300  0.397200  0.443900  1.0  0.0949
  H  H75  1  0.085500  0.414200  0.384500  1.0  0.1126
  H  H76  1  0.089400  0.359900  0.319800  1.0  0.104
  H  H77  1  0.040700  0.366900  0.396700  1.0  0.1115
  H  H78  1  0.118300  0.270200  0.400200  1.0  0.1056
  H  H79  1  0.125100  0.268600  0.515900  1.0  0.0963
  H  H80  1  0.066000  0.278100  0.468800  1.0  0.0931
  H  H81  1  0.039900  0.744300  0.393600  1.0  0.0935
  H  H82  1  0.134600  0.648600  0.624300  1.0  0.1136
  H  H83  1  0.182800  0.636300  0.548600  1.0  0.1104
  H  H84  1  0.120600  0.602800  0.366500  1.0  0.0989
  H  H85  1  0.065000  0.671100  0.273400  1.0  0.1105
  H  H86  1  0.164000  0.554400  0.612400  1.0  0.1206
  H  H87  1  0.134900  0.552900  0.508400  1.0  0.1117
  H  H88  1  0.171300  0.526700  0.926500  1.0  0.0976
  H  H89  1  0.072500  0.659600  0.924100  1.0  0.1066
  H  H90  1  0.162700  0.698200  0.018200  1.0  0.1059
  H  H91  1  0.153600  0.681500  0.129600  1.0  0.1118
  H  H92  1  0.102800  0.682300  0.056100  1.0  0.0968
  H  H93  1  0.085800  0.585500  0.115500  1.0  0.1119
  H  H94  1  0.140100  0.589400  0.180200  1.0  0.1041
  H  H95  1  0.133100  0.540700  0.103300  1.0  0.1132
  H  H96  1  0.229800  0.618300  0.099800  1.0  0.1059
  H  H97  1  0.231400  0.625100  0.984100  1.0  0.0963
  H  H98  1  0.221900  0.566000  0.031200  1.0  0.0929
  H  H99  1  0.539900  0.244300  0.893600  1.0  0.0935
  H  H100  1  0.634600  0.148600  0.124300  1.0  0.1136
  H  H101  1  0.682800  0.136300  0.048600  1.0  0.1104
  H  H102  1  0.620600  0.102800  0.866500  1.0  0.0989
  H  H103  1  0.565000  0.171100  0.773400  1.0  0.1105
  H  H104  1  0.664000  0.054400  0.112400  1.0  0.1206
  H  H105  1  0.634900  0.052900  0.008400  1.0  0.1117
  H  H106  1  0.671300  0.026700  0.426500  1.0  0.0976
  H  H107  1  0.572500  0.159600  0.424100  1.0  0.1066
  H  H108  1  0.662700  0.198200  0.518200  1.0  0.1059
  H  H109  1  0.653600  0.181500  0.629600  1.0  0.1118
  H  H110  1  0.602800  0.182300  0.556100  1.0  0.0968
  H  H111  1  0.585800  0.085500  0.615500  1.0  0.1119
  H  H112  1  0.640100  0.089400  0.680200  1.0  0.1041
  H  H113  1  0.633100  0.040700  0.603300  1.0  0.1132
  H  H114  1  0.729800  0.118300  0.599800  1.0  0.1059
  H  H115  1  0.731400  0.125100  0.484100  1.0  0.0963
  H  H116  1  0.721900  0.066000  0.531200  1.0  0.0929
  H  H117  1  0.960100  0.255700  0.393600  1.0  0.093
  H  H118  1  0.865400  0.351400  0.624300  1.0  0.1137
  H  H119  1  0.817200  0.363700  0.548600  1.0  0.1129
  H  H120  1  0.879400  0.397200  0.366500  1.0  0.0993
  H  H121  1  0.935000  0.328900  0.273400  1.0  0.1108
  H  H122  1  0.836000  0.445600  0.612400  1.0  0.1212
  H  H123  1  0.865100  0.447100  0.508400  1.0  0.1112
  H  H124  1  0.828700  0.473300  0.926500  1.0  0.0976
  H  H125  1  0.927500  0.340400  0.924100  1.0  0.107
  H  H126  1  0.837300  0.301800  0.018200  1.0  0.1047
  H  H127  1  0.846400  0.318500  0.129600  1.0  0.1113
  H  H128  1  0.897200  0.317700  0.056100  1.0  0.0925
  H  H129  1  0.914200  0.414500  0.115500  1.0  0.112
  H  H130  1  0.859900  0.410600  0.180200  1.0  0.1034
  H  H131  1  0.866900  0.459300  0.103300  1.0  0.1153
  H  H132  1  0.770200  0.381700  0.099800  1.0  0.1062
  H  H133  1  0.768600  0.374900  0.984100  1.0  0.0969
  H  H134  1  0.778100  0.434000  0.031200  1.0  0.0937
  H  H135  1  0.460100  0.755700  0.893600  1.0  0.093
  H  H136  1  0.365400  0.851400  0.124300  1.0  0.1137
  H  H137  1  0.317200  0.863700  0.048600  1.0  0.1129
  H  H138  1  0.379400  0.897200  0.866500  1.0  0.0993
  H  H139  1  0.435000  0.828900  0.773400  1.0  0.1108
  H  H140  1  0.336000  0.945600  0.112400  1.0  0.1212
  H  H141  1  0.365100  0.947100  0.008400  1.0  0.1112
  H  H142  1  0.328700  0.973300  0.426500  1.0  0.0976
  H  H143  1  0.427500  0.840400  0.424100  1.0  0.107
  H  H144  1  0.337300  0.801800  0.518200  1.0  0.1047
  H  H145  1  0.346400  0.818500  0.629600  1.0  0.1113
  H  H146  1  0.397200  0.817700  0.556100  1.0  0.0925
  H  H147  1  0.414200  0.914500  0.615500  1.0  0.112
  H  H148  1  0.359900  0.910600  0.680200  1.0  0.1034
  H  H149  1  0.366900  0.959300  0.603300  1.0  0.1153
  H  H150  1  0.270200  0.881700  0.599800  1.0  0.1062
  H  H151  1  0.268600  0.874900  0.484100  1.0  0.0969
  H  H152  1  0.278100  0.934000  0.531200  1.0  0.0937
  H  H153  1  0.244300  0.039900  0.143600  1.0  0.0929
  H  H154  1  0.148600  0.134600  0.374300  1.0  0.1128
  H  H155  1  0.136300  0.182800  0.298600  1.0  0.114
  H  H156  1  0.102800  0.120600  0.116500  1.0  0.099
  H  H157  1  0.171100  0.065000  0.023400  1.0  0.1103
  H  H158  1  0.054400  0.164000  0.362400  1.0  0.1209
  H  H159  1  0.052900  0.134900  0.258400  1.0  0.1123
  H  H160  1  0.026700  0.171300  0.676500  1.0  0.0972
  H  H161  1  0.159600  0.072500  0.674100  1.0  0.1064
  H  H162  1  0.198200  0.162700  0.768200  1.0  0.1065
  H  H163  1  0.181500  0.153600  0.879600  1.0  0.1124
  H  H164  1  0.182300  0.102800  0.806100  1.0  0.0958
  H  H165  1  0.085500  0.085800  0.865500  1.0  0.1114
  H  H166  1  0.089400  0.140100  0.930200  1.0  0.1037
  H  H167  1  0.040700  0.133100  0.853300  1.0  0.112
  H  H168  1  0.118300  0.229800  0.849800  1.0  0.1063
  H  H169  1  0.125100  0.231400  0.734100  1.0  0.0968
  H  H170  1  0.066000  0.221900  0.781200  1.0  0.0938
  H  H171  1  0.744300  0.539900  0.643600  1.0  0.0929
  H  H172  1  0.648600  0.634600  0.874300  1.0  0.1128
  H  H173  1  0.636300  0.682800  0.798600  1.0  0.114
  H  H174  1  0.602800  0.620600  0.616500  1.0  0.099
  H  H175  1  0.671100  0.565000  0.523400  1.0  0.1103
  H  H176  1  0.554400  0.664000  0.862400  1.0  0.1209
  H  H177  1  0.552900  0.634900  0.758400  1.0  0.1123
  H  H178  1  0.526700  0.671300  0.176500  1.0  0.0972
  H  H179  1  0.659600  0.572500  0.174100  1.0  0.1064
  H  H180  1  0.698200  0.662700  0.268200  1.0  0.1065
  H  H181  1  0.681500  0.653600  0.379600  1.0  0.1124
  H  H182  1  0.682300  0.602800  0.306100  1.0  0.0958
  H  H183  1  0.585500  0.585800  0.365500  1.0  0.1114
  H  H184  1  0.589400  0.640100  0.430200  1.0  0.1037
  H  H185  1  0.540700  0.633100  0.353300  1.0  0.112
  H  H186  1  0.618300  0.729800  0.349800  1.0  0.1063
  H  H187  1  0.625100  0.731400  0.234100  1.0  0.0968
  H  H188  1  0.566000  0.721900  0.281200  1.0  0.0938
  H  H189  1  0.755700  0.960100  0.143600  1.0  0.093
  H  H190  1  0.851400  0.865400  0.374300  1.0  0.1133
  H  H191  1  0.863700  0.817200  0.298600  1.0  0.1142
  H  H192  1  0.897200  0.879400  0.116500  1.0  0.0988
  H  H193  1  0.828900  0.935000  0.023400  1.0  0.1102
  H  H194  1  0.945600  0.836000  0.362400  1.0  0.1206
  H  H195  1  0.947100  0.865100  0.258400  1.0  0.1125
  H  H196  1  0.973300  0.828700  0.676500  1.0  0.0973
  H  H197  1  0.840400  0.927500  0.674100  1.0  0.1061
  H  H198  1  0.801800  0.837300  0.768200  1.0  0.1057
  H  H199  1  0.818500  0.846400  0.879600  1.0  0.1119
  H  H200  1  0.817700  0.897200  0.806100  1.0  0.097
  H  H201  1  0.914500  0.914200  0.865500  1.0  0.1121
  H  H202  1  0.910600  0.859900  0.930200  1.0  0.1031
  H  H203  1  0.959300  0.866900  0.853300  1.0  0.1125
  H  H204  1  0.881700  0.770200  0.849800  1.0  0.1058
  H  H205  1  0.874900  0.768600  0.734100  1.0  0.097
  H  H206  1  0.934000  0.778100  0.781200  1.0  0.0922
  H  H207  1  0.255700  0.460100  0.643600  1.0  0.093
  H  H208  1  0.351400  0.365400  0.874300  1.0  0.1133
  H  H209  1  0.363700  0.317200  0.798600  1.0  0.1142
  H  H210  1  0.397200  0.379400  0.616500  1.0  0.0988
  H  H211  1  0.328900  0.435000  0.523400  1.0  0.1102
  H  H212  1  0.445600  0.336000  0.862400  1.0  0.1206
  H  H213  1  0.447100  0.365100  0.758400  1.0  0.1125
  H  H214  1  0.473300  0.328700  0.176500  1.0  0.0973
  H  H215  1  0.340400  0.427500  0.174100  1.0  0.1061
  H  H216  1  0.301800  0.337300  0.268200  1.0  0.1057
  H  H217  1  0.318500  0.346400  0.379600  1.0  0.1119
  H  H218  1  0.317700  0.397200  0.306100  1.0  0.097
  H  H219  1  0.414500  0.414200  0.365500  1.0  0.1121
  H  H220  1  0.410600  0.359900  0.430200  1.0  0.1031
  H  H221  1  0.459300  0.366900  0.353300  1.0  0.1125
  H  H222  1  0.381700  0.270200  0.349800  1.0  0.1058
  H  H223  1  0.374900  0.268600  0.234100  1.0  0.097
  H  H224  1  0.434000  0.278100  0.281200  1.0  0.0922
  H  H225  1  0.460100  0.744300  0.356400  1.0  0.093
  H  H226  1  0.365400  0.648600  0.125700  1.0  0.1137
  H  H227  1  0.317200  0.636300  0.201400  1.0  0.1105
  H  H228  1  0.379400  0.602800  0.383500  1.0  0.0984
  H  H229  1  0.435000  0.671100  0.476600  1.0  0.1097
  H  H230  1  0.336000  0.554400  0.137600  1.0  0.1208
  H  H231  1  0.365100  0.552900  0.241600  1.0  0.1107
  H  H232  1  0.328700  0.526700  0.823500  1.0  0.0975
  H  H233  1  0.427500  0.659600  0.825900  1.0  0.1068
  H  H234  1  0.337300  0.698200  0.731800  1.0  0.1058
  H  H235  1  0.346400  0.681500  0.620400  1.0  0.1114
  H  H236  1  0.397200  0.682300  0.693900  1.0  0.0926
  H  H237  1  0.414200  0.585500  0.634500  1.0  0.1122
  H  H238  1  0.359900  0.589400  0.569800  1.0  0.1038
  H  H239  1  0.366900  0.540700  0.646700  1.0  0.1152
  H  H240  1  0.270200  0.618300  0.650200  1.0  0.1062
  H  H241  1  0.268600  0.625100  0.765900  1.0  0.0961
  H  H242  1  0.278100  0.566000  0.718800  1.0  0.0914
  H  H243  1  0.960100  0.244300  0.856400  1.0  0.093
  H  H244  1  0.865400  0.148600  0.625700  1.0  0.1137
  H  H245  1  0.817200  0.136300  0.701400  1.0  0.1105
  H  H246  1  0.879400  0.102800  0.883500  1.0  0.0984
  H  H247  1  0.935000  0.171100  0.976600  1.0  0.1097
  H  H248  1  0.836000  0.054400  0.637600  1.0  0.1208
  H  H249  1  0.865100  0.052900  0.741600  1.0  0.1107
  H  H250  1  0.828700  0.026700  0.323500  1.0  0.0975
  H  H251  1  0.927500  0.159600  0.325900  1.0  0.1068
  H  H252  1  0.837300  0.198200  0.231800  1.0  0.1058
  H  H253  1  0.846400  0.181500  0.120400  1.0  0.1114
  H  H254  1  0.897200  0.182300  0.193900  1.0  0.0926
  H  H255  1  0.914200  0.085500  0.134500  1.0  0.1122
  H  H256  1  0.859900  0.089400  0.069800  1.0  0.1038
  H  H257  1  0.866900  0.040700  0.146700  1.0  0.1152
  H  H258  1  0.770200  0.118300  0.150200  1.0  0.1062
  H  H259  1  0.768600  0.125100  0.265900  1.0  0.0961
  H  H260  1  0.778100  0.066000  0.218800  1.0  0.0914
  H  H261  1  0.539900  0.255700  0.356400  1.0  0.0931
  H  H262  1  0.634600  0.351400  0.125700  1.0  0.1141
  H  H263  1  0.682800  0.363700  0.201400  1.0  0.1084
  H  H264  1  0.620600  0.397200  0.383500  1.0  0.0982
  H  H265  1  0.565000  0.328900  0.476600  1.0  0.1096
  H  H266  1  0.664000  0.445600  0.137600  1.0  0.1199
  H  H267  1  0.634900  0.447100  0.241600  1.0  0.1101
  H  H268  1  0.671300  0.473300  0.823500  1.0  0.0977
  H  H269  1  0.572500  0.340400  0.825900  1.0  0.1072
  H  H270  1  0.662700  0.301800  0.731800  1.0  0.1059
  H  H271  1  0.653600  0.318500  0.620400  1.0  0.1125
  H  H272  1  0.602800  0.317700  0.693900  1.0  0.0962
  H  H273  1  0.585800  0.414500  0.634500  1.0  0.1121
  H  H274  1  0.640100  0.410600  0.569800  1.0  0.1044
  H  H275  1  0.633100  0.459300  0.646700  1.0  0.1154
  H  H276  1  0.729800  0.381700  0.650200  1.0  0.1067
  H  H277  1  0.731400  0.374900  0.765900  1.0  0.0961
  H  H278  1  0.721900  0.434000  0.718800  1.0  0.0926
  H  H279  1  0.039900  0.755700  0.856400  1.0  0.0931
  H  H280  1  0.134600  0.851400  0.625700  1.0  0.1141
  H  H281  1  0.182800  0.863700  0.701400  1.0  0.1084
  H  H282  1  0.120600  0.897200  0.883500  1.0  0.0982
  H  H283  1  0.065000  0.828900  0.976600  1.0  0.1096
  H  H284  1  0.164000  0.945600  0.637600  1.0  0.1199
  H  H285  1  0.134900  0.947100  0.741600  1.0  0.1101
  H  H286  1  0.171300  0.973300  0.323500  1.0  0.0977
  H  H287  1  0.072500  0.840400  0.325900  1.0  0.1072
  H  H288  1  0.162700  0.801800  0.231800  1.0  0.1059
  H  H289  1  0.153600  0.818500  0.120400  1.0  0.1125
  H  H290  1  0.102800  0.817700  0.193900  1.0  0.0962
  H  H291  1  0.085800  0.914500  0.134500  1.0  0.1121
  H  H292  1  0.140100  0.910600  0.069800  1.0  0.1044
  H  H293  1  0.133100  0.959300  0.146700  1.0  0.1154
  H  H294  1  0.229800  0.881700  0.150200  1.0  0.1067
  H  H295  1  0.231400  0.874900  0.265900  1.0  0.0961
  H  H296  1  0.221900  0.934000  0.218800  1.0  0.0926
  C  C297  1  0.287100  0.061500  0.592400  1.0  0.0584
  C  C298  1  0.370000  0.143500  0.437800  1.0  -0.0913
  C  C299  1  0.364200  0.105500  0.608600  1.0  -0.0877
  C  C300  1  0.327300  0.074900  0.659900  1.0  -0.1332
  C  C301  1  0.429800  0.133800  0.426500  1.0  -0.3727
  C  C302  1  0.432800  0.088800  0.247000  1.0  -0.0138
  C  C303  1  0.465300  0.126600  0.198000  1.0  -0.001
  C  C304  1  0.387300  0.068100  0.198600  1.0  -0.0579
  C  C305  1  0.450100  0.145900  0.105900  1.0  -0.0887
  C  C306  1  0.371800  0.087500  0.107000  1.0  -0.0844
  C  C307  1  0.401900  0.129000  0.060200  1.0  0.0275
  C  C308  1  0.385000  0.152700  0.962700  1.0  0.1495
  C  C309  1  0.325500  0.142000  0.937500  1.0  -0.4154
  C  C310  1  0.420600  0.125400  0.883800  1.0  -0.3766
  C  C311  1  0.394800  0.214500  0.961800  1.0  -0.3906
  C  C312  1  0.787100  0.561500  0.092400  1.0  0.0584
  C  C313  1  0.870000  0.643500  0.937800  1.0  -0.0913
  C  C314  1  0.864200  0.605500  0.108600  1.0  -0.0877
  C  C315  1  0.827300  0.574900  0.159900  1.0  -0.1332
  C  C316  1  0.929800  0.633800  0.926500  1.0  -0.3727
  C  C317  1  0.932800  0.588800  0.747000  1.0  -0.0138
  C  C318  1  0.965300  0.626600  0.698000  1.0  -0.001
  C  C319  1  0.887300  0.568100  0.698600  1.0  -0.0579
  C  C320  1  0.950100  0.645900  0.605900  1.0  -0.0887
  C  C321  1  0.871800  0.587500  0.607000  1.0  -0.0844
  C  C322  1  0.901900  0.629000  0.560200  1.0  0.0275
  C  C323  1  0.885000  0.652700  0.462700  1.0  0.1495
  C  C324  1  0.825500  0.642000  0.437500  1.0  -0.4154
  C  C325  1  0.920600  0.625400  0.383800  1.0  -0.3766
  C  C326  1  0.894800  0.714500  0.461800  1.0  -0.3906
  C  C327  1  0.712900  0.938500  0.592400  1.0  0.0591
  C  C328  1  0.630000  0.856500  0.437800  1.0  -0.0917
  C  C329  1  0.635800  0.894500  0.608600  1.0  -0.0886
  C  C330  1  0.672700  0.925100  0.659900  1.0  -0.1335
  C  C331  1  0.570200  0.866200  0.426500  1.0  -0.3719
  C  C332  1  0.567200  0.911200  0.247000  1.0  -0.0116
  C  C333  1  0.534700  0.873400  0.198000  1.0  0.0
  C  C334  1  0.612700  0.931900  0.198600  1.0  -0.0565
  C  C335  1  0.549900  0.854100  0.105900  1.0  -0.0897
  C  C336  1  0.628200  0.912500  0.107000  1.0  -0.0858
  C  C337  1  0.598100  0.871000  0.060200  1.0  0.0273
  C  C338  1  0.615000  0.847300  0.962700  1.0  0.1498
  C  C339  1  0.674500  0.858000  0.937500  1.0  -0.4145
  C  C340  1  0.579400  0.874600  0.883800  1.0  -0.3749
  C  C341  1  0.605200  0.785500  0.961800  1.0  -0.3913
  C  C342  1  0.212900  0.438500  0.092400  1.0  0.0591
  C  C343  1  0.130000  0.356500  0.937800  1.0  -0.0917
  C  C344  1  0.135800  0.394500  0.108600  1.0  -0.0886
  C  C345  1  0.172700  0.425100  0.159900  1.0  -0.1335
  C  C346  1  0.070200  0.366200  0.926500  1.0  -0.3719
  C  C347  1  0.067200  0.411200  0.747000  1.0  -0.0116
  C  C348  1  0.034700  0.373400  0.698000  1.0  0.0
  C  C349  1  0.112700  0.431900  0.698600  1.0  -0.0565
  C  C350  1  0.049900  0.354100  0.605900  1.0  -0.0897
  C  C351  1  0.128200  0.412500  0.607000  1.0  -0.0858
  C  C352  1  0.098100  0.371000  0.560200  1.0  0.0273
  C  C353  1  0.115000  0.347300  0.462700  1.0  0.1498
  C  C354  1  0.174500  0.358000  0.437500  1.0  -0.4145
  C  C355  1  0.079400  0.374600  0.383800  1.0  -0.3749
  C  C356  1  0.105200  0.285500  0.461800  1.0  -0.3913
  C  C357  1  0.061500  0.712900  0.407600  1.0  0.0563
  C  C358  1  0.143500  0.630000  0.562200  1.0  -0.0924
  C  C359  1  0.105500  0.635800  0.391400  1.0  -0.0904
  C  C360  1  0.074900  0.672700  0.340100  1.0  -0.1343
  C  C361  1  0.133800  0.570200  0.573500  1.0  -0.3733
  C  C362  1  0.088800  0.567200  0.753000  1.0  -0.0143
  C  C363  1  0.126600  0.534700  0.802000  1.0  -0.0021
  C  C364  1  0.068100  0.612700  0.801400  1.0  -0.0573
  C  C365  1  0.145900  0.549900  0.894100  1.0  -0.0906
  C  C366  1  0.087500  0.628200  0.893000  1.0  -0.0843
  C  C367  1  0.129000  0.598100  0.939800  1.0  0.0277
  C  C368  1  0.152700  0.615000  0.037300  1.0  0.1496
  C  C369  1  0.142000  0.674500  0.062500  1.0  -0.4192
  C  C370  1  0.125400  0.579400  0.116200  1.0  -0.3759
  C  C371  1  0.214500  0.605200  0.038200  1.0  -0.3867
  C  C372  1  0.561500  0.212900  0.907600  1.0  0.0563
  C  C373  1  0.643500  0.130000  0.062200  1.0  -0.0924
  C  C374  1  0.605500  0.135800  0.891400  1.0  -0.0904
  C  C375  1  0.574900  0.172700  0.840100  1.0  -0.1343
  C  C376  1  0.633800  0.070200  0.073500  1.0  -0.3733
  C  C377  1  0.588800  0.067200  0.253000  1.0  -0.0143
  C  C378  1  0.626600  0.034700  0.302000  1.0  -0.0021
  C  C379  1  0.568100  0.112700  0.301400  1.0  -0.0573
  C  C380  1  0.645900  0.049900  0.394100  1.0  -0.0906
  C  C381  1  0.587500  0.128200  0.393000  1.0  -0.0843
  C  C382  1  0.629000  0.098100  0.439800  1.0  0.0277
  C  C383  1  0.652700  0.115000  0.537300  1.0  0.1496
  C  C384  1  0.642000  0.174500  0.562500  1.0  -0.4192
  C  C385  1  0.625400  0.079400  0.616200  1.0  -0.3759
  C  C386  1  0.714500  0.105200  0.538200  1.0  -0.3867
  C  C387  1  0.938500  0.287100  0.407600  1.0  0.0565
  C  C388  1  0.856500  0.370000  0.562200  1.0  -0.0925
  C  C389  1  0.894500  0.364200  0.391400  1.0  -0.0914
  C  C390  1  0.925100  0.327300  0.340100  1.0  -0.1332
  C  C391  1  0.866200  0.429800  0.573500  1.0  -0.3775
  C  C392  1  0.911200  0.432800  0.753000  1.0  -0.0121
  C  C393  1  0.873400  0.465300  0.802000  1.0  -0.001
  C  C394  1  0.931900  0.387300  0.801400  1.0  -0.0569
  C  C395  1  0.854100  0.450100  0.894100  1.0  -0.0916
  C  C396  1  0.912500  0.371800  0.893000  1.0  -0.0832
  C  C397  1  0.871000  0.401900  0.939800  1.0  0.0275
  C  C398  1  0.847300  0.385000  0.037300  1.0  0.1502
  C  C399  1  0.858000  0.325500  0.062500  1.0  -0.4195
  C  C400  1  0.874600  0.420600  0.116200  1.0  -0.3758
  C  C401  1  0.785500  0.394800  0.038200  1.0  -0.3874
  C  C402  1  0.438500  0.787100  0.907600  1.0  0.0565
  C  C403  1  0.356500  0.870000  0.062200  1.0  -0.0925
  C  C404  1  0.394500  0.864200  0.891400  1.0  -0.0914
  C  C405  1  0.425100  0.827300  0.840100  1.0  -0.1332
  C  C406  1  0.366200  0.929800  0.073500  1.0  -0.3775
  C  C407  1  0.411200  0.932800  0.253000  1.0  -0.0121
  C  C408  1  0.373400  0.965300  0.302000  1.0  -0.001
  C  C409  1  0.431900  0.887300  0.301400  1.0  -0.0569
  C  C410  1  0.354100  0.950100  0.394100  1.0  -0.0916
  C  C411  1  0.412500  0.871800  0.393000  1.0  -0.0832
  C  C412  1  0.371000  0.901900  0.439800  1.0  0.0275
  C  C413  1  0.347300  0.885000  0.537300  1.0  0.1502
  C  C414  1  0.358000  0.825500  0.562500  1.0  -0.4195
  C  C415  1  0.374600  0.920600  0.616200  1.0  -0.3758
  C  C416  1  0.285500  0.894800  0.538200  1.0  -0.3874
  C  C417  1  0.212900  0.061500  0.157600  1.0  0.0591
  C  C418  1  0.130000  0.143500  0.312200  1.0  -0.091
  C  C419  1  0.135800  0.105500  0.141400  1.0  -0.0896
  C  C420  1  0.172700  0.074900  0.090100  1.0  -0.1326
  C  C421  1  0.070200  0.133800  0.323500  1.0  -0.3708
  C  C422  1  0.067200  0.088800  0.503000  1.0  -0.0135
  C  C423  1  0.034700  0.126600  0.552000  1.0  -0.0012
  C  C424  1  0.112700  0.068100  0.551400  1.0  -0.0583
  C  C425  1  0.049900  0.145900  0.644100  1.0  -0.0895
  C  C426  1  0.128200  0.087500  0.643000  1.0  -0.0848
  C  C427  1  0.098100  0.129000  0.689800  1.0  0.0274
  C  C428  1  0.115000  0.152700  0.787300  1.0  0.1503
  C  C429  1  0.174500  0.142000  0.812500  1.0  -0.4153
  C  C430  1  0.079400  0.125400  0.866200  1.0  -0.3755
  C  C431  1  0.105200  0.214500  0.788200  1.0  -0.3903
  C  C432  1  0.712900  0.561500  0.657600  1.0  0.0591
  C  C433  1  0.630000  0.643500  0.812200  1.0  -0.091
  C  C434  1  0.635800  0.605500  0.641400  1.0  -0.0896
  C  C435  1  0.672700  0.574900  0.590100  1.0  -0.1326
  C  C436  1  0.570200  0.633800  0.823500  1.0  -0.3708
  C  C437  1  0.567200  0.588800  0.003000  1.0  -0.0135
  C  C438  1  0.534700  0.626600  0.052000  1.0  -0.0012
  C  C439  1  0.612700  0.568100  0.051400  1.0  -0.0583
  C  C440  1  0.549900  0.645900  0.144100  1.0  -0.0895
  C  C441  1  0.628200  0.587500  0.143000  1.0  -0.0848
  C  C442  1  0.598100  0.629000  0.189800  1.0  0.0274
  C  C443  1  0.615000  0.652700  0.287300  1.0  0.1503
  C  C444  1  0.674500  0.642000  0.312500  1.0  -0.4153
  C  C445  1  0.579400  0.625400  0.366200  1.0  -0.3755
  C  C446  1  0.605200  0.714500  0.288200  1.0  -0.3903
  C  C447  1  0.787100  0.938500  0.157600  1.0  0.0595
  C  C448  1  0.870000  0.856500  0.312200  1.0  -0.0916
  C  C449  1  0.864200  0.894500  0.141400  1.0  -0.0879
  C  C450  1  0.827300  0.925100  0.090100  1.0  -0.1325
  C  C451  1  0.929800  0.866200  0.323500  1.0  -0.371
  C  C452  1  0.932800  0.911200  0.503000  1.0  -0.0115
  C  C453  1  0.965300  0.873400  0.552000  1.0  -0.002
  C  C454  1  0.887300  0.931900  0.551400  1.0  -0.057
  C  C455  1  0.950100  0.854100  0.644100  1.0  -0.0893
  C  C456  1  0.871800  0.912500  0.643000  1.0  -0.0847
  C  C457  1  0.901900  0.871000  0.689800  1.0  0.0269
  C  C458  1  0.885000  0.847300  0.787300  1.0  0.1504
  C  C459  1  0.825500  0.858000  0.812500  1.0  -0.4156
  C  C460  1  0.920600  0.874600  0.866200  1.0  -0.3755
  C  C461  1  0.894800  0.785500  0.788200  1.0  -0.3911
  C  C462  1  0.287100  0.438500  0.657600  1.0  0.0595
  C  C463  1  0.370000  0.356500  0.812200  1.0  -0.0916
  C  C464  1  0.364200  0.394500  0.641400  1.0  -0.0879
  C  C465  1  0.327300  0.425100  0.590100  1.0  -0.1325
  C  C466  1  0.429800  0.366200  0.823500  1.0  -0.371
  C  C467  1  0.432800  0.411200  0.003000  1.0  -0.0115
  C  C468  1  0.465300  0.373400  0.052000  1.0  -0.002
  C  C469  1  0.387300  0.431900  0.051400  1.0  -0.057
  C  C470  1  0.450100  0.354100  0.144100  1.0  -0.0893
  C  C471  1  0.371800  0.412500  0.143000  1.0  -0.0847
  C  C472  1  0.401900  0.371000  0.189800  1.0  0.0269
  C  C473  1  0.385000  0.347300  0.287300  1.0  0.1504
  C  C474  1  0.325500  0.358000  0.312500  1.0  -0.4156
  C  C475  1  0.420600  0.374600  0.366200  1.0  -0.3755
  C  C476  1  0.394800  0.285500  0.288200  1.0  -0.3911
  C  C477  1  0.438500  0.712900  0.342400  1.0  0.0563
  C  C478  1  0.356500  0.630000  0.187800  1.0  -0.0932
  C  C479  1  0.394500  0.635800  0.358600  1.0  -0.0898
  C  C480  1  0.425100  0.672700  0.409900  1.0  -0.134
  C  C481  1  0.366200  0.570200  0.176500  1.0  -0.3778
  C  C482  1  0.411200  0.567200  0.997000  1.0  -0.013
  C  C483  1  0.373400  0.534700  0.948000  1.0  -0.0011
  C  C484  1  0.431900  0.612700  0.948600  1.0  -0.0558
  C  C485  1  0.354100  0.549900  0.855900  1.0  -0.0902
  C  C486  1  0.412500  0.628200  0.857000  1.0  -0.0843
  C  C487  1  0.371000  0.598100  0.810200  1.0  0.0272
  C  C488  1  0.347300  0.615000  0.712700  1.0  0.1493
  C  C489  1  0.358000  0.674500  0.687500  1.0  -0.4198
  C  C490  1  0.374600  0.579400  0.633800  1.0  -0.3765
  C  C491  1  0.285500  0.605200  0.711800  1.0  -0.3875
  C  C492  1  0.938500  0.212900  0.842400  1.0  0.0563
  C  C493  1  0.856500  0.130000  0.687800  1.0  -0.0932
  C  C494  1  0.894500  0.135800  0.858600  1.0  -0.0898
  C  C495  1  0.925100  0.172700  0.909900  1.0  -0.134
  C  C496  1  0.866200  0.070200  0.676500  1.0  -0.3778
  C  C497  1  0.911200  0.067200  0.497000  1.0  -0.013
  C  C498  1  0.873400  0.034700  0.448000  1.0  -0.0011
  C  C499  1  0.931900  0.112700  0.448600  1.0  -0.0558
  C  C500  1  0.854100  0.049900  0.355900  1.0  -0.0902
  C  C501  1  0.912500  0.128200  0.357000  1.0  -0.0843
  C  C502  1  0.871000  0.098100  0.310200  1.0  0.0272
  C  C503  1  0.847300  0.115000  0.212700  1.0  0.1493
  C  C504  1  0.858000  0.174500  0.187500  1.0  -0.4198
  C  C505  1  0.874600  0.079400  0.133800  1.0  -0.3765
  C  C506  1  0.785500  0.105200  0.211800  1.0  -0.3875
  C  C507  1  0.561500  0.287100  0.342400  1.0  0.0562
  C  C508  1  0.643500  0.370000  0.187800  1.0  -0.0929
  C  C509  1  0.605500  0.364200  0.358600  1.0  -0.09
  C  C510  1  0.574900  0.327300  0.409900  1.0  -0.1352
  C  C511  1  0.633800  0.429800  0.176500  1.0  -0.3738
  C  C512  1  0.588800  0.432800  0.997000  1.0  -0.0133
  C  C513  1  0.626600  0.465300  0.948000  1.0  -0.0
  C  C514  1  0.568100  0.387300  0.948600  1.0  -0.0575
  C  C515  1  0.645900  0.450100  0.855900  1.0  -0.0905
  C  C516  1  0.587500  0.371800  0.857000  1.0  -0.0842
  C  C517  1  0.629000  0.401900  0.810200  1.0  0.0277
  C  C518  1  0.652700  0.385000  0.712700  1.0  0.1494
  C  C519  1  0.642000  0.325500  0.687500  1.0  -0.4193
  C  C520  1  0.625400  0.420600  0.633800  1.0  -0.3756
  C  C521  1  0.714500  0.394800  0.711800  1.0  -0.3872
  C  C522  1  0.061500  0.787100  0.842400  1.0  0.0562
  C  C523  1  0.143500  0.870000  0.687800  1.0  -0.0929
  C  C524  1  0.105500  0.864200  0.858600  1.0  -0.09
  C  C525  1  0.074900  0.827300  0.909900  1.0  -0.1352
  C  C526  1  0.133800  0.929800  0.676500  1.0  -0.3738
  C  C527  1  0.088800  0.932800  0.497000  1.0  -0.0133
  C  C528  1  0.126600  0.965300  0.448000  1.0  -0.0
  C  C529  1  0.068100  0.887300  0.448600  1.0  -0.0575
  C  C530  1  0.145900  0.950100  0.355900  1.0  -0.0905
  C  C531  1  0.087500  0.871800  0.357000  1.0  -0.0842
  C  C532  1  0.129000  0.901900  0.310200  1.0  0.0277
  C  C533  1  0.152700  0.885000  0.212700  1.0  0.1494
  C  C534  1  0.142000  0.825500  0.187500  1.0  -0.4193
  C  C535  1  0.125400  0.920600  0.133800  1.0  -0.3756
  C  C536  1  0.214500  0.894800  0.211800  1.0  -0.3872
  S  S537  1  0.447390  0.068780  0.368310  1.0  0.0055
  S  S538  1  0.522500  0.161070  0.247690  1.0  -0.0571
  S  S539  1  0.947390  0.568780  0.868310  1.0  0.0055
  S  S540  1  0.022500  0.661070  0.747690  1.0  -0.0571
  S  S541  1  0.552610  0.931220  0.368310  1.0  0.0038
  S  S542  1  0.477500  0.838930  0.247690  1.0  -0.0576
  S  S543  1  0.052610  0.431220  0.868310  1.0  0.0038
  S  S544  1  0.977500  0.338930  0.747690  1.0  -0.0576
  S  S545  1  0.068780  0.552610  0.631690  1.0  0.0049
  S  S546  1  0.161070  0.477500  0.752310  1.0  -0.0558
  S  S547  1  0.568780  0.052610  0.131690  1.0  0.0049
  S  S548  1  0.661070  0.977500  0.252310  1.0  -0.0558
  S  S549  1  0.931220  0.447390  0.631690  1.0  0.0039
  S  S550  1  0.838930  0.522500  0.752310  1.0  -0.0562
  S  S551  1  0.431220  0.947390  0.131690  1.0  0.0039
  S  S552  1  0.338930  0.022500  0.252310  1.0  -0.0562
  S  S553  1  0.052610  0.068780  0.381690  1.0  0.0052
  S  S554  1  0.977500  0.161070  0.502310  1.0  -0.0568
  S  S555  1  0.552610  0.568780  0.881690  1.0  0.0052
  S  S556  1  0.477500  0.661070  0.002310  1.0  -0.0568
  S  S557  1  0.947390  0.931220  0.381690  1.0  0.0022
  S  S558  1  0.022500  0.838930  0.502310  1.0  -0.0566
  S  S559  1  0.447390  0.431220  0.881690  1.0  0.0022
  S  S560  1  0.522500  0.338930  0.002310  1.0  -0.0566
  S  S561  1  0.431220  0.552610  0.118310  1.0  0.0048
  S  S562  1  0.338930  0.477500  0.997690  1.0  -0.0566
  S  S563  1  0.931220  0.052610  0.618310  1.0  0.0048
  S  S564  1  0.838930  0.977500  0.497690  1.0  -0.0566
  S  S565  1  0.568780  0.447390  0.118310  1.0  0.0045
  S  S566  1  0.661070  0.522500  0.997690  1.0  -0.0565
  S  S567  1  0.068780  0.947390  0.618310  1.0  0.0045
  S  S568  1  0.161070  0.022500  0.497690  1.0  -0.0565
  N  N569  1  0.201600  0.082800  0.245000  1.0  -0.2974
  N  N570  1  0.345600  0.110800  0.516100  1.0  0.1524
  N  N571  1  0.701600  0.582800  0.745000  1.0  -0.2974
  N  N572  1  0.845600  0.610800  0.016100  1.0  0.1524
  N  N573  1  0.798400  0.917200  0.245000  1.0  -0.297
  N  N574  1  0.654400  0.889200  0.516100  1.0  0.1523
  N  N575  1  0.298400  0.417200  0.745000  1.0  -0.297
  N  N576  1  0.154400  0.389200  0.016100  1.0  0.1523
  N  N577  1  0.082800  0.798400  0.755000  1.0  -0.2969
  N  N578  1  0.110800  0.654400  0.483900  1.0  0.1539
  N  N579  1  0.582800  0.298400  0.255000  1.0  -0.2969
  N  N580  1  0.610800  0.154400  0.983900  1.0  0.1539
  N  N581  1  0.917200  0.201600  0.755000  1.0  -0.2966
  N  N582  1  0.889200  0.345600  0.483900  1.0  0.1537
  N  N583  1  0.417200  0.701600  0.255000  1.0  -0.2966
  N  N584  1  0.389200  0.845600  0.983900  1.0  0.1537
  N  N585  1  0.298400  0.082800  0.505000  1.0  -0.2965
  N  N586  1  0.154400  0.110800  0.233900  1.0  0.1531
  N  N587  1  0.798400  0.582800  0.005000  1.0  -0.2965
  N  N588  1  0.654400  0.610800  0.733900  1.0  0.1531
  N  N589  1  0.701600  0.917200  0.505000  1.0  -0.2971
  N  N590  1  0.845600  0.889200  0.233900  1.0  0.1528
  N  N591  1  0.201600  0.417200  0.005000  1.0  -0.2971
  N  N592  1  0.345600  0.389200  0.733900  1.0  0.1528
  N  N593  1  0.417200  0.798400  0.995000  1.0  -0.2977
  N  N594  1  0.389200  0.654400  0.266100  1.0  0.1532
  N  N595  1  0.917200  0.298400  0.495000  1.0  -0.2977
  N  N596  1  0.889200  0.154400  0.766100  1.0  0.1532
  N  N597  1  0.582800  0.201600  0.995000  1.0  -0.2969
  N  N598  1  0.610800  0.345600  0.266100  1.0  0.1531
  N  N599  1  0.082800  0.701600  0.495000  1.0  -0.2969
  N  N600  1  0.110800  0.845600  0.766100  1.0  0.1531
