# generated using pymatgen
data_AgH36C30(SN)4
_symmetry_space_group_name_H-M   'P 1'
_cell_length_a   24.25380000
_cell_length_b   24.25380000
_cell_length_c   13.68090000
_cell_angle_alpha   90.00000000
_cell_angle_beta   90.00000000
_cell_angle_gamma   90.00000000
_symmetry_Int_Tables_number   1
_chemical_formula_structural   AgH36C30(SN)4
_chemical_formula_sum   'Ag8 H288 C240 S32 N32'
_cell_volume   8047.74584367
_cell_formula_units_Z   8
loop_
 _symmetry_equiv_pos_site_id
 _symmetry_equiv_pos_as_xyz
  1  'x, y, z'
loop_
 _atom_site_type_symbol
 _atom_site_label
 _atom_site_symmetry_multiplicity
 _atom_site_fract_x
 _atom_site_fract_y
 _atom_site_fract_z
 _atom_site_occupancy
 _atom_site_charge
  Ag  Ag1  1  0.250000  0.077660  0.375000  1.0  0.3347
  Ag  Ag2  1  0.750000  0.577660  0.875000  1.0  0.3347
  Ag  Ag3  1  0.750000  0.922340  0.375000  1.0  0.335
  Ag  Ag4  1  0.250000  0.422340  0.875000  1.0  0.335
  Ag  Ag5  1  0.077660  0.750000  0.625000  1.0  0.3339
  Ag  Ag6  1  0.922340  0.250000  0.625000  1.0  0.3339
  Ag  Ag7  1  0.422340  0.750000  0.125000  1.0  0.3339
  Ag  Ag8  1  0.577660  0.250000  0.125000  1.0  0.3339
  H  H9  1  0.028100  0.172200  0.678100  1.0  0.0923
  H  H10  1  0.161500  0.073500  0.674500  1.0  0.0973
  H  H11  1  0.050700  0.134000  0.255700  1.0  0.1242
  H  H12  1  0.051700  0.164300  0.359500  1.0  0.1241
  H  H13  1  0.135100  0.184500  0.293900  1.0  0.1142
  H  H14  1  0.148400  0.137000  0.371700  1.0  0.1198
  H  H15  1  0.244000  0.038700  0.143000  1.0  0.0974
  H  H16  1  0.171100  0.065500  0.021200  1.0  0.1168
  H  H17  1  0.105400  0.125900  0.113300  1.0  0.1053
  H  H18  1  0.128800  0.232200  0.738400  1.0  0.1063
  H  H19  1  0.117100  0.230000  0.853500  1.0  0.1106
  H  H20  1  0.067400  0.222900  0.777600  1.0  0.0918
  H  H21  1  0.039600  0.131200  0.849800  1.0  0.1
  H  H22  1  0.085100  0.144500  0.931200  1.0  0.1118
  H  H23  1  0.086800  0.087100  0.873500  1.0  0.1115
  H  H24  1  0.181900  0.102600  0.823600  1.0  0.1034
  H  H25  1  0.186900  0.162800  0.870600  1.0  0.1059
  H  H26  1  0.199200  0.154000  0.756700  1.0  0.1053
  H  H27  1  0.528100  0.672200  0.178100  1.0  0.0923
  H  H28  1  0.661500  0.573500  0.174500  1.0  0.0973
  H  H29  1  0.550700  0.634000  0.755700  1.0  0.1242
  H  H30  1  0.551700  0.664300  0.859500  1.0  0.1241
  H  H31  1  0.635100  0.684500  0.793900  1.0  0.1142
  H  H32  1  0.648400  0.637000  0.871700  1.0  0.1198
  H  H33  1  0.744000  0.538700  0.643000  1.0  0.0974
  H  H34  1  0.671100  0.565500  0.521200  1.0  0.1168
  H  H35  1  0.605400  0.625900  0.613300  1.0  0.1053
  H  H36  1  0.628800  0.732200  0.238400  1.0  0.1063
  H  H37  1  0.617100  0.730000  0.353500  1.0  0.1106
  H  H38  1  0.567400  0.722900  0.277600  1.0  0.0918
  H  H39  1  0.539600  0.631200  0.349800  1.0  0.1
  H  H40  1  0.585100  0.644500  0.431200  1.0  0.1118
  H  H41  1  0.586800  0.587100  0.373500  1.0  0.1115
  H  H42  1  0.681900  0.602600  0.323600  1.0  0.1034
  H  H43  1  0.686900  0.662800  0.370600  1.0  0.1059
  H  H44  1  0.699200  0.654000  0.256700  1.0  0.1053
  H  H45  1  0.971900  0.827800  0.678100  1.0  0.0928
  H  H46  1  0.838500  0.926500  0.674500  1.0  0.097
  H  H47  1  0.949300  0.866000  0.255700  1.0  0.1243
  H  H48  1  0.948300  0.835700  0.359500  1.0  0.1243
  H  H49  1  0.864900  0.815500  0.293900  1.0  0.1133
  H  H50  1  0.851600  0.863000  0.371700  1.0  0.1206
  H  H51  1  0.756000  0.961300  0.143000  1.0  0.0971
  H  H52  1  0.828900  0.934500  0.021200  1.0  0.1164
  H  H53  1  0.894600  0.874100  0.113300  1.0  0.1052
  H  H54  1  0.871200  0.767800  0.738400  1.0  0.1068
  H  H55  1  0.882900  0.770000  0.853500  1.0  0.111
  H  H56  1  0.932600  0.777100  0.777600  1.0  0.0966
  H  H57  1  0.960400  0.868800  0.849800  1.0  0.1017
  H  H58  1  0.914900  0.855500  0.931200  1.0  0.112
  H  H59  1  0.913200  0.912900  0.873500  1.0  0.1117
  H  H60  1  0.818100  0.897400  0.823600  1.0  0.1009
  H  H61  1  0.813100  0.837200  0.870600  1.0  0.1061
  H  H62  1  0.800800  0.846000  0.756700  1.0  0.1031
  H  H63  1  0.471900  0.327800  0.178100  1.0  0.0928
  H  H64  1  0.338500  0.426500  0.174500  1.0  0.097
  H  H65  1  0.449300  0.366000  0.755700  1.0  0.1243
  H  H66  1  0.448300  0.335700  0.859500  1.0  0.1243
  H  H67  1  0.364900  0.315500  0.793900  1.0  0.1133
  H  H68  1  0.351600  0.363000  0.871700  1.0  0.1206
  H  H69  1  0.256000  0.461300  0.643000  1.0  0.0971
  H  H70  1  0.328900  0.434500  0.521200  1.0  0.1164
  H  H71  1  0.394600  0.374100  0.613300  1.0  0.1052
  H  H72  1  0.371200  0.267800  0.238400  1.0  0.1068
  H  H73  1  0.382900  0.270000  0.353500  1.0  0.111
  H  H74  1  0.432600  0.277100  0.277600  1.0  0.0966
  H  H75  1  0.460400  0.368800  0.349800  1.0  0.1017
  H  H76  1  0.414900  0.355500  0.431200  1.0  0.112
  H  H77  1  0.413200  0.412900  0.373500  1.0  0.1117
  H  H78  1  0.318100  0.397400  0.323600  1.0  0.1009
  H  H79  1  0.313100  0.337200  0.370600  1.0  0.1061
  H  H80  1  0.300800  0.346000  0.256700  1.0  0.1031
  H  H81  1  0.172200  0.971900  0.321900  1.0  0.093
  H  H82  1  0.073500  0.838500  0.325500  1.0  0.0982
  H  H83  1  0.134000  0.949300  0.744300  1.0  0.122
  H  H84  1  0.164300  0.948300  0.640500  1.0  0.1243
  H  H85  1  0.184500  0.864900  0.706100  1.0  0.1019
  H  H86  1  0.137000  0.851600  0.628300  1.0  0.1212
  H  H87  1  0.038700  0.756000  0.857000  1.0  0.0977
  H  H88  1  0.065500  0.828900  0.978800  1.0  0.1161
  H  H89  1  0.125900  0.894600  0.886700  1.0  0.1055
  H  H90  1  0.232200  0.871200  0.261600  1.0  0.1051
  H  H91  1  0.230000  0.882900  0.146500  1.0  0.11
  H  H92  1  0.222900  0.932600  0.222400  1.0  0.0935
  H  H93  1  0.131200  0.960400  0.150200  1.0  0.1048
  H  H94  1  0.144500  0.914900  0.068800  1.0  0.1129
  H  H95  1  0.087100  0.913200  0.126500  1.0  0.1106
  H  H96  1  0.102600  0.818100  0.176400  1.0  0.1026
  H  H97  1  0.162800  0.813100  0.129400  1.0  0.1054
  H  H98  1  0.154000  0.800800  0.243300  1.0  0.1043
  H  H99  1  0.672200  0.471900  0.821900  1.0  0.093
  H  H100  1  0.573500  0.338500  0.825500  1.0  0.0982
  H  H101  1  0.634000  0.449300  0.244300  1.0  0.122
  H  H102  1  0.664300  0.448300  0.140500  1.0  0.1243
  H  H103  1  0.684500  0.364900  0.206100  1.0  0.1019
  H  H104  1  0.637000  0.351600  0.128300  1.0  0.1212
  H  H105  1  0.538700  0.256000  0.357000  1.0  0.0977
  H  H106  1  0.565500  0.328900  0.478800  1.0  0.1161
  H  H107  1  0.625900  0.394600  0.386700  1.0  0.1055
  H  H108  1  0.732200  0.371200  0.761600  1.0  0.1051
  H  H109  1  0.730000  0.382900  0.646500  1.0  0.11
  H  H110  1  0.722900  0.432600  0.722400  1.0  0.0935
  H  H111  1  0.631200  0.460400  0.650200  1.0  0.1048
  H  H112  1  0.644500  0.414900  0.568800  1.0  0.1129
  H  H113  1  0.587100  0.413200  0.626500  1.0  0.1106
  H  H114  1  0.602600  0.318100  0.676400  1.0  0.1026
  H  H115  1  0.662800  0.313100  0.629400  1.0  0.1054
  H  H116  1  0.654000  0.300800  0.743300  1.0  0.1043
  H  H117  1  0.827800  0.028100  0.321900  1.0  0.0927
  H  H118  1  0.926500  0.161500  0.325500  1.0  0.0979
  H  H119  1  0.866000  0.050700  0.744300  1.0  0.123
  H  H120  1  0.835700  0.051700  0.640500  1.0  0.1245
  H  H121  1  0.815500  0.135100  0.706100  1.0  0.1019
  H  H122  1  0.863000  0.148400  0.628300  1.0  0.121
  H  H123  1  0.961300  0.244000  0.857000  1.0  0.097
  H  H124  1  0.934500  0.171100  0.978800  1.0  0.1158
  H  H125  1  0.874100  0.105400  0.886700  1.0  0.1053
  H  H126  1  0.767800  0.128800  0.261600  1.0  0.1057
  H  H127  1  0.770000  0.117100  0.146500  1.0  0.1089
  H  H128  1  0.777100  0.067400  0.222400  1.0  0.0951
  H  H129  1  0.868800  0.039600  0.150200  1.0  0.1045
  H  H130  1  0.855500  0.085100  0.068800  1.0  0.1118
  H  H131  1  0.912900  0.086800  0.126500  1.0  0.112
  H  H132  1  0.897400  0.181900  0.176400  1.0  0.102
  H  H133  1  0.837200  0.186900  0.129400  1.0  0.1052
  H  H134  1  0.846000  0.199200  0.243300  1.0  0.1032
  H  H135  1  0.327800  0.528100  0.821900  1.0  0.0927
  H  H136  1  0.426500  0.661500  0.825500  1.0  0.0979
  H  H137  1  0.366000  0.550700  0.244300  1.0  0.123
  H  H138  1  0.335700  0.551700  0.140500  1.0  0.1245
  H  H139  1  0.315500  0.635100  0.206100  1.0  0.1019
  H  H140  1  0.363000  0.648400  0.128300  1.0  0.121
  H  H141  1  0.461300  0.744000  0.357000  1.0  0.097
  H  H142  1  0.434500  0.671100  0.478800  1.0  0.1158
  H  H143  1  0.374100  0.605400  0.386700  1.0  0.1053
  H  H144  1  0.267800  0.628800  0.761600  1.0  0.1057
  H  H145  1  0.270000  0.617100  0.646500  1.0  0.1089
  H  H146  1  0.277100  0.567400  0.722400  1.0  0.0951
  H  H147  1  0.368800  0.539600  0.650200  1.0  0.1045
  H  H148  1  0.355500  0.585100  0.568800  1.0  0.1118
  H  H149  1  0.412900  0.586800  0.626500  1.0  0.112
  H  H150  1  0.397400  0.681900  0.676400  1.0  0.102
  H  H151  1  0.337200  0.686900  0.629400  1.0  0.1052
  H  H152  1  0.346000  0.699200  0.743300  1.0  0.1032
  H  H153  1  0.471900  0.172200  0.071900  1.0  0.0922
  H  H154  1  0.338500  0.073500  0.075500  1.0  0.0976
  H  H155  1  0.449300  0.134000  0.494300  1.0  0.1224
  H  H156  1  0.448300  0.164300  0.390500  1.0  0.1243
  H  H157  1  0.364900  0.184500  0.456100  1.0  0.1125
  H  H158  1  0.351600  0.137000  0.378300  1.0  0.1208
  H  H159  1  0.256000  0.038700  0.607000  1.0  0.0973
  H  H160  1  0.328900  0.065500  0.728800  1.0  0.1153
  H  H161  1  0.394600  0.125900  0.636700  1.0  0.1048
  H  H162  1  0.371200  0.232200  0.011600  1.0  0.106
  H  H163  1  0.382900  0.230000  0.896500  1.0  0.1105
  H  H164  1  0.432600  0.222900  0.972400  1.0  0.0973
  H  H165  1  0.460400  0.131200  0.900200  1.0  0.1036
  H  H166  1  0.414900  0.144500  0.818800  1.0  0.1133
  H  H167  1  0.413200  0.087100  0.876500  1.0  0.1127
  H  H168  1  0.318100  0.102600  0.926400  1.0  0.0998
  H  H169  1  0.313100  0.162800  0.879400  1.0  0.1061
  H  H170  1  0.300800  0.154000  0.993300  1.0  0.104
  H  H171  1  0.971900  0.672200  0.571900  1.0  0.0922
  H  H172  1  0.838500  0.573500  0.575500  1.0  0.0976
  H  H173  1  0.949300  0.634000  0.994300  1.0  0.1224
  H  H174  1  0.948300  0.664300  0.890500  1.0  0.1243
  H  H175  1  0.864900  0.684500  0.956100  1.0  0.1125
  H  H176  1  0.851600  0.637000  0.878300  1.0  0.1208
  H  H177  1  0.756000  0.538700  0.107000  1.0  0.0973
  H  H178  1  0.828900  0.565500  0.228800  1.0  0.1153
  H  H179  1  0.894600  0.625900  0.136700  1.0  0.1048
  H  H180  1  0.871200  0.732200  0.511600  1.0  0.106
  H  H181  1  0.882900  0.730000  0.396500  1.0  0.1105
  H  H182  1  0.932600  0.722900  0.472400  1.0  0.0973
  H  H183  1  0.960400  0.631200  0.400200  1.0  0.1036
  H  H184  1  0.914900  0.644500  0.318800  1.0  0.1133
  H  H185  1  0.913200  0.587100  0.376500  1.0  0.1127
  H  H186  1  0.818100  0.602600  0.426400  1.0  0.0998
  H  H187  1  0.813100  0.662800  0.379400  1.0  0.1061
  H  H188  1  0.800800  0.654000  0.493300  1.0  0.104
  H  H189  1  0.528100  0.827800  0.071900  1.0  0.0918
  H  H190  1  0.661500  0.926500  0.075500  1.0  0.0973
  H  H191  1  0.550700  0.866000  0.494300  1.0  0.1238
  H  H192  1  0.551700  0.835700  0.390500  1.0  0.1252
  H  H193  1  0.635100  0.815500  0.456100  1.0  0.113
  H  H194  1  0.648400  0.863000  0.378300  1.0  0.1207
  H  H195  1  0.744000  0.961300  0.607000  1.0  0.0969
  H  H196  1  0.671100  0.934500  0.728800  1.0  0.1157
  H  H197  1  0.605400  0.874100  0.636700  1.0  0.1053
  H  H198  1  0.628800  0.767800  0.011600  1.0  0.1053
  H  H199  1  0.617100  0.770000  0.896500  1.0  0.1108
  H  H200  1  0.567400  0.777100  0.972400  1.0  0.0925
  H  H201  1  0.539600  0.868800  0.900200  1.0  0.1011
  H  H202  1  0.585100  0.855500  0.818800  1.0  0.1135
  H  H203  1  0.586800  0.912900  0.876500  1.0  0.1125
  H  H204  1  0.681900  0.897400  0.926400  1.0  0.1018
  H  H205  1  0.686900  0.837200  0.879400  1.0  0.1065
  H  H206  1  0.699200  0.846000  0.993300  1.0  0.1045
  H  H207  1  0.028100  0.327800  0.571900  1.0  0.0918
  H  H208  1  0.161500  0.426500  0.575500  1.0  0.0973
  H  H209  1  0.050700  0.366000  0.994300  1.0  0.1238
  H  H210  1  0.051700  0.335700  0.890500  1.0  0.1252
  H  H211  1  0.135100  0.315500  0.956100  1.0  0.113
  H  H212  1  0.148400  0.363000  0.878300  1.0  0.1207
  H  H213  1  0.244000  0.461300  0.107000  1.0  0.0969
  H  H214  1  0.171100  0.434500  0.228800  1.0  0.1157
  H  H215  1  0.105400  0.374100  0.136700  1.0  0.1053
  H  H216  1  0.128800  0.267800  0.511600  1.0  0.1053
  H  H217  1  0.117100  0.270000  0.396500  1.0  0.1108
  H  H218  1  0.067400  0.277100  0.472400  1.0  0.0925
  H  H219  1  0.039600  0.368800  0.400200  1.0  0.1011
  H  H220  1  0.085100  0.355500  0.318800  1.0  0.1135
  H  H221  1  0.086800  0.412900  0.376500  1.0  0.1125
  H  H222  1  0.181900  0.397400  0.426400  1.0  0.1018
  H  H223  1  0.186900  0.337200  0.379400  1.0  0.1065
  H  H224  1  0.199200  0.346000  0.493300  1.0  0.1045
  H  H225  1  0.327800  0.971900  0.428100  1.0  0.0932
  H  H226  1  0.426500  0.838500  0.424500  1.0  0.0978
  H  H227  1  0.366000  0.949300  0.005700  1.0  0.1229
  H  H228  1  0.335700  0.948300  0.109500  1.0  0.1237
  H  H229  1  0.315500  0.864900  0.043900  1.0  0.1007
  H  H230  1  0.363000  0.851600  0.121700  1.0  0.1209
  H  H231  1  0.461300  0.756000  0.893000  1.0  0.0976
  H  H232  1  0.434500  0.828900  0.771200  1.0  0.117
  H  H233  1  0.374100  0.894600  0.863300  1.0  0.1061
  H  H234  1  0.267800  0.871200  0.488400  1.0  0.1063
  H  H235  1  0.270000  0.882900  0.603500  1.0  0.1101
  H  H236  1  0.277100  0.932600  0.527600  1.0  0.095
  H  H237  1  0.368800  0.960400  0.599800  1.0  0.1033
  H  H238  1  0.355500  0.914900  0.681200  1.0  0.111
  H  H239  1  0.412900  0.913200  0.623500  1.0  0.112
  H  H240  1  0.397400  0.818100  0.573600  1.0  0.1018
  H  H241  1  0.337200  0.813100  0.620600  1.0  0.1052
  H  H242  1  0.346000  0.800800  0.506700  1.0  0.1041
  H  H243  1  0.827800  0.471900  0.928100  1.0  0.0932
  H  H244  1  0.926500  0.338500  0.924500  1.0  0.0978
  H  H245  1  0.866000  0.449300  0.505700  1.0  0.1229
  H  H246  1  0.835700  0.448300  0.609500  1.0  0.1237
  H  H247  1  0.815500  0.364900  0.543900  1.0  0.1007
  H  H248  1  0.863000  0.351600  0.621700  1.0  0.1209
  H  H249  1  0.961300  0.256000  0.393000  1.0  0.0976
  H  H250  1  0.934500  0.328900  0.271200  1.0  0.117
  H  H251  1  0.874100  0.394600  0.363300  1.0  0.1061
  H  H252  1  0.767800  0.371200  0.988400  1.0  0.1063
  H  H253  1  0.770000  0.382900  0.103500  1.0  0.1101
  H  H254  1  0.777100  0.432600  0.027600  1.0  0.095
  H  H255  1  0.868800  0.460400  0.099800  1.0  0.1033
  H  H256  1  0.855500  0.414900  0.181200  1.0  0.111
  H  H257  1  0.912900  0.413200  0.123500  1.0  0.112
  H  H258  1  0.897400  0.318100  0.073600  1.0  0.1018
  H  H259  1  0.837200  0.313100  0.120600  1.0  0.1052
  H  H260  1  0.846000  0.300800  0.006700  1.0  0.1041
  H  H261  1  0.672200  0.028100  0.428100  1.0  0.0932
  H  H262  1  0.573500  0.161500  0.424500  1.0  0.0974
  H  H263  1  0.634000  0.050700  0.005700  1.0  0.1234
  H  H264  1  0.664300  0.051700  0.109500  1.0  0.1239
  H  H265  1  0.684500  0.135100  0.043900  1.0  0.1008
  H  H266  1  0.637000  0.148400  0.121700  1.0  0.1204
  H  H267  1  0.538700  0.244000  0.893000  1.0  0.0975
  H  H268  1  0.565500  0.171100  0.771200  1.0  0.117
  H  H269  1  0.625900  0.105400  0.863300  1.0  0.1055
  H  H270  1  0.732200  0.128800  0.488400  1.0  0.1061
  H  H271  1  0.730000  0.117100  0.603500  1.0  0.1102
  H  H272  1  0.722900  0.067400  0.527600  1.0  0.0942
  H  H273  1  0.631200  0.039600  0.599800  1.0  0.1026
  H  H274  1  0.644500  0.085100  0.681200  1.0  0.1115
  H  H275  1  0.587100  0.086800  0.623500  1.0  0.1102
  H  H276  1  0.602600  0.181900  0.573600  1.0  0.1025
  H  H277  1  0.662800  0.186900  0.620600  1.0  0.105
  H  H278  1  0.654000  0.199200  0.506700  1.0  0.1044
  H  H279  1  0.172200  0.528100  0.928100  1.0  0.0932
  H  H280  1  0.073500  0.661500  0.924500  1.0  0.0974
  H  H281  1  0.134000  0.550700  0.505700  1.0  0.1234
  H  H282  1  0.164300  0.551700  0.609500  1.0  0.1239
  H  H283  1  0.184500  0.635100  0.543900  1.0  0.1008
  H  H284  1  0.137000  0.648400  0.621700  1.0  0.1204
  H  H285  1  0.038700  0.744000  0.393000  1.0  0.0975
  H  H286  1  0.065500  0.671100  0.271200  1.0  0.117
  H  H287  1  0.125900  0.605400  0.363300  1.0  0.1055
  H  H288  1  0.232200  0.628800  0.988400  1.0  0.1061
  H  H289  1  0.230000  0.617100  0.103500  1.0  0.1102
  H  H290  1  0.222900  0.567400  0.027600  1.0  0.0942
  H  H291  1  0.131200  0.539600  0.099800  1.0  0.1026
  H  H292  1  0.144500  0.585100  0.181200  1.0  0.1115
  H  H293  1  0.087100  0.586800  0.123500  1.0  0.1102
  H  H294  1  0.102600  0.681900  0.073600  1.0  0.1025
  H  H295  1  0.162800  0.686900  0.120600  1.0  0.105
  H  H296  1  0.154000  0.699200  0.006700  1.0  0.1044
  C  C297  1  0.114000  0.068100  0.550800  1.0  -0.0369
  C  C298  1  0.067800  0.089100  0.502200  1.0  -0.0314
  C  C299  1  0.035100  0.127100  0.553000  1.0  -0.0331
  C  C300  1  0.051000  0.146400  0.645100  1.0  -0.1119
  C  C301  1  0.099100  0.129200  0.689300  1.0  0.0073
  C  C302  1  0.129700  0.088100  0.643300  1.0  -0.1049
  C  C303  1  0.068200  0.133900  0.321100  1.0  -0.349
  C  C304  1  0.129500  0.145000  0.309200  1.0  -0.0812
  C  C305  1  0.212900  0.061200  0.156600  1.0  0.0696
  C  C306  1  0.173000  0.075800  0.088200  1.0  -0.1346
  C  C307  1  0.137200  0.108300  0.139300  1.0  -0.0808
  C  C308  1  0.115700  0.152900  0.788900  1.0  0.1482
  C  C309  1  0.106400  0.215100  0.789700  1.0  -0.3856
  C  C310  1  0.078300  0.126500  0.868200  1.0  -0.3818
  C  C311  1  0.176400  0.142100  0.812000  1.0  -0.3787
  C  C312  1  0.614000  0.568100  0.050800  1.0  -0.0369
  C  C313  1  0.567800  0.589100  0.002200  1.0  -0.0314
  C  C314  1  0.535100  0.627100  0.053000  1.0  -0.0331
  C  C315  1  0.551000  0.646400  0.145100  1.0  -0.1119
  C  C316  1  0.599100  0.629200  0.189300  1.0  0.0073
  C  C317  1  0.629700  0.588100  0.143300  1.0  -0.1049
  C  C318  1  0.568200  0.633900  0.821100  1.0  -0.349
  C  C319  1  0.629500  0.645000  0.809200  1.0  -0.0812
  C  C320  1  0.712900  0.561200  0.656600  1.0  0.0696
  C  C321  1  0.673000  0.575800  0.588200  1.0  -0.1346
  C  C322  1  0.637200  0.608300  0.639300  1.0  -0.0808
  C  C323  1  0.615700  0.652900  0.288900  1.0  0.1482
  C  C324  1  0.606400  0.715100  0.289700  1.0  -0.3856
  C  C325  1  0.578300  0.626500  0.368200  1.0  -0.3818
  C  C326  1  0.676400  0.642100  0.312000  1.0  -0.3787
  C  C327  1  0.886000  0.931900  0.550800  1.0  -0.0364
  C  C328  1  0.932200  0.910900  0.502200  1.0  -0.0309
  C  C329  1  0.964900  0.872900  0.553000  1.0  -0.0321
  C  C330  1  0.949000  0.853600  0.645100  1.0  -0.1125
  C  C331  1  0.900900  0.870800  0.689300  1.0  0.0078
  C  C332  1  0.870300  0.911900  0.643300  1.0  -0.1064
  C  C333  1  0.931800  0.866100  0.321100  1.0  -0.3494
  C  C334  1  0.870500  0.855000  0.309200  1.0  -0.0798
  C  C335  1  0.787100  0.938800  0.156600  1.0  0.069
  C  C336  1  0.827000  0.924200  0.088200  1.0  -0.1354
  C  C337  1  0.862800  0.891700  0.139300  1.0  -0.0807
  C  C338  1  0.884300  0.847100  0.788900  1.0  0.1486
  C  C339  1  0.893600  0.784900  0.789700  1.0  -0.3852
  C  C340  1  0.921700  0.873500  0.868200  1.0  -0.3825
  C  C341  1  0.823600  0.857900  0.812000  1.0  -0.3789
  C  C342  1  0.386000  0.431900  0.050800  1.0  -0.0364
  C  C343  1  0.432200  0.410900  0.002200  1.0  -0.0309
  C  C344  1  0.464900  0.372900  0.053000  1.0  -0.0321
  C  C345  1  0.449000  0.353600  0.145100  1.0  -0.1125
  C  C346  1  0.400900  0.370800  0.189300  1.0  0.0078
  C  C347  1  0.370300  0.411900  0.143300  1.0  -0.1064
  C  C348  1  0.431800  0.366100  0.821100  1.0  -0.3494
  C  C349  1  0.370500  0.355000  0.809200  1.0  -0.0798
  C  C350  1  0.287100  0.438800  0.656600  1.0  0.069
  C  C351  1  0.327000  0.424200  0.588200  1.0  -0.1354
  C  C352  1  0.362800  0.391700  0.639300  1.0  -0.0807
  C  C353  1  0.384300  0.347100  0.288900  1.0  0.1486
  C  C354  1  0.393600  0.284900  0.289700  1.0  -0.3852
  C  C355  1  0.421700  0.373500  0.368200  1.0  -0.3825
  C  C356  1  0.323600  0.357900  0.312000  1.0  -0.3789
  C  C357  1  0.068100  0.886000  0.449200  1.0  -0.0366
  C  C358  1  0.089100  0.932200  0.497800  1.0  -0.0324
  C  C359  1  0.127100  0.964900  0.447000  1.0  -0.0309
  C  C360  1  0.146400  0.949000  0.354900  1.0  -0.1135
  C  C361  1  0.129200  0.900900  0.310700  1.0  0.0077
  C  C362  1  0.088100  0.870300  0.356700  1.0  -0.1064
  C  C363  1  0.133900  0.931800  0.678900  1.0  -0.3544
  C  C364  1  0.145000  0.870500  0.690800  1.0  -0.0822
  C  C365  1  0.061200  0.787100  0.843400  1.0  0.0686
  C  C366  1  0.075800  0.827000  0.911800  1.0  -0.1378
  C  C367  1  0.108300  0.862800  0.860700  1.0  -0.0818
  C  C368  1  0.152900  0.884300  0.211100  1.0  0.1471
  C  C369  1  0.215100  0.893600  0.210300  1.0  -0.3822
  C  C370  1  0.126500  0.921700  0.131800  1.0  -0.3827
  C  C371  1  0.142100  0.823600  0.188000  1.0  -0.3783
  C  C372  1  0.568100  0.386000  0.949200  1.0  -0.0366
  C  C373  1  0.589100  0.432200  0.997800  1.0  -0.0324
  C  C374  1  0.627100  0.464900  0.947000  1.0  -0.0309
  C  C375  1  0.646400  0.449000  0.854900  1.0  -0.1135
  C  C376  1  0.629200  0.400900  0.810700  1.0  0.0077
  C  C377  1  0.588100  0.370300  0.856700  1.0  -0.1064
  C  C378  1  0.633900  0.431800  0.178900  1.0  -0.3544
  C  C379  1  0.645000  0.370500  0.190800  1.0  -0.0822
  C  C380  1  0.561200  0.287100  0.343400  1.0  0.0686
  C  C381  1  0.575800  0.327000  0.411800  1.0  -0.1378
  C  C382  1  0.608300  0.362800  0.360700  1.0  -0.0818
  C  C383  1  0.652900  0.384300  0.711100  1.0  0.1471
  C  C384  1  0.715100  0.393600  0.710300  1.0  -0.3822
  C  C385  1  0.626500  0.421700  0.631800  1.0  -0.3827
  C  C386  1  0.642100  0.323600  0.688000  1.0  -0.3783
  C  C387  1  0.931900  0.114000  0.449200  1.0  -0.037
  C  C388  1  0.910900  0.067800  0.497800  1.0  -0.0313
  C  C389  1  0.872900  0.035100  0.447000  1.0  -0.0324
  C  C390  1  0.853600  0.051000  0.354900  1.0  -0.1132
  C  C391  1  0.870800  0.099100  0.310700  1.0  0.0076
  C  C392  1  0.911900  0.129700  0.356700  1.0  -0.1075
  C  C393  1  0.866100  0.068200  0.678900  1.0  -0.3556
  C  C394  1  0.855000  0.129500  0.690800  1.0  -0.0818
  C  C395  1  0.938800  0.212900  0.843400  1.0  0.0691
  C  C396  1  0.924200  0.173000  0.911800  1.0  -0.1359
  C  C397  1  0.891700  0.137200  0.860700  1.0  -0.0815
  C  C398  1  0.847100  0.115700  0.211100  1.0  0.1463
  C  C399  1  0.784900  0.106400  0.210300  1.0  -0.3834
  C  C400  1  0.873500  0.078300  0.131800  1.0  -0.3836
  C  C401  1  0.857900  0.176400  0.188000  1.0  -0.379
  C  C402  1  0.431900  0.614000  0.949200  1.0  -0.037
  C  C403  1  0.410900  0.567800  0.997800  1.0  -0.0313
  C  C404  1  0.372900  0.535100  0.947000  1.0  -0.0324
  C  C405  1  0.353600  0.551000  0.854900  1.0  -0.1132
  C  C406  1  0.370800  0.599100  0.810700  1.0  0.0076
  C  C407  1  0.411900  0.629700  0.856700  1.0  -0.1075
  C  C408  1  0.366100  0.568200  0.178900  1.0  -0.3556
  C  C409  1  0.355000  0.629500  0.190800  1.0  -0.0818
  C  C410  1  0.438800  0.712900  0.343400  1.0  0.0691
  C  C411  1  0.424200  0.673000  0.411800  1.0  -0.1359
  C  C412  1  0.391700  0.637200  0.360700  1.0  -0.0815
  C  C413  1  0.347100  0.615700  0.711100  1.0  0.1463
  C  C414  1  0.284900  0.606400  0.710300  1.0  -0.3834
  C  C415  1  0.373500  0.578300  0.631800  1.0  -0.3836
  C  C416  1  0.357900  0.676400  0.688000  1.0  -0.379
  C  C417  1  0.386000  0.068100  0.199200  1.0  -0.0363
  C  C418  1  0.432200  0.089100  0.247800  1.0  -0.0327
  C  C419  1  0.464900  0.127100  0.197000  1.0  -0.0307
  C  C420  1  0.449000  0.146400  0.104900  1.0  -0.1119
  C  C421  1  0.400900  0.129200  0.060700  1.0  0.0079
  C  C422  1  0.370300  0.088100  0.106700  1.0  -0.1052
  C  C423  1  0.431800  0.133900  0.428900  1.0  -0.3507
  C  C424  1  0.370500  0.145000  0.440800  1.0  -0.0793
  C  C425  1  0.287100  0.061200  0.593400  1.0  0.0689
  C  C426  1  0.327000  0.075800  0.661800  1.0  -0.1349
  C  C427  1  0.362800  0.108300  0.610700  1.0  -0.0807
  C  C428  1  0.384300  0.152900  0.961100  1.0  0.1473
  C  C429  1  0.393600  0.215100  0.960300  1.0  -0.3849
  C  C430  1  0.421700  0.126500  0.881800  1.0  -0.384
  C  C431  1  0.323600  0.142100  0.938000  1.0  -0.3788
  C  C432  1  0.886000  0.568100  0.699200  1.0  -0.0363
  C  C433  1  0.932200  0.589100  0.747800  1.0  -0.0327
  C  C434  1  0.964900  0.627100  0.697000  1.0  -0.0307
  C  C435  1  0.949000  0.646400  0.604900  1.0  -0.1119
  C  C436  1  0.900900  0.629200  0.560700  1.0  0.0079
  C  C437  1  0.870300  0.588100  0.606700  1.0  -0.1052
  C  C438  1  0.931800  0.633900  0.928900  1.0  -0.3507
  C  C439  1  0.870500  0.645000  0.940800  1.0  -0.0793
  C  C440  1  0.787100  0.561200  0.093400  1.0  0.0689
  C  C441  1  0.827000  0.575800  0.161800  1.0  -0.1349
  C  C442  1  0.862800  0.608300  0.110700  1.0  -0.0807
  C  C443  1  0.884300  0.652900  0.461100  1.0  0.1473
  C  C444  1  0.893600  0.715100  0.460300  1.0  -0.3849
  C  C445  1  0.921700  0.626500  0.381800  1.0  -0.384
  C  C446  1  0.823600  0.642100  0.438000  1.0  -0.3788
  C  C447  1  0.614000  0.931900  0.199200  1.0  -0.0366
  C  C448  1  0.567800  0.910900  0.247800  1.0  -0.0305
  C  C449  1  0.535100  0.872900  0.197000  1.0  -0.0322
  C  C450  1  0.551000  0.853600  0.104900  1.0  -0.1129
  C  C451  1  0.599100  0.870800  0.060700  1.0  0.0084
  C  C452  1  0.629700  0.911900  0.106700  1.0  -0.1063
  C  C453  1  0.568200  0.866100  0.428900  1.0  -0.3493
  C  C454  1  0.629500  0.855000  0.440800  1.0  -0.0807
  C  C455  1  0.712900  0.938800  0.593400  1.0  0.0702
  C  C456  1  0.673000  0.924200  0.661800  1.0  -0.1348
  C  C457  1  0.637200  0.891700  0.610700  1.0  -0.0804
  C  C458  1  0.615700  0.847100  0.961100  1.0  0.1478
  C  C459  1  0.606400  0.784900  0.960300  1.0  -0.3856
  C  C460  1  0.578300  0.873500  0.881800  1.0  -0.3823
  C  C461  1  0.676400  0.857900  0.938000  1.0  -0.3777
  C  C462  1  0.114000  0.431900  0.699200  1.0  -0.0366
  C  C463  1  0.067800  0.410900  0.747800  1.0  -0.0305
  C  C464  1  0.035100  0.372900  0.697000  1.0  -0.0322
  C  C465  1  0.051000  0.353600  0.604900  1.0  -0.1129
  C  C466  1  0.099100  0.370800  0.560700  1.0  0.0084
  C  C467  1  0.129700  0.411900  0.606700  1.0  -0.1063
  C  C468  1  0.068200  0.366100  0.928900  1.0  -0.3493
  C  C469  1  0.129500  0.355000  0.940800  1.0  -0.0807
  C  C470  1  0.212900  0.438800  0.093400  1.0  0.0702
  C  C471  1  0.173000  0.424200  0.161800  1.0  -0.1348
  C  C472  1  0.137200  0.391700  0.110700  1.0  -0.0804
  C  C473  1  0.115700  0.347100  0.461100  1.0  0.1478
  C  C474  1  0.106400  0.284900  0.460300  1.0  -0.3856
  C  C475  1  0.078300  0.373500  0.381800  1.0  -0.3823
  C  C476  1  0.176400  0.357900  0.438000  1.0  -0.3777
  C  C477  1  0.431900  0.886000  0.300800  1.0  -0.0372
  C  C478  1  0.410900  0.932200  0.252200  1.0  -0.0311
  C  C479  1  0.372900  0.964900  0.303000  1.0  -0.0322
  C  C480  1  0.353600  0.949000  0.395100  1.0  -0.1139
  C  C481  1  0.370800  0.900900  0.439300  1.0  0.0068
  C  C482  1  0.411900  0.870300  0.393300  1.0  -0.1057
  C  C483  1  0.366100  0.931800  0.071100  1.0  -0.3568
  C  C484  1  0.355000  0.870500  0.059200  1.0  -0.0811
  C  C485  1  0.438800  0.787100  0.906600  1.0  0.0691
  C  C486  1  0.424200  0.827000  0.838200  1.0  -0.1364
  C  C487  1  0.391700  0.862800  0.889300  1.0  -0.0819
  C  C488  1  0.347100  0.884300  0.538900  1.0  0.1477
  C  C489  1  0.284900  0.893600  0.539700  1.0  -0.3833
  C  C490  1  0.373500  0.921700  0.618200  1.0  -0.3828
  C  C491  1  0.357900  0.823600  0.562000  1.0  -0.3793
  C  C492  1  0.931900  0.386000  0.800800  1.0  -0.0372
  C  C493  1  0.910900  0.432200  0.752200  1.0  -0.0311
  C  C494  1  0.872900  0.464900  0.803000  1.0  -0.0322
  C  C495  1  0.853600  0.449000  0.895100  1.0  -0.1139
  C  C496  1  0.870800  0.400900  0.939300  1.0  0.0068
  C  C497  1  0.911900  0.370300  0.893300  1.0  -0.1057
  C  C498  1  0.866100  0.431800  0.571100  1.0  -0.3568
  C  C499  1  0.855000  0.370500  0.559200  1.0  -0.0811
  C  C500  1  0.938800  0.287100  0.406600  1.0  0.0691
  C  C501  1  0.924200  0.327000  0.338200  1.0  -0.1364
  C  C502  1  0.891700  0.362800  0.389300  1.0  -0.0819
  C  C503  1  0.847100  0.384300  0.038900  1.0  0.1477
  C  C504  1  0.784900  0.393600  0.039700  1.0  -0.3833
  C  C505  1  0.873500  0.421700  0.118200  1.0  -0.3828
  C  C506  1  0.857900  0.323600  0.062000  1.0  -0.3793
  C  C507  1  0.568100  0.114000  0.300800  1.0  -0.0367
  C  C508  1  0.589100  0.067800  0.252200  1.0  -0.0322
  C  C509  1  0.627100  0.035100  0.303000  1.0  -0.0331
  C  C510  1  0.646400  0.051000  0.395100  1.0  -0.1141
  C  C511  1  0.629200  0.099100  0.439300  1.0  0.0072
  C  C512  1  0.588100  0.129700  0.393300  1.0  -0.107
  C  C513  1  0.633900  0.068200  0.071100  1.0  -0.3529
  C  C514  1  0.645000  0.129500  0.059200  1.0  -0.0826
  C  C515  1  0.561200  0.212900  0.906600  1.0  0.0682
  C  C516  1  0.575800  0.173000  0.838200  1.0  -0.1378
  C  C517  1  0.608300  0.137200  0.889300  1.0  -0.0821
  C  C518  1  0.652900  0.115700  0.538900  1.0  0.1476
  C  C519  1  0.715100  0.106400  0.539700  1.0  -0.3822
  C  C520  1  0.626500  0.078300  0.618200  1.0  -0.3825
  C  C521  1  0.642100  0.176400  0.562000  1.0  -0.3785
  C  C522  1  0.068100  0.614000  0.800800  1.0  -0.0367
  C  C523  1  0.089100  0.567800  0.752200  1.0  -0.0322
  C  C524  1  0.127100  0.535100  0.803000  1.0  -0.0331
  C  C525  1  0.146400  0.551000  0.895100  1.0  -0.1141
  C  C526  1  0.129200  0.599100  0.939300  1.0  0.0072
  C  C527  1  0.088100  0.629700  0.893300  1.0  -0.107
  C  C528  1  0.133900  0.568200  0.571100  1.0  -0.3529
  C  C529  1  0.145000  0.629500  0.559200  1.0  -0.0826
  C  C530  1  0.061200  0.712900  0.406600  1.0  0.0682
  C  C531  1  0.075800  0.673000  0.338200  1.0  -0.1378
  C  C532  1  0.108300  0.637200  0.389300  1.0  -0.0821
  C  C533  1  0.152900  0.615700  0.038900  1.0  0.1476
  C  C534  1  0.215100  0.606400  0.039700  1.0  -0.3822
  C  C535  1  0.126500  0.578300  0.118200  1.0  -0.3825
  C  C536  1  0.142100  0.676400  0.062000  1.0  -0.3785
  S  S537  1  0.161970  0.022240  0.497090  1.0  -0.0704
  S  S538  1  0.052900  0.068940  0.381210  1.0  -0.0004
  S  S539  1  0.661970  0.522240  0.997090  1.0  -0.0704
  S  S540  1  0.552900  0.568940  0.881210  1.0  -0.0004
  S  S541  1  0.838030  0.977760  0.497090  1.0  -0.0698
  S  S542  1  0.947100  0.931060  0.381210  1.0  -1e-04
  S  S543  1  0.338030  0.477760  0.997090  1.0  -0.0698
  S  S544  1  0.447100  0.431060  0.881210  1.0  -1e-04
  S  S545  1  0.022240  0.838030  0.502910  1.0  -0.0695
  S  S546  1  0.068940  0.947100  0.618790  1.0  -0.0006
  S  S547  1  0.522240  0.338030  0.002910  1.0  -0.0695
  S  S548  1  0.568940  0.447100  0.118790  1.0  -0.0006
  S  S549  1  0.977760  0.161970  0.502910  1.0  -0.0702
  S  S550  1  0.931060  0.052900  0.618790  1.0  0.0003
  S  S551  1  0.477760  0.661970  0.002910  1.0  -0.0702
  S  S552  1  0.431060  0.552900  0.118790  1.0  0.0003
  S  S553  1  0.338030  0.022240  0.252910  1.0  -0.0693
  S  S554  1  0.447100  0.068940  0.368790  1.0  0.0005
  S  S555  1  0.838030  0.522240  0.752910  1.0  -0.0693
  S  S556  1  0.947100  0.568940  0.868790  1.0  0.0005
  S  S557  1  0.661970  0.977760  0.252910  1.0  -0.0697
  S  S558  1  0.552900  0.931060  0.368790  1.0  0.0
  S  S559  1  0.161970  0.477760  0.752910  1.0  -0.0697
  S  S560  1  0.052900  0.431060  0.868790  1.0  0.0
  S  S561  1  0.477760  0.838030  0.247090  1.0  -0.07
  S  S562  1  0.431060  0.947100  0.131210  1.0  0.0
  S  S563  1  0.977760  0.338030  0.747090  1.0  -0.07
  S  S564  1  0.931060  0.447100  0.631210  1.0  0.0
  S  S565  1  0.522240  0.161970  0.247090  1.0  -0.071
  S  S566  1  0.568940  0.052900  0.131210  1.0  -1e-04
  S  S567  1  0.022240  0.661970  0.747090  1.0  -0.071
  S  S568  1  0.068940  0.552900  0.631210  1.0  -1e-04
  N  N569  1  0.154300  0.111300  0.231200  1.0  0.154
  N  N570  1  0.201800  0.082900  0.243100  1.0  -0.2958
  N  N571  1  0.654300  0.611300  0.731200  1.0  0.154
  N  N572  1  0.701800  0.582900  0.743100  1.0  -0.2958
  N  N573  1  0.845700  0.888700  0.231200  1.0  0.1554
  N  N574  1  0.798200  0.917100  0.243100  1.0  -0.2956
  N  N575  1  0.345700  0.388700  0.731200  1.0  0.1554
  N  N576  1  0.298200  0.417100  0.743100  1.0  -0.2956
  N  N577  1  0.111300  0.845700  0.768800  1.0  0.1566
  N  N578  1  0.082900  0.798200  0.756900  1.0  -0.2939
  N  N579  1  0.611300  0.345700  0.268800  1.0  0.1566
  N  N580  1  0.582900  0.298200  0.256900  1.0  -0.2939
  N  N581  1  0.888700  0.154300  0.768800  1.0  0.1558
  N  N582  1  0.917100  0.201800  0.756900  1.0  -0.2942
  N  N583  1  0.388700  0.654300  0.268800  1.0  0.1558
  N  N584  1  0.417100  0.701800  0.256900  1.0  -0.2942
  N  N585  1  0.345700  0.111300  0.518800  1.0  0.1543
  N  N586  1  0.298200  0.082900  0.506900  1.0  -0.2939
  N  N587  1  0.845700  0.611300  0.018800  1.0  0.1543
  N  N588  1  0.798200  0.582900  0.006900  1.0  -0.2939
  N  N589  1  0.654300  0.888700  0.518800  1.0  0.1544
  N  N590  1  0.701800  0.917100  0.506900  1.0  -0.296
  N  N591  1  0.154300  0.388700  0.018800  1.0  0.1544
  N  N592  1  0.201800  0.417100  0.006900  1.0  -0.296
  N  N593  1  0.388700  0.845700  0.981200  1.0  0.1558
  N  N594  1  0.417100  0.798200  0.993100  1.0  -0.2948
  N  N595  1  0.888700  0.345700  0.481200  1.0  0.1558
  N  N596  1  0.917100  0.298200  0.493100  1.0  -0.2948
  N  N597  1  0.611300  0.154300  0.981200  1.0  0.1567
  N  N598  1  0.582900  0.201800  0.993100  1.0  -0.2947
  N  N599  1  0.111300  0.654300  0.481200  1.0  0.1567
  N  N600  1  0.082900  0.701800  0.493100  1.0  -0.2947
