# generated using pymatgen
data_AgH36C30(SN)4
_symmetry_space_group_name_H-M   'P 1'
_cell_length_a   24.95800000
_cell_length_b   24.95800000
_cell_length_c   13.84960000
_cell_angle_alpha   90.00000000
_cell_angle_beta   90.00000000
_cell_angle_gamma   90.00000000
_symmetry_Int_Tables_number   1
_chemical_formula_structural   AgH36C30(SN)4
_chemical_formula_sum   'Ag8 H288 C240 S32 N32'
_cell_volume   8626.94027069
_cell_formula_units_Z   8
loop_
 _symmetry_equiv_pos_site_id
 _symmetry_equiv_pos_as_xyz
  1  'x, y, z'
loop_
 _atom_site_type_symbol
 _atom_site_label
 _atom_site_symmetry_multiplicity
 _atom_site_fract_x
 _atom_site_fract_y
 _atom_site_fract_z
 _atom_site_occupancy
 _atom_site_charge
  Ag  Ag1  1  0.488770  0.250000  0.625000  1.0  0.3288
  Ag  Ag2  1  0.511230  0.750000  0.625000  1.0  0.3308
  Ag  Ag3  1  0.250000  0.511230  0.375000  1.0  0.3306
  Ag  Ag4  1  0.750000  0.011230  0.875000  1.0  0.3306
  Ag  Ag5  1  0.750000  0.488770  0.375000  1.0  0.3296
  Ag  Ag6  1  0.250000  0.988770  0.875000  1.0  0.3296
  Ag  Ag7  1  0.011230  0.250000  0.125000  1.0  0.3308
  Ag  Ag8  1  0.988770  0.750000  0.125000  1.0  0.3288
  H  H9  1  0.488100  0.332000  0.329300  1.0  0.0956
  H  H10  1  0.354900  0.424700  0.317700  1.0  0.1014
  H  H11  1  0.387500  0.418000  0.746800  1.0  0.1126
  H  H12  1  0.360500  0.403600  0.645200  1.0  0.1003
  H  H13  1  0.364500  0.327100  0.729700  1.0  0.1092
  H  H14  1  0.407600  0.322400  0.645000  1.0  0.1285
  H  H15  1  0.535700  0.263200  0.849200  1.0  0.099
  H  H16  1  0.495400  0.324400  0.974700  1.0  0.1177
  H  H17  1  0.417600  0.368800  0.893000  1.0  0.102
  H  H18  1  0.455800  0.400900  0.091100  1.0  0.0941
  H  H19  1  0.444200  0.439100  0.181500  1.0  0.106
  H  H20  1  0.397400  0.426000  0.106000  1.0  0.0975
  H  H21  1  0.351300  0.318300  0.134000  1.0  0.0957
  H  H22  1  0.333900  0.379100  0.153400  1.0  0.0986
  H  H23  1  0.336400  0.337400  0.241000  1.0  0.0992
  H  H24  1  0.441800  0.285600  0.210900  1.0  0.0882
  H  H25  1  0.484800  0.325600  0.164500  1.0  0.0973
  H  H26  1  0.435700  0.304200  0.100900  1.0  0.0947
  H  H27  1  0.988100  0.832000  0.829300  1.0  0.0956
  H  H28  1  0.854900  0.924700  0.817700  1.0  0.1014
  H  H29  1  0.887500  0.918000  0.246800  1.0  0.1126
  H  H30  1  0.860500  0.903600  0.145200  1.0  0.1003
  H  H31  1  0.864500  0.827100  0.229700  1.0  0.1092
  H  H32  1  0.907600  0.822400  0.145000  1.0  0.1285
  H  H33  1  0.035700  0.763200  0.349200  1.0  0.099
  H  H34  1  0.995400  0.824400  0.474700  1.0  0.1177
  H  H35  1  0.917600  0.868800  0.393000  1.0  0.102
  H  H36  1  0.955800  0.900900  0.591100  1.0  0.0941
  H  H37  1  0.944200  0.939100  0.681500  1.0  0.106
  H  H38  1  0.897400  0.926000  0.606000  1.0  0.0975
  H  H39  1  0.851300  0.818300  0.634000  1.0  0.0957
  H  H40  1  0.833900  0.879100  0.653400  1.0  0.0986
  H  H41  1  0.836400  0.837400  0.741000  1.0  0.0992
  H  H42  1  0.941800  0.785600  0.710900  1.0  0.0882
  H  H43  1  0.984800  0.825600  0.664500  1.0  0.0973
  H  H44  1  0.935700  0.804200  0.600900  1.0  0.0947
  H  H45  1  0.511900  0.668000  0.329300  1.0  0.0956
  H  H46  1  0.645100  0.575300  0.317700  1.0  0.1015
  H  H47  1  0.612500  0.582000  0.746800  1.0  0.1129
  H  H48  1  0.639500  0.596400  0.645200  1.0  0.1001
  H  H49  1  0.635500  0.672900  0.729700  1.0  0.1059
  H  H50  1  0.592400  0.677600  0.645000  1.0  0.1291
  H  H51  1  0.464300  0.736800  0.849200  1.0  0.0989
  H  H52  1  0.504600  0.675600  0.974700  1.0  0.1179
  H  H53  1  0.582400  0.631200  0.893000  1.0  0.1015
  H  H54  1  0.544200  0.599100  0.091100  1.0  0.0942
  H  H55  1  0.555800  0.560900  0.181500  1.0  0.1062
  H  H56  1  0.602600  0.574000  0.106000  1.0  0.0964
  H  H57  1  0.648700  0.681700  0.134000  1.0  0.0976
  H  H58  1  0.666100  0.620900  0.153400  1.0  0.0995
  H  H59  1  0.663600  0.662600  0.241000  1.0  0.094
  H  H60  1  0.558200  0.714400  0.210900  1.0  0.0872
  H  H61  1  0.515200  0.674400  0.164500  1.0  0.0949
  H  H62  1  0.564300  0.695800  0.100900  1.0  0.0954
  H  H63  1  0.011900  0.168000  0.829300  1.0  0.0956
  H  H64  1  0.145100  0.075300  0.817700  1.0  0.1015
  H  H65  1  0.112500  0.082000  0.246800  1.0  0.1129
  H  H66  1  0.139500  0.096400  0.145200  1.0  0.1001
  H  H67  1  0.135500  0.172900  0.229700  1.0  0.1059
  H  H68  1  0.092400  0.177600  0.145000  1.0  0.1291
  H  H69  1  0.964300  0.236800  0.349200  1.0  0.0989
  H  H70  1  0.004600  0.175600  0.474700  1.0  0.1179
  H  H71  1  0.082400  0.131200  0.393000  1.0  0.1015
  H  H72  1  0.044200  0.099100  0.591100  1.0  0.0942
  H  H73  1  0.055800  0.060900  0.681500  1.0  0.1062
  H  H74  1  0.102600  0.074000  0.606000  1.0  0.0964
  H  H75  1  0.148700  0.181700  0.634000  1.0  0.0976
  H  H76  1  0.166100  0.120900  0.653400  1.0  0.0995
  H  H77  1  0.163600  0.162600  0.741000  1.0  0.094
  H  H78  1  0.058200  0.214400  0.710900  1.0  0.0872
  H  H79  1  0.015200  0.174400  0.664500  1.0  0.0949
  H  H80  1  0.064300  0.195800  0.600900  1.0  0.0954
  H  H81  1  0.332000  0.511900  0.670700  1.0  0.0951
  H  H82  1  0.424700  0.645100  0.682300  1.0  0.0992
  H  H83  1  0.418000  0.612500  0.253200  1.0  0.1127
  H  H84  1  0.403600  0.639500  0.354800  1.0  0.0989
  H  H85  1  0.327100  0.635500  0.270300  1.0  0.1115
  H  H86  1  0.322400  0.592400  0.355000  1.0  0.1254
  H  H87  1  0.263200  0.464300  0.150800  1.0  0.0988
  H  H88  1  0.324400  0.504600  0.025300  1.0  0.1167
  H  H89  1  0.368800  0.582400  0.107000  1.0  0.1032
  H  H90  1  0.400900  0.544200  0.908900  1.0  0.0976
  H  H91  1  0.439100  0.555800  0.818500  1.0  0.1061
  H  H92  1  0.426000  0.602600  0.894000  1.0  0.0996
  H  H93  1  0.318300  0.648700  0.866000  1.0  0.0959
  H  H94  1  0.379100  0.666100  0.846600  1.0  0.0978
  H  H95  1  0.337400  0.663600  0.759000  1.0  0.0947
  H  H96  1  0.285600  0.558200  0.789100  1.0  0.0851
  H  H97  1  0.325600  0.515200  0.835500  1.0  0.0924
  H  H98  1  0.304200  0.564300  0.899100  1.0  0.0937
  H  H99  1  0.832000  0.011900  0.170700  1.0  0.0951
  H  H100  1  0.924700  0.145100  0.182300  1.0  0.0992
  H  H101  1  0.918000  0.112500  0.753200  1.0  0.1127
  H  H102  1  0.903600  0.139500  0.854800  1.0  0.0989
  H  H103  1  0.827100  0.135500  0.770300  1.0  0.1115
  H  H104  1  0.822400  0.092400  0.855000  1.0  0.1254
  H  H105  1  0.763200  0.964300  0.650800  1.0  0.0988
  H  H106  1  0.824400  0.004600  0.525300  1.0  0.1167
  H  H107  1  0.868800  0.082400  0.607000  1.0  0.1032
  H  H108  1  0.900900  0.044200  0.408900  1.0  0.0976
  H  H109  1  0.939100  0.055800  0.318500  1.0  0.1061
  H  H110  1  0.926000  0.102600  0.394000  1.0  0.0996
  H  H111  1  0.818300  0.148700  0.366000  1.0  0.0959
  H  H112  1  0.879100  0.166100  0.346600  1.0  0.0978
  H  H113  1  0.837400  0.163600  0.259000  1.0  0.0947
  H  H114  1  0.785600  0.058200  0.289100  1.0  0.0851
  H  H115  1  0.825600  0.015200  0.335500  1.0  0.0924
  H  H116  1  0.804200  0.064300  0.399100  1.0  0.0937
  H  H117  1  0.668000  0.488100  0.670700  1.0  0.0952
  H  H118  1  0.575300  0.354900  0.682300  1.0  0.0993
  H  H119  1  0.582000  0.387500  0.253200  1.0  0.1121
  H  H120  1  0.596400  0.360500  0.354800  1.0  0.0992
  H  H121  1  0.672900  0.364500  0.270300  1.0  0.1106
  H  H122  1  0.677600  0.407600  0.355000  1.0  0.1256
  H  H123  1  0.736800  0.535700  0.150800  1.0  0.0991
  H  H124  1  0.675600  0.495400  0.025300  1.0  0.117
  H  H125  1  0.631200  0.417600  0.107000  1.0  0.1024
  H  H126  1  0.599100  0.455800  0.908900  1.0  0.0963
  H  H127  1  0.560900  0.444200  0.818500  1.0  0.1065
  H  H128  1  0.574000  0.397400  0.894000  1.0  0.1002
  H  H129  1  0.681700  0.351300  0.866000  1.0  0.0979
  H  H130  1  0.620900  0.333900  0.846600  1.0  0.0997
  H  H131  1  0.662600  0.336400  0.759000  1.0  0.095
  H  H132  1  0.714400  0.441800  0.789100  1.0  0.0867
  H  H133  1  0.674400  0.484800  0.835500  1.0  0.0923
  H  H134  1  0.695800  0.435700  0.899100  1.0  0.0937
  H  H135  1  0.168000  0.988100  0.170700  1.0  0.0952
  H  H136  1  0.075300  0.854900  0.182300  1.0  0.0993
  H  H137  1  0.082000  0.887500  0.753200  1.0  0.1121
  H  H138  1  0.096400  0.860500  0.854800  1.0  0.0992
  H  H139  1  0.172900  0.864500  0.770300  1.0  0.1106
  H  H140  1  0.177600  0.907600  0.855000  1.0  0.1256
  H  H141  1  0.236800  0.035700  0.650800  1.0  0.0991
  H  H142  1  0.175600  0.995400  0.525300  1.0  0.117
  H  H143  1  0.131200  0.917600  0.607000  1.0  0.1024
  H  H144  1  0.099100  0.955800  0.408900  1.0  0.0963
  H  H145  1  0.060900  0.944200  0.318500  1.0  0.1065
  H  H146  1  0.074000  0.897400  0.394000  1.0  0.1002
  H  H147  1  0.181700  0.851300  0.366000  1.0  0.0979
  H  H148  1  0.120900  0.833900  0.346600  1.0  0.0997
  H  H149  1  0.162600  0.836400  0.259000  1.0  0.095
  H  H150  1  0.214400  0.941800  0.289100  1.0  0.0867
  H  H151  1  0.174400  0.984800  0.335500  1.0  0.0923
  H  H152  1  0.195800  0.935700  0.399100  1.0  0.0937
  H  H153  1  0.011900  0.332000  0.420700  1.0  0.0949
  H  H154  1  0.145100  0.424700  0.432300  1.0  0.1004
  H  H155  1  0.112500  0.418000  0.003200  1.0  0.1126
  H  H156  1  0.139500  0.403600  0.104800  1.0  0.1
  H  H157  1  0.135500  0.327100  0.020300  1.0  0.1047
  H  H158  1  0.092400  0.322400  0.105000  1.0  0.1275
  H  H159  1  0.964300  0.263200  0.900800  1.0  0.0984
  H  H160  1  0.004600  0.324400  0.775300  1.0  0.1181
  H  H161  1  0.082400  0.368800  0.857000  1.0  0.1023
  H  H162  1  0.044200  0.400900  0.658900  1.0  0.0936
  H  H163  1  0.055800  0.439100  0.568500  1.0  0.1062
  H  H164  1  0.102600  0.426000  0.644000  1.0  0.0965
  H  H165  1  0.148700  0.318300  0.616000  1.0  0.0976
  H  H166  1  0.166100  0.379100  0.596600  1.0  0.0985
  H  H167  1  0.163600  0.337400  0.509000  1.0  0.0949
  H  H168  1  0.058200  0.285600  0.539100  1.0  0.0873
  H  H169  1  0.015200  0.325600  0.585500  1.0  0.0953
  H  H170  1  0.064300  0.304200  0.649100  1.0  0.0936
  H  H171  1  0.511900  0.832000  0.920700  1.0  0.0949
  H  H172  1  0.645100  0.924700  0.932300  1.0  0.1004
  H  H173  1  0.612500  0.918000  0.503200  1.0  0.1126
  H  H174  1  0.639500  0.903600  0.604800  1.0  0.1
  H  H175  1  0.635500  0.827100  0.520300  1.0  0.1047
  H  H176  1  0.592400  0.822400  0.605000  1.0  0.1275
  H  H177  1  0.464300  0.763200  0.400800  1.0  0.0984
  H  H178  1  0.504600  0.824400  0.275300  1.0  0.1181
  H  H179  1  0.582400  0.868800  0.357000  1.0  0.1023
  H  H180  1  0.544200  0.900900  0.158900  1.0  0.0936
  H  H181  1  0.555800  0.939100  0.068500  1.0  0.1062
  H  H182  1  0.602600  0.926000  0.144000  1.0  0.0965
  H  H183  1  0.648700  0.818300  0.116000  1.0  0.0976
  H  H184  1  0.666100  0.879100  0.096600  1.0  0.0985
  H  H185  1  0.663600  0.837400  0.009000  1.0  0.0949
  H  H186  1  0.558200  0.785600  0.039100  1.0  0.0873
  H  H187  1  0.515200  0.825600  0.085500  1.0  0.0953
  H  H188  1  0.564300  0.804200  0.149100  1.0  0.0936
  H  H189  1  0.988100  0.668000  0.420700  1.0  0.0953
  H  H190  1  0.854900  0.575300  0.432300  1.0  0.1
  H  H191  1  0.887500  0.582000  0.003200  1.0  0.1126
  H  H192  1  0.860500  0.596400  0.104800  1.0  0.101
  H  H193  1  0.864500  0.672900  0.020300  1.0  0.1089
  H  H194  1  0.907600  0.677600  0.105000  1.0  0.1262
  H  H195  1  0.035700  0.736800  0.900800  1.0  0.0992
  H  H196  1  0.995400  0.675600  0.775300  1.0  0.1179
  H  H197  1  0.917600  0.631200  0.857000  1.0  0.1017
  H  H198  1  0.955800  0.599100  0.658900  1.0  0.0951
  H  H199  1  0.944200  0.560900  0.568500  1.0  0.1058
  H  H200  1  0.897400  0.574000  0.644000  1.0  0.0973
  H  H201  1  0.851300  0.681700  0.616000  1.0  0.0967
  H  H202  1  0.833900  0.620900  0.596600  1.0  0.0985
  H  H203  1  0.836400  0.662600  0.509000  1.0  0.0979
  H  H204  1  0.941800  0.714400  0.539100  1.0  0.0876
  H  H205  1  0.984800  0.674400  0.585500  1.0  0.0969
  H  H206  1  0.935700  0.695800  0.649100  1.0  0.0939
  H  H207  1  0.488100  0.168000  0.920700  1.0  0.0953
  H  H208  1  0.354900  0.075300  0.932300  1.0  0.1
  H  H209  1  0.387500  0.082000  0.503200  1.0  0.1126
  H  H210  1  0.360500  0.096400  0.604800  1.0  0.101
  H  H211  1  0.364500  0.172900  0.520300  1.0  0.1089
  H  H212  1  0.407600  0.177600  0.605000  1.0  0.1262
  H  H213  1  0.535700  0.236800  0.400800  1.0  0.0992
  H  H214  1  0.495400  0.175600  0.275300  1.0  0.1179
  H  H215  1  0.417600  0.131200  0.357000  1.0  0.1017
  H  H216  1  0.455800  0.099100  0.158900  1.0  0.0951
  H  H217  1  0.444200  0.060900  0.068500  1.0  0.1058
  H  H218  1  0.397400  0.074000  0.144000  1.0  0.0973
  H  H219  1  0.351300  0.181700  0.116000  1.0  0.0967
  H  H220  1  0.333900  0.120900  0.096600  1.0  0.0985
  H  H221  1  0.336400  0.162600  0.009000  1.0  0.0979
  H  H222  1  0.441800  0.214400  0.039100  1.0  0.0876
  H  H223  1  0.484800  0.174400  0.085500  1.0  0.0969
  H  H224  1  0.435700  0.195800  0.149100  1.0  0.0939
  H  H225  1  0.168000  0.511900  0.079300  1.0  0.0956
  H  H226  1  0.075300  0.645100  0.067700  1.0  0.1002
  H  H227  1  0.082000  0.612500  0.496800  1.0  0.1125
  H  H228  1  0.096400  0.639500  0.395200  1.0  0.0995
  H  H229  1  0.172900  0.635500  0.479700  1.0  0.1119
  H  H230  1  0.177600  0.592400  0.395000  1.0  0.1266
  H  H231  1  0.236800  0.464300  0.599200  1.0  0.099
  H  H232  1  0.175600  0.504600  0.724700  1.0  0.117
  H  H233  1  0.131200  0.582400  0.643000  1.0  0.1026
  H  H234  1  0.099100  0.544200  0.841100  1.0  0.0968
  H  H235  1  0.060900  0.555800  0.931500  1.0  0.1067
  H  H236  1  0.074000  0.602600  0.856000  1.0  0.1007
  H  H237  1  0.181700  0.648700  0.884000  1.0  0.0975
  H  H238  1  0.120900  0.666100  0.903400  1.0  0.0995
  H  H239  1  0.162600  0.663600  0.991000  1.0  0.0939
  H  H240  1  0.214400  0.558200  0.960900  1.0  0.0868
  H  H241  1  0.174400  0.515200  0.914500  1.0  0.0921
  H  H242  1  0.195800  0.564300  0.850900  1.0  0.0948
  H  H243  1  0.668000  0.011900  0.579300  1.0  0.0956
  H  H244  1  0.575300  0.145100  0.567700  1.0  0.1002
  H  H245  1  0.582000  0.112500  0.996800  1.0  0.1125
  H  H246  1  0.596400  0.139500  0.895200  1.0  0.0995
  H  H247  1  0.672900  0.135500  0.979700  1.0  0.1119
  H  H248  1  0.677600  0.092400  0.895000  1.0  0.1266
  H  H249  1  0.736800  0.964300  0.099200  1.0  0.099
  H  H250  1  0.675600  0.004600  0.224700  1.0  0.117
  H  H251  1  0.631200  0.082400  0.143000  1.0  0.1026
  H  H252  1  0.599100  0.044200  0.341100  1.0  0.0968
  H  H253  1  0.560900  0.055800  0.431500  1.0  0.1067
  H  H254  1  0.574000  0.102600  0.356000  1.0  0.1007
  H  H255  1  0.681700  0.148700  0.384000  1.0  0.0975
  H  H256  1  0.620900  0.166100  0.403400  1.0  0.0995
  H  H257  1  0.662600  0.163600  0.491000  1.0  0.0939
  H  H258  1  0.714400  0.058200  0.460900  1.0  0.0868
  H  H259  1  0.674400  0.015200  0.414500  1.0  0.0921
  H  H260  1  0.695800  0.064300  0.350900  1.0  0.0948
  H  H261  1  0.832000  0.488100  0.079300  1.0  0.0956
  H  H262  1  0.924700  0.354900  0.067700  1.0  0.1001
  H  H263  1  0.918000  0.387500  0.496800  1.0  0.1139
  H  H264  1  0.903600  0.360500  0.395200  1.0  0.0982
  H  H265  1  0.827100  0.364500  0.479700  1.0  0.1097
  H  H266  1  0.822400  0.407600  0.395000  1.0  0.1262
  H  H267  1  0.763200  0.535700  0.599200  1.0  0.0998
  H  H268  1  0.824400  0.495400  0.724700  1.0  0.1165
  H  H269  1  0.868800  0.417600  0.643000  1.0  0.1026
  H  H270  1  0.900900  0.455800  0.841100  1.0  0.0965
  H  H271  1  0.939100  0.444200  0.931500  1.0  0.1066
  H  H272  1  0.926000  0.397400  0.856000  1.0  0.0991
  H  H273  1  0.818300  0.351300  0.884000  1.0  0.0963
  H  H274  1  0.879100  0.333900  0.903400  1.0  0.0983
  H  H275  1  0.837400  0.336400  0.991000  1.0  0.0961
  H  H276  1  0.785600  0.441800  0.960900  1.0  0.0856
  H  H277  1  0.825600  0.484800  0.914500  1.0  0.0929
  H  H278  1  0.804200  0.435700  0.850900  1.0  0.0956
  H  H279  1  0.332000  0.988100  0.579300  1.0  0.0956
  H  H280  1  0.424700  0.854900  0.567700  1.0  0.1001
  H  H281  1  0.418000  0.887500  0.996800  1.0  0.1139
  H  H282  1  0.403600  0.860500  0.895200  1.0  0.0982
  H  H283  1  0.327100  0.864500  0.979700  1.0  0.1097
  H  H284  1  0.322400  0.907600  0.895000  1.0  0.1262
  H  H285  1  0.263200  0.035700  0.099200  1.0  0.0998
  H  H286  1  0.324400  0.995400  0.224700  1.0  0.1165
  H  H287  1  0.368800  0.917600  0.143000  1.0  0.1026
  H  H288  1  0.400900  0.955800  0.341100  1.0  0.0965
  H  H289  1  0.439100  0.944200  0.431500  1.0  0.1066
  H  H290  1  0.426000  0.897400  0.356000  1.0  0.0991
  H  H291  1  0.318300  0.851300  0.384000  1.0  0.0963
  H  H292  1  0.379100  0.833900  0.403400  1.0  0.0983
  H  H293  1  0.337400  0.836400  0.491000  1.0  0.0961
  H  H294  1  0.285600  0.941800  0.460900  1.0  0.0856
  H  H295  1  0.325600  0.984800  0.414500  1.0  0.0929
  H  H296  1  0.304200  0.935700  0.350900  1.0  0.0956
  C  C297  1  0.393700  0.427600  0.447200  1.0  -0.0329
  C  C298  1  0.437600  0.408200  0.498000  1.0  -0.074
  C  C299  1  0.472800  0.372500  0.454000  1.0  -0.0064
  C  C300  1  0.464100  0.356300  0.359300  1.0  -0.1166
  C  C301  1  0.420100  0.375800  0.308500  1.0  -0.0201
  C  C302  1  0.384900  0.411400  0.352500  1.0  -0.0956
  C  C303  1  0.392800  0.398400  0.685400  1.0  -0.3078
  C  C304  1  0.399200  0.341100  0.706300  1.0  -0.0424
  C  C305  1  0.505400  0.285700  0.840500  1.0  0.03
  C  C306  1  0.483700  0.319400  0.910000  1.0  -0.1399
  C  C307  1  0.441600  0.343900  0.864500  1.0  -0.048
  C  C308  1  0.413000  0.363500  0.198200  1.0  0.1106
  C  C309  1  0.429000  0.411600  0.139000  1.0  -0.377
  C  C310  1  0.353000  0.348100  0.179900  1.0  -0.3619
  C  C311  1  0.446900  0.315400  0.165700  1.0  -0.3679
  C  C312  1  0.893700  0.927600  0.947200  1.0  -0.0329
  C  C313  1  0.937600  0.908200  0.998000  1.0  -0.074
  C  C314  1  0.972800  0.872500  0.954000  1.0  -0.0064
  C  C315  1  0.964100  0.856300  0.859300  1.0  -0.1166
  C  C316  1  0.920100  0.875800  0.808500  1.0  -0.0201
  C  C317  1  0.884900  0.911400  0.852500  1.0  -0.0956
  C  C318  1  0.892800  0.898400  0.185400  1.0  -0.3078
  C  C319  1  0.899200  0.841100  0.206300  1.0  -0.0424
  C  C320  1  0.005400  0.785700  0.340500  1.0  0.03
  C  C321  1  0.983700  0.819400  0.410000  1.0  -0.1399
  C  C322  1  0.941600  0.843900  0.364500  1.0  -0.048
  C  C323  1  0.913000  0.863500  0.698200  1.0  0.1106
  C  C324  1  0.929000  0.911600  0.639000  1.0  -0.377
  C  C325  1  0.853000  0.848100  0.679900  1.0  -0.3619
  C  C326  1  0.946900  0.815400  0.665700  1.0  -0.3679
  C  C327  1  0.606300  0.572400  0.447200  1.0  -0.0341
  C  C328  1  0.562400  0.591800  0.498000  1.0  -0.0734
  C  C329  1  0.527200  0.627500  0.454000  1.0  -0.0082
  C  C330  1  0.535900  0.643700  0.359300  1.0  -0.117
  C  C331  1  0.579900  0.624200  0.308500  1.0  -0.0201
  C  C332  1  0.615100  0.588600  0.352500  1.0  -0.0945
  C  C333  1  0.607200  0.601600  0.685400  1.0  -0.3056
  C  C334  1  0.600800  0.658900  0.706300  1.0  -0.044
  C  C335  1  0.494600  0.714300  0.840500  1.0  0.0311
  C  C336  1  0.516300  0.680600  0.910000  1.0  -0.1404
  C  C337  1  0.558400  0.656100  0.864500  1.0  -0.0488
  C  C338  1  0.587000  0.636500  0.198200  1.0  0.1107
  C  C339  1  0.571000  0.588400  0.139000  1.0  -0.3742
  C  C340  1  0.647000  0.651900  0.179900  1.0  -0.3623
  C  C341  1  0.553100  0.684600  0.165700  1.0  -0.3658
  C  C342  1  0.106300  0.072400  0.947200  1.0  -0.0341
  C  C343  1  0.062400  0.091800  0.998000  1.0  -0.0734
  C  C344  1  0.027200  0.127500  0.954000  1.0  -0.0082
  C  C345  1  0.035900  0.143700  0.859300  1.0  -0.117
  C  C346  1  0.079900  0.124200  0.808500  1.0  -0.0201
  C  C347  1  0.115100  0.088600  0.852500  1.0  -0.0945
  C  C348  1  0.107200  0.101600  0.185400  1.0  -0.3056
  C  C349  1  0.100800  0.158900  0.206300  1.0  -0.044
  C  C350  1  0.994600  0.214300  0.340500  1.0  0.0311
  C  C351  1  0.016300  0.180600  0.410000  1.0  -0.1404
  C  C352  1  0.058400  0.156100  0.364500  1.0  -0.0488
  C  C353  1  0.087000  0.136500  0.698200  1.0  0.1107
  C  C354  1  0.071000  0.088400  0.639000  1.0  -0.3742
  C  C355  1  0.147000  0.151900  0.679900  1.0  -0.3623
  C  C356  1  0.053100  0.184600  0.665700  1.0  -0.3658
  C  C357  1  0.427600  0.606300  0.552800  1.0  -0.0322
  C  C358  1  0.408200  0.562400  0.502000  1.0  -0.0735
  C  C359  1  0.372500  0.527200  0.546000  1.0  -0.0079
  C  C360  1  0.356300  0.535900  0.640700  1.0  -0.1171
  C  C361  1  0.375800  0.579900  0.691500  1.0  -0.0159
  C  C362  1  0.411400  0.615100  0.647500  1.0  -0.0956
  C  C363  1  0.398400  0.607200  0.314600  1.0  -0.3073
  C  C364  1  0.341100  0.600800  0.293700  1.0  -0.0441
  C  C365  1  0.285700  0.494600  0.159500  1.0  0.0306
  C  C366  1  0.319400  0.516300  0.090000  1.0  -0.14
  C  C367  1  0.343900  0.558400  0.135500  1.0  -0.0495
  C  C368  1  0.363500  0.587000  0.801800  1.0  0.1088
  C  C369  1  0.411600  0.571000  0.861000  1.0  -0.3732
  C  C370  1  0.348100  0.647000  0.820100  1.0  -0.3619
  C  C371  1  0.315400  0.553100  0.834300  1.0  -0.3667
  C  C372  1  0.927600  0.106300  0.052800  1.0  -0.0322
  C  C373  1  0.908200  0.062400  0.002000  1.0  -0.0735
  C  C374  1  0.872500  0.027200  0.046000  1.0  -0.0079
  C  C375  1  0.856300  0.035900  0.140700  1.0  -0.1171
  C  C376  1  0.875800  0.079900  0.191500  1.0  -0.0159
  C  C377  1  0.911400  0.115100  0.147500  1.0  -0.0956
  C  C378  1  0.898400  0.107200  0.814600  1.0  -0.3073
  C  C379  1  0.841100  0.100800  0.793700  1.0  -0.0441
  C  C380  1  0.785700  0.994600  0.659500  1.0  0.0306
  C  C381  1  0.819400  0.016300  0.590000  1.0  -0.14
  C  C382  1  0.843900  0.058400  0.635500  1.0  -0.0495
  C  C383  1  0.863500  0.087000  0.301800  1.0  0.1088
  C  C384  1  0.911600  0.071000  0.361000  1.0  -0.3732
  C  C385  1  0.848100  0.147000  0.320100  1.0  -0.3619
  C  C386  1  0.815400  0.053100  0.334300  1.0  -0.3667
  C  C387  1  0.572400  0.393700  0.552800  1.0  -0.0349
  C  C388  1  0.591800  0.437600  0.502000  1.0  -0.0732
  C  C389  1  0.627500  0.472800  0.546000  1.0  -0.0067
  C  C390  1  0.643700  0.464100  0.640700  1.0  -0.1164
  C  C391  1  0.624200  0.420100  0.691500  1.0  -0.0152
  C  C392  1  0.588600  0.384900  0.647500  1.0  -0.0961
  C  C393  1  0.601600  0.392800  0.314600  1.0  -0.3079
  C  C394  1  0.658900  0.399200  0.293700  1.0  -0.043
  C  C395  1  0.714300  0.505400  0.159500  1.0  0.0295
  C  C396  1  0.680600  0.483700  0.090000  1.0  -0.1403
  C  C397  1  0.656100  0.441600  0.135500  1.0  -0.0497
  C  C398  1  0.636500  0.413000  0.801800  1.0  0.1085
  C  C399  1  0.588400  0.429000  0.861000  1.0  -0.375
  C  C400  1  0.651900  0.353000  0.820100  1.0  -0.3653
  C  C401  1  0.684600  0.446900  0.834300  1.0  -0.3666
  C  C402  1  0.072400  0.893700  0.052800  1.0  -0.0349
  C  C403  1  0.091800  0.937600  0.002000  1.0  -0.0732
  C  C404  1  0.127500  0.972800  0.046000  1.0  -0.0067
  C  C405  1  0.143700  0.964100  0.140700  1.0  -0.1164
  C  C406  1  0.124200  0.920100  0.191500  1.0  -0.0152
  C  C407  1  0.088600  0.884900  0.147500  1.0  -0.0961
  C  C408  1  0.101600  0.892800  0.814600  1.0  -0.3079
  C  C409  1  0.158900  0.899200  0.793700  1.0  -0.043
  C  C410  1  0.214300  0.005400  0.659500  1.0  0.0295
  C  C411  1  0.180600  0.983700  0.590000  1.0  -0.1403
  C  C412  1  0.156100  0.941600  0.635500  1.0  -0.0497
  C  C413  1  0.136500  0.913000  0.301800  1.0  0.1085
  C  C414  1  0.088400  0.929000  0.361000  1.0  -0.375
  C  C415  1  0.151900  0.853000  0.320100  1.0  -0.3653
  C  C416  1  0.184600  0.946900  0.334300  1.0  -0.3666
  C  C417  1  0.106300  0.427600  0.302800  1.0  -0.0336
  C  C418  1  0.062400  0.408200  0.252000  1.0  -0.0744
  C  C419  1  0.027200  0.372500  0.296000  1.0  -0.0084
  C  C420  1  0.035900  0.356300  0.390700  1.0  -0.1178
  C  C421  1  0.079900  0.375800  0.441500  1.0  -0.0186
  C  C422  1  0.115100  0.411400  0.397500  1.0  -0.0943
  C  C423  1  0.107200  0.398400  0.064600  1.0  -0.3062
  C  C424  1  0.100800  0.341100  0.043700  1.0  -0.0422
  C  C425  1  0.994600  0.285700  0.909500  1.0  0.0314
  C  C426  1  0.016300  0.319400  0.840000  1.0  -0.1412
  C  C427  1  0.058400  0.343900  0.885500  1.0  -0.0492
  C  C428  1  0.087000  0.363500  0.551800  1.0  0.1089
  C  C429  1  0.071000  0.411600  0.611000  1.0  -0.3757
  C  C430  1  0.147000  0.348100  0.570100  1.0  -0.3624
  C  C431  1  0.053100  0.315400  0.584300  1.0  -0.3672
  C  C432  1  0.606300  0.927600  0.802800  1.0  -0.0336
  C  C433  1  0.562400  0.908200  0.752000  1.0  -0.0744
  C  C434  1  0.527200  0.872500  0.796000  1.0  -0.0084
  C  C435  1  0.535900  0.856300  0.890700  1.0  -0.1178
  C  C436  1  0.579900  0.875800  0.941500  1.0  -0.0186
  C  C437  1  0.615100  0.911400  0.897500  1.0  -0.0943
  C  C438  1  0.607200  0.898400  0.564600  1.0  -0.3062
  C  C439  1  0.600800  0.841100  0.543700  1.0  -0.0422
  C  C440  1  0.494600  0.785700  0.409500  1.0  0.0314
  C  C441  1  0.516300  0.819400  0.340000  1.0  -0.1412
  C  C442  1  0.558400  0.843900  0.385500  1.0  -0.0492
  C  C443  1  0.587000  0.863500  0.051800  1.0  0.1089
  C  C444  1  0.571000  0.911600  0.111000  1.0  -0.3757
  C  C445  1  0.647000  0.848100  0.070100  1.0  -0.3624
  C  C446  1  0.553100  0.815400  0.084300  1.0  -0.3672
  C  C447  1  0.893700  0.572400  0.302800  1.0  -0.0337
  C  C448  1  0.937600  0.591800  0.252000  1.0  -0.0745
  C  C449  1  0.972800  0.627500  0.296000  1.0  -0.0068
  C  C450  1  0.964100  0.643700  0.390700  1.0  -0.1176
  C  C451  1  0.920100  0.624200  0.441500  1.0  -0.0191
  C  C452  1  0.884900  0.588600  0.397500  1.0  -0.0942
  C  C453  1  0.892800  0.601600  0.064600  1.0  -0.3092
  C  C454  1  0.899200  0.658900  0.043700  1.0  -0.0432
  C  C455  1  0.005400  0.714300  0.909500  1.0  0.0304
  C  C456  1  0.983700  0.680600  0.840000  1.0  -0.1408
  C  C457  1  0.941600  0.656100  0.885500  1.0  -0.0498
  C  C458  1  0.913000  0.636500  0.551800  1.0  0.1088
  C  C459  1  0.929000  0.588400  0.611000  1.0  -0.3766
  C  C460  1  0.853000  0.651900  0.570100  1.0  -0.3621
  C  C461  1  0.946900  0.684600  0.584300  1.0  -0.367
  C  C462  1  0.393700  0.072400  0.802800  1.0  -0.0337
  C  C463  1  0.437600  0.091800  0.752000  1.0  -0.0745
  C  C464  1  0.472800  0.127500  0.796000  1.0  -0.0068
  C  C465  1  0.464100  0.143700  0.890700  1.0  -0.1176
  C  C466  1  0.420100  0.124200  0.941500  1.0  -0.0191
  C  C467  1  0.384900  0.088600  0.897500  1.0  -0.0942
  C  C468  1  0.392800  0.101600  0.564600  1.0  -0.3092
  C  C469  1  0.399200  0.158900  0.543700  1.0  -0.0432
  C  C470  1  0.505400  0.214300  0.409500  1.0  0.0304
  C  C471  1  0.483700  0.180600  0.340000  1.0  -0.1408
  C  C472  1  0.441600  0.156100  0.385500  1.0  -0.0498
  C  C473  1  0.413000  0.136500  0.051800  1.0  0.1088
  C  C474  1  0.429000  0.088400  0.111000  1.0  -0.3766
  C  C475  1  0.353000  0.151900  0.070100  1.0  -0.3621
  C  C476  1  0.446900  0.184600  0.084300  1.0  -0.367
  C  C477  1  0.072400  0.606300  0.197200  1.0  -0.0336
  C  C478  1  0.091800  0.562400  0.248000  1.0  -0.0724
  C  C479  1  0.127500  0.527200  0.204000  1.0  -0.0075
  C  C480  1  0.143700  0.535900  0.109300  1.0  -0.1157
  C  C481  1  0.124200  0.579900  0.058500  1.0  -0.0169
  C  C482  1  0.088600  0.615100  0.102500  1.0  -0.0965
  C  C483  1  0.101600  0.607200  0.435400  1.0  -0.3059
  C  C484  1  0.158900  0.600800  0.456300  1.0  -0.0457
  C  C485  1  0.214300  0.494600  0.590500  1.0  0.0301
  C  C486  1  0.180600  0.516300  0.660000  1.0  -0.1394
  C  C487  1  0.156100  0.558400  0.614500  1.0  -0.0483
  C  C488  1  0.136500  0.587000  0.948200  1.0  0.1103
  C  C489  1  0.088400  0.571000  0.889000  1.0  -0.3732
  C  C490  1  0.151900  0.647000  0.929900  1.0  -0.3643
  C  C491  1  0.184600  0.553100  0.915700  1.0  -0.3668
  C  C492  1  0.572400  0.106300  0.697200  1.0  -0.0336
  C  C493  1  0.591800  0.062400  0.748000  1.0  -0.0724
  C  C494  1  0.627500  0.027200  0.704000  1.0  -0.0075
  C  C495  1  0.643700  0.035900  0.609300  1.0  -0.1157
  C  C496  1  0.624200  0.079900  0.558500  1.0  -0.0169
  C  C497  1  0.588600  0.115100  0.602500  1.0  -0.0965
  C  C498  1  0.601600  0.107200  0.935400  1.0  -0.3059
  C  C499  1  0.658900  0.100800  0.956300  1.0  -0.0457
  C  C500  1  0.714300  0.994600  0.090500  1.0  0.0301
  C  C501  1  0.680600  0.016300  0.160000  1.0  -0.1394
  C  C502  1  0.656100  0.058400  0.114500  1.0  -0.0483
  C  C503  1  0.636500  0.087000  0.448200  1.0  0.1103
  C  C504  1  0.588400  0.071000  0.389000  1.0  -0.3732
  C  C505  1  0.651900  0.147000  0.429900  1.0  -0.3643
  C  C506  1  0.684600  0.053100  0.415700  1.0  -0.3668
  C  C507  1  0.927600  0.393700  0.197200  1.0  -0.0322
  C  C508  1  0.908200  0.437600  0.248000  1.0  -0.0728
  C  C509  1  0.872500  0.472800  0.204000  1.0  -0.007
  C  C510  1  0.856300  0.464100  0.109300  1.0  -0.1167
  C  C511  1  0.875800  0.420100  0.058500  1.0  -0.0174
  C  C512  1  0.911400  0.384900  0.102500  1.0  -0.0954
  C  C513  1  0.898400  0.392800  0.435400  1.0  -0.3079
  C  C514  1  0.841100  0.399200  0.456300  1.0  -0.0426
  C  C515  1  0.785700  0.505400  0.590500  1.0  0.03
  C  C516  1  0.819400  0.483700  0.660000  1.0  -0.1386
  C  C517  1  0.843900  0.441600  0.614500  1.0  -0.049
  C  C518  1  0.863500  0.413000  0.948200  1.0  0.1107
  C  C519  1  0.911600  0.429000  0.889000  1.0  -0.3747
  C  C520  1  0.848100  0.353000  0.929900  1.0  -0.3645
  C  C521  1  0.815400  0.446900  0.915700  1.0  -0.3659
  C  C522  1  0.427600  0.893700  0.697200  1.0  -0.0322
  C  C523  1  0.408200  0.937600  0.748000  1.0  -0.0728
  C  C524  1  0.372500  0.972800  0.704000  1.0  -0.007
  C  C525  1  0.356300  0.964100  0.609300  1.0  -0.1167
  C  C526  1  0.375800  0.920100  0.558500  1.0  -0.0174
  C  C527  1  0.411400  0.884900  0.602500  1.0  -0.0954
  C  C528  1  0.398400  0.892800  0.935400  1.0  -0.3079
  C  C529  1  0.341100  0.899200  0.956300  1.0  -0.0426
  C  C530  1  0.285700  0.005400  0.090500  1.0  0.03
  C  C531  1  0.319400  0.983700  0.160000  1.0  -0.1386
  C  C532  1  0.343900  0.941600  0.114500  1.0  -0.049
  C  C533  1  0.363500  0.913000  0.448200  1.0  0.1107
  C  C534  1  0.411600  0.929000  0.389000  1.0  -0.3747
  C  C535  1  0.348100  0.853000  0.429900  1.0  -0.3645
  C  C536  1  0.315400  0.946900  0.415700  1.0  -0.3659
  S  S537  1  0.342700  0.469650  0.492700  1.0  -0.0529
  S  S538  1  0.450340  0.426110  0.623000  1.0  -0.038
  S  S539  1  0.842700  0.969650  0.992700  1.0  -0.0529
  S  S540  1  0.950340  0.926110  0.123000  1.0  -0.038
  S  S541  1  0.657300  0.530350  0.492700  1.0  -0.0543
  S  S542  1  0.549660  0.573890  0.623000  1.0  -0.0374
  S  S543  1  0.157300  0.030350  0.992700  1.0  -0.0543
  S  S544  1  0.049660  0.073890  0.123000  1.0  -0.0374
  S  S545  1  0.469650  0.657300  0.507300  1.0  -0.0535
  S  S546  1  0.426110  0.549660  0.377000  1.0  -0.038
  S  S547  1  0.969650  0.157300  0.007300  1.0  -0.0535
  S  S548  1  0.926110  0.049660  0.877000  1.0  -0.038
  S  S549  1  0.530350  0.342700  0.507300  1.0  -0.0529
  S  S550  1  0.573890  0.450340  0.377000  1.0  -0.0387
  S  S551  1  0.030350  0.842700  0.007300  1.0  -0.0529
  S  S552  1  0.073890  0.950340  0.877000  1.0  -0.0387
  S  S553  1  0.157300  0.469650  0.257300  1.0  -0.0533
  S  S554  1  0.049660  0.426110  0.127000  1.0  -0.0372
  S  S555  1  0.657300  0.969650  0.757300  1.0  -0.0533
  S  S556  1  0.549660  0.926110  0.627000  1.0  -0.0372
  S  S557  1  0.842700  0.530350  0.257300  1.0  -0.053
  S  S558  1  0.950340  0.573890  0.127000  1.0  -0.0374
  S  S559  1  0.342700  0.030350  0.757300  1.0  -0.053
  S  S560  1  0.450340  0.073890  0.627000  1.0  -0.0374
  S  S561  1  0.030350  0.657300  0.242700  1.0  -0.0542
  S  S562  1  0.073890  0.549660  0.373000  1.0  -0.0376
  S  S563  1  0.530350  0.157300  0.742700  1.0  -0.0542
  S  S564  1  0.573890  0.049660  0.873000  1.0  -0.0376
  S  S565  1  0.969650  0.342700  0.242700  1.0  -0.0532
  S  S566  1  0.926110  0.450340  0.373000  1.0  -0.0392
  S  S567  1  0.469650  0.842700  0.742700  1.0  -0.0532
  S  S568  1  0.426110  0.950340  0.873000  1.0  -0.0392
  N  N569  1  0.440000  0.327300  0.776100  1.0  0.1623
  N  N570  1  0.477700  0.290100  0.762000  1.0  -0.2156
  N  N571  1  0.940000  0.827300  0.276100  1.0  0.1623
  N  N572  1  0.977700  0.790100  0.262000  1.0  -0.2156
  N  N573  1  0.560000  0.672700  0.776100  1.0  0.1611
  N  N574  1  0.522300  0.709900  0.762000  1.0  -0.2164
  N  N575  1  0.060000  0.172700  0.276100  1.0  0.1611
  N  N576  1  0.022300  0.209900  0.262000  1.0  -0.2164
  N  N577  1  0.327300  0.560000  0.223900  1.0  0.1598
  N  N578  1  0.290100  0.522300  0.238000  1.0  -0.2145
  N  N579  1  0.827300  0.060000  0.723900  1.0  0.1598
  N  N580  1  0.790100  0.022300  0.738000  1.0  -0.2145
  N  N581  1  0.672700  0.440000  0.223900  1.0  0.1605
  N  N582  1  0.709900  0.477700  0.238000  1.0  -0.2151
  N  N583  1  0.172700  0.940000  0.723900  1.0  0.1605
  N  N584  1  0.209900  0.977700  0.738000  1.0  -0.2151
  N  N585  1  0.060000  0.327300  0.973900  1.0  0.1615
  N  N586  1  0.022300  0.290100  0.988000  1.0  -0.2162
  N  N587  1  0.560000  0.827300  0.473900  1.0  0.1615
  N  N588  1  0.522300  0.790100  0.488000  1.0  -0.2162
  N  N589  1  0.940000  0.672700  0.973900  1.0  0.1612
  N  N590  1  0.977700  0.709900  0.988000  1.0  -0.2173
  N  N591  1  0.440000  0.172700  0.473900  1.0  0.1612
  N  N592  1  0.477700  0.209900  0.488000  1.0  -0.2173
  N  N593  1  0.172700  0.560000  0.526100  1.0  0.1604
  N  N594  1  0.209900  0.522300  0.512000  1.0  -0.2155
  N  N595  1  0.672700  0.060000  0.026100  1.0  0.1604
  N  N596  1  0.709900  0.022300  0.012000  1.0  -0.2155
  N  N597  1  0.827300  0.440000  0.526100  1.0  0.161
  N  N598  1  0.790100  0.477700  0.512000  1.0  -0.214
  N  N599  1  0.327300  0.940000  0.026100  1.0  0.161
  N  N600  1  0.290100  0.977700  0.012000  1.0  -0.214
