# generated using pymatgen
data_CuH10(C11O2)2
_symmetry_space_group_name_H-M   'P 1'
_cell_length_a   17.11610000
_cell_length_b   38.68620000
_cell_length_c   25.64670000
_cell_angle_alpha   90.00000000
_cell_angle_beta   101.44100000
_cell_angle_gamma   90.00000000
_symmetry_Int_Tables_number   1
_chemical_formula_structural   CuH10(C11O2)2
_chemical_formula_sum   'Cu12 H120 C264 O48'
_cell_volume   16644.69466979
_cell_formula_units_Z   12
loop_
 _symmetry_equiv_pos_site_id
 _symmetry_equiv_pos_as_xyz
  1  'x, y, z'
loop_
 _atom_site_type_symbol
 _atom_site_label
 _atom_site_symmetry_multiplicity
 _atom_site_fract_x
 _atom_site_fract_y
 _atom_site_fract_z
 _atom_site_occupancy
 _atom_site_charge
  Cu  Cu1  1  0.940200  0.266000  0.205060  1.0  0.9124
  Cu  Cu2  1  0.072170  0.252320  0.274200  1.0  0.902
  Cu  Cu3  1  0.006090  0.966010  0.499670  1.0  0.942
  Cu  Cu4  1  0.059800  0.766000  0.294940  1.0  0.9127
  Cu  Cu5  1  0.927830  0.752320  0.225800  1.0  0.9011
  Cu  Cu6  1  0.993910  0.466010  0.000330  1.0  0.943
  Cu  Cu7  1  0.059800  0.734000  0.794940  1.0  0.9125
  Cu  Cu8  1  0.927830  0.747680  0.725800  1.0  0.9015
  Cu  Cu9  1  0.993910  0.033990  0.500330  1.0  0.9428
  Cu  Cu10  1  0.940200  0.234000  0.705060  1.0  0.9119
  Cu  Cu11  1  0.072170  0.247680  0.774200  1.0  0.902
  Cu  Cu12  1  0.006090  0.533990  0.999670  1.0  0.9411
  H  H13  1  0.228200  0.061700  0.475100  1.0  0.1086
  H  H14  1  0.355100  0.065500  0.452500  1.0  0.1159
  H  H15  1  0.369900  0.962400  0.452600  1.0  0.1062
  H  H16  1  0.242400  0.958100  0.472700  1.0  0.1161
  H  H17  1  0.601200  0.963200  0.410100  1.0  0.1121
  H  H18  1  0.791100  0.011900  0.371200  1.0  0.1094
  H  H19  1  0.604100  0.066800  0.400900  1.0  0.1128
  H  H20  1  0.711600  0.874700  0.307000  1.0  0.1222
  H  H21  1  0.777400  0.828400  0.276800  1.0  0.0948
  H  H22  1  0.975600  0.851400  0.379400  1.0  0.1088
  H  H23  1  0.914800  0.899800  0.405900  1.0  0.1004
  H  H24  1  0.926100  0.117100  0.381100  1.0  0.105
  H  H25  1  0.991800  0.164200  0.352300  1.0  0.1128
  H  H26  1  0.782700  0.197700  0.265900  1.0  0.1043
  H  H27  1  0.715100  0.152000  0.301000  1.0  0.1218
  H  H28  1  0.069500  0.948100  0.668600  1.0  0.0965
  H  H29  1  0.092800  0.947800  0.759900  1.0  0.1127
  H  H30  1  0.093200  0.051100  0.761200  1.0  0.1105
  H  H31  1  0.067600  0.051600  0.668600  1.0  0.0963
  H  H32  1  0.101300  0.054300  0.934800  1.0  0.1127
  H  H33  1  0.104600  0.006700  0.073800  1.0  0.1085
  H  H34  1  0.102300  0.950200  0.942400  1.0  0.1144
  H  H35  1  0.982200  0.141300  0.038400  1.0  0.0943
  H  H36  1  0.958900  0.188800  0.088300  1.0  0.1135
  H  H37  1  0.162700  0.169900  0.191600  1.0  0.1134
  H  H38  1  0.181400  0.119700  0.144100  1.0  0.1153
  H  H39  1  0.974800  0.873700  0.053600  1.0  0.1105
  H  H40  1  0.951100  0.827000  0.106700  1.0  0.1058
  H  H41  1  0.150200  0.847500  0.210600  1.0  0.0996
  H  H42  1  0.178600  0.894500  0.157200  1.0  0.1193
  H  H43  1  0.771800  0.561700  0.024900  1.0  0.1084
  H  H44  1  0.644900  0.565500  0.047500  1.0  0.1161
  H  H45  1  0.630100  0.462400  0.047400  1.0  0.107
  H  H46  1  0.757600  0.458100  0.027300  1.0  0.1165
  H  H47  1  0.398800  0.463200  0.089900  1.0  0.1127
  H  H48  1  0.208900  0.511900  0.128800  1.0  0.1092
  H  H49  1  0.395900  0.566800  0.099100  1.0  0.112
  H  H50  1  0.288400  0.374700  0.193000  1.0  0.1218
  H  H51  1  0.222600  0.328400  0.223200  1.0  0.0949
  H  H52  1  0.024400  0.351400  0.120600  1.0  0.1089
  H  H53  1  0.085200  0.399800  0.094100  1.0  0.0996
  H  H54  1  0.073900  0.617100  0.118900  1.0  0.1043
  H  H55  1  0.008200  0.664200  0.147700  1.0  0.1135
  H  H56  1  0.217300  0.697700  0.234100  1.0  0.1048
  H  H57  1  0.284900  0.652000  0.199000  1.0  0.1133
  H  H58  1  0.930500  0.448100  0.831400  1.0  0.0966
  H  H59  1  0.907200  0.447800  0.740100  1.0  0.1121
  H  H60  1  0.906800  0.551100  0.738800  1.0  0.1108
  H  H61  1  0.932400  0.551600  0.831400  1.0  0.0963
  H  H62  1  0.898700  0.554300  0.565200  1.0  0.1129
  H  H63  1  0.895400  0.506700  0.426200  1.0  0.1073
  H  H64  1  0.897700  0.450200  0.557600  1.0  0.115
  H  H65  1  0.017800  0.641300  0.461600  1.0  0.094
  H  H66  1  0.041100  0.688800  0.411700  1.0  0.1134
  H  H67  1  0.837300  0.669900  0.308400  1.0  0.1133
  H  H68  1  0.818600  0.619700  0.355900  1.0  0.1151
  H  H69  1  0.025200  0.373700  0.446400  1.0  0.1109
  H  H70  1  0.048900  0.327000  0.393300  1.0  0.1065
  H  H71  1  0.849800  0.347500  0.289400  1.0  0.0993
  H  H72  1  0.821400  0.394500  0.342800  1.0  0.1173
  H  H73  1  0.771800  0.938300  0.524900  1.0  0.1074
  H  H74  1  0.644900  0.934500  0.547500  1.0  0.1158
  H  H75  1  0.630100  0.037600  0.547400  1.0  0.1078
  H  H76  1  0.757600  0.041900  0.527300  1.0  0.116
  H  H77  1  0.398800  0.036800  0.589900  1.0  0.1129
  H  H78  1  0.208900  0.988100  0.628800  1.0  0.1091
  H  H79  1  0.395900  0.933200  0.599100  1.0  0.1125
  H  H80  1  0.288400  0.125300  0.693000  1.0  0.1217
  H  H81  1  0.222600  0.171600  0.723200  1.0  0.0952
  H  H82  1  0.024400  0.148600  0.620600  1.0  0.109
  H  H83  1  0.085200  0.100200  0.594100  1.0  0.0992
  H  H84  1  0.073900  0.882900  0.618900  1.0  0.1047
  H  H85  1  0.008200  0.835800  0.647700  1.0  0.1133
  H  H86  1  0.217300  0.802300  0.734100  1.0  0.1052
  H  H87  1  0.284900  0.848000  0.699000  1.0  0.1205
  H  H88  1  0.930500  0.051900  0.331400  1.0  0.0966
  H  H89  1  0.907200  0.052200  0.240100  1.0  0.1129
  H  H90  1  0.906800  0.948900  0.238800  1.0  0.1098
  H  H91  1  0.932400  0.948400  0.331400  1.0  0.0966
  H  H92  1  0.898700  0.945700  0.065200  1.0  0.1132
  H  H93  1  0.895400  0.993300  0.926200  1.0  0.1074
  H  H94  1  0.897700  0.049800  0.057600  1.0  0.1149
  H  H95  1  0.017800  0.858700  0.961600  1.0  0.0942
  H  H96  1  0.041100  0.811200  0.911700  1.0  0.1132
  H  H97  1  0.837300  0.830100  0.808400  1.0  0.1131
  H  H98  1  0.818600  0.880300  0.855900  1.0  0.1157
  H  H99  1  0.025200  0.126300  0.946400  1.0  0.1103
  H  H100  1  0.048900  0.173000  0.893300  1.0  0.1061
  H  H101  1  0.849800  0.152500  0.789400  1.0  0.0994
  H  H102  1  0.821400  0.105500  0.842800  1.0  0.1187
  H  H103  1  0.228200  0.438300  0.975100  1.0  0.1075
  H  H104  1  0.355100  0.434500  0.952500  1.0  0.1159
  H  H105  1  0.369900  0.537600  0.952600  1.0  0.1068
  H  H106  1  0.242400  0.541900  0.972700  1.0  0.1163
  H  H107  1  0.601200  0.536800  0.910100  1.0  0.113
  H  H108  1  0.791100  0.488100  0.871200  1.0  0.1094
  H  H109  1  0.604100  0.433200  0.900900  1.0  0.1113
  H  H110  1  0.711600  0.625300  0.807000  1.0  0.122
  H  H111  1  0.777400  0.671600  0.776800  1.0  0.0954
  H  H112  1  0.975600  0.648600  0.879400  1.0  0.109
  H  H113  1  0.914800  0.600200  0.905900  1.0  0.1003
  H  H114  1  0.926100  0.382900  0.881100  1.0  0.1042
  H  H115  1  0.991800  0.335800  0.852300  1.0  0.1128
  H  H116  1  0.782700  0.302300  0.765900  1.0  0.1043
  H  H117  1  0.715100  0.348000  0.801000  1.0  0.1146
  H  H118  1  0.069500  0.551900  0.168600  1.0  0.0967
  H  H119  1  0.092800  0.552200  0.259900  1.0  0.1129
  H  H120  1  0.093200  0.448900  0.261200  1.0  0.1103
  H  H121  1  0.067600  0.448400  0.168600  1.0  0.0965
  H  H122  1  0.101300  0.445700  0.434800  1.0  0.1124
  H  H123  1  0.104600  0.493300  0.573800  1.0  0.1085
  H  H124  1  0.102300  0.549800  0.442400  1.0  0.1149
  H  H125  1  0.982200  0.358700  0.538400  1.0  0.0944
  H  H126  1  0.958900  0.311200  0.588300  1.0  0.1134
  H  H127  1  0.162700  0.330100  0.691600  1.0  0.1134
  H  H128  1  0.181400  0.380300  0.644100  1.0  0.1158
  H  H129  1  0.974800  0.626300  0.553600  1.0  0.1107
  H  H130  1  0.951100  0.673000  0.606700  1.0  0.1066
  H  H131  1  0.150200  0.652500  0.710600  1.0  0.0998
  H  H132  1  0.178600  0.605500  0.657200  1.0  0.118
  C  C133  1  0.141400  0.006640  0.487520  1.0  0.6783
  C  C134  1  0.223900  0.009670  0.475290  1.0  -0.1202
  C  C135  1  0.256300  0.041560  0.469900  1.0  -0.0418
  C  C136  1  0.332500  0.043740  0.456600  1.0  -0.1069
  C  C137  1  0.373100  0.014270  0.449600  1.0  -0.007
  C  C138  1  0.340800  0.982600  0.456300  1.0  -0.1014
  C  C139  1  0.264900  0.979930  0.468800  1.0  -0.0579
  C  C140  1  0.450500  0.016490  0.435200  1.0  -0.0664
  C  C141  1  0.516700  0.016290  0.422400  1.0  0.1603
  C  C142  1  0.591200  0.015110  0.408480  1.0  0.0582
  C  C143  1  0.626700  0.983740  0.403440  1.0  -0.0876
  C  C144  1  0.701700  0.982500  0.388190  1.0  -0.0374
  C  C145  1  0.740100  0.012740  0.379700  1.0  -0.0697
  C  C146  1  0.703700  0.044020  0.383600  1.0  0.0526
  C  C147  1  0.628800  0.045350  0.398170  1.0  -0.091
  C  C148  1  0.739100  0.949350  0.381900  1.0  -0.0577
  C  C149  1  0.771000  0.923360  0.372400  1.0  0.0376
  C  C150  1  0.808000  0.892860  0.359400  1.0  0.0756
  C  C151  1  0.765900  0.870780  0.321000  1.0  -0.1729
  C  C152  1  0.805300  0.842790  0.303800  1.0  -0.0364
  C  C153  1  0.882500  0.835640  0.324600  1.0  -0.1474
  C  C154  1  0.922500  0.856460  0.363500  1.0  -0.0702
  C  C155  1  0.885500  0.885210  0.379900  1.0  -0.0663
  C  C156  1  0.923200  0.805150  0.302800  1.0  0.6886
  C  C157  1  0.742700  0.074950  0.371500  1.0  -0.0986
  C  C158  1  0.775700  0.099520  0.359600  1.0  0.0376
  C  C159  1  0.816000  0.129430  0.342900  1.0  0.0251
  C  C160  1  0.896700  0.133520  0.358200  1.0  -0.0995
  C  C161  1  0.936500  0.161440  0.340700  1.0  -0.0637
  C  C162  1  0.892400  0.185210  0.305700  1.0  -0.1203
  C  C163  1  0.811600  0.181770  0.289900  1.0  -0.0575
  C  C164  1  0.770900  0.153830  0.309900  1.0  -0.1383
  C  C165  1  0.933400  0.214070  0.281700  1.0  0.6899
  C  C166  1  0.042500  0.000120  0.598740  1.0  0.6931
  C  C167  1  0.062300  0.999750  0.659000  1.0  -0.1073
  C  C168  1  0.072200  0.969150  0.687100  1.0  -0.0595
  C  C169  1  0.085900  0.969000  0.741600  1.0  -0.1226
  C  C170  1  0.089700  0.999750  0.770100  1.0  0.0299
  C  C171  1  0.085900  0.030110  0.742500  1.0  -0.1199
  C  C172  1  0.071300  0.030420  0.686900  1.0  -0.0594
  C  C173  1  0.098500  0.000080  0.826900  1.0  -0.0484
  C  C174  1  0.103000  0.000730  0.873200  1.0  -0.117
  C  C175  1  0.104400  0.002260  0.930400  1.0  -0.0196
  C  C176  1  0.102600  0.033860  0.954700  1.0  -0.0562
  C  C177  1  0.102800  0.035390  0.008400  1.0  -0.025
  C  C178  1  0.104400  0.005510  0.037100  1.0  -0.0091
  C  C179  1  0.105800  0.973600  0.013000  1.0  0.0145
  C  C180  1  0.103900  0.971780  0.959500  1.0  -0.0428
  C  C181  1  0.100300  0.068680  0.034200  1.0  -0.0584
  C  C182  1  0.092900  0.095450  0.057100  1.0  -0.0146
  C  C183  1  0.082700  0.125620  0.085700  1.0  0.0556
  C  C184  1  0.018400  0.146440  0.070100  1.0  -0.1489
  C  C185  1  0.004400  0.175060  0.099500  1.0  -0.0781
  C  C186  1  0.058300  0.182990  0.145300  1.0  -0.1138
  C  C187  1  0.124900  0.163540  0.161300  1.0  -0.0651
  C  C188  1  0.136900  0.133910  0.132200  1.0  -0.1164
  C  C189  1  0.042700  0.212160  0.179800  1.0  0.6919
  C  C190  1  0.100800  0.942040  0.044100  1.0  -0.0685
  C  C191  1  0.090200  0.917530  0.068700  1.0  0.0716
  C  C192  1  0.077400  0.888460  0.100000  1.0  -0.0159
  C  C193  1  0.011100  0.868710  0.085300  1.0  -0.135
  C  C194  1  0.996600  0.840850  0.117400  1.0  -0.0519
  C  C195  1  0.048500  0.833920  0.164100  1.0  -0.1351
  C  C196  1  0.114600  0.852900  0.178800  1.0  -0.0507
  C  C197  1  0.132000  0.881220  0.146900  1.0  -0.1437
  C  C198  1  0.030400  0.805020  0.198900  1.0  0.6843
  C  C199  1  0.858600  0.506640  0.012480  1.0  0.6787
  C  C200  1  0.776100  0.509670  0.024710  1.0  -0.119
  C  C201  1  0.743700  0.541560  0.030100  1.0  -0.0416
  C  C202  1  0.667500  0.543740  0.043400  1.0  -0.1044
  C  C203  1  0.626900  0.514270  0.050400  1.0  -0.0048
  C  C204  1  0.659200  0.482600  0.043700  1.0  -0.1016
  C  C205  1  0.735100  0.479930  0.031200  1.0  -0.059
  C  C206  1  0.549500  0.516490  0.064800  1.0  -0.0675
  C  C207  1  0.483300  0.516290  0.077600  1.0  0.1588
  C  C208  1  0.408800  0.515110  0.091520  1.0  0.0589
  C  C209  1  0.373300  0.483740  0.096560  1.0  -0.0896
  C  C210  1  0.298300  0.482500  0.111810  1.0  -0.0365
  C  C211  1  0.259900  0.512740  0.120300  1.0  -0.0702
  C  C212  1  0.296300  0.544020  0.116400  1.0  0.0505
  C  C213  1  0.371200  0.545350  0.101830  1.0  -0.0899
  C  C214  1  0.260900  0.449350  0.118100  1.0  -0.0558
  C  C215  1  0.229000  0.423360  0.127600  1.0  0.038
  C  C216  1  0.192000  0.392860  0.140600  1.0  0.076
  C  C217  1  0.234100  0.370780  0.179000  1.0  -0.171
  C  C218  1  0.194700  0.342790  0.196200  1.0  -0.0366
  C  C219  1  0.117500  0.335640  0.175400  1.0  -0.1482
  C  C220  1  0.077500  0.356460  0.136500  1.0  -0.0696
  C  C221  1  0.114500  0.385210  0.120100  1.0  -0.0669
  C  C222  1  0.076800  0.305150  0.197200  1.0  0.6887
  C  C223  1  0.257300  0.574950  0.128500  1.0  -0.099
  C  C224  1  0.224300  0.599520  0.140400  1.0  0.0397
  C  C225  1  0.184000  0.629430  0.157100  1.0  0.0265
  C  C226  1  0.103300  0.633520  0.141800  1.0  -0.0979
  C  C227  1  0.063500  0.661440  0.159300  1.0  -0.0655
  C  C228  1  0.107600  0.685210  0.194300  1.0  -0.1212
  C  C229  1  0.188400  0.681770  0.210100  1.0  -0.0556
  C  C230  1  0.229100  0.653830  0.190100  1.0  -0.1345
  C  C231  1  0.066600  0.714070  0.218300  1.0  0.69
  C  C232  1  0.957500  0.500120  0.901260  1.0  0.6924
  C  C233  1  0.937700  0.499750  0.841000  1.0  -0.1053
  C  C234  1  0.927800  0.469150  0.812900  1.0  -0.0586
  C  C235  1  0.914100  0.469000  0.758400  1.0  -0.1229
  C  C236  1  0.910300  0.499750  0.729900  1.0  0.0306
  C  C237  1  0.914100  0.530110  0.757500  1.0  -0.1197
  C  C238  1  0.928700  0.530420  0.813100  1.0  -0.0603
  C  C239  1  0.901500  0.500080  0.673100  1.0  -0.0482
  C  C240  1  0.897000  0.500730  0.626800  1.0  -0.1145
  C  C241  1  0.895600  0.502260  0.569600  1.0  -0.0198
  C  C242  1  0.897400  0.533860  0.545300  1.0  -0.0553
  C  C243  1  0.897200  0.535390  0.491600  1.0  -0.0268
  C  C244  1  0.895600  0.505510  0.462900  1.0  -0.0088
  C  C245  1  0.894200  0.473600  0.487000  1.0  0.0132
  C  C246  1  0.896100  0.471780  0.540500  1.0  -0.0425
  C  C247  1  0.899700  0.568680  0.465800  1.0  -0.0643
  C  C248  1  0.907100  0.595450  0.442900  1.0  -0.0136
  C  C249  1  0.917300  0.625620  0.414300  1.0  0.0573
  C  C250  1  0.981600  0.646440  0.429900  1.0  -0.1496
  C  C251  1  0.995600  0.675060  0.400500  1.0  -0.078
  C  C252  1  0.941700  0.682990  0.354700  1.0  -0.1134
  C  C253  1  0.875100  0.663540  0.338700  1.0  -0.0659
  C  C254  1  0.863100  0.633910  0.367800  1.0  -0.1178
  C  C255  1  0.957300  0.712160  0.320200  1.0  0.6915
  C  C256  1  0.899200  0.442040  0.455900  1.0  -0.0732
  C  C257  1  0.909800  0.417530  0.431300  1.0  0.071
  C  C258  1  0.922600  0.388460  0.400000  1.0  -0.0149
  C  C259  1  0.988900  0.368710  0.414700  1.0  -0.1357
  C  C260  1  0.003400  0.340850  0.382600  1.0  -0.0519
  C  C261  1  0.951500  0.333920  0.335900  1.0  -0.1353
  C  C262  1  0.885400  0.352900  0.321200  1.0  -0.0522
  C  C263  1  0.868000  0.381220  0.353100  1.0  -0.1469
  C  C264  1  0.969600  0.305020  0.301100  1.0  0.6842
  C  C265  1  0.858600  0.993360  0.512480  1.0  0.6788
  C  C266  1  0.776100  0.990330  0.524710  1.0  -0.1187
  C  C267  1  0.743700  0.958440  0.530100  1.0  -0.0421
  C  C268  1  0.667500  0.956260  0.543400  1.0  -0.1056
  C  C269  1  0.626900  0.985730  0.550400  1.0  -0.0046
  C  C270  1  0.659200  0.017400  0.543700  1.0  -0.1002
  C  C271  1  0.735100  0.020070  0.531200  1.0  -0.0595
  C  C272  1  0.549500  0.983510  0.564800  1.0  -0.0672
  C  C273  1  0.483300  0.983710  0.577600  1.0  0.1587
  C  C274  1  0.408800  0.984890  0.591520  1.0  0.0593
  C  C275  1  0.373300  0.016260  0.596560  1.0  -0.0886
  C  C276  1  0.298300  0.017500  0.611810  1.0  -0.0393
  C  C277  1  0.259900  0.987260  0.620300  1.0  -0.07
  C  C278  1  0.296300  0.955980  0.616400  1.0  0.0496
  C  C279  1  0.371200  0.954650  0.601830  1.0  -0.0886
  C  C280  1  0.260900  0.050650  0.618100  1.0  -0.0567
  C  C281  1  0.229000  0.076640  0.627600  1.0  0.0376
  C  C282  1  0.192000  0.107140  0.640600  1.0  0.0765
  C  C283  1  0.234100  0.129220  0.679000  1.0  -0.1711
  C  C284  1  0.194700  0.157210  0.696200  1.0  -0.0354
  C  C285  1  0.117500  0.164360  0.675400  1.0  -0.1473
  C  C286  1  0.077500  0.143540  0.636500  1.0  -0.0702
  C  C287  1  0.114500  0.114790  0.620100  1.0  -0.0672
  C  C288  1  0.076800  0.194850  0.697200  1.0  0.6887
  C  C289  1  0.257300  0.925050  0.628500  1.0  -0.0986
  C  C290  1  0.224300  0.900480  0.640400  1.0  0.0404
  C  C291  1  0.184000  0.870570  0.657100  1.0  0.0256
  C  C292  1  0.103300  0.866480  0.641800  1.0  -0.0988
  C  C293  1  0.063500  0.838560  0.659300  1.0  -0.0654
  C  C294  1  0.107600  0.814790  0.694300  1.0  -0.1215
  C  C295  1  0.188400  0.818230  0.710100  1.0  -0.0564
  C  C296  1  0.229100  0.846170  0.690100  1.0  -0.134
  C  C297  1  0.066600  0.785930  0.718300  1.0  0.6901
  C  C298  1  0.957500  0.999880  0.401260  1.0  0.6924
  C  C299  1  0.937700  0.000250  0.341000  1.0  -0.1052
  C  C300  1  0.927800  0.030850  0.312900  1.0  -0.0587
  C  C301  1  0.914100  0.031000  0.258400  1.0  -0.1241
  C  C302  1  0.910300  0.000250  0.229900  1.0  0.0307
  C  C303  1  0.914100  0.969890  0.257500  1.0  -0.1187
  C  C304  1  0.928700  0.969580  0.313100  1.0  -0.0591
  C  C305  1  0.901500  0.999920  0.173100  1.0  -0.048
  C  C306  1  0.897000  0.999270  0.126800  1.0  -0.1141
  C  C307  1  0.895600  0.997740  0.069600  1.0  -0.0199
  C  C308  1  0.897400  0.966140  0.045300  1.0  -0.0549
  C  C309  1  0.897200  0.964610  0.991600  1.0  -0.0274
  C  C310  1  0.895600  0.994490  0.962900  1.0  -0.0087
  C  C311  1  0.894200  0.026400  0.987000  1.0  0.0151
  C  C312  1  0.896100  0.028220  0.040500  1.0  -0.0417
  C  C313  1  0.899700  0.931320  0.965800  1.0  -0.0641
  C  C314  1  0.907100  0.904550  0.942900  1.0  -0.0159
  C  C315  1  0.917300  0.874380  0.914300  1.0  0.058
  C  C316  1  0.981600  0.853560  0.929900  1.0  -0.1496
  C  C317  1  0.995600  0.824940  0.900500  1.0  -0.0784
  C  C318  1  0.941700  0.817010  0.854700  1.0  -0.1128
  C  C319  1  0.875100  0.836460  0.838700  1.0  -0.0659
  C  C320  1  0.863100  0.866090  0.867800  1.0  -0.1187
  C  C321  1  0.957300  0.787840  0.820200  1.0  0.6917
  C  C322  1  0.899200  0.057960  0.955900  1.0  -0.0742
  C  C323  1  0.909800  0.082470  0.931300  1.0  0.07
  C  C324  1  0.922600  0.111540  0.900000  1.0  -0.0153
  C  C325  1  0.988900  0.131290  0.914700  1.0  -0.1358
  C  C326  1  0.003400  0.159150  0.882600  1.0  -0.0514
  C  C327  1  0.951500  0.166080  0.835900  1.0  -0.1357
  C  C328  1  0.885400  0.147100  0.821200  1.0  -0.0521
  C  C329  1  0.868000  0.118780  0.853100  1.0  -0.1465
  C  C330  1  0.969600  0.194980  0.801100  1.0  0.6842
  C  C331  1  0.141400  0.493360  0.987520  1.0  0.6784
  C  C332  1  0.223900  0.490330  0.975290  1.0  -0.1201
  C  C333  1  0.256300  0.458440  0.969900  1.0  -0.0404
  C  C334  1  0.332500  0.456260  0.956600  1.0  -0.1071
  C  C335  1  0.373100  0.485730  0.949600  1.0  -0.0071
  C  C336  1  0.340800  0.517400  0.956300  1.0  -0.1002
  C  C337  1  0.264900  0.520070  0.968800  1.0  -0.0582
  C  C338  1  0.450500  0.483510  0.935200  1.0  -0.0662
  C  C339  1  0.516700  0.483710  0.922400  1.0  0.1608
  C  C340  1  0.591200  0.484890  0.908480  1.0  0.0585
  C  C341  1  0.626700  0.516260  0.903440  1.0  -0.0882
  C  C342  1  0.701700  0.517500  0.888190  1.0  -0.0383
  C  C343  1  0.740100  0.487260  0.879700  1.0  -0.0698
  C  C344  1  0.703700  0.455980  0.883600  1.0  0.0504
  C  C345  1  0.628800  0.454650  0.898170  1.0  -0.0902
  C  C346  1  0.739100  0.550650  0.881900  1.0  -0.0586
  C  C347  1  0.771000  0.576640  0.872400  1.0  0.0382
  C  C348  1  0.808000  0.607140  0.859400  1.0  0.0752
  C  C349  1  0.765900  0.629220  0.821000  1.0  -0.1727
  C  C350  1  0.805300  0.657210  0.803800  1.0  -0.0362
  C  C351  1  0.882500  0.664360  0.824600  1.0  -0.1472
  C  C352  1  0.922500  0.643540  0.863500  1.0  -0.0704
  C  C353  1  0.885500  0.614790  0.879900  1.0  -0.0669
  C  C354  1  0.923200  0.694850  0.802800  1.0  0.6887
  C  C355  1  0.742700  0.425050  0.871500  1.0  -0.098
  C  C356  1  0.775700  0.400480  0.859600  1.0  0.0379
  C  C357  1  0.816000  0.370570  0.842900  1.0  0.0247
  C  C358  1  0.896700  0.366480  0.858200  1.0  -0.0995
  C  C359  1  0.936500  0.338560  0.840700  1.0  -0.0639
  C  C360  1  0.892400  0.314790  0.805700  1.0  -0.1203
  C  C361  1  0.811600  0.318230  0.789900  1.0  -0.0581
  C  C362  1  0.770900  0.346170  0.809900  1.0  -0.1384
  C  C363  1  0.933400  0.285930  0.781700  1.0  0.6901
  C  C364  1  0.042500  0.499880  0.098740  1.0  0.6932
  C  C365  1  0.062300  0.500250  0.159000  1.0  -0.1072
  C  C366  1  0.072200  0.530850  0.187100  1.0  -0.0589
  C  C367  1  0.085900  0.531000  0.241600  1.0  -0.1236
  C  C368  1  0.089700  0.500250  0.270100  1.0  0.0295
  C  C369  1  0.085900  0.469890  0.242500  1.0  -0.1191
  C  C370  1  0.071300  0.469580  0.186900  1.0  -0.0595
  C  C371  1  0.098500  0.499920  0.326900  1.0  -0.0482
  C  C372  1  0.103000  0.499270  0.373200  1.0  -0.1167
  C  C373  1  0.104400  0.497740  0.430400  1.0  -0.0191
  C  C374  1  0.102600  0.466140  0.454700  1.0  -0.0557
  C  C375  1  0.102800  0.464610  0.508400  1.0  -0.0246
  C  C376  1  0.104400  0.494490  0.537100  1.0  -0.0089
  C  C377  1  0.105800  0.526400  0.513000  1.0  0.0144
  C  C378  1  0.103900  0.528220  0.459500  1.0  -0.0433
  C  C379  1  0.100300  0.431320  0.534200  1.0  -0.0582
  C  C380  1  0.092900  0.404550  0.557100  1.0  -0.0173
  C  C381  1  0.082700  0.374380  0.585700  1.0  0.0557
  C  C382  1  0.018400  0.353560  0.570100  1.0  -0.1493
  C  C383  1  0.004400  0.324940  0.599500  1.0  -0.0783
  C  C384  1  0.058300  0.317010  0.645300  1.0  -0.1132
  C  C385  1  0.124900  0.336460  0.661300  1.0  -0.0651
  C  C386  1  0.136900  0.366090  0.632200  1.0  -0.1173
  C  C387  1  0.042700  0.287840  0.679800  1.0  0.692
  C  C388  1  0.100800  0.557960  0.544100  1.0  -0.07
  C  C389  1  0.090200  0.582470  0.568700  1.0  0.0706
  C  C390  1  0.077400  0.611540  0.600000  1.0  -0.0159
  C  C391  1  0.011100  0.631290  0.585300  1.0  -0.1359
  C  C392  1  0.996600  0.659150  0.617400  1.0  -0.0517
  C  C393  1  0.048500  0.666080  0.664100  1.0  -0.1357
  C  C394  1  0.114600  0.647100  0.678800  1.0  -0.0508
  C  C395  1  0.132000  0.618780  0.646900  1.0  -0.1437
  C  C396  1  0.030400  0.694980  0.698900  1.0  0.6843
  O  O397  1  0.115040  0.976560  0.490880  1.0  -0.5802
  O  O398  1  0.884300  0.789030  0.264320  1.0  -0.5768
  O  O399  1  0.995000  0.799920  0.324210  1.0  -0.5683
  O  O400  1  0.894700  0.231000  0.244230  1.0  -0.5683
  O  O401  1  0.008800  0.217510  0.302430  1.0  -0.5736
  O  O402  1  0.038700  0.971300  0.576300  1.0  -0.5576
  O  O403  1  0.979000  0.228850  0.164290  1.0  -0.5777
  O  O404  1  0.091700  0.218340  0.222070  1.0  -0.5741
  O  O405  1  0.077900  0.800830  0.243280  1.0  -0.5727
  O  O406  1  0.967400  0.788170  0.183610  1.0  -0.5783
  O  O407  1  0.105070  0.034180  0.491340  1.0  -0.5743
  O  O408  1  0.029570  0.029150  0.576700  1.0  -0.5661
  O  O409  1  0.884960  0.476560  0.009120  1.0  -0.5808
  O  O410  1  0.115700  0.289030  0.235680  1.0  -0.5771
  O  O411  1  0.005000  0.299920  0.175790  1.0  -0.5686
  O  O412  1  0.105300  0.731000  0.255770  1.0  -0.5689
  O  O413  1  0.991200  0.717510  0.197570  1.0  -0.5728
  O  O414  1  0.961300  0.471300  0.923700  1.0  -0.5574
  O  O415  1  0.021000  0.728850  0.335710  1.0  -0.578
  O  O416  1  0.908300  0.718340  0.277930  1.0  -0.5746
  O  O417  1  0.922100  0.300830  0.256720  1.0  -0.5729
  O  O418  1  0.032600  0.288170  0.316390  1.0  -0.5789
  O  O419  1  0.894930  0.534180  0.008660  1.0  -0.575
  O  O420  1  0.970430  0.529150  0.923300  1.0  -0.5664
  O  O421  1  0.884960  0.023440  0.509120  1.0  -0.5789
  O  O422  1  0.115700  0.210970  0.735680  1.0  -0.5769
  O  O423  1  0.005000  0.200080  0.675790  1.0  -0.5687
  O  O424  1  0.105300  0.769000  0.755770  1.0  -0.5692
  O  O425  1  0.991200  0.782490  0.697570  1.0  -0.5729
  O  O426  1  0.961300  0.028700  0.423700  1.0  -0.5574
  O  O427  1  0.021000  0.771150  0.835710  1.0  -0.5783
  O  O428  1  0.908300  0.781660  0.777930  1.0  -0.5746
  O  O429  1  0.922100  0.199170  0.756720  1.0  -0.5735
  O  O430  1  0.032600  0.211830  0.816390  1.0  -0.5788
  O  O431  1  0.894930  0.965820  0.508660  1.0  -0.5745
  O  O432  1  0.970430  0.970850  0.423300  1.0  -0.5664
  O  O433  1  0.115040  0.523440  0.990880  1.0  -0.5783
  O  O434  1  0.884300  0.710970  0.764320  1.0  -0.5765
  O  O435  1  0.995000  0.700080  0.824210  1.0  -0.5683
  O  O436  1  0.894700  0.269000  0.744230  1.0  -0.569
  O  O437  1  0.008800  0.282490  0.802430  1.0  -0.5735
  O  O438  1  0.038700  0.528700  0.076300  1.0  -0.5575
  O  O439  1  0.979000  0.271150  0.664290  1.0  -0.5778
  O  O440  1  0.091700  0.281660  0.722070  1.0  -0.5743
  O  O441  1  0.077900  0.699170  0.743280  1.0  -0.5729
  O  O442  1  0.967400  0.711830  0.683610  1.0  -0.5778
  O  O443  1  0.105070  0.465820  0.991340  1.0  -0.574
  O  O444  1  0.029570  0.470850  0.076700  1.0  -0.566
