# generated using pymatgen
data_Zn2H4C9O7
_symmetry_space_group_name_H-M   'P 1'
_cell_length_a   10.91800000
_cell_length_b   17.12530000
_cell_length_c   17.20920000
_cell_angle_alpha   90.00000000
_cell_angle_beta   90.00000000
_cell_angle_gamma   90.00000000
_symmetry_Int_Tables_number   1
_chemical_formula_structural   Zn2H4C9O7
_chemical_formula_sum   'Zn16 H32 C72 O56'
_cell_volume   3217.67339791
_cell_formula_units_Z   8
loop_
 _symmetry_equiv_pos_site_id
 _symmetry_equiv_pos_as_xyz
  1  'x, y, z'
loop_
 _atom_site_type_symbol
 _atom_site_label
 _atom_site_symmetry_multiplicity
 _atom_site_fract_x
 _atom_site_fract_y
 _atom_site_fract_z
 _atom_site_occupancy
 _atom_site_charge
  Zn  Zn1  1  0.176380  0.216340  0.495980  1.0  1.1653
  Zn  Zn2  1  0.555290  0.647850  0.933310  1.0  1.1356
  Zn  Zn3  1  0.665220  0.598360  0.110310  1.0  1.0778
  Zn  Zn4  1  0.286260  0.604150  0.009730  1.0  1.1697
  Zn  Zn5  1  0.323620  0.783660  0.995980  1.0  1.1645
  Zn  Zn6  1  0.944710  0.352150  0.433310  1.0  1.1345
  Zn  Zn7  1  0.834780  0.401640  0.610310  1.0  1.0778
  Zn  Zn8  1  0.213740  0.395850  0.509730  1.0  1.1729
  Zn  Zn9  1  0.823620  0.716340  0.004020  1.0  1.1644
  Zn  Zn10  1  0.444710  0.147850  0.566690  1.0  1.1344
  Zn  Zn11  1  0.334780  0.098360  0.389690  1.0  1.0779
  Zn  Zn12  1  0.713740  0.104150  0.490270  1.0  1.1695
  Zn  Zn13  1  0.676380  0.283660  0.504020  1.0  1.1631
  Zn  Zn14  1  0.055290  0.852150  0.066690  1.0  1.1355
  Zn  Zn15  1  0.165220  0.901640  0.889690  1.0  1.0773
  Zn  Zn16  1  0.786260  0.895850  0.990270  1.0  1.1724
  H  H17  1  0.034000  0.319400  0.558300  1.0  0.3936
  H  H18  1  0.259200  0.081100  0.523700  1.0  0.4369
  H  H19  1  0.237200  0.416100  0.164300  1.0  0.1051
  H  H20  1  0.212100  0.322100  0.259300  1.0  0.1213
  H  H21  1  0.559100  0.477000  0.255900  1.0  0.1042
  H  H22  1  0.215800  0.433600  0.832900  1.0  0.115
  H  H23  1  0.194700  0.342900  0.735100  1.0  0.1151
  H  H24  1  0.567700  0.465800  0.771600  1.0  0.1102
  H  H25  1  0.466000  0.680600  0.058300  1.0  0.393
  H  H26  1  0.240800  0.918900  0.023700  1.0  0.4368
  H  H27  1  0.262800  0.583900  0.664300  1.0  0.1052
  H  H28  1  0.287900  0.677900  0.759300  1.0  0.1215
  H  H29  1  0.940900  0.523000  0.755900  1.0  0.1038
  H  H30  1  0.284200  0.566400  0.332900  1.0  0.1144
  H  H31  1  0.305300  0.657100  0.235100  1.0  0.1149
  H  H32  1  0.932300  0.534200  0.271600  1.0  0.1099
  H  H33  1  0.966000  0.819400  0.941700  1.0  0.3966
  H  H34  1  0.740800  0.581100  0.976300  1.0  0.4369
  H  H35  1  0.762800  0.916100  0.335700  1.0  0.1056
  H  H36  1  0.787900  0.822100  0.240700  1.0  0.121
  H  H37  1  0.440900  0.977000  0.244100  1.0  0.1039
  H  H38  1  0.784200  0.933600  0.667100  1.0  0.1143
  H  H39  1  0.805300  0.842900  0.764900  1.0  0.1136
  H  H40  1  0.432300  0.965800  0.728400  1.0  0.1095
  H  H41  1  0.534000  0.180600  0.441700  1.0  0.3976
  H  H42  1  0.759200  0.418900  0.476300  1.0  0.4372
  H  H43  1  0.737200  0.083900  0.835700  1.0  0.1057
  H  H44  1  0.712100  0.177900  0.740700  1.0  0.1215
  H  H45  1  0.059100  0.023000  0.744100  1.0  0.1044
  H  H46  1  0.715800  0.066400  0.167100  1.0  0.1147
  H  H47  1  0.694700  0.157100  0.264900  1.0  0.1149
  H  H48  1  0.067700  0.034200  0.228400  1.0  0.1101
  C  C49  1  0.401200  0.455890  0.200380  1.0  -0.2025
  C  C50  1  0.297600  0.409200  0.201780  1.0  -0.0061
  C  C51  1  0.282800  0.352390  0.258370  1.0  -0.1204
  C  C52  1  0.374900  0.340620  0.314520  1.0  -0.0344
  C  C53  1  0.478500  0.387800  0.313790  1.0  -0.1342
  C  C54  1  0.489900  0.445260  0.256340  1.0  0.0206
  C  C55  1  0.414100  0.519450  0.140820  1.0  0.7425
  C  C56  1  0.348900  0.276180  0.371460  1.0  0.7259
  C  C57  1  0.577100  0.379300  0.374200  1.0  0.7022
  C  C58  1  0.395200  0.459820  0.811590  1.0  -0.1702
  C  C59  1  0.282000  0.421740  0.801000  1.0  -0.0117
  C  C60  1  0.270100  0.366920  0.742990  1.0  -0.0941
  C  C61  1  0.368500  0.346830  0.695980  1.0  -0.056
  C  C62  1  0.481800  0.384480  0.706920  1.0  -0.1407
  C  C63  1  0.493100  0.440650  0.764570  1.0  0.0049
  C  C64  1  0.408700  0.521090  0.873160  1.0  0.7241
  C  C65  1  0.353600  0.282960  0.637410  1.0  0.7158
  C  C66  1  0.590100  0.368080  0.655470  1.0  0.707
  C  C67  1  0.098800  0.544110  0.700380  1.0  -0.2033
  C  C68  1  0.202400  0.590800  0.701780  1.0  -0.0077
  C  C69  1  0.217200  0.647610  0.758370  1.0  -0.1216
  C  C70  1  0.125100  0.659380  0.814520  1.0  -0.0346
  C  C71  1  0.021500  0.612200  0.813790  1.0  -0.135
  C  C72  1  0.010100  0.554740  0.756340  1.0  0.0204
  C  C73  1  0.085900  0.480550  0.640820  1.0  0.743
  C  C74  1  0.151100  0.723820  0.871460  1.0  0.7254
  C  C75  1  0.922900  0.620700  0.874200  1.0  0.7016
  C  C76  1  0.104800  0.540180  0.311590  1.0  -0.1692
  C  C77  1  0.218000  0.578260  0.301000  1.0  -0.0135
  C  C78  1  0.229900  0.633080  0.242990  1.0  -0.0956
  C  C79  1  0.131500  0.653170  0.195980  1.0  -0.0551
  C  C80  1  0.018200  0.615520  0.206920  1.0  -0.1406
  C  C81  1  0.006900  0.559350  0.264570  1.0  0.0046
  C  C82  1  0.091300  0.478910  0.373160  1.0  0.7234
  C  C83  1  0.146400  0.717040  0.137410  1.0  0.7155
  C  C84  1  0.909900  0.631920  0.155470  1.0  0.7063
  C  C85  1  0.598800  0.955890  0.299620  1.0  -0.2021
  C  C86  1  0.702400  0.909200  0.298220  1.0  -0.0066
  C  C87  1  0.717200  0.852390  0.241630  1.0  -0.1207
  C  C88  1  0.625100  0.840620  0.185480  1.0  -0.034
  C  C89  1  0.521500  0.887800  0.186210  1.0  -0.1351
  C  C90  1  0.510100  0.945260  0.243660  1.0  0.0197
  C  C91  1  0.585900  0.019450  0.359180  1.0  0.7427
  C  C92  1  0.651100  0.776180  0.128540  1.0  0.725
  C  C93  1  0.422900  0.879300  0.125800  1.0  0.7036
  C  C94  1  0.604800  0.959820  0.688410  1.0  -0.1693
  C  C95  1  0.718000  0.921740  0.699000  1.0  -0.0119
  C  C96  1  0.729900  0.866920  0.757010  1.0  -0.0963
  C  C97  1  0.631500  0.846830  0.804020  1.0  -0.0554
  C  C98  1  0.518200  0.884480  0.793080  1.0  -0.1407
  C  C99  1  0.506900  0.940650  0.735430  1.0  0.0045
  C  C100  1  0.591300  0.021090  0.626840  1.0  0.7253
  C  C101  1  0.646400  0.782960  0.862590  1.0  0.7167
  C  C102  1  0.409900  0.868080  0.844530  1.0  0.7066
  C  C103  1  0.901200  0.044110  0.799620  1.0  -0.2003
  C  C104  1  0.797600  0.090800  0.798220  1.0  -0.0074
  C  C105  1  0.782800  0.147610  0.741630  1.0  -0.1207
  C  C106  1  0.874900  0.159380  0.685480  1.0  -0.0339
  C  C107  1  0.978500  0.112200  0.686210  1.0  -0.1353
  C  C108  1  0.989900  0.054740  0.743660  1.0  0.0206
  C  C109  1  0.914100  0.980550  0.859180  1.0  0.7437
  C  C110  1  0.848900  0.223820  0.628540  1.0  0.7254
  C  C111  1  0.077100  0.120700  0.625800  1.0  0.7032
  C  C112  1  0.895200  0.040180  0.188410  1.0  -0.1694
  C  C113  1  0.782000  0.078260  0.199000  1.0  -0.0118
  C  C114  1  0.770100  0.133080  0.257010  1.0  -0.0948
  C  C115  1  0.868500  0.153170  0.304020  1.0  -0.0565
  C  C116  1  0.981800  0.115520  0.293080  1.0  -0.1412
  C  C117  1  0.993100  0.059350  0.235430  1.0  0.0047
  C  C118  1  0.908700  0.978910  0.126840  1.0  0.7246
  C  C119  1  0.853600  0.217040  0.362590  1.0  0.7166
  C  C120  1  0.090100  0.131920  0.344530  1.0  0.7073
  O  O121  1  0.503100  0.566230  0.146880  1.0  -0.6388
  O  O122  1  0.332500  0.523350  0.089610  1.0  -0.6261
  O  O123  1  0.398000  0.211060  0.359660  1.0  -0.5985
  O  O124  1  0.271890  0.290890  0.423940  1.0  -0.6458
  O  O125  1  0.666667  0.424000  0.373100  1.0  -0.6124
  O  O126  1  0.561510  0.328240  0.424360  1.0  -0.6167
  O  O127  1  0.510110  0.555560  0.875380  1.0  -0.607
  O  O128  1  0.319270  0.534720  0.916660  1.0  -0.6368
  O  O129  1  0.413630  0.220690  0.651120  1.0  -0.585
  O  O130  1  0.280220  0.292230  0.582490  1.0  -0.6483
  O  O131  1  0.694180  0.386480  0.682000  1.0  -0.5997
  O  O132  1  0.572150  0.337400  0.590550  1.0  -0.6191
  O  O133  1  0.071180  0.319760  0.506480  1.0  -0.9751
  O  O134  1  0.301630  0.125900  0.500590  1.0  -1.0098
  O  O135  1  0.996900  0.433770  0.646880  1.0  -0.6394
  O  O136  1  0.167500  0.476650  0.589610  1.0  -0.6261
  O  O137  1  0.102000  0.788940  0.859660  1.0  -0.5986
  O  O138  1  0.228110  0.709110  0.923940  1.0  -0.646
  O  O139  1  0.833400  0.576000  0.873100  1.0  -0.6123
  O  O140  1  0.938490  0.671760  0.924360  1.0  -0.6178
  O  O141  1  0.989890  0.444440  0.375380  1.0  -0.6068
  O  O142  1  0.180730  0.465280  0.416660  1.0  -0.6369
  O  O143  1  0.086370  0.779310  0.151120  1.0  -0.585
  O  O144  1  0.219780  0.707770  0.082490  1.0  -0.6489
  O  O145  1  0.805820  0.613520  0.182000  1.0  -0.5999
  O  O146  1  0.927850  0.662600  0.090550  1.0  -0.6191
  O  O147  1  0.428820  0.680240  0.006480  1.0  -0.9736
  O  O148  1  0.198370  0.874100  0.000590  1.0  -1.0103
  O  O149  1  0.496900  0.066230  0.353120  1.0  -0.6387
  O  O150  1  0.667500  0.023350  0.410390  1.0  -0.6269
  O  O151  1  0.602000  0.711060  0.140340  1.0  -0.5991
  O  O152  1  0.728110  0.790890  0.076060  1.0  -0.6472
  O  O153  1  0.333400  0.924000  0.126900  1.0  -0.6128
  O  O154  1  0.438490  0.828240  0.075640  1.0  -0.6175
  O  O155  1  0.489890  0.055560  0.624620  1.0  -0.6062
  O  O156  1  0.680730  0.034720  0.583340  1.0  -0.6355
  O  O157  1  0.586370  0.720690  0.848880  1.0  -0.5855
  O  O158  1  0.719780  0.792230  0.917510  1.0  -0.6484
  O  O159  1  0.305820  0.886480  0.818000  1.0  -0.5993
  O  O160  1  0.427850  0.837400  0.909450  1.0  -0.6196
  O  O161  1  0.928820  0.819760  0.993520  1.0  -0.9744
  O  O162  1  0.698370  0.625900  0.999410  1.0  -1.0097
  O  O163  1  0.003100  0.933770  0.853120  1.0  -0.6394
  O  O164  1  0.832500  0.976650  0.910390  1.0  -0.6259
  O  O165  1  0.898000  0.288940  0.640340  1.0  -0.5994
  O  O166  1  0.771890  0.209110  0.576060  1.0  -0.6474
  O  O167  1  0.166600  0.076000  0.626900  1.0  -0.612
  O  O168  1  0.061510  0.171760  0.575640  1.0  -0.6177
  O  O169  1  0.010110  0.944440  0.124620  1.0  -0.6073
  O  O170  1  0.819270  0.965280  0.083340  1.0  -0.6362
  O  O171  1  0.913630  0.279310  0.348880  1.0  -0.5852
  O  O172  1  0.780220  0.207770  0.417510  1.0  -0.6489
  O  O173  1  0.194180  0.113520  0.318000  1.0  -0.6008
  O  O174  1  0.072150  0.162600  0.409450  1.0  -0.6197
  O  O175  1  0.571180  0.180240  0.493520  1.0  -0.9751
  O  O176  1  0.801630  0.374100  0.499410  1.0  -1.008
