# generated using pymatgen
data_K2MgRu2(CO3)4
_symmetry_space_group_name_H-M   'P 1'
_cell_length_a   18.46500000
_cell_length_b   9.36700000
_cell_length_c   10.05900000
_cell_angle_alpha   90.00000000
_cell_angle_beta   90.00000000
_cell_angle_gamma   90.00000000
_symmetry_Int_Tables_number   1
_chemical_formula_structural   K2MgRu2(CO3)4
_chemical_formula_sum   'K8 Mg4 Ru8 C16 O48'
_cell_volume   1739.82128764
_cell_formula_units_Z   4
loop_
 _symmetry_equiv_pos_site_id
 _symmetry_equiv_pos_as_xyz
  1  'x, y, z'
loop_
 _atom_site_type_symbol
 _atom_site_label
 _atom_site_symmetry_multiplicity
 _atom_site_fract_x
 _atom_site_fract_y
 _atom_site_fract_z
 _atom_site_occupancy
 _atom_site_charge
  K  K1  1  0.429200  0.502500  0.554800  1.0  0.869
  K  K2  1  0.070800  0.997500  0.554800  1.0  0.87
  K  K3  1  0.570800  0.002500  0.945200  1.0  0.8694
  K  K4  1  0.929200  0.497500  0.945200  1.0  0.8689
  K  K5  1  0.570800  0.497500  0.445200  1.0  0.8695
  K  K6  1  0.929200  0.002500  0.445200  1.0  0.8686
  K  K7  1  0.429200  0.997500  0.054800  1.0  0.8694
  K  K8  1  0.070800  0.502500  0.054800  1.0  0.8698
  Mg  Mg9  1  0.750000  0.250000  0.685200  1.0  1.3709
  Mg  Mg10  1  0.250000  0.750000  0.814800  1.0  1.3718
  Mg  Mg11  1  0.250000  0.750000  0.314800  1.0  1.3718
  Mg  Mg12  1  0.750000  0.250000  0.185200  1.0  1.3709
  Ru  Ru13  1  0.484760  0.058780  0.594110  1.0  0.8976
  Ru  Ru14  1  0.015240  0.441220  0.594110  1.0  0.8961
  Ru  Ru15  1  0.515240  0.558780  0.905890  1.0  0.8958
  Ru  Ru16  1  0.984760  0.941220  0.905890  1.0  0.8976
  Ru  Ru17  1  0.515240  0.941220  0.405890  1.0  0.896
  Ru  Ru18  1  0.984760  0.558780  0.405890  1.0  0.8979
  Ru  Ru19  1  0.484760  0.441220  0.094110  1.0  0.8981
  Ru  Ru20  1  0.015240  0.058780  0.094110  1.0  0.8954
  C  C21  1  0.528900  0.767100  0.643200  1.0  0.794
  C  C22  1  0.637200  0.081900  0.528600  1.0  0.8618
  C  C23  1  0.971100  0.732900  0.643200  1.0  0.7928
  C  C24  1  0.862800  0.418100  0.528600  1.0  0.8611
  C  C25  1  0.471100  0.267100  0.856800  1.0  0.7908
  C  C26  1  0.362800  0.581900  0.971400  1.0  0.8613
  C  C27  1  0.028900  0.232900  0.856800  1.0  0.7912
  C  C28  1  0.137200  0.918100  0.971400  1.0  0.862
  C  C29  1  0.471100  0.232900  0.356800  1.0  0.792
  C  C30  1  0.362800  0.918100  0.471400  1.0  0.8613
  C  C31  1  0.028900  0.267100  0.356800  1.0  0.7926
  C  C32  1  0.137200  0.581900  0.471400  1.0  0.8619
  C  C33  1  0.528900  0.732900  0.143200  1.0  0.7914
  C  C34  1  0.637200  0.418100  0.028600  1.0  0.8618
  C  C35  1  0.971100  0.767100  0.143200  1.0  0.7912
  C  C36  1  0.862800  0.081900  0.028600  1.0  0.8611
  O  O37  1  0.535900  0.764600  0.515700  1.0  -0.7266
  O  O38  1  0.505100  0.880700  0.703500  1.0  -0.6894
  O  O39  1  0.546300  0.657700  0.708500  1.0  -0.7284
  O  O40  1  0.619200  0.002000  0.430100  1.0  -0.6494
  O  O41  1  0.588400  0.118400  0.617100  1.0  -0.6611
  O  O42  1  0.702200  0.121400  0.542800  1.0  -0.6522
  O  O43  1  0.964100  0.735400  0.515700  1.0  -0.7265
  O  O44  1  0.994900  0.619300  0.703500  1.0  -0.6894
  O  O45  1  0.953700  0.842300  0.708500  1.0  -0.7291
  O  O46  1  0.880800  0.498000  0.430100  1.0  -0.6479
  O  O47  1  0.911600  0.381600  0.617100  1.0  -0.6594
  O  O48  1  0.797800  0.378600  0.542800  1.0  -0.6521
  O  O49  1  0.464100  0.264600  0.984300  1.0  -0.7267
  O  O50  1  0.494900  0.380700  0.796500  1.0  -0.6885
  O  O51  1  0.453700  0.157700  0.791500  1.0  -0.7282
  O  O52  1  0.380800  0.502000  0.069900  1.0  -0.6482
  O  O53  1  0.411600  0.618400  0.882900  1.0  -0.6585
  O  O54  1  0.297800  0.621400  0.957200  1.0  -0.6521
  O  O55  1  0.035900  0.235400  0.984300  1.0  -0.7275
  O  O56  1  0.005100  0.119300  0.796500  1.0  -0.6891
  O  O57  1  0.046300  0.342300  0.791500  1.0  -0.728
  O  O58  1  0.119200  0.998000  0.069900  1.0  -0.6515
  O  O59  1  0.088400  0.881600  0.882900  1.0  -0.6605
  O  O60  1  0.202200  0.878600  0.957200  1.0  -0.6514
  O  O61  1  0.464100  0.235400  0.484300  1.0  -0.7275
  O  O62  1  0.494900  0.119300  0.296500  1.0  -0.689
  O  O63  1  0.453700  0.342300  0.291500  1.0  -0.7285
  O  O64  1  0.380800  0.998000  0.569900  1.0  -0.6489
  O  O65  1  0.411600  0.881600  0.382900  1.0  -0.6588
  O  O66  1  0.297800  0.878600  0.457200  1.0  -0.6519
  O  O67  1  0.035900  0.264600  0.484300  1.0  -0.7268
  O  O68  1  0.005100  0.380700  0.296500  1.0  -0.6884
  O  O69  1  0.046300  0.157700  0.291500  1.0  -0.7276
  O  O70  1  0.119200  0.502000  0.569900  1.0  -0.6511
  O  O71  1  0.088400  0.618400  0.382900  1.0  -0.6596
  O  O72  1  0.202200  0.621400  0.457200  1.0  -0.6519
  O  O73  1  0.535900  0.735400  0.015700  1.0  -0.7265
  O  O74  1  0.505100  0.619300  0.203500  1.0  -0.6894
  O  O75  1  0.546300  0.842300  0.208500  1.0  -0.7287
  O  O76  1  0.619200  0.498000  0.930100  1.0  -0.6489
  O  O77  1  0.588400  0.381600  0.117100  1.0  -0.6616
  O  O78  1  0.702200  0.378600  0.042800  1.0  -0.6517
  O  O79  1  0.964100  0.764600  0.015700  1.0  -0.7262
  O  O80  1  0.994900  0.880700  0.203500  1.0  -0.6894
  O  O81  1  0.953700  0.657700  0.208500  1.0  -0.7286
  O  O82  1  0.880800  0.002000  0.930100  1.0  -0.6487
  O  O83  1  0.911600  0.118400  0.117100  1.0  -0.6591
  O  O84  1  0.797800  0.121400  0.042800  1.0  -0.6523
