# generated using pymatgen
data_ZnH11(C7O2)3
_symmetry_space_group_name_H-M   'P 1'
_cell_length_a   16.71530000
_cell_length_b   8.45580000
_cell_length_c   35.49430000
_cell_angle_alpha   90.00000000
_cell_angle_beta   90.00000000
_cell_angle_gamma   90.00000000
_symmetry_Int_Tables_number   1
_chemical_formula_structural   ZnH11(C7O2)3
_chemical_formula_sum   'Zn8 H88 C168 O48'
_cell_volume   5016.80815274
_cell_formula_units_Z   8
loop_
 _symmetry_equiv_pos_site_id
 _symmetry_equiv_pos_as_xyz
  1  'x, y, z'
loop_
 _atom_site_type_symbol
 _atom_site_label
 _atom_site_symmetry_multiplicity
 _atom_site_fract_x
 _atom_site_fract_y
 _atom_site_fract_z
 _atom_site_occupancy
 _atom_site_charge
  Zn  Zn1  1  0.478030  0.612680  0.949790  1.0  1.0259
  Zn  Zn2  1  0.021970  0.887320  0.449790  1.0  1.0258
  Zn  Zn3  1  0.521970  0.612680  0.550210  1.0  1.0265
  Zn  Zn4  1  0.978030  0.887320  0.050220  1.0  1.0261
  Zn  Zn5  1  0.521970  0.387320  0.050220  1.0  1.026
  Zn  Zn6  1  0.978030  0.112680  0.550210  1.0  1.0263
  Zn  Zn7  1  0.478030  0.387320  0.449790  1.0  1.0258
  Zn  Zn8  1  0.021970  0.112680  0.949790  1.0  1.0263
  H  H9  1  0.733000  0.263000  0.988900  1.0  0.1312
  H  H10  1  0.825800  0.311900  0.885600  1.0  0.1133
  H  H11  1  0.591100  0.400700  0.904800  1.0  0.1233
  H  H12  1  0.804200  0.538200  0.840400  1.0  0.1227
  H  H13  1  0.788000  0.583400  0.776500  1.0  0.127
  H  H14  1  0.568400  0.375600  0.778900  1.0  0.1191
  H  H15  1  0.584500  0.323300  0.843000  1.0  0.125
  H  H16  1  0.715000  0.748200  0.728800  1.0  0.1064
  H  H17  1  0.690300  0.801700  0.666800  1.0  0.1285
  H  H18  1  0.590500  0.375000  0.654800  1.0  0.1634
  H  H19  1  0.611900  0.319900  0.716900  1.0  0.1209
  H  H20  1  0.767000  0.237000  0.488900  1.0  0.1308
  H  H21  1  0.674200  0.188100  0.385600  1.0  0.1138
  H  H22  1  0.908900  0.099300  0.404800  1.0  0.1241
  H  H23  1  0.695800  0.961800  0.340400  1.0  0.1227
  H  H24  1  0.712000  0.916600  0.276500  1.0  0.1275
  H  H25  1  0.931600  0.124400  0.278900  1.0  0.1196
  H  H26  1  0.915500  0.176700  0.343000  1.0  0.1254
  H  H27  1  0.785000  0.751800  0.228800  1.0  0.1067
  H  H28  1  0.809700  0.698300  0.166800  1.0  0.1281
  H  H29  1  0.909500  0.125000  0.154800  1.0  0.1629
  H  H30  1  0.888100  0.180100  0.216900  1.0  0.1215
  H  H31  1  0.267000  0.263000  0.511100  1.0  0.1313
  H  H32  1  0.174200  0.311900  0.614400  1.0  0.1137
  H  H33  1  0.408900  0.400700  0.595200  1.0  0.1234
  H  H34  1  0.195800  0.538200  0.659600  1.0  0.1229
  H  H35  1  0.212000  0.583400  0.723500  1.0  0.1272
  H  H36  1  0.431600  0.375600  0.721100  1.0  0.1195
  H  H37  1  0.415500  0.323300  0.657000  1.0  0.1264
  H  H38  1  0.285000  0.748200  0.771200  1.0  0.1068
  H  H39  1  0.309700  0.801700  0.833200  1.0  0.1288
  H  H40  1  0.409500  0.375000  0.845200  1.0  0.1633
  H  H41  1  0.388100  0.319900  0.783100  1.0  0.1215
  H  H42  1  0.233000  0.237000  0.011100  1.0  0.1309
  H  H43  1  0.325800  0.188100  0.114400  1.0  0.1128
  H  H44  1  0.091100  0.099300  0.095200  1.0  0.1231
  H  H45  1  0.304200  0.961800  0.159600  1.0  0.1229
  H  H46  1  0.288000  0.916600  0.223500  1.0  0.1272
  H  H47  1  0.068400  0.124400  0.221100  1.0  0.119
  H  H48  1  0.084500  0.176700  0.157000  1.0  0.1262
  H  H49  1  0.215000  0.751800  0.271200  1.0  0.1068
  H  H50  1  0.190300  0.698300  0.333200  1.0  0.1286
  H  H51  1  0.090500  0.125000  0.345200  1.0  0.1639
  H  H52  1  0.111900  0.180100  0.283100  1.0  0.1221
  H  H53  1  0.267000  0.737000  0.011100  1.0  0.131
  H  H54  1  0.174200  0.688100  0.114400  1.0  0.1137
  H  H55  1  0.408900  0.599300  0.095200  1.0  0.1234
  H  H56  1  0.195800  0.461800  0.159600  1.0  0.1231
  H  H57  1  0.212000  0.416600  0.223500  1.0  0.1275
  H  H58  1  0.431600  0.624400  0.221100  1.0  0.1194
  H  H59  1  0.415500  0.676700  0.157000  1.0  0.1259
  H  H60  1  0.285000  0.251800  0.271200  1.0  0.1067
  H  H61  1  0.309700  0.198300  0.333200  1.0  0.1283
  H  H62  1  0.409500  0.625000  0.345200  1.0  0.1632
  H  H63  1  0.388100  0.680100  0.283100  1.0  0.1222
  H  H64  1  0.233000  0.763000  0.511100  1.0  0.1311
  H  H65  1  0.325800  0.811900  0.614400  1.0  0.1128
  H  H66  1  0.091100  0.900700  0.595200  1.0  0.1227
  H  H67  1  0.304200  0.038200  0.659600  1.0  0.1228
  H  H68  1  0.288000  0.083400  0.723500  1.0  0.1268
  H  H69  1  0.068400  0.875600  0.721100  1.0  0.1193
  H  H70  1  0.084500  0.823300  0.657000  1.0  0.1252
  H  H71  1  0.215000  0.248200  0.771200  1.0  0.1067
  H  H72  1  0.190300  0.301700  0.833200  1.0  0.129
  H  H73  1  0.090500  0.875000  0.845200  1.0  0.1639
  H  H74  1  0.111900  0.819900  0.783100  1.0  0.1216
  H  H75  1  0.733000  0.737000  0.488900  1.0  0.131
  H  H76  1  0.825800  0.688100  0.385600  1.0  0.1128
  H  H77  1  0.591100  0.599300  0.404800  1.0  0.1238
  H  H78  1  0.804200  0.461800  0.340400  1.0  0.1227
  H  H79  1  0.788000  0.416600  0.276500  1.0  0.1274
  H  H80  1  0.568400  0.624400  0.278900  1.0  0.1193
  H  H81  1  0.584500  0.676700  0.343000  1.0  0.1256
  H  H82  1  0.715000  0.251800  0.228800  1.0  0.1068
  H  H83  1  0.690300  0.198300  0.166800  1.0  0.1285
  H  H84  1  0.590500  0.625000  0.154800  1.0  0.1637
  H  H85  1  0.611900  0.680100  0.216900  1.0  0.122
  H  H86  1  0.767000  0.763000  0.988900  1.0  0.1309
  H  H87  1  0.674200  0.811900  0.885600  1.0  0.114
  H  H88  1  0.908900  0.900700  0.904800  1.0  0.1239
  H  H89  1  0.695800  0.038200  0.840400  1.0  0.1225
  H  H90  1  0.712000  0.083400  0.776500  1.0  0.1274
  H  H91  1  0.931600  0.875600  0.778900  1.0  0.1193
  H  H92  1  0.915500  0.823300  0.843000  1.0  0.1264
  H  H93  1  0.785000  0.248200  0.728800  1.0  0.1065
  H  H94  1  0.809700  0.301700  0.666800  1.0  0.1284
  H  H95  1  0.909500  0.875000  0.654800  1.0  0.1628
  H  H96  1  0.888100  0.819900  0.716900  1.0  0.1217
  C  C97  1  0.726260  0.288100  0.963520  1.0  0.0211
  C  C98  1  0.791340  0.283900  0.939210  1.0  -0.1435
  C  C99  1  0.781000  0.326400  0.901570  1.0  -0.0656
  C  C100  1  0.706110  0.370700  0.887820  1.0  0.1106
  C  C101  1  0.641590  0.373200  0.912430  1.0  -0.0821
  C  C102  1  0.651450  0.334500  0.950360  1.0  -0.1647
  C  C103  1  0.695550  0.414500  0.847450  1.0  0.0565
  C  C104  1  0.754120  0.497100  0.827880  1.0  -0.1408
  C  C105  1  0.744450  0.535100  0.790030  1.0  -0.1493
  C  C106  1  0.675840  0.489000  0.770460  1.0  0.1118
  C  C107  1  0.616510  0.408300  0.790390  1.0  -0.1181
  C  C108  1  0.625940  0.371600  0.828150  1.0  -0.1514
  C  C109  1  0.664760  0.525900  0.729890  1.0  0.0381
  C  C110  1  0.689900  0.667700  0.714130  1.0  -0.1349
  C  C111  1  0.676100  0.701300  0.676340  1.0  -0.1153
  C  C112  1  0.636670  0.592700  0.653440  1.0  -0.1014
  C  C113  1  0.613230  0.449200  0.668520  1.0  -0.0887
  C  C114  1  0.627240  0.416400  0.706380  1.0  -0.1205
  C  C115  1  0.870490  0.230000  0.954310  1.0  0.7114
  C  C116  1  0.583200  0.350600  0.977180  1.0  0.717
  C  C117  1  0.613720  0.639300  0.613830  1.0  0.6752
  C  C118  1  0.773740  0.211900  0.463520  1.0  0.0202
  C  C119  1  0.708660  0.216100  0.439210  1.0  -0.1433
  C  C120  1  0.719000  0.173600  0.401570  1.0  -0.0656
  C  C121  1  0.793890  0.129300  0.387820  1.0  0.1107
  C  C122  1  0.858410  0.126800  0.412430  1.0  -0.0811
  C  C123  1  0.848550  0.165500  0.450360  1.0  -0.1637
  C  C124  1  0.804450  0.085500  0.347450  1.0  0.0567
  C  C125  1  0.745880  0.002900  0.327880  1.0  -0.1399
  C  C126  1  0.755550  0.964900  0.290030  1.0  -0.1495
  C  C127  1  0.824160  0.011000  0.270460  1.0  0.1127
  C  C128  1  0.883490  0.091700  0.290390  1.0  -0.1196
  C  C129  1  0.874060  0.128400  0.328150  1.0  -0.1509
  C  C130  1  0.835240  0.974100  0.229890  1.0  0.0389
  C  C131  1  0.810100  0.832300  0.214130  1.0  -0.1348
  C  C132  1  0.823900  0.798700  0.176340  1.0  -0.1161
  C  C133  1  0.863330  0.907300  0.153440  1.0  -0.1019
  C  C134  1  0.886770  0.050800  0.168520  1.0  -0.0876
  C  C135  1  0.872760  0.083600  0.206380  1.0  -0.1209
  C  C136  1  0.629510  0.270000  0.454310  1.0  0.7126
  C  C137  1  0.916800  0.149400  0.477180  1.0  0.7176
  C  C138  1  0.886280  0.860700  0.113830  1.0  0.6745
  C  C139  1  0.273740  0.288100  0.536480  1.0  0.0209
  C  C140  1  0.208660  0.283900  0.560790  1.0  -0.1435
  C  C141  1  0.219000  0.326400  0.598430  1.0  -0.0646
  C  C142  1  0.293890  0.370700  0.612180  1.0  0.111
  C  C143  1  0.358410  0.373200  0.587570  1.0  -0.0809
  C  C144  1  0.348550  0.334500  0.549640  1.0  -0.1656
  C  C145  1  0.304450  0.414500  0.652550  1.0  0.0565
  C  C146  1  0.245880  0.497100  0.672120  1.0  -0.1397
  C  C147  1  0.255550  0.535100  0.709970  1.0  -0.1495
  C  C148  1  0.324160  0.489000  0.729540  1.0  0.1127
  C  C149  1  0.383490  0.408300  0.709610  1.0  -0.1195
  C  C150  1  0.374060  0.371600  0.671850  1.0  -0.1506
  C  C151  1  0.335240  0.525900  0.770110  1.0  0.039
  C  C152  1  0.310100  0.667700  0.785870  1.0  -0.1341
  C  C153  1  0.323900  0.701300  0.823660  1.0  -0.1153
  C  C154  1  0.363330  0.592700  0.846560  1.0  -0.1012
  C  C155  1  0.386770  0.449200  0.831480  1.0  -0.0881
  C  C156  1  0.372760  0.416400  0.793620  1.0  -0.1191
  C  C157  1  0.129510  0.230000  0.545690  1.0  0.7118
  C  C158  1  0.416800  0.350600  0.522820  1.0  0.7169
  C  C159  1  0.386280  0.639300  0.886170  1.0  0.6752
  C  C160  1  0.226260  0.211900  0.036480  1.0  0.02
  C  C161  1  0.291340  0.216100  0.060790  1.0  -0.143
  C  C162  1  0.281000  0.173600  0.098430  1.0  -0.0646
  C  C163  1  0.206110  0.129300  0.112180  1.0  0.1105
  C  C164  1  0.141590  0.126800  0.087570  1.0  -0.0816
  C  C165  1  0.151450  0.165500  0.049640  1.0  -0.1636
  C  C166  1  0.195550  0.085500  0.152550  1.0  0.0565
  C  C167  1  0.254120  0.002900  0.172120  1.0  -0.1405
  C  C168  1  0.244450  0.964900  0.209970  1.0  -0.15
  C  C169  1  0.175840  0.011000  0.229540  1.0  0.1114
  C  C170  1  0.116510  0.091700  0.209610  1.0  -0.1185
  C  C171  1  0.125940  0.128400  0.171850  1.0  -0.1513
  C  C172  1  0.164760  0.974100  0.270110  1.0  0.0384
  C  C173  1  0.189900  0.832300  0.285870  1.0  -0.1335
  C  C174  1  0.176100  0.798700  0.323660  1.0  -0.116
  C  C175  1  0.136670  0.907300  0.346560  1.0  -0.1015
  C  C176  1  0.113230  0.050800  0.331480  1.0  -0.0872
  C  C177  1  0.127240  0.083600  0.293620  1.0  -0.1214
  C  C178  1  0.370490  0.270000  0.045690  1.0  0.7111
  C  C179  1  0.083200  0.149400  0.022820  1.0  0.7185
  C  C180  1  0.113720  0.860700  0.386170  1.0  0.6761
  C  C181  1  0.273740  0.711900  0.036480  1.0  0.0197
  C  C182  1  0.208660  0.716100  0.060790  1.0  -0.1436
  C  C183  1  0.219000  0.673600  0.098430  1.0  -0.0647
  C  C184  1  0.293890  0.629300  0.112180  1.0  0.1108
  C  C185  1  0.358410  0.626800  0.087570  1.0  -0.0808
  C  C186  1  0.348550  0.665500  0.049640  1.0  -0.1631
  C  C187  1  0.304450  0.585500  0.152550  1.0  0.0564
  C  C188  1  0.245880  0.502900  0.172120  1.0  -0.1398
  C  C189  1  0.255550  0.464900  0.209970  1.0  -0.15
  C  C190  1  0.324160  0.511000  0.229540  1.0  0.1125
  C  C191  1  0.383490  0.591700  0.209610  1.0  -0.1199
  C  C192  1  0.374060  0.628400  0.171850  1.0  -0.1511
  C  C193  1  0.335240  0.474100  0.270110  1.0  0.0391
  C  C194  1  0.310100  0.332300  0.285870  1.0  -0.134
  C  C195  1  0.323900  0.298700  0.323660  1.0  -0.116
  C  C196  1  0.363330  0.407300  0.346560  1.0  -0.1015
  C  C197  1  0.386770  0.550800  0.331480  1.0  -0.0873
  C  C198  1  0.372760  0.583600  0.293620  1.0  -0.1205
  C  C199  1  0.129510  0.770000  0.045690  1.0  0.7122
  C  C200  1  0.416800  0.649400  0.022820  1.0  0.7185
  C  C201  1  0.386280  0.360700  0.386170  1.0  0.6758
  C  C202  1  0.226260  0.788100  0.536480  1.0  0.021
  C  C203  1  0.291340  0.783900  0.560790  1.0  -0.1429
  C  C204  1  0.281000  0.826400  0.598430  1.0  -0.0645
  C  C205  1  0.206110  0.870700  0.612180  1.0  0.1107
  C  C206  1  0.141590  0.873200  0.587570  1.0  -0.0819
  C  C207  1  0.151450  0.834500  0.549640  1.0  -0.1661
  C  C208  1  0.195550  0.914500  0.652550  1.0  0.0566
  C  C209  1  0.254120  0.997100  0.672120  1.0  -0.1404
  C  C210  1  0.244450  0.035100  0.709970  1.0  -0.1496
  C  C211  1  0.175840  0.989000  0.729540  1.0  0.1116
  C  C212  1  0.116510  0.908300  0.709610  1.0  -0.1184
  C  C213  1  0.125940  0.871600  0.671850  1.0  -0.1515
  C  C214  1  0.164760  0.025900  0.770110  1.0  0.0386
  C  C215  1  0.189900  0.167700  0.785870  1.0  -0.1336
  C  C216  1  0.176100  0.201300  0.823660  1.0  -0.116
  C  C217  1  0.136670  0.092700  0.846560  1.0  -0.1011
  C  C218  1  0.113230  0.949200  0.831480  1.0  -0.0885
  C  C219  1  0.127240  0.916400  0.793620  1.0  -0.1205
  C  C220  1  0.370490  0.730000  0.545690  1.0  0.7111
  C  C221  1  0.083200  0.850600  0.522820  1.0  0.7178
  C  C222  1  0.113720  0.139300  0.886170  1.0  0.6757
  C  C223  1  0.726260  0.711900  0.463520  1.0  0.0215
  C  C224  1  0.791340  0.716100  0.439210  1.0  -0.1432
  C  C225  1  0.781000  0.673600  0.401570  1.0  -0.0657
  C  C226  1  0.706110  0.629300  0.387820  1.0  0.1105
  C  C227  1  0.641590  0.626800  0.412430  1.0  -0.082
  C  C228  1  0.651450  0.665500  0.450360  1.0  -0.1637
  C  C229  1  0.695550  0.585500  0.347450  1.0  0.0565
  C  C230  1  0.754120  0.502900  0.327880  1.0  -0.1408
  C  C231  1  0.744450  0.464900  0.290030  1.0  -0.1497
  C  C232  1  0.675840  0.511000  0.270460  1.0  0.1118
  C  C233  1  0.616510  0.591700  0.290390  1.0  -0.1182
  C  C234  1  0.625940  0.628400  0.328150  1.0  -0.1514
  C  C235  1  0.664760  0.474100  0.229890  1.0  0.038
  C  C236  1  0.689900  0.332300  0.214130  1.0  -0.1341
  C  C237  1  0.676100  0.298700  0.176340  1.0  -0.1155
  C  C238  1  0.636670  0.407300  0.153440  1.0  -0.1019
  C  C239  1  0.613230  0.550800  0.168520  1.0  -0.0874
  C  C240  1  0.627240  0.583600  0.206380  1.0  -0.1217
  C  C241  1  0.870490  0.770000  0.454310  1.0  0.7118
  C  C242  1  0.583200  0.649400  0.477180  1.0  0.7162
  C  C243  1  0.613720  0.360700  0.113830  1.0  0.6746
  C  C244  1  0.773740  0.788100  0.963520  1.0  0.02
  C  C245  1  0.708660  0.783900  0.939210  1.0  -0.1435
  C  C246  1  0.719000  0.826400  0.901570  1.0  -0.0656
  C  C247  1  0.793890  0.870700  0.887820  1.0  0.1108
  C  C248  1  0.858410  0.873200  0.912430  1.0  -0.081
  C  C249  1  0.848550  0.834500  0.950360  1.0  -0.1648
  C  C250  1  0.804450  0.914500  0.847450  1.0  0.0569
  C  C251  1  0.745880  0.997100  0.827880  1.0  -0.14
  C  C252  1  0.755550  0.035100  0.790030  1.0  -0.1489
  C  C253  1  0.824160  0.989000  0.770460  1.0  0.1128
  C  C254  1  0.883490  0.908300  0.790390  1.0  -0.1193
  C  C255  1  0.874060  0.871600  0.828150  1.0  -0.1503
  C  C256  1  0.835240  0.025900  0.729890  1.0  0.0387
  C  C257  1  0.810100  0.167700  0.714130  1.0  -0.1353
  C  C258  1  0.823900  0.201300  0.676340  1.0  -0.1154
  C  C259  1  0.863330  0.092700  0.653440  1.0  -0.1014
  C  C260  1  0.886770  0.949200  0.668520  1.0  -0.0885
  C  C261  1  0.872760  0.916400  0.706380  1.0  -0.1191
  C  C262  1  0.629510  0.730000  0.954310  1.0  0.7113
  C  C263  1  0.916800  0.850600  0.977180  1.0  0.7173
  C  C264  1  0.886280  0.139300  0.613830  1.0  0.6751
  O  O265  1  0.516910  0.397600  0.964730  1.0  -0.5876
  O  O266  1  0.595060  0.313300  0.011180  1.0  -0.5739
  O  O267  1  0.929880  0.231400  0.931300  1.0  -0.6093
  O  O268  1  0.578220  0.531300  0.594560  1.0  -0.5722
  O  O269  1  0.875010  0.183000  0.987030  1.0  -0.4932
  O  O270  1  0.626170  0.772500  0.602390  1.0  -0.4405
  O  O271  1  0.983090  0.102400  0.464730  1.0  -0.5878
  O  O272  1  0.904940  0.186700  0.511180  1.0  -0.5735
  O  O273  1  0.570120  0.268600  0.431300  1.0  -0.6101
  O  O274  1  0.921780  0.968700  0.094560  1.0  -0.5729
  O  O275  1  0.624990  0.317000  0.487030  1.0  -0.4922
  O  O276  1  0.873830  0.727500  0.102390  1.0  -0.4441
  O  O277  1  0.483090  0.397600  0.535270  1.0  -0.5881
  O  O278  1  0.404940  0.313300  0.488820  1.0  -0.5733
  O  O279  1  0.070120  0.231400  0.568700  1.0  -0.6104
  O  O280  1  0.421780  0.531300  0.905440  1.0  -0.5715
  O  O281  1  0.124990  0.183000  0.512970  1.0  -0.4932
  O  O282  1  0.373830  0.772500  0.897610  1.0  -0.4426
  O  O283  1  0.016910  0.102400  0.035270  1.0  -0.5886
  O  O284  1  0.095060  0.186700  0.988820  1.0  -0.5731
  O  O285  1  0.429880  0.268600  0.068700  1.0  -0.6082
  O  O286  1  0.078220  0.968700  0.405440  1.0  -0.5703
  O  O287  1  0.375010  0.317000  0.012970  1.0  -0.4935
  O  O288  1  0.126170  0.727500  0.397610  1.0  -0.4416
  O  O289  1  0.483090  0.602400  0.035270  1.0  -0.5893
  O  O290  1  0.404940  0.686700  0.988820  1.0  -0.5726
  O  O291  1  0.070120  0.768600  0.068700  1.0  -0.6097
  O  O292  1  0.421780  0.468700  0.405440  1.0  -0.5715
  O  O293  1  0.124990  0.817000  0.012970  1.0  -0.493
  O  O294  1  0.373830  0.227500  0.397610  1.0  -0.4447
  O  O295  1  0.016910  0.897600  0.535270  1.0  -0.5877
  O  O296  1  0.095060  0.813300  0.488820  1.0  -0.5733
  O  O297  1  0.429880  0.731400  0.568700  1.0  -0.6086
  O  O298  1  0.078220  0.031300  0.905440  1.0  -0.5707
  O  O299  1  0.375010  0.683000  0.512970  1.0  -0.4939
  O  O300  1  0.126170  0.272500  0.897610  1.0  -0.4414
  O  O301  1  0.516910  0.602400  0.464730  1.0  -0.5877
  O  O302  1  0.595060  0.686700  0.511180  1.0  -0.5733
  O  O303  1  0.929880  0.768600  0.431300  1.0  -0.6085
  O  O304  1  0.578220  0.468700  0.094560  1.0  -0.5713
  O  O305  1  0.875010  0.817000  0.487030  1.0  -0.4926
  O  O306  1  0.626170  0.227500  0.102390  1.0  -0.4431
  O  O307  1  0.983090  0.897600  0.964730  1.0  -0.5874
  O  O308  1  0.904940  0.813300  0.011180  1.0  -0.5739
  O  O309  1  0.570120  0.731400  0.931300  1.0  -0.611
  O  O310  1  0.921780  0.031300  0.594560  1.0  -0.5733
  O  O311  1  0.624990  0.683000  0.987030  1.0  -0.4927
  O  O312  1  0.873830  0.272500  0.602390  1.0  -0.4439
