# generated using pymatgen
data_Zn3H22(C7O2)6
_symmetry_space_group_name_H-M   'P 1'
_cell_length_a   19.95300000
_cell_length_b   9.49500000
_cell_length_c   25.80500000
_cell_angle_alpha   90.00000000
_cell_angle_beta   91.91500000
_cell_angle_gamma   90.00000000
_symmetry_Int_Tables_number   1
_chemical_formula_structural   Zn3H22(C7O2)6
_chemical_formula_sum   'Zn12 H88 C168 O48'
_cell_volume   4886.12321516
_cell_formula_units_Z   4
loop_
 _symmetry_equiv_pos_site_id
 _symmetry_equiv_pos_as_xyz
  1  'x, y, z'
loop_
 _atom_site_type_symbol
 _atom_site_label
 _atom_site_symmetry_multiplicity
 _atom_site_fract_x
 _atom_site_fract_y
 _atom_site_fract_z
 _atom_site_occupancy
 _atom_site_charge
  Zn  Zn1  1  0.084730  0.451960  0.472750  1.0  1.0235
  Zn  Zn2  1  0.584730  0.951960  0.472750  1.0  1.0235
  Zn  Zn3  1  0.915270  0.451960  0.027250  1.0  1.0243
  Zn  Zn4  1  0.415270  0.951960  0.027250  1.0  1.0243
  Zn  Zn5  1  0.915270  0.548040  0.527250  1.0  1.0239
  Zn  Zn6  1  0.415270  0.048040  0.527250  1.0  1.0239
  Zn  Zn7  1  0.084730  0.548040  0.972750  1.0  1.0228
  Zn  Zn8  1  0.584730  0.048040  0.972750  1.0  1.0228
  Zn  Zn9  1  0.750000  0.750000  0.500000  1.0  1.0506
  Zn  Zn10  1  0.250000  0.750000  0.000000  1.0  1.0506
  Zn  Zn11  1  0.250000  0.250000  0.500000  1.0  1.0506
  Zn  Zn12  1  0.750000  0.250000  0.000000  1.0  1.0506
  H  H13  1  0.887400  0.097600  0.490800  1.0  0.1141
  H  H14  1  0.989500  0.816200  0.409700  1.0  0.107
  H  H15  1  0.027500  0.231800  0.397300  1.0  0.0991
  H  H16  1  0.025200  0.818600  0.323600  1.0  0.1136
  H  H17  1  0.096400  0.791100  0.256700  1.0  0.1089
  H  H18  1  0.201900  0.125000  0.307800  1.0  0.1046
  H  H19  1  0.130700  0.151800  0.374300  1.0  0.1004
  H  H20  1  0.129100  0.867900  0.178800  1.0  0.1205
  H  H21  1  0.193800  0.868500  0.106900  1.0  0.0857
  H  H22  1  0.349900  0.011200  0.190200  1.0  0.1076
  H  H23  1  0.285000  0.021800  0.261600  1.0  0.1125
  H  H24  1  0.387400  0.597600  0.490800  1.0  0.1141
  H  H25  1  0.489500  0.316200  0.409700  1.0  0.107
  H  H26  1  0.527500  0.731800  0.397300  1.0  0.0991
  H  H27  1  0.525200  0.318600  0.323600  1.0  0.1136
  H  H28  1  0.596400  0.291100  0.256700  1.0  0.1089
  H  H29  1  0.701900  0.625000  0.307800  1.0  0.1046
  H  H30  1  0.630700  0.651800  0.374300  1.0  0.1004
  H  H31  1  0.629100  0.367900  0.178800  1.0  0.1205
  H  H32  1  0.693800  0.368500  0.106900  1.0  0.0857
  H  H33  1  0.849900  0.511200  0.190200  1.0  0.1076
  H  H34  1  0.785000  0.521800  0.261600  1.0  0.1125
  H  H35  1  0.112600  0.097600  0.009200  1.0  0.115
  H  H36  1  0.010500  0.816200  0.090300  1.0  0.1072
  H  H37  1  0.972500  0.231800  0.102700  1.0  0.0993
  H  H38  1  0.974800  0.818600  0.176400  1.0  0.1136
  H  H39  1  0.903600  0.791100  0.243300  1.0  0.1094
  H  H40  1  0.798100  0.125000  0.192200  1.0  0.1047
  H  H41  1  0.869300  0.151800  0.125700  1.0  0.1007
  H  H42  1  0.870900  0.867900  0.321200  1.0  0.1194
  H  H43  1  0.806200  0.868500  0.393100  1.0  0.0863
  H  H44  1  0.650100  0.011200  0.309800  1.0  0.1077
  H  H45  1  0.715000  0.021800  0.238400  1.0  0.1124
  H  H46  1  0.612600  0.597600  0.009200  1.0  0.115
  H  H47  1  0.510500  0.316200  0.090300  1.0  0.1072
  H  H48  1  0.472500  0.731800  0.102700  1.0  0.0993
  H  H49  1  0.474800  0.318600  0.176400  1.0  0.1136
  H  H50  1  0.403600  0.291100  0.243300  1.0  0.1094
  H  H51  1  0.298100  0.625000  0.192200  1.0  0.1047
  H  H52  1  0.369300  0.651800  0.125700  1.0  0.1007
  H  H53  1  0.370900  0.367900  0.321200  1.0  0.1194
  H  H54  1  0.306200  0.368500  0.393100  1.0  0.0863
  H  H55  1  0.150100  0.511200  0.309800  1.0  0.1077
  H  H56  1  0.215000  0.521800  0.238400  1.0  0.1124
  H  H57  1  0.112600  0.902400  0.509200  1.0  0.1146
  H  H58  1  0.010500  0.183800  0.590300  1.0  0.1061
  H  H59  1  0.972500  0.768200  0.602700  1.0  0.0993
  H  H60  1  0.974800  0.181400  0.676400  1.0  0.1136
  H  H61  1  0.903600  0.208900  0.743300  1.0  0.1093
  H  H62  1  0.798100  0.875000  0.692200  1.0  0.1044
  H  H63  1  0.869300  0.848200  0.625700  1.0  0.1004
  H  H64  1  0.870900  0.132100  0.821200  1.0  0.1192
  H  H65  1  0.806200  0.131500  0.893100  1.0  0.0861
  H  H66  1  0.650100  0.988800  0.809800  1.0  0.1077
  H  H67  1  0.715000  0.978200  0.738400  1.0  0.1123
  H  H68  1  0.612600  0.402400  0.509200  1.0  0.1146
  H  H69  1  0.510500  0.683800  0.590300  1.0  0.1061
  H  H70  1  0.472500  0.268200  0.602700  1.0  0.0993
  H  H71  1  0.474800  0.681400  0.676400  1.0  0.1136
  H  H72  1  0.403600  0.708900  0.743300  1.0  0.1093
  H  H73  1  0.298100  0.375000  0.692200  1.0  0.1044
  H  H74  1  0.369300  0.348200  0.625700  1.0  0.1004
  H  H75  1  0.370900  0.632100  0.821200  1.0  0.1192
  H  H76  1  0.306200  0.631500  0.893100  1.0  0.0861
  H  H77  1  0.150100  0.488800  0.809800  1.0  0.1077
  H  H78  1  0.215000  0.478200  0.738400  1.0  0.1123
  H  H79  1  0.887400  0.902400  0.990800  1.0  0.1142
  H  H80  1  0.989500  0.183800  0.909700  1.0  0.1063
  H  H81  1  0.027500  0.768200  0.897300  1.0  0.0992
  H  H82  1  0.025200  0.181400  0.823600  1.0  0.1139
  H  H83  1  0.096400  0.208900  0.756700  1.0  0.1095
  H  H84  1  0.201900  0.875000  0.807800  1.0  0.1048
  H  H85  1  0.130700  0.848200  0.874300  1.0  0.1004
  H  H86  1  0.129100  0.132100  0.678800  1.0  0.1209
  H  H87  1  0.193800  0.131500  0.606900  1.0  0.086
  H  H88  1  0.349900  0.988800  0.690200  1.0  0.1079
  H  H89  1  0.285000  0.978200  0.761600  1.0  0.1124
  H  H90  1  0.387400  0.402400  0.990800  1.0  0.1142
  H  H91  1  0.489500  0.683800  0.909700  1.0  0.1063
  H  H92  1  0.527500  0.268200  0.897300  1.0  0.0992
  H  H93  1  0.525200  0.681400  0.823600  1.0  0.1139
  H  H94  1  0.596400  0.708900  0.756700  1.0  0.1095
  H  H95  1  0.701900  0.375000  0.807800  1.0  0.1048
  H  H96  1  0.630700  0.348200  0.874300  1.0  0.1004
  H  H97  1  0.629100  0.632100  0.678800  1.0  0.1209
  H  H98  1  0.693800  0.631500  0.606900  1.0  0.086
  H  H99  1  0.849900  0.488800  0.690200  1.0  0.1079
  H  H100  1  0.785000  0.478200  0.761600  1.0  0.1124
  C  C101  1  0.920900  0.077600  0.467730  1.0  -0.0203
  C  C102  1  0.933800  0.939700  0.454010  1.0  -0.1395
  C  C103  1  0.981300  0.909500  0.418520  1.0  -0.0417
  C  C104  1  0.018100  0.018200  0.395250  1.0  0.073
  C  C105  1  0.004100  0.157300  0.411550  1.0  -0.1076
  C  C106  1  0.957800  0.185000  0.447190  1.0  -0.1295
  C  C107  1  0.068300  0.990400  0.356000  1.0  0.0476
  C  C108  1  0.060400  0.881700  0.320300  1.0  -0.1189
  C  C109  1  0.103500  0.864700  0.280000  1.0  -0.1436
  C  C110  1  0.157100  0.955000  0.273700  1.0  0.0856
  C  C111  1  0.166000  0.063300  0.310600  1.0  -0.1272
  C  C112  1  0.123100  0.079700  0.350400  1.0  -0.1392
  C  C113  1  0.199700  0.946600  0.228600  1.0  0.0867
  C  C114  1  0.173300  0.898600  0.181500  1.0  -0.1688
  C  C115  1  0.212900  0.896600  0.138600  1.0  -0.0027
  C  C116  1  0.279600  0.934600  0.140900  1.0  -0.1184
  C  C117  1  0.305300  0.982400  0.187500  1.0  -0.0286
  C  C118  1  0.266200  0.988500  0.230500  1.0  -0.1293
  C  C119  1  0.894500  0.821800  0.479170  1.0  0.6779
  C  C120  1  0.949000  0.334000  0.465050  1.0  0.7282
  C  C121  1  0.319700  0.932700  0.093900  1.0  0.7042
  C  C122  1  0.420900  0.577600  0.467730  1.0  -0.0203
  C  C123  1  0.433800  0.439700  0.454010  1.0  -0.1395
  C  C124  1  0.481300  0.409500  0.418520  1.0  -0.0417
  C  C125  1  0.518100  0.518200  0.395250  1.0  0.073
  C  C126  1  0.504100  0.657300  0.411550  1.0  -0.1076
  C  C127  1  0.457800  0.685000  0.447190  1.0  -0.1295
  C  C128  1  0.568300  0.490400  0.356000  1.0  0.0476
  C  C129  1  0.560400  0.381700  0.320300  1.0  -0.1189
  C  C130  1  0.603500  0.364700  0.280000  1.0  -0.1436
  C  C131  1  0.657100  0.455000  0.273700  1.0  0.0856
  C  C132  1  0.666000  0.563300  0.310600  1.0  -0.1272
  C  C133  1  0.623100  0.579700  0.350400  1.0  -0.1392
  C  C134  1  0.699700  0.446600  0.228600  1.0  0.0867
  C  C135  1  0.673300  0.398600  0.181500  1.0  -0.1688
  C  C136  1  0.712900  0.396600  0.138600  1.0  -0.0027
  C  C137  1  0.779600  0.434600  0.140900  1.0  -0.1184
  C  C138  1  0.805300  0.482400  0.187500  1.0  -0.0286
  C  C139  1  0.766200  0.488500  0.230500  1.0  -0.1293
  C  C140  1  0.394500  0.321800  0.479170  1.0  0.6779
  C  C141  1  0.449000  0.834000  0.465050  1.0  0.7282
  C  C142  1  0.819700  0.432700  0.093900  1.0  0.7042
  C  C143  1  0.079100  0.077600  0.032270  1.0  -0.0207
  C  C144  1  0.066200  0.939700  0.045990  1.0  -0.1396
  C  C145  1  0.018700  0.909500  0.081480  1.0  -0.0406
  C  C146  1  0.981900  0.018200  0.104750  1.0  0.0728
  C  C147  1  0.995900  0.157300  0.088450  1.0  -0.1069
  C  C148  1  0.042200  0.185000  0.052810  1.0  -0.1284
  C  C149  1  0.931700  0.990400  0.144000  1.0  0.0479
  C  C150  1  0.939600  0.881700  0.179700  1.0  -0.1194
  C  C151  1  0.896500  0.864700  0.220000  1.0  -0.1431
  C  C152  1  0.842900  0.955000  0.226300  1.0  0.0858
  C  C153  1  0.834000  0.063300  0.189400  1.0  -0.1279
  C  C154  1  0.876900  0.079700  0.149600  1.0  -0.1399
  C  C155  1  0.800300  0.946600  0.271400  1.0  0.0865
  C  C156  1  0.826700  0.898600  0.318500  1.0  -0.1678
  C  C157  1  0.787100  0.896600  0.361400  1.0  -0.0027
  C  C158  1  0.720400  0.934600  0.359100  1.0  -0.1195
  C  C159  1  0.694700  0.982400  0.312500  1.0  -0.0287
  C  C160  1  0.733800  0.988500  0.269500  1.0  -0.1283
  C  C161  1  0.105500  0.821800  0.020830  1.0  0.6782
  C  C162  1  0.051000  0.334000  0.034950  1.0  0.725
  C  C163  1  0.680300  0.932700  0.406100  1.0  0.7033
  C  C164  1  0.579100  0.577600  0.032270  1.0  -0.0207
  C  C165  1  0.566200  0.439700  0.045990  1.0  -0.1396
  C  C166  1  0.518700  0.409500  0.081480  1.0  -0.0406
  C  C167  1  0.481900  0.518200  0.104750  1.0  0.0728
  C  C168  1  0.495900  0.657300  0.088450  1.0  -0.1069
  C  C169  1  0.542200  0.685000  0.052810  1.0  -0.1284
  C  C170  1  0.431700  0.490400  0.144000  1.0  0.0479
  C  C171  1  0.439600  0.381700  0.179700  1.0  -0.1194
  C  C172  1  0.396500  0.364700  0.220000  1.0  -0.1431
  C  C173  1  0.342900  0.455000  0.226300  1.0  0.0858
  C  C174  1  0.334000  0.563300  0.189400  1.0  -0.1279
  C  C175  1  0.376900  0.579700  0.149600  1.0  -0.1399
  C  C176  1  0.300300  0.446600  0.271400  1.0  0.0865
  C  C177  1  0.326700  0.398600  0.318500  1.0  -0.1678
  C  C178  1  0.287100  0.396600  0.361400  1.0  -0.0027
  C  C179  1  0.220400  0.434600  0.359100  1.0  -0.1195
  C  C180  1  0.194700  0.482400  0.312500  1.0  -0.0287
  C  C181  1  0.233800  0.488500  0.269500  1.0  -0.1283
  C  C182  1  0.605500  0.321800  0.020830  1.0  0.6782
  C  C183  1  0.551000  0.834000  0.034950  1.0  0.725
  C  C184  1  0.180300  0.432700  0.406100  1.0  0.7033
  C  C185  1  0.079100  0.922400  0.532270  1.0  -0.0204
  C  C186  1  0.066200  0.060300  0.545990  1.0  -0.1402
  C  C187  1  0.018700  0.090500  0.581480  1.0  -0.0417
  C  C188  1  0.981900  0.981800  0.604750  1.0  0.0729
  C  C189  1  0.995900  0.842700  0.588450  1.0  -0.1073
  C  C190  1  0.042200  0.815000  0.552810  1.0  -0.128
  C  C191  1  0.931700  0.009600  0.644000  1.0  0.0478
  C  C192  1  0.939600  0.118300  0.679700  1.0  -0.1196
  C  C193  1  0.896500  0.135300  0.720000  1.0  -0.1442
  C  C194  1  0.842900  0.045000  0.726300  1.0  0.0859
  C  C195  1  0.834000  0.936700  0.689400  1.0  -0.1284
  C  C196  1  0.876900  0.920300  0.649600  1.0  -0.1396
  C  C197  1  0.800300  0.053400  0.771400  1.0  0.0864
  C  C198  1  0.826700  0.101400  0.818500  1.0  -0.1677
  C  C199  1  0.787100  0.103400  0.861400  1.0  -0.0028
  C  C200  1  0.720400  0.065400  0.859100  1.0  -0.1194
  C  C201  1  0.694700  0.017600  0.812500  1.0  -0.0283
  C  C202  1  0.733800  0.011500  0.769500  1.0  -0.1281
  C  C203  1  0.105500  0.178200  0.520830  1.0  0.6778
  C  C204  1  0.051000  0.666000  0.534950  1.0  0.7245
  C  C205  1  0.680300  0.067300  0.906100  1.0  0.7043
  C  C206  1  0.579100  0.422400  0.532270  1.0  -0.0204
  C  C207  1  0.566200  0.560300  0.545990  1.0  -0.1402
  C  C208  1  0.518700  0.590500  0.581480  1.0  -0.0417
  C  C209  1  0.481900  0.481800  0.604750  1.0  0.0729
  C  C210  1  0.495900  0.342700  0.588450  1.0  -0.1073
  C  C211  1  0.542200  0.315000  0.552810  1.0  -0.128
  C  C212  1  0.431700  0.509600  0.644000  1.0  0.0478
  C  C213  1  0.439600  0.618300  0.679700  1.0  -0.1196
  C  C214  1  0.396500  0.635300  0.720000  1.0  -0.1442
  C  C215  1  0.342900  0.545000  0.726300  1.0  0.0859
  C  C216  1  0.334000  0.436700  0.689400  1.0  -0.1284
  C  C217  1  0.376900  0.420300  0.649600  1.0  -0.1396
  C  C218  1  0.300300  0.553400  0.771400  1.0  0.0864
  C  C219  1  0.326700  0.601400  0.818500  1.0  -0.1677
  C  C220  1  0.287100  0.603400  0.861400  1.0  -0.0028
  C  C221  1  0.220400  0.565400  0.859100  1.0  -0.1194
  C  C222  1  0.194700  0.517600  0.812500  1.0  -0.0283
  C  C223  1  0.233800  0.511500  0.769500  1.0  -0.1281
  C  C224  1  0.605500  0.678200  0.520830  1.0  0.6778
  C  C225  1  0.551000  0.166000  0.534950  1.0  0.7245
  C  C226  1  0.180300  0.567300  0.906100  1.0  0.7043
  C  C227  1  0.920900  0.922400  0.967730  1.0  -0.0202
  C  C228  1  0.933800  0.060300  0.954010  1.0  -0.1397
  C  C229  1  0.981300  0.090500  0.918520  1.0  -0.0429
  C  C230  1  0.018100  0.981800  0.895250  1.0  0.0732
  C  C231  1  0.004100  0.842700  0.911550  1.0  -0.1076
  C  C232  1  0.957800  0.815000  0.947190  1.0  -0.1303
  C  C233  1  0.068300  0.009600  0.856000  1.0  0.0477
  C  C234  1  0.060400  0.118300  0.820300  1.0  -0.1192
  C  C235  1  0.103500  0.135300  0.780000  1.0  -0.1442
  C  C236  1  0.157100  0.045000  0.773700  1.0  0.0856
  C  C237  1  0.166000  0.936700  0.810600  1.0  -0.1278
  C  C238  1  0.123100  0.920300  0.850400  1.0  -0.1388
  C  C239  1  0.199700  0.053400  0.728600  1.0  0.0868
  C  C240  1  0.173300  0.101400  0.681500  1.0  -0.1684
  C  C241  1  0.212900  0.103400  0.638600  1.0  -0.0031
  C  C242  1  0.279600  0.065400  0.640900  1.0  -0.1187
  C  C243  1  0.305300  0.017600  0.687500  1.0  -0.0277
  C  C244  1  0.266200  0.011500  0.730500  1.0  -0.129
  C  C245  1  0.894500  0.178200  0.979170  1.0  0.6781
  C  C246  1  0.949000  0.666000  0.965050  1.0  0.7263
  C  C247  1  0.319700  0.067300  0.593900  1.0  0.7041
  C  C248  1  0.420900  0.422400  0.967730  1.0  -0.0202
  C  C249  1  0.433800  0.560300  0.954010  1.0  -0.1397
  C  C250  1  0.481300  0.590500  0.918520  1.0  -0.0429
  C  C251  1  0.518100  0.481800  0.895250  1.0  0.0732
  C  C252  1  0.504100  0.342700  0.911550  1.0  -0.1076
  C  C253  1  0.457800  0.315000  0.947190  1.0  -0.1303
  C  C254  1  0.568300  0.509600  0.856000  1.0  0.0477
  C  C255  1  0.560400  0.618300  0.820300  1.0  -0.1192
  C  C256  1  0.603500  0.635300  0.780000  1.0  -0.1442
  C  C257  1  0.657100  0.545000  0.773700  1.0  0.0856
  C  C258  1  0.666000  0.436700  0.810600  1.0  -0.1278
  C  C259  1  0.623100  0.420300  0.850400  1.0  -0.1388
  C  C260  1  0.699700  0.553400  0.728600  1.0  0.0868
  C  C261  1  0.673300  0.601400  0.681500  1.0  -0.1684
  C  C262  1  0.712900  0.603400  0.638600  1.0  -0.0031
  C  C263  1  0.779600  0.565400  0.640900  1.0  -0.1187
  C  C264  1  0.805300  0.517600  0.687500  1.0  -0.0277
  C  C265  1  0.766200  0.511500  0.730500  1.0  -0.129
  C  C266  1  0.394500  0.678200  0.979170  1.0  0.6781
  C  C267  1  0.449000  0.166000  0.965050  1.0  0.7263
  C  C268  1  0.819700  0.567300  0.593900  1.0  0.7041
  O  O269  1  0.987630  0.427400  0.448480  1.0  -0.6198
  O  O270  1  0.381600  0.956000  0.098490  1.0  -0.58
  O  O271  1  0.921170  0.702400  0.477690  1.0  -0.6033
  O  O272  1  0.904820  0.357400  0.496850  1.0  -0.5899
  O  O273  1  0.843620  0.853100  0.499710  1.0  -0.6124
  O  O274  1  0.292700  0.911700  0.049680  1.0  -0.7059
  O  O275  1  0.487630  0.927400  0.448480  1.0  -0.6198
  O  O276  1  0.881600  0.456000  0.098490  1.0  -0.58
  O  O277  1  0.421170  0.202400  0.477690  1.0  -0.6033
  O  O278  1  0.404820  0.857400  0.496850  1.0  -0.5899
  O  O279  1  0.343620  0.353100  0.499710  1.0  -0.6124
  O  O280  1  0.792700  0.411700  0.049680  1.0  -0.7059
  O  O281  1  0.012370  0.427400  0.051520  1.0  -0.6184
  O  O282  1  0.618400  0.956000  0.401510  1.0  -0.5801
  O  O283  1  0.078830  0.702400  0.022310  1.0  -0.6031
  O  O284  1  0.095180  0.357400  0.003150  1.0  -0.5878
  O  O285  1  0.156380  0.853100  0.000290  1.0  -0.6118
  O  O286  1  0.707300  0.911700  0.450320  1.0  -0.7055
  O  O287  1  0.512370  0.927400  0.051520  1.0  -0.6184
  O  O288  1  0.118400  0.456000  0.401510  1.0  -0.5801
  O  O289  1  0.578830  0.202400  0.022310  1.0  -0.6031
  O  O290  1  0.595180  0.857400  0.003150  1.0  -0.5878
  O  O291  1  0.656380  0.353100  0.000290  1.0  -0.6118
  O  O292  1  0.207300  0.411700  0.450320  1.0  -0.7055
  O  O293  1  0.012370  0.572600  0.551520  1.0  -0.6191
  O  O294  1  0.618400  0.044000  0.901510  1.0  -0.5809
  O  O295  1  0.078830  0.297600  0.522310  1.0  -0.6015
  O  O296  1  0.095180  0.642600  0.503150  1.0  -0.5878
  O  O297  1  0.156380  0.146900  0.500290  1.0  -0.6118
  O  O298  1  0.707300  0.088300  0.950320  1.0  -0.7051
  O  O299  1  0.512370  0.072600  0.551520  1.0  -0.6191
  O  O300  1  0.118400  0.544000  0.901510  1.0  -0.5809
  O  O301  1  0.578830  0.797600  0.522310  1.0  -0.6015
  O  O302  1  0.595180  0.142600  0.503150  1.0  -0.5878
  O  O303  1  0.656380  0.646900  0.500290  1.0  -0.6118
  O  O304  1  0.207300  0.588300  0.950320  1.0  -0.7051
  O  O305  1  0.987630  0.572600  0.948480  1.0  -0.6199
  O  O306  1  0.381600  0.044000  0.598490  1.0  -0.5798
  O  O307  1  0.921170  0.297600  0.977690  1.0  -0.6023
  O  O308  1  0.904820  0.642600  0.996850  1.0  -0.5894
  O  O309  1  0.843620  0.146900  0.999710  1.0  -0.6122
  O  O310  1  0.292700  0.088300  0.549680  1.0  -0.7077
  O  O311  1  0.487630  0.072600  0.948480  1.0  -0.6199
  O  O312  1  0.881600  0.544000  0.598490  1.0  -0.5798
  O  O313  1  0.421170  0.797600  0.977690  1.0  -0.6023
  O  O314  1  0.404820  0.142600  0.996850  1.0  -0.5894
  O  O315  1  0.343620  0.646900  0.999710  1.0  -0.6122
  O  O316  1  0.792700  0.588300  0.549680  1.0  -0.7077
