# generated using pymatgen
data_DyH4(CO2)4
_symmetry_space_group_name_H-M   'P 1'
_cell_length_a   8.73830000
_cell_length_b   18.16040000
_cell_length_c   6.70720000
_cell_angle_alpha   90.00000000
_cell_angle_beta   90.00000000
_cell_angle_gamma   90.00000000
_symmetry_Int_Tables_number   1
_chemical_formula_structural   DyH4(CO2)4
_chemical_formula_sum   'Dy4 H16 C16 O32'
_cell_volume   1064.37243161
_cell_formula_units_Z   4
loop_
 _symmetry_equiv_pos_site_id
 _symmetry_equiv_pos_as_xyz
  1  'x, y, z'
loop_
 _atom_site_type_symbol
 _atom_site_label
 _atom_site_symmetry_multiplicity
 _atom_site_fract_x
 _atom_site_fract_y
 _atom_site_fract_z
 _atom_site_occupancy
 _atom_site_charge
  Dy  Dy1  1  0.744150  0.605540  0.405910  1.0  2.2722
  Dy  Dy2  1  0.255850  0.394460  0.905910  1.0  2.2733
  Dy  Dy3  1  0.244150  0.894460  0.405910  1.0  2.2727
  Dy  Dy4  1  0.755850  0.105540  0.905910  1.0  2.2716
  H  H5  1  0.929500  0.777900  0.247200  1.0  0.041
  H  H6  1  0.446000  0.501700  0.587900  1.0  0.0394
  H  H7  1  0.055300  0.533800  0.170400  1.0  0.0169
  H  H8  1  0.739200  0.571000  0.899600  1.0  0.0397
  H  H9  1  0.070500  0.222100  0.747200  1.0  0.04
  H  H10  1  0.554000  0.498300  0.087900  1.0  0.0404
  H  H11  1  0.944700  0.466200  0.670400  1.0  0.0171
  H  H12  1  0.260800  0.429000  0.399600  1.0  0.0396
  H  H13  1  0.429500  0.722100  0.247200  1.0  0.0402
  H  H14  1  0.946000  0.998300  0.587900  1.0  0.0398
  H  H15  1  0.555300  0.966200  0.170400  1.0  0.0169
  H  H16  1  0.239200  0.929000  0.899600  1.0  0.0395
  H  H17  1  0.570500  0.277900  0.747200  1.0  0.0408
  H  H18  1  0.054000  0.001700  0.087900  1.0  0.0397
  H  H19  1  0.444700  0.033800  0.670400  1.0  0.0171
  H  H20  1  0.760800  0.071000  0.399600  1.0  0.0398
  C  C21  1  0.986700  0.753300  0.343100  1.0  0.7189
  C  C22  1  0.528900  0.478070  0.646700  1.0  0.6668
  C  C23  1  0.984000  0.495900  0.162500  1.0  0.6694
  C  C24  1  0.738100  0.622190  0.901800  1.0  0.6163
  C  C25  1  0.013300  0.246700  0.843100  1.0  0.7173
  C  C26  1  0.471100  0.521930  0.146700  1.0  0.666
  C  C27  1  0.016000  0.504100  0.662500  1.0  0.669
  C  C28  1  0.261900  0.377810  0.401800  1.0  0.6162
  C  C29  1  0.486700  0.746700  0.343100  1.0  0.7177
  C  C30  1  0.028900  0.021930  0.646700  1.0  0.6664
  C  C31  1  0.484000  0.004100  0.162500  1.0  0.6694
  C  C32  1  0.238100  0.877810  0.901800  1.0  0.6162
  C  C33  1  0.513300  0.253300  0.843100  1.0  0.7184
  C  C34  1  0.971100  0.978070  0.146700  1.0  0.6661
  C  C35  1  0.516000  0.995900  0.662500  1.0  0.6696
  C  C36  1  0.761900  0.122190  0.401800  1.0  0.6163
  O  O37  1  0.721500  0.654100  0.737300  1.0  -0.635
  O  O38  1  0.854100  0.510340  0.223800  1.0  -0.6258
  O  O39  1  0.654100  0.501680  0.593600  1.0  -0.6314
  O  O40  1  0.103110  0.784120  0.408200  1.0  -0.6493
  O  O41  1  0.030200  0.437590  0.092500  1.0  -0.6293
  O  O42  1  0.493900  0.429540  0.762000  1.0  -0.6038
  O  O43  1  0.941740  0.691710  0.397800  1.0  -0.6826
  O  O44  1  0.753000  0.651800  0.065600  1.0  -0.6223
  O  O45  1  0.278500  0.345900  0.237300  1.0  -0.6347
  O  O46  1  0.145900  0.489660  0.723800  1.0  -0.6266
  O  O47  1  0.345900  0.498320  0.093600  1.0  -0.63
  O  O48  1  0.896890  0.215880  0.908200  1.0  -0.6466
  O  O49  1  0.969800  0.562410  0.592500  1.0  -0.6281
  O  O50  1  0.506100  0.570460  0.262000  1.0  -0.6049
  O  O51  1  0.058260  0.308290  0.897800  1.0  -0.6849
  O  O52  1  0.247000  0.348200  0.565600  1.0  -0.6222
  O  O53  1  0.221500  0.845900  0.737300  1.0  -0.6351
  O  O54  1  0.354100  0.989660  0.223800  1.0  -0.6256
  O  O55  1  0.154100  0.998320  0.593600  1.0  -0.631
  O  O56  1  0.603110  0.715880  0.408200  1.0  -0.6496
  O  O57  1  0.530200  0.062410  0.092500  1.0  -0.6291
  O  O58  1  0.993900  0.070460  0.762000  1.0  -0.6045
  O  O59  1  0.441740  0.808290  0.397800  1.0  -0.683
  O  O60  1  0.253000  0.848200  0.065600  1.0  -0.6219
  O  O61  1  0.778500  0.154100  0.237300  1.0  -0.6347
  O  O62  1  0.645900  0.010340  0.723800  1.0  -0.627
  O  O63  1  0.845900  0.001680  0.093600  1.0  -0.6309
  O  O64  1  0.396890  0.284120  0.908200  1.0  -0.6467
  O  O65  1  0.469800  0.937590  0.592500  1.0  -0.6293
  O  O66  1  0.006100  0.929540  0.262000  1.0  -0.6043
  O  O67  1  0.558260  0.191710  0.897800  1.0  -0.6844
  O  O68  1  0.747000  0.151800  0.565600  1.0  -0.6226
