# generated using pymatgen
data_BeH4(C3O2)4
_symmetry_space_group_name_H-M   'P 1'
_cell_length_a   16.71860000
_cell_length_b   16.71860000
_cell_length_c   16.71860000
_cell_angle_alpha   109.47100000
_cell_angle_beta   109.47100000
_cell_angle_gamma   109.47100000
_symmetry_Int_Tables_number   1
_chemical_formula_structural   BeH4(C3O2)4
_chemical_formula_sum   'Be6 H24 C72 O48'
_cell_volume   3597.33910288
_cell_formula_units_Z   6
loop_
 _symmetry_equiv_pos_site_id
 _symmetry_equiv_pos_as_xyz
  1  'x, y, z'
loop_
 _atom_site_type_symbol
 _atom_site_label
 _atom_site_symmetry_multiplicity
 _atom_site_fract_x
 _atom_site_fract_y
 _atom_site_fract_z
 _atom_site_occupancy
 _atom_site_charge
  Be  Be1  1  0.625000  0.375000  0.250000  1.0  1.1996
  Be  Be2  1  0.875000  0.125000  0.750000  1.0  1.1994
  Be  Be3  1  0.250000  0.875000  0.625000  1.0  1.1999
  Be  Be4  1  0.750000  0.625000  0.875000  1.0  1.1995
  Be  Be5  1  0.375000  0.750000  0.125000  1.0  1.1998
  Be  Be6  1  0.125000  0.250000  0.375000  1.0  1.1996
  H  H7  1  0.662200  0.513500  0.017100  1.0  0.118
  H  H8  1  0.996400  0.645100  0.482900  1.0  0.1185
  H  H9  1  0.503600  0.986500  0.648700  1.0  0.1193
  H  H10  1  0.837800  0.854900  0.851300  1.0  0.119
  H  H11  1  0.148700  0.503600  0.486500  1.0  0.1168
  H  H12  1  0.351300  0.837800  0.354900  1.0  0.1178
  H  H13  1  0.517100  0.662200  0.013500  1.0  0.1188
  H  H14  1  0.982900  0.996400  0.145100  1.0  0.1193
  H  H15  1  0.645100  0.982900  0.496400  1.0  0.1185
  H  H16  1  0.513500  0.517100  0.162200  1.0  0.1191
  H  H17  1  0.854900  0.351300  0.337800  1.0  0.1196
  H  H18  1  0.986500  0.148700  0.003600  1.0  0.1196
  H  H19  1  0.145100  0.496400  0.982900  1.0  0.117
  H  H20  1  0.013500  0.162200  0.517100  1.0  0.118
  H  H21  1  0.354900  0.337800  0.351300  1.0  0.1186
  H  H22  1  0.486500  0.003600  0.148700  1.0  0.119
  H  H23  1  0.162200  0.017100  0.513500  1.0  0.1184
  H  H24  1  0.496400  0.482900  0.645100  1.0  0.1191
  H  H25  1  0.003600  0.648700  0.986500  1.0  0.1198
  H  H26  1  0.337800  0.851300  0.854900  1.0  0.1194
  H  H27  1  0.648700  0.486500  0.503600  1.0  0.1182
  H  H28  1  0.851300  0.354900  0.837800  1.0  0.1181
  H  H29  1  0.017100  0.013500  0.662200  1.0  0.1193
  H  H30  1  0.482900  0.145100  0.996400  1.0  0.1192
  C  C31  1  0.623190  0.534180  0.036290  1.0  0.0469
  C  C32  1  0.592990  0.505830  0.095420  1.0  -0.1517
  C  C33  1  0.627000  0.444900  0.131700  1.0  0.711
  C  C34  1  0.997890  0.586900  0.463710  1.0  0.0513
  C  C35  1  0.910410  0.497570  0.404580  1.0  -0.1502
  C  C36  1  0.813200  0.495300  0.368300  1.0  0.7111
  C  C37  1  0.502110  0.965820  0.589010  1.0  0.0503
  C  C38  1  0.589590  0.994170  0.587160  1.0  -0.1504
  C  C39  1  0.686800  0.055100  0.682100  1.0  0.7122
  C  C40  1  0.876810  0.913100  0.910990  1.0  0.0508
  C  C41  1  0.907010  0.002430  0.912840  1.0  -0.1499
  C  C42  1  0.873000  0.004700  0.817900  1.0  0.7133
  C  C43  1  0.089010  0.502110  0.465820  1.0  0.0491
  C  C44  1  0.087160  0.589590  0.494170  1.0  -0.1504
  C  C45  1  0.182100  0.686800  0.555100  1.0  0.7134
  C  C46  1  0.410990  0.876810  0.413100  1.0  0.0509
  C  C47  1  0.412840  0.907010  0.502430  1.0  -0.1489
  C  C48  1  0.317900  0.873000  0.504700  1.0  0.7107
  C  C49  1  0.536290  0.623190  0.034180  1.0  0.0462
  C  C50  1  0.595420  0.592990  0.005830  1.0  -0.1515
  C  C51  1  0.631700  0.627000  0.944900  1.0  0.7129
  C  C52  1  0.963710  0.997890  0.086900  1.0  0.0509
  C  C53  1  0.904580  0.910410  0.997570  1.0  -0.1502
  C  C54  1  0.868300  0.813200  0.995300  1.0  0.7132
  C  C55  1  0.586900  0.963710  0.497890  1.0  0.0481
  C  C56  1  0.497570  0.904580  0.410410  1.0  -0.1502
  C  C57  1  0.495300  0.868300  0.313200  1.0  0.7138
  C  C58  1  0.534180  0.536290  0.123190  1.0  0.0461
  C  C59  1  0.505830  0.595420  0.092990  1.0  -0.1518
  C  C60  1  0.444900  0.631700  0.127000  1.0  0.7118
  C  C61  1  0.913100  0.410990  0.376810  1.0  0.0517
  C  C62  1  0.002430  0.412840  0.407010  1.0  -0.1495
  C  C63  1  0.004700  0.317900  0.373000  1.0  0.7118
  C  C64  1  0.965820  0.089010  0.002110  1.0  0.0503
  C  C65  1  0.994170  0.087160  0.089590  1.0  -0.1503
  C  C66  1  0.055100  0.182100  0.186800  1.0  0.7119
  C  C67  1  0.086900  0.497890  0.963710  1.0  0.0498
  C  C68  1  0.997570  0.410410  0.904580  1.0  -0.1495
  C  C69  1  0.995300  0.313200  0.868300  1.0  0.713
  C  C70  1  0.034180  0.123190  0.536290  1.0  0.0474
  C  C71  1  0.005830  0.092990  0.595420  1.0  -0.1512
  C  C72  1  0.944900  0.127000  0.631700  1.0  0.7109
  C  C73  1  0.413100  0.376810  0.410990  1.0  0.0498
  C  C74  1  0.502430  0.407010  0.412840  1.0  -0.15
  C  C75  1  0.504700  0.373000  0.317900  1.0  0.7125
  C  C76  1  0.465820  0.002110  0.089010  1.0  0.0504
  C  C77  1  0.494170  0.089590  0.087160  1.0  -0.1509
  C  C78  1  0.555100  0.186800  0.182100  1.0  0.7141
  C  C79  1  0.123190  0.036290  0.534180  1.0  0.0446
  C  C80  1  0.092990  0.095420  0.505830  1.0  -0.1514
  C  C81  1  0.127000  0.131700  0.444900  1.0  0.7139
  C  C82  1  0.497890  0.463710  0.586900  1.0  0.0503
  C  C83  1  0.410410  0.404580  0.497570  1.0  -0.1504
  C  C84  1  0.313200  0.368300  0.495300  1.0  0.7117
  C  C85  1  0.002110  0.589010  0.965820  1.0  0.0503
  C  C86  1  0.089590  0.587160  0.994170  1.0  -0.1504
  C  C87  1  0.186800  0.682100  0.055100  1.0  0.7121
  C  C88  1  0.376810  0.910990  0.913100  1.0  0.0517
  C  C89  1  0.407010  0.912840  0.002430  1.0  -0.1494
  C  C90  1  0.373000  0.817900  0.004700  1.0  0.7118
  C  C91  1  0.589010  0.465820  0.502110  1.0  0.05
  C  C92  1  0.587160  0.494170  0.589590  1.0  -0.1507
  C  C93  1  0.682100  0.555100  0.686800  1.0  0.7109
  C  C94  1  0.910990  0.413100  0.876810  1.0  0.0511
  C  C95  1  0.912840  0.502430  0.907010  1.0  -0.1493
  C  C96  1  0.817900  0.504700  0.873000  1.0  0.712
  C  C97  1  0.036290  0.034180  0.623190  1.0  0.047
  C  C98  1  0.095420  0.005830  0.592990  1.0  -0.1514
  C  C99  1  0.131700  0.944900  0.627000  1.0  0.7114
  C  C100  1  0.463710  0.086900  0.997890  1.0  0.0508
  C  C101  1  0.404580  0.997570  0.910410  1.0  -0.1503
  C  C102  1  0.368300  0.995300  0.813200  1.0  0.7129
  O  O103  1  0.601250  0.430720  0.190450  1.0  -0.5678
  O  O104  1  0.671200  0.410900  0.098100  1.0  -0.462
  O  O105  1  0.740270  0.410800  0.309550  1.0  -0.5688
  O  O106  1  0.812800  0.573100  0.401900  1.0  -0.4599
  O  O107  1  0.759730  0.069280  0.670530  1.0  -0.5681
  O  O108  1  0.687200  0.089100  0.760300  1.0  -0.4619
  O  O109  1  0.898750  0.089200  0.829470  1.0  -0.5682
  O  O110  1  0.828800  0.926900  0.739700  1.0  -0.4584
  O  O111  1  0.170530  0.759730  0.569280  1.0  -0.5684
  O  O112  1  0.260300  0.687200  0.589100  1.0  -0.4658
  O  O113  1  0.329470  0.898750  0.589200  1.0  -0.5676
  O  O114  1  0.239700  0.828800  0.426900  1.0  -0.4643
  O  O115  1  0.690450  0.601250  0.930720  1.0  -0.5679
  O  O116  1  0.598100  0.671200  0.910900  1.0  -0.4669
  O  O117  1  0.809550  0.740270  0.910800  1.0  -0.5688
  O  O118  1  0.901900  0.812800  0.073100  1.0  -0.4612
  O  O119  1  0.410800  0.809550  0.240270  1.0  -0.5686
  O  O120  1  0.573100  0.901900  0.312800  1.0  -0.4614
  O  O121  1  0.430720  0.690450  0.101250  1.0  -0.5689
  O  O122  1  0.410900  0.598100  0.171200  1.0  -0.4582
  O  O123  1  0.089200  0.329470  0.398750  1.0  -0.5686
  O  O124  1  0.926900  0.239700  0.328800  1.0  -0.4608
  O  O125  1  0.069280  0.170530  0.259730  1.0  -0.5686
  O  O126  1  0.089100  0.260300  0.187200  1.0  -0.4565
  O  O127  1  0.910800  0.240270  0.809550  1.0  -0.569
  O  O128  1  0.073100  0.312800  0.901900  1.0  -0.4653
  O  O129  1  0.930720  0.101250  0.690450  1.0  -0.5675
  O  O130  1  0.910900  0.171200  0.598100  1.0  -0.4649
  O  O131  1  0.589200  0.398750  0.329470  1.0  -0.5682
  O  O132  1  0.426900  0.328800  0.239700  1.0  -0.4663
  O  O133  1  0.569280  0.259730  0.170530  1.0  -0.5684
  O  O134  1  0.589100  0.187200  0.260300  1.0  -0.4612
  O  O135  1  0.101250  0.190450  0.430720  1.0  -0.5684
  O  O136  1  0.171200  0.098100  0.410900  1.0  -0.4626
  O  O137  1  0.240270  0.309550  0.410800  1.0  -0.5689
  O  O138  1  0.312800  0.401900  0.573100  1.0  -0.4586
  O  O139  1  0.259730  0.670530  0.069280  1.0  -0.5686
  O  O140  1  0.187200  0.760300  0.089100  1.0  -0.4607
  O  O141  1  0.398750  0.829470  0.089200  1.0  -0.5685
  O  O142  1  0.328800  0.739700  0.926900  1.0  -0.4572
  O  O143  1  0.670530  0.569280  0.759730  1.0  -0.5681
  O  O144  1  0.760300  0.589100  0.687200  1.0  -0.4618
  O  O145  1  0.829470  0.589200  0.898750  1.0  -0.5688
  O  O146  1  0.739700  0.426900  0.828800  1.0  -0.4601
  O  O147  1  0.190450  0.930720  0.601250  1.0  -0.5679
  O  O148  1  0.098100  0.910900  0.671200  1.0  -0.461
  O  O149  1  0.309550  0.910800  0.740270  1.0  -0.5685
  O  O150  1  0.401900  0.073100  0.812800  1.0  -0.4581
