# generated using pymatgen
data_Zn4H24C48O13
_symmetry_space_group_name_H-M   'P 1'
_cell_length_a   19.80700000
_cell_length_b   27.71400000
_cell_length_c   27.84700000
_cell_angle_alpha   90.00000000
_cell_angle_beta   90.00000000
_cell_angle_gamma   90.00000000
_symmetry_Int_Tables_number   1
_chemical_formula_structural   Zn4H24C48O13
_chemical_formula_sum   'Zn16 H96 C192 O52'
_cell_volume   15286.08707071
_cell_formula_units_Z   4
loop_
 _symmetry_equiv_pos_site_id
 _symmetry_equiv_pos_as_xyz
  1  'x, y, z'
loop_
 _atom_site_type_symbol
 _atom_site_label
 _atom_site_symmetry_multiplicity
 _atom_site_fract_x
 _atom_site_fract_y
 _atom_site_fract_z
 _atom_site_occupancy
 _atom_site_charge
  Zn  Zn1  1  0.311440  0.942370  0.618010  1.0  1.0545
  Zn  Zn2  1  0.188560  0.557630  0.118010  1.0  1.0547
  Zn  Zn3  1  0.311440  0.057630  0.618010  1.0  1.0548
  Zn  Zn4  1  0.188560  0.442370  0.118010  1.0  1.0547
  Zn  Zn5  1  0.199590  0.000000  0.562060  1.0  1.0662
  Zn  Zn6  1  0.198760  0.000000  0.675770  1.0  1.0808
  Zn  Zn7  1  0.300410  0.500000  0.062060  1.0  1.0663
  Zn  Zn8  1  0.301240  0.500000  0.175770  1.0  1.0813
  Zn  Zn9  1  0.688560  0.942370  0.381990  1.0  1.054
  Zn  Zn10  1  0.811440  0.557630  0.881990  1.0  1.0544
  Zn  Zn11  1  0.688560  0.057630  0.381990  1.0  1.0543
  Zn  Zn12  1  0.811440  0.442370  0.881990  1.0  1.0539
  Zn  Zn13  1  0.800410  0.000000  0.437940  1.0  1.0666
  Zn  Zn14  1  0.801240  0.000000  0.324230  1.0  1.0806
  Zn  Zn15  1  0.699590  0.500000  0.937940  1.0  1.0664
  Zn  Zn16  1  0.698760  0.500000  0.824230  1.0  1.0802
  H  H17  1  0.358100  0.851500  0.499000  1.0  0.0947
  H  H18  1  0.363700  0.795600  0.436500  1.0  0.1132
  H  H19  1  0.194700  0.847600  0.383100  1.0  0.0727
  H  H20  1  0.188300  0.906100  0.443700  1.0  0.115
  H  H21  1  0.189900  0.735900  0.268300  1.0  0.0945
  H  H22  1  0.177300  0.671200  0.215400  1.0  0.1012
  H  H23  1  0.337300  0.608600  0.272200  1.0  0.1121
  H  H24  1  0.347600  0.672500  0.326100  1.0  0.1013
  H  H25  1  0.642000  0.073400  0.621800  1.0  0.1175
  H  H26  1  0.524600  0.072300  0.622100  1.0  0.099
  H  H27  1  0.141900  0.648500  0.999000  1.0  0.0949
  H  H28  1  0.136300  0.704400  0.936500  1.0  0.1136
  H  H29  1  0.305300  0.652400  0.883100  1.0  0.0745
  H  H30  1  0.311700  0.593900  0.943700  1.0  0.1153
  H  H31  1  0.310100  0.764100  0.768300  1.0  0.0948
  H  H32  1  0.322700  0.828800  0.715400  1.0  0.1008
  H  H33  1  0.162700  0.891400  0.772200  1.0  0.1124
  H  H34  1  0.152400  0.827500  0.826100  1.0  0.1012
  H  H35  1  0.858000  0.426600  0.121800  1.0  0.1174
  H  H36  1  0.975400  0.427700  0.122100  1.0  0.0989
  H  H37  1  0.358100  0.148500  0.499000  1.0  0.0949
  H  H38  1  0.363700  0.204400  0.436500  1.0  0.1137
  H  H39  1  0.194700  0.152400  0.383100  1.0  0.074
  H  H40  1  0.188300  0.093900  0.443700  1.0  0.1145
  H  H41  1  0.189900  0.264100  0.268300  1.0  0.0948
  H  H42  1  0.177300  0.328800  0.215400  1.0  0.101
  H  H43  1  0.337300  0.391400  0.272200  1.0  0.1123
  H  H44  1  0.347600  0.327500  0.326100  1.0  0.1013
  H  H45  1  0.642000  0.926600  0.621800  1.0  0.1178
  H  H46  1  0.524600  0.927700  0.622100  1.0  0.0985
  H  H47  1  0.141900  0.351500  0.999000  1.0  0.0947
  H  H48  1  0.136300  0.295600  0.936500  1.0  0.1133
  H  H49  1  0.305300  0.347600  0.883100  1.0  0.0743
  H  H50  1  0.311700  0.406100  0.943700  1.0  0.1155
  H  H51  1  0.310100  0.235900  0.768300  1.0  0.0946
  H  H52  1  0.322700  0.171200  0.715400  1.0  0.1007
  H  H53  1  0.162700  0.108600  0.772200  1.0  0.1121
  H  H54  1  0.152400  0.172500  0.826100  1.0  0.1013
  H  H55  1  0.858000  0.573400  0.121800  1.0  0.1175
  H  H56  1  0.975400  0.572300  0.122100  1.0  0.0988
  H  H57  1  0.991600  0.000000  0.683500  1.0  0.1085
  H  H58  1  0.873600  0.000000  0.687600  1.0  0.1134
  H  H59  1  0.868400  0.000000  0.543400  1.0  0.0839
  H  H60  1  0.985000  0.000000  0.541400  1.0  0.1005
  H  H61  1  0.508400  0.500000  0.183500  1.0  0.1084
  H  H62  1  0.626400  0.500000  0.187600  1.0  0.113
  H  H63  1  0.631600  0.500000  0.043400  1.0  0.0842
  H  H64  1  0.515000  0.500000  0.041400  1.0  0.1007
  H  H65  1  0.641900  0.851500  0.501000  1.0  0.095
  H  H66  1  0.636300  0.795600  0.563500  1.0  0.1127
  H  H67  1  0.805300  0.847600  0.616900  1.0  0.0731
  H  H68  1  0.811700  0.906100  0.556300  1.0  0.1154
  H  H69  1  0.810100  0.735900  0.731700  1.0  0.0948
  H  H70  1  0.822700  0.671200  0.784600  1.0  0.1013
  H  H71  1  0.662700  0.608600  0.727800  1.0  0.1117
  H  H72  1  0.652400  0.672500  0.673900  1.0  0.1002
  H  H73  1  0.358000  0.073400  0.378200  1.0  0.1176
  H  H74  1  0.475400  0.072300  0.377900  1.0  0.0987
  H  H75  1  0.858100  0.648500  0.001000  1.0  0.0954
  H  H76  1  0.863700  0.704400  0.063500  1.0  0.1135
  H  H77  1  0.694700  0.652400  0.116900  1.0  0.0743
  H  H78  1  0.688300  0.593900  0.056300  1.0  0.1147
  H  H79  1  0.689900  0.764100  0.231700  1.0  0.0948
  H  H80  1  0.677300  0.828800  0.284600  1.0  0.101
  H  H81  1  0.837300  0.891400  0.227800  1.0  0.1126
  H  H82  1  0.847600  0.827500  0.173900  1.0  0.1
  H  H83  1  0.142000  0.426600  0.878200  1.0  0.1175
  H  H84  1  0.024600  0.427700  0.877900  1.0  0.0985
  H  H85  1  0.641900  0.148500  0.501000  1.0  0.0952
  H  H86  1  0.636300  0.204400  0.563500  1.0  0.1136
  H  H87  1  0.805300  0.152400  0.616900  1.0  0.0741
  H  H88  1  0.811700  0.093900  0.556300  1.0  0.1153
  H  H89  1  0.810100  0.264100  0.731700  1.0  0.0944
  H  H90  1  0.822700  0.328800  0.784600  1.0  0.1007
  H  H91  1  0.662700  0.391400  0.727800  1.0  0.1121
  H  H92  1  0.652400  0.327500  0.673900  1.0  0.1001
  H  H93  1  0.358000  0.926600  0.378200  1.0  0.117
  H  H94  1  0.475400  0.927700  0.377900  1.0  0.0987
  H  H95  1  0.858100  0.351500  0.001000  1.0  0.0952
  H  H96  1  0.863700  0.295600  0.063500  1.0  0.1133
  H  H97  1  0.694700  0.347600  0.116900  1.0  0.0743
  H  H98  1  0.688300  0.406100  0.056300  1.0  0.1149
  H  H99  1  0.689900  0.235900  0.231700  1.0  0.0942
  H  H100  1  0.677300  0.171200  0.284600  1.0  0.1008
  H  H101  1  0.837300  0.108600  0.227800  1.0  0.1121
  H  H102  1  0.847600  0.172500  0.173900  1.0  0.1
  H  H103  1  0.142000  0.573400  0.878200  1.0  0.1178
  H  H104  1  0.024600  0.572300  0.877900  1.0  0.0989
  H  H105  1  0.008400  0.000000  0.316500  1.0  0.1087
  H  H106  1  0.126400  0.000000  0.312400  1.0  0.1132
  H  H107  1  0.131600  0.000000  0.456600  1.0  0.0839
  H  H108  1  0.015000  0.000000  0.458600  1.0  0.101
  H  H109  1  0.491600  0.500000  0.816500  1.0  0.1089
  H  H110  1  0.373600  0.500000  0.812400  1.0  0.112
  H  H111  1  0.368400  0.500000  0.956600  1.0  0.0835
  H  H112  1  0.485000  0.500000  0.958600  1.0  0.1007
  C  C113  1  0.266000  0.917300  0.520600  1.0  0.7214
  C  C114  1  0.270900  0.882300  0.479800  1.0  -0.1135
  C  C115  1  0.323000  0.850800  0.475800  1.0  -0.0472
  C  C116  1  0.326300  0.817000  0.438200  1.0  -0.168
  C  C117  1  0.276300  0.814500  0.403600  1.0  0.3125
  C  C118  1  0.228700  0.847500  0.407200  1.0  -0.0912
  C  C119  1  0.223500  0.882800  0.443900  1.0  -0.1337
  C  C120  1  0.276400  0.779600  0.369000  1.0  -0.0074
  C  C121  1  0.275400  0.749100  0.338800  1.0  -0.1126
  C  C122  1  0.270000  0.711700  0.302000  1.0  0.1042
  C  C123  1  0.221500  0.710200  0.269500  1.0  -0.0174
  C  C124  1  0.214600  0.672200  0.236800  1.0  -0.1283
  C  C125  1  0.260200  0.638000  0.236000  1.0  -0.1217
  C  C126  1  0.307800  0.635600  0.270200  1.0  -0.1287
  C  C127  1  0.312800  0.673400  0.302600  1.0  -0.1005
  C  C128  1  0.254200  0.593500  0.204200  1.0  0.6539
  C  C129  1  0.618300  0.043600  0.621800  1.0  -0.1452
  C  C130  1  0.548700  0.042700  0.622800  1.0  -0.0479
  C  C131  1  0.234000  0.582700  0.020600  1.0  0.721
  C  C132  1  0.229100  0.617700  0.979800  1.0  -0.111
  C  C133  1  0.177000  0.649200  0.975800  1.0  -0.0475
  C  C134  1  0.173700  0.683000  0.938200  1.0  -0.1696
  C  C135  1  0.223700  0.685500  0.903600  1.0  0.312
  C  C136  1  0.271300  0.652500  0.907200  1.0  -0.0909
  C  C137  1  0.276500  0.617200  0.943900  1.0  -0.1334
  C  C138  1  0.223600  0.720400  0.869000  1.0  -0.0121
  C  C139  1  0.224600  0.750900  0.838800  1.0  -0.1126
  C  C140  1  0.230000  0.788300  0.802000  1.0  0.105
  C  C141  1  0.278500  0.789800  0.769500  1.0  -0.0208
  C  C142  1  0.285400  0.827800  0.736800  1.0  -0.1284
  C  C143  1  0.239800  0.862000  0.736000  1.0  -0.1218
  C  C144  1  0.192200  0.864400  0.770200  1.0  -0.1302
  C  C145  1  0.187200  0.826600  0.802600  1.0  -0.1052
  C  C146  1  0.245800  0.906500  0.704200  1.0  0.6538
  C  C147  1  0.881700  0.456400  0.121800  1.0  -0.1452
  C  C148  1  0.951300  0.457300  0.122800  1.0  -0.0465
  C  C149  1  0.266000  0.082700  0.520600  1.0  0.7211
  C  C150  1  0.270900  0.117700  0.479800  1.0  -0.1111
  C  C151  1  0.323000  0.149200  0.475800  1.0  -0.0461
  C  C152  1  0.326300  0.183000  0.438200  1.0  -0.169
  C  C153  1  0.276300  0.185500  0.403600  1.0  0.3128
  C  C154  1  0.228700  0.152500  0.407200  1.0  -0.091
  C  C155  1  0.223500  0.117200  0.443900  1.0  -0.1332
  C  C156  1  0.276400  0.220400  0.369000  1.0  -0.015
  C  C157  1  0.275400  0.250900  0.338800  1.0  -0.1125
  C  C158  1  0.270000  0.288300  0.302000  1.0  0.1048
  C  C159  1  0.221500  0.289800  0.269500  1.0  -0.0187
  C  C160  1  0.214600  0.327800  0.236800  1.0  -0.128
  C  C161  1  0.260200  0.362000  0.236000  1.0  -0.1221
  C  C162  1  0.307800  0.364400  0.270200  1.0  -0.1295
  C  C163  1  0.312800  0.326600  0.302600  1.0  -0.1008
  C  C164  1  0.254200  0.406500  0.204200  1.0  0.653
  C  C165  1  0.618300  0.956400  0.621800  1.0  -0.1442
  C  C166  1  0.548700  0.957300  0.622800  1.0  -0.0508
  C  C167  1  0.234000  0.417300  0.020600  1.0  0.7212
  C  C168  1  0.229100  0.382300  0.979800  1.0  -0.1134
  C  C169  1  0.177000  0.350800  0.975800  1.0  -0.048
  C  C170  1  0.173700  0.317000  0.938200  1.0  -0.1689
  C  C171  1  0.223700  0.314500  0.903600  1.0  0.3117
  C  C172  1  0.271300  0.347500  0.907200  1.0  -0.0909
  C  C173  1  0.276500  0.382800  0.943900  1.0  -0.1335
  C  C174  1  0.223600  0.279600  0.869000  1.0  -0.0123
  C  C175  1  0.224600  0.249100  0.838800  1.0  -0.1127
  C  C176  1  0.230000  0.211700  0.802000  1.0  0.1046
  C  C177  1  0.278500  0.210200  0.769500  1.0  -0.0197
  C  C178  1  0.285400  0.172200  0.736800  1.0  -0.1284
  C  C179  1  0.239800  0.138000  0.736000  1.0  -0.1217
  C  C180  1  0.192200  0.135600  0.770200  1.0  -0.1297
  C  C181  1  0.187200  0.173400  0.802600  1.0  -0.1053
  C  C182  1  0.245800  0.093500  0.704200  1.0  0.6546
  C  C183  1  0.881700  0.543600  0.121800  1.0  -0.1454
  C  C184  1  0.951300  0.542700  0.122800  1.0  -0.0489
  C  C185  1  0.075500  0.000000  0.611500  1.0  0.6932
  C  C186  1  0.997600  0.000000  0.611200  1.0  -0.1307
  C  C187  1  0.965700  0.000000  0.654800  1.0  -0.0601
  C  C188  1  0.895500  0.000000  0.657300  1.0  -0.1388
  C  C189  1  0.857200  0.000000  0.614900  1.0  0.0073
  C  C190  1  0.892600  0.000000  0.572800  1.0  -0.141
  C  C191  1  0.962400  0.000000  0.571500  1.0  -0.0991
  C  C192  1  0.784900  0.000000  0.615600  1.0  0.0165
  C  C193  1  0.725300  0.000000  0.618400  1.0  0.0806
  C  C194  1  0.653000  0.000000  0.620800  1.0  0.0544
  C  C195  1  0.513000  0.000000  0.624800  1.0  -0.1338
  C  C196  1  0.435400  0.000000  0.623600  1.0  0.7278
  C  C197  1  0.424500  0.500000  0.111500  1.0  0.6949
  C  C198  1  0.502400  0.500000  0.111200  1.0  -0.1308
  C  C199  1  0.534300  0.500000  0.154800  1.0  -0.0608
  C  C200  1  0.604500  0.500000  0.157300  1.0  -0.1376
  C  C201  1  0.642800  0.500000  0.114900  1.0  0.0081
  C  C202  1  0.607400  0.500000  0.072800  1.0  -0.1403
  C  C203  1  0.537600  0.500000  0.071500  1.0  -0.0994
  C  C204  1  0.715100  0.500000  0.115600  1.0  0.0165
  C  C205  1  0.774700  0.500000  0.118400  1.0  0.0805
  C  C206  1  0.847000  0.500000  0.120800  1.0  0.053
  C  C207  1  0.987000  0.500000  0.124800  1.0  -0.1343
  C  C208  1  0.064600  0.500000  0.123600  1.0  0.7272
  C  C209  1  0.734000  0.917300  0.479400  1.0  0.7204
  C  C210  1  0.729100  0.882300  0.520200  1.0  -0.1128
  C  C211  1  0.677000  0.850800  0.524200  1.0  -0.0472
  C  C212  1  0.673700  0.817000  0.561800  1.0  -0.1689
  C  C213  1  0.723700  0.814500  0.596400  1.0  0.3114
  C  C214  1  0.771300  0.847500  0.592800  1.0  -0.0901
  C  C215  1  0.776500  0.882800  0.556100  1.0  -0.1334
  C  C216  1  0.723600  0.779600  0.631000  1.0  -0.005
  C  C217  1  0.724600  0.749100  0.661200  1.0  -0.113
  C  C218  1  0.730000  0.711700  0.698000  1.0  0.1059
  C  C219  1  0.778500  0.710200  0.730500  1.0  -0.0199
  C  C220  1  0.785400  0.672200  0.763200  1.0  -0.1282
  C  C221  1  0.739800  0.638000  0.764000  1.0  -0.1205
  C  C222  1  0.692200  0.635600  0.729800  1.0  -0.1301
  C  C223  1  0.687200  0.673400  0.697400  1.0  -0.099
  C  C224  1  0.745800  0.593500  0.795800  1.0  0.6553
  C  C225  1  0.381700  0.043600  0.378200  1.0  -0.1463
  C  C226  1  0.451300  0.042700  0.377200  1.0  -0.0463
  C  C227  1  0.766000  0.582700  0.979400  1.0  0.7203
  C  C228  1  0.770900  0.617700  0.020200  1.0  -0.1139
  C  C229  1  0.823000  0.649200  0.024200  1.0  -0.0456
  C  C230  1  0.826300  0.683000  0.061800  1.0  -0.1682
  C  C231  1  0.776300  0.685500  0.096400  1.0  0.3113
  C  C232  1  0.728700  0.652500  0.092800  1.0  -0.0913
  C  C233  1  0.723500  0.617200  0.056100  1.0  -0.1332
  C  C234  1  0.776400  0.720400  0.131000  1.0  -0.0108
  C  C235  1  0.775400  0.750900  0.161200  1.0  -0.1131
  C  C236  1  0.770000  0.788300  0.198000  1.0  0.1059
  C  C237  1  0.721500  0.789800  0.230500  1.0  -0.0185
  C  C238  1  0.714600  0.827800  0.263200  1.0  -0.128
  C  C239  1  0.760200  0.862000  0.264000  1.0  -0.1217
  C  C240  1  0.807800  0.864400  0.229800  1.0  -0.1297
  C  C241  1  0.812800  0.826600  0.197400  1.0  -0.1067
  C  C242  1  0.754200  0.906500  0.295800  1.0  0.6533
  C  C243  1  0.118300  0.456400  0.878200  1.0  -0.1442
  C  C244  1  0.048700  0.457300  0.877200  1.0  -0.0474
  C  C245  1  0.734000  0.082700  0.479400  1.0  0.7203
  C  C246  1  0.729100  0.117700  0.520200  1.0  -0.1135
  C  C247  1  0.677000  0.149200  0.524200  1.0  -0.0463
  C  C248  1  0.673700  0.183000  0.561800  1.0  -0.1691
  C  C249  1  0.723700  0.185500  0.596400  1.0  0.3111
  C  C250  1  0.771300  0.152500  0.592800  1.0  -0.0905
  C  C251  1  0.776500  0.117200  0.556100  1.0  -0.1335
  C  C252  1  0.723600  0.220400  0.631000  1.0  -0.0128
  C  C253  1  0.724600  0.250900  0.661200  1.0  -0.1131
  C  C254  1  0.730000  0.288300  0.698000  1.0  0.1059
  C  C255  1  0.778500  0.289800  0.730500  1.0  -0.0207
  C  C256  1  0.785400  0.327800  0.763200  1.0  -0.1283
  C  C257  1  0.739800  0.362000  0.764000  1.0  -0.1215
  C  C258  1  0.692200  0.364400  0.729800  1.0  -0.1305
  C  C259  1  0.687200  0.326600  0.697400  1.0  -0.099
  C  C260  1  0.745800  0.406500  0.795800  1.0  0.6541
  C  C261  1  0.381700  0.956400  0.378200  1.0  -0.1455
  C  C262  1  0.451300  0.957300  0.377200  1.0  -0.0489
  C  C263  1  0.766000  0.417300  0.979400  1.0  0.7204
  C  C264  1  0.770900  0.382300  0.020200  1.0  -0.1134
  C  C265  1  0.823000  0.350800  0.024200  1.0  -0.0468
  C  C266  1  0.826300  0.317000  0.061800  1.0  -0.1678
  C  C267  1  0.776300  0.314500  0.096400  1.0  0.3119
  C  C268  1  0.728700  0.347500  0.092800  1.0  -0.0914
  C  C269  1  0.723500  0.382800  0.056100  1.0  -0.1334
  C  C270  1  0.776400  0.279600  0.131000  1.0  -0.0103
  C  C271  1  0.775400  0.249100  0.161200  1.0  -0.1133
  C  C272  1  0.770000  0.211700  0.198000  1.0  0.1056
  C  C273  1  0.721500  0.210200  0.230500  1.0  -0.0174
  C  C274  1  0.714600  0.172200  0.263200  1.0  -0.1283
  C  C275  1  0.760200  0.138000  0.264000  1.0  -0.1206
  C  C276  1  0.807800  0.135600  0.229800  1.0  -0.129
  C  C277  1  0.812800  0.173400  0.197400  1.0  -0.1066
  C  C278  1  0.754200  0.093500  0.295800  1.0  0.6545
  C  C279  1  0.118300  0.543600  0.878200  1.0  -0.146
  C  C280  1  0.048700  0.542700  0.877200  1.0  -0.0504
  C  C281  1  0.924500  0.000000  0.388500  1.0  0.6947
  C  C282  1  0.002400  0.000000  0.388800  1.0  -0.1319
  C  C283  1  0.034300  0.000000  0.345200  1.0  -0.0592
  C  C284  1  0.104500  0.000000  0.342700  1.0  -0.1375
  C  C285  1  0.142800  0.000000  0.385100  1.0  0.0069
  C  C286  1  0.107400  0.000000  0.427200  1.0  -0.14
  C  C287  1  0.037600  0.000000  0.428500  1.0  -0.0996
  C  C288  1  0.215100  0.000000  0.384400  1.0  0.0185
  C  C289  1  0.274700  0.000000  0.381600  1.0  0.0817
  C  C290  1  0.347000  0.000000  0.379200  1.0  0.0516
  C  C291  1  0.487000  0.000000  0.375200  1.0  -0.1324
  C  C292  1  0.564600  0.000000  0.376400  1.0  0.7273
  C  C293  1  0.575500  0.500000  0.888500  1.0  0.6928
  C  C294  1  0.497600  0.500000  0.888800  1.0  -0.13
  C  C295  1  0.465700  0.500000  0.845200  1.0  -0.0591
  C  C296  1  0.395500  0.500000  0.842700  1.0  -0.1375
  C  C297  1  0.357200  0.500000  0.885100  1.0  0.0059
  C  C298  1  0.392600  0.500000  0.927200  1.0  -0.1406
  C  C299  1  0.462400  0.500000  0.928500  1.0  -0.0994
  C  C300  1  0.284900  0.500000  0.884400  1.0  0.0192
  C  C301  1  0.225300  0.500000  0.881600  1.0  0.0819
  C  C302  1  0.153000  0.500000  0.879200  1.0  0.0535
  C  C303  1  0.013000  0.500000  0.875200  1.0  -0.1366
  C  C304  1  0.935400  0.500000  0.876400  1.0  0.7279
  O  O305  1  0.310110  0.915430  0.551870  1.0  -0.607
  O  O306  1  0.217600  0.945760  0.519000  1.0  -0.6048
  O  O307  1  0.205200  0.599900  0.170500  1.0  -0.58
  O  O308  1  0.296600  0.561800  0.204100  1.0  -0.5876
  O  O309  1  0.407590  0.040370  0.623120  1.0  -0.6064
  O  O310  1  0.189890  0.584570  0.051870  1.0  -0.6072
  O  O311  1  0.282400  0.554240  0.019000  1.0  -0.6054
  O  O312  1  0.294800  0.900100  0.670500  1.0  -0.5806
  O  O313  1  0.203400  0.938200  0.704100  1.0  -0.5888
  O  O314  1  0.092410  0.459630  0.123120  1.0  -0.6073
  O  O315  1  0.310110  0.084570  0.551870  1.0  -0.6066
  O  O316  1  0.217600  0.054240  0.519000  1.0  -0.6054
  O  O317  1  0.205200  0.400100  0.170500  1.0  -0.5794
  O  O318  1  0.296600  0.438200  0.204100  1.0  -0.5892
  O  O319  1  0.407590  0.959630  0.623120  1.0  -0.6071
  O  O320  1  0.189890  0.415430  0.051870  1.0  -0.6073
  O  O321  1  0.282400  0.445760  0.019000  1.0  -0.6047
  O  O322  1  0.294800  0.099900  0.670500  1.0  -0.5806
  O  O323  1  0.203400  0.061800  0.704100  1.0  -0.5885
  O  O324  1  0.092410  0.540370  0.123120  1.0  -0.6066
  O  O325  1  0.255930  0.000000  0.618300  1.0  -1.2602
  O  O326  1  0.104100  0.000000  0.652260  1.0  -0.6133
  O  O327  1  0.102200  0.000000  0.570930  1.0  -0.5785
  O  O328  1  0.244070  0.500000  0.118300  1.0  -1.2599
  O  O329  1  0.395900  0.500000  0.152260  1.0  -0.6124
  O  O330  1  0.397800  0.500000  0.070930  1.0  -0.5788
  O  O331  1  0.689890  0.915430  0.448130  1.0  -0.6066
  O  O332  1  0.782400  0.945760  0.481000  1.0  -0.6052
  O  O333  1  0.794800  0.599900  0.829500  1.0  -0.5804
  O  O334  1  0.703400  0.561800  0.795900  1.0  -0.5878
  O  O335  1  0.592410  0.040370  0.376880  1.0  -0.6069
  O  O336  1  0.810110  0.584570  0.948130  1.0  -0.6067
  O  O337  1  0.717600  0.554240  0.981000  1.0  -0.6062
  O  O338  1  0.705200  0.900100  0.329500  1.0  -0.5789
  O  O339  1  0.796600  0.938200  0.295900  1.0  -0.5896
  O  O340  1  0.907590  0.459630  0.876880  1.0  -0.6071
  O  O341  1  0.689890  0.084570  0.448130  1.0  -0.6066
  O  O342  1  0.782400  0.054240  0.481000  1.0  -0.6058
  O  O343  1  0.794800  0.400100  0.829500  1.0  -0.5802
  O  O344  1  0.703400  0.438200  0.795900  1.0  -0.5888
  O  O345  1  0.592410  0.959630  0.376880  1.0  -0.6073
  O  O346  1  0.810110  0.415430  0.948130  1.0  -0.6068
  O  O347  1  0.717600  0.445760  0.981000  1.0  -0.6055
  O  O348  1  0.705200  0.099900  0.329500  1.0  -0.5793
  O  O349  1  0.796600  0.061800  0.295900  1.0  -0.5873
  O  O350  1  0.907590  0.540370  0.876880  1.0  -0.6068
  O  O351  1  0.744070  0.000000  0.381700  1.0  -1.2598
  O  O352  1  0.895900  0.000000  0.347740  1.0  -0.6102
  O  O353  1  0.897800  0.000000  0.429070  1.0  -0.5783
  O  O354  1  0.755930  0.500000  0.881700  1.0  -1.2601
  O  O355  1  0.604100  0.500000  0.847740  1.0  -0.6112
  O  O356  1  0.602200  0.500000  0.929070  1.0  -0.578
