# generated using pymatgen
data_Co3H38C50(N2O7)2
_symmetry_space_group_name_H-M   'P 1'
_cell_length_a   20.60000000
_cell_length_b   10.42710000
_cell_length_c   29.64600000
_cell_angle_alpha   90.00000000
_cell_angle_beta   113.51000000
_cell_angle_gamma   90.00000000
_symmetry_Int_Tables_number   1
_chemical_formula_structural   Co3H38C50(N2O7)2
_chemical_formula_sum   'Co12 H152 C200 N16 O56'
_cell_volume   5839.31203669
_cell_formula_units_Z   4
loop_
 _symmetry_equiv_pos_site_id
 _symmetry_equiv_pos_as_xyz
  1  'x, y, z'
loop_
 _atom_site_type_symbol
 _atom_site_label
 _atom_site_symmetry_multiplicity
 _atom_site_fract_x
 _atom_site_fract_y
 _atom_site_fract_z
 _atom_site_occupancy
 _atom_site_charge
  Co  Co1  1  0.165140  0.825830  0.337020  1.0  0.8691
  Co  Co2  1  0.665140  0.325830  0.337020  1.0  0.8691
  Co  Co3  1  0.834860  0.825830  0.162980  1.0  0.8688
  Co  Co4  1  0.334860  0.325830  0.162980  1.0  0.8688
  Co  Co5  1  0.834860  0.174170  0.662980  1.0  0.8673
  Co  Co6  1  0.334860  0.674170  0.662980  1.0  0.8673
  Co  Co7  1  0.165140  0.174170  0.837020  1.0  0.8671
  Co  Co8  1  0.665140  0.674170  0.837020  1.0  0.8671
  Co  Co9  1  0.000000  0.659270  0.250000  1.0  0.7904
  Co  Co10  1  0.500000  0.159270  0.250000  1.0  0.7904
  Co  Co11  1  0.000000  0.340730  0.750000  1.0  0.7907
  Co  Co12  1  0.500000  0.840730  0.750000  1.0  0.7907
  H  H13  1  0.209100  0.964800  0.217200  1.0  0.1061
  H  H14  1  0.020300  0.982900  0.068600  1.0  0.1025
  H  H15  1  0.007500  0.888400  0.133400  1.0  0.1025
  H  H16  1  0.218400  0.018600  0.066500  1.0  0.1201
  H  H17  1  0.221800  0.102400  0.995000  1.0  0.1037
  H  H18  1  0.041600  0.289100  0.967100  1.0  0.1017
  H  H19  1  0.037600  0.210100  0.039000  1.0  0.1327
  H  H20  1  0.065600  0.387200  0.271400  1.0  0.0823
  H  H21  1  0.125300  0.232100  0.238100  1.0  0.1133
  H  H22  1  0.148000  0.298100  0.174700  1.0  0.0633
  H  H23  1  0.106900  0.478800  0.137000  1.0  0.1058
  H  H24  1  0.058200  0.617300  0.173000  1.0  0.065
  H  H25  1  0.300500  0.892600  0.422900  1.0  0.0906
  H  H26  1  0.375500  0.067500  0.456500  1.0  0.124
  H  H27  1  0.358300  0.253500  0.409400  1.0  0.1105
  H  H28  1  0.257400  0.272000  0.340000  1.0  0.116
  H  H29  1  0.191000  0.094200  0.309500  1.0  0.0675
  H  H30  1  0.083000  0.668000  0.342300  1.0  0.4244
  H  H31  1  0.123000  0.609000  0.316000  1.0  0.3906
  H  H32  1  0.709100  0.464800  0.217200  1.0  0.1061
  H  H33  1  0.520300  0.482900  0.068600  1.0  0.1025
  H  H34  1  0.507500  0.388400  0.133400  1.0  0.1025
  H  H35  1  0.718400  0.518600  0.066500  1.0  0.1201
  H  H36  1  0.721800  0.602400  0.995000  1.0  0.1037
  H  H37  1  0.541600  0.789100  0.967100  1.0  0.1017
  H  H38  1  0.537600  0.710100  0.039000  1.0  0.1327
  H  H39  1  0.565600  0.887200  0.271400  1.0  0.0823
  H  H40  1  0.625300  0.732100  0.238100  1.0  0.1133
  H  H41  1  0.648000  0.798100  0.174700  1.0  0.0633
  H  H42  1  0.606900  0.978800  0.137000  1.0  0.1058
  H  H43  1  0.558200  0.117300  0.173000  1.0  0.065
  H  H44  1  0.800500  0.392600  0.422900  1.0  0.0906
  H  H45  1  0.875500  0.567500  0.456500  1.0  0.124
  H  H46  1  0.858300  0.753500  0.409400  1.0  0.1105
  H  H47  1  0.757400  0.772000  0.340000  1.0  0.116
  H  H48  1  0.691000  0.594200  0.309500  1.0  0.0675
  H  H49  1  0.583000  0.168000  0.342300  1.0  0.4244
  H  H50  1  0.623000  0.109000  0.316000  1.0  0.3906
  H  H51  1  0.790900  0.964800  0.282800  1.0  0.106
  H  H52  1  0.979700  0.982900  0.431400  1.0  0.1027
  H  H53  1  0.992500  0.888400  0.366600  1.0  0.1037
  H  H54  1  0.781600  0.018600  0.433500  1.0  0.1203
  H  H55  1  0.778200  0.102400  0.505000  1.0  0.1038
  H  H56  1  0.958400  0.289100  0.532900  1.0  0.1014
  H  H57  1  0.962400  0.210100  0.461000  1.0  0.1326
  H  H58  1  0.934400  0.387200  0.228600  1.0  0.0835
  H  H59  1  0.874700  0.232100  0.261900  1.0  0.113
  H  H60  1  0.852000  0.298100  0.325300  1.0  0.064
  H  H61  1  0.893100  0.478800  0.363000  1.0  0.1052
  H  H62  1  0.941800  0.617300  0.327000  1.0  0.0644
  H  H63  1  0.699500  0.892600  0.077100  1.0  0.0909
  H  H64  1  0.624500  0.067500  0.043500  1.0  0.1235
  H  H65  1  0.641700  0.253500  0.090600  1.0  0.1108
  H  H66  1  0.742600  0.272000  0.160000  1.0  0.1157
  H  H67  1  0.809000  0.094200  0.190500  1.0  0.0666
  H  H68  1  0.917000  0.668000  0.157700  1.0  0.4244
  H  H69  1  0.877000  0.609000  0.184000  1.0  0.3902
  H  H70  1  0.290900  0.464800  0.282800  1.0  0.106
  H  H71  1  0.479700  0.482900  0.431400  1.0  0.1027
  H  H72  1  0.492500  0.388400  0.366600  1.0  0.1037
  H  H73  1  0.281600  0.518600  0.433500  1.0  0.1203
  H  H74  1  0.278200  0.602400  0.505000  1.0  0.1038
  H  H75  1  0.458400  0.789100  0.532900  1.0  0.1014
  H  H76  1  0.462400  0.710100  0.461000  1.0  0.1326
  H  H77  1  0.434400  0.887200  0.228600  1.0  0.0835
  H  H78  1  0.374700  0.732100  0.261900  1.0  0.113
  H  H79  1  0.352000  0.798100  0.325300  1.0  0.064
  H  H80  1  0.393100  0.978800  0.363000  1.0  0.1052
  H  H81  1  0.441800  0.117300  0.327000  1.0  0.0644
  H  H82  1  0.199500  0.392600  0.077100  1.0  0.0909
  H  H83  1  0.124500  0.567500  0.043500  1.0  0.1235
  H  H84  1  0.141700  0.753500  0.090600  1.0  0.1108
  H  H85  1  0.242600  0.772000  0.160000  1.0  0.1157
  H  H86  1  0.309000  0.594200  0.190500  1.0  0.0666
  H  H87  1  0.417000  0.168000  0.157700  1.0  0.4244
  H  H88  1  0.377000  0.109000  0.184000  1.0  0.3902
  H  H89  1  0.790900  0.035200  0.782800  1.0  0.1059
  H  H90  1  0.979700  0.017100  0.931400  1.0  0.103
  H  H91  1  0.992500  0.111600  0.866600  1.0  0.1033
  H  H92  1  0.781600  0.981400  0.933500  1.0  0.1204
  H  H93  1  0.778200  0.897600  0.005000  1.0  0.1037
  H  H94  1  0.958400  0.710900  0.032900  1.0  0.1012
  H  H95  1  0.962400  0.789900  0.961000  1.0  0.1324
  H  H96  1  0.934400  0.612800  0.728600  1.0  0.0833
  H  H97  1  0.874700  0.767900  0.761900  1.0  0.1136
  H  H98  1  0.852000  0.701900  0.825300  1.0  0.0637
  H  H99  1  0.893100  0.521200  0.863000  1.0  0.1053
  H  H100  1  0.941800  0.382700  0.827000  1.0  0.0646
  H  H101  1  0.699500  0.107400  0.577100  1.0  0.0905
  H  H102  1  0.624500  0.932500  0.543500  1.0  0.1233
  H  H103  1  0.641700  0.746500  0.590600  1.0  0.1107
  H  H104  1  0.742600  0.728000  0.660000  1.0  0.1157
  H  H105  1  0.809000  0.905800  0.690500  1.0  0.0666
  H  H106  1  0.917000  0.332000  0.657700  1.0  0.4248
  H  H107  1  0.877000  0.391000  0.684000  1.0  0.3909
  H  H108  1  0.290900  0.535200  0.782800  1.0  0.1059
  H  H109  1  0.479700  0.517100  0.931400  1.0  0.103
  H  H110  1  0.492500  0.611600  0.866600  1.0  0.1033
  H  H111  1  0.281600  0.481400  0.933500  1.0  0.1204
  H  H112  1  0.278200  0.397600  0.005000  1.0  0.1037
  H  H113  1  0.458400  0.210900  0.032900  1.0  0.1012
  H  H114  1  0.462400  0.289900  0.961000  1.0  0.1324
  H  H115  1  0.434400  0.112800  0.728600  1.0  0.0833
  H  H116  1  0.374700  0.267900  0.761900  1.0  0.1136
  H  H117  1  0.352000  0.201900  0.825300  1.0  0.0637
  H  H118  1  0.393100  0.021200  0.863000  1.0  0.1053
  H  H119  1  0.441800  0.882700  0.827000  1.0  0.0646
  H  H120  1  0.199500  0.607400  0.577100  1.0  0.0905
  H  H121  1  0.124500  0.432500  0.543500  1.0  0.1233
  H  H122  1  0.141700  0.246500  0.590600  1.0  0.1107
  H  H123  1  0.242600  0.228000  0.660000  1.0  0.1157
  H  H124  1  0.309000  0.405800  0.690500  1.0  0.0666
  H  H125  1  0.417000  0.832000  0.657700  1.0  0.4248
  H  H126  1  0.377000  0.891000  0.684000  1.0  0.3909
  H  H127  1  0.209100  0.035200  0.717200  1.0  0.1061
  H  H128  1  0.020300  0.017100  0.568600  1.0  0.1023
  H  H129  1  0.007500  0.111600  0.633400  1.0  0.1026
  H  H130  1  0.218400  0.981400  0.566500  1.0  0.1199
  H  H131  1  0.221800  0.897600  0.495000  1.0  0.1037
  H  H132  1  0.041600  0.710900  0.467100  1.0  0.101
  H  H133  1  0.037600  0.789900  0.539000  1.0  0.1327
  H  H134  1  0.065600  0.612800  0.771400  1.0  0.0822
  H  H135  1  0.125300  0.767900  0.738100  1.0  0.1132
  H  H136  1  0.148000  0.701900  0.674700  1.0  0.0634
  H  H137  1  0.106900  0.521200  0.637000  1.0  0.106
  H  H138  1  0.058200  0.382700  0.673000  1.0  0.064
  H  H139  1  0.300500  0.107400  0.922900  1.0  0.0908
  H  H140  1  0.375500  0.932500  0.956500  1.0  0.1241
  H  H141  1  0.358300  0.746500  0.909400  1.0  0.1108
  H  H142  1  0.257400  0.728000  0.840000  1.0  0.1159
  H  H143  1  0.191000  0.905800  0.809500  1.0  0.0673
  H  H144  1  0.083000  0.332000  0.842300  1.0  0.4247
  H  H145  1  0.123000  0.391000  0.816000  1.0  0.391
  H  H146  1  0.709100  0.535200  0.717200  1.0  0.1061
  H  H147  1  0.520300  0.517100  0.568600  1.0  0.1023
  H  H148  1  0.507500  0.611600  0.633400  1.0  0.1026
  H  H149  1  0.718400  0.481400  0.566500  1.0  0.1199
  H  H150  1  0.721800  0.397600  0.495000  1.0  0.1037
  H  H151  1  0.541600  0.210900  0.467100  1.0  0.101
  H  H152  1  0.537600  0.289900  0.539000  1.0  0.1327
  H  H153  1  0.565600  0.112800  0.771400  1.0  0.0822
  H  H154  1  0.625300  0.267900  0.738100  1.0  0.1132
  H  H155  1  0.648000  0.201900  0.674700  1.0  0.0634
  H  H156  1  0.606900  0.021200  0.637000  1.0  0.106
  H  H157  1  0.558200  0.882700  0.673000  1.0  0.064
  H  H158  1  0.800500  0.607400  0.922900  1.0  0.0908
  H  H159  1  0.875500  0.432500  0.956500  1.0  0.1241
  H  H160  1  0.858300  0.246500  0.909400  1.0  0.1108
  H  H161  1  0.757400  0.228000  0.840000  1.0  0.1159
  H  H162  1  0.691000  0.405800  0.809500  1.0  0.0673
  H  H163  1  0.583000  0.832000  0.842300  1.0  0.4247
  H  H164  1  0.623000  0.891000  0.816000  1.0  0.391
  C  C165  1  0.100600  0.850600  0.225700  1.0  0.6896
  C  C166  1  0.107300  0.913300  0.183200  1.0  -0.1151
  C  C167  1  0.170400  0.969200  0.187100  1.0  -0.099
  C  C168  1  0.178600  0.031200  0.148500  1.0  -0.0525
  C  C169  1  0.249200  0.089600  0.157500  1.0  0.6751
  C  C170  1  0.120800  0.039400  0.102600  1.0  0.004
  C  C171  1  0.058800  0.981700  0.098800  1.0  -0.1235
  C  C172  1  0.051200  0.922900  0.137600  1.0  -0.0589
  C  C173  1  0.125500  0.101400  0.058900  1.0  0.0302
  C  C174  1  0.182100  0.071600  0.046400  1.0  -0.1111
  C  C175  1  0.184000  0.122200  0.003300  1.0  -0.0493
  C  C176  1  0.129900  0.202100  0.972300  1.0  -0.0932
  C  C177  1  0.128900  0.244700  0.923900  1.0  0.6703
  C  C178  1  0.077100  0.233600  0.986600  1.0  -0.0155
  C  C179  1  0.074100  0.185500  0.029900  1.0  -0.1493
  C  C180  1  0.072800  0.407400  0.243200  1.0  0.0458
  C  C181  1  0.111100  0.312500  0.224000  1.0  -0.1536
  C  C182  1  0.122400  0.351300  0.186700  1.0  -0.0537
  C  C183  1  0.101000  0.456000  0.165500  1.0  -0.1242
  C  C184  1  0.068500  0.535500  0.186500  1.0  0.1743
  C  C185  1  0.292500  0.969500  0.405700  1.0  0.1682
  C  C186  1  0.338300  0.073700  0.425800  1.0  -0.1443
  C  C187  1  0.326500  0.185600  0.398600  1.0  -0.1234
  C  C188  1  0.269400  0.194900  0.357000  1.0  -0.0746
  C  C189  1  0.228800  0.088400  0.340000  1.0  0.2107
  C  C190  1  0.600600  0.350600  0.225700  1.0  0.6896
  C  C191  1  0.607300  0.413300  0.183200  1.0  -0.1151
  C  C192  1  0.670400  0.469200  0.187100  1.0  -0.099
  C  C193  1  0.678600  0.531200  0.148500  1.0  -0.0525
  C  C194  1  0.749200  0.589600  0.157500  1.0  0.6751
  C  C195  1  0.620800  0.539400  0.102600  1.0  0.004
  C  C196  1  0.558800  0.481700  0.098800  1.0  -0.1235
  C  C197  1  0.551200  0.422900  0.137600  1.0  -0.0589
  C  C198  1  0.625500  0.601400  0.058900  1.0  0.0302
  C  C199  1  0.682100  0.571600  0.046400  1.0  -0.1111
  C  C200  1  0.684000  0.622200  0.003300  1.0  -0.0493
  C  C201  1  0.629900  0.702100  0.972300  1.0  -0.0932
  C  C202  1  0.628900  0.744700  0.923900  1.0  0.6703
  C  C203  1  0.577100  0.733600  0.986600  1.0  -0.0155
  C  C204  1  0.574100  0.685500  0.029900  1.0  -0.1493
  C  C205  1  0.572800  0.907400  0.243200  1.0  0.0458
  C  C206  1  0.611100  0.812500  0.224000  1.0  -0.1536
  C  C207  1  0.622400  0.851300  0.186700  1.0  -0.0537
  C  C208  1  0.601000  0.956000  0.165500  1.0  -0.1242
  C  C209  1  0.568500  0.035500  0.186500  1.0  0.1743
  C  C210  1  0.792500  0.469500  0.405700  1.0  0.1682
  C  C211  1  0.838300  0.573700  0.425800  1.0  -0.1443
  C  C212  1  0.826500  0.685600  0.398600  1.0  -0.1234
  C  C213  1  0.769400  0.694900  0.357000  1.0  -0.0746
  C  C214  1  0.728800  0.588400  0.340000  1.0  0.2107
  C  C215  1  0.899400  0.850600  0.274300  1.0  0.6914
  C  C216  1  0.892700  0.913300  0.316800  1.0  -0.1156
  C  C217  1  0.829600  0.969200  0.312900  1.0  -0.0988
  C  C218  1  0.821400  0.031200  0.351500  1.0  -0.0524
  C  C219  1  0.750800  0.089600  0.342500  1.0  0.6738
  C  C220  1  0.879200  0.039400  0.397400  1.0  0.0043
  C  C221  1  0.941200  0.981700  0.401200  1.0  -0.124
  C  C222  1  0.948800  0.922900  0.362400  1.0  -0.0585
  C  C223  1  0.874500  0.101400  0.441100  1.0  0.0313
  C  C224  1  0.817900  0.071600  0.453600  1.0  -0.1084
  C  C225  1  0.816000  0.122200  0.496700  1.0  -0.0474
  C  C226  1  0.870100  0.202100  0.527700  1.0  -0.0942
  C  C227  1  0.871100  0.244700  0.576100  1.0  0.6714
  C  C228  1  0.922900  0.233600  0.513400  1.0  -0.0172
  C  C229  1  0.925900  0.185500  0.470100  1.0  -0.1495
  C  C230  1  0.927200  0.407400  0.256800  1.0  0.0481
  C  C231  1  0.888900  0.312500  0.276000  1.0  -0.1543
  C  C232  1  0.877600  0.351300  0.313300  1.0  -0.0558
  C  C233  1  0.899000  0.456000  0.334500  1.0  -0.1226
  C  C234  1  0.931500  0.535500  0.313500  1.0  0.1749
  C  C235  1  0.707500  0.969500  0.094300  1.0  0.1684
  C  C236  1  0.661700  0.073700  0.074200  1.0  -0.1426
  C  C237  1  0.673500  0.185600  0.101400  1.0  -0.1226
  C  C238  1  0.730600  0.194900  0.143000  1.0  -0.0722
  C  C239  1  0.771200  0.088400  0.160000  1.0  0.2112
  C  C240  1  0.399400  0.350600  0.274300  1.0  0.6914
  C  C241  1  0.392700  0.413300  0.316800  1.0  -0.1156
  C  C242  1  0.329600  0.469200  0.312900  1.0  -0.0988
  C  C243  1  0.321400  0.531200  0.351500  1.0  -0.0524
  C  C244  1  0.250800  0.589600  0.342500  1.0  0.6738
  C  C245  1  0.379200  0.539400  0.397400  1.0  0.0043
  C  C246  1  0.441200  0.481700  0.401200  1.0  -0.124
  C  C247  1  0.448800  0.422900  0.362400  1.0  -0.0585
  C  C248  1  0.374500  0.601400  0.441100  1.0  0.0313
  C  C249  1  0.317900  0.571600  0.453600  1.0  -0.1084
  C  C250  1  0.316000  0.622200  0.496700  1.0  -0.0474
  C  C251  1  0.370100  0.702100  0.527700  1.0  -0.0942
  C  C252  1  0.371100  0.744700  0.576100  1.0  0.6714
  C  C253  1  0.422900  0.733600  0.513400  1.0  -0.0172
  C  C254  1  0.425900  0.685500  0.470100  1.0  -0.1495
  C  C255  1  0.427200  0.907400  0.256800  1.0  0.0481
  C  C256  1  0.388900  0.812500  0.276000  1.0  -0.1543
  C  C257  1  0.377600  0.851300  0.313300  1.0  -0.0558
  C  C258  1  0.399000  0.956000  0.334500  1.0  -0.1226
  C  C259  1  0.431500  0.035500  0.313500  1.0  0.1749
  C  C260  1  0.207500  0.469500  0.094300  1.0  0.1684
  C  C261  1  0.161700  0.573700  0.074200  1.0  -0.1426
  C  C262  1  0.173500  0.685600  0.101400  1.0  -0.1226
  C  C263  1  0.230600  0.694900  0.143000  1.0  -0.0722
  C  C264  1  0.271200  0.588400  0.160000  1.0  0.2112
  C  C265  1  0.899400  0.149400  0.774300  1.0  0.69
  C  C266  1  0.892700  0.086700  0.816800  1.0  -0.116
  C  C267  1  0.829600  0.030800  0.812900  1.0  -0.0985
  C  C268  1  0.821400  0.968800  0.851500  1.0  -0.0524
  C  C269  1  0.750800  0.910400  0.842500  1.0  0.6741
  C  C270  1  0.879200  0.960600  0.897400  1.0  0.0042
  C  C271  1  0.941200  0.018300  0.901200  1.0  -0.1238
  C  C272  1  0.948800  0.077100  0.862400  1.0  -0.0589
  C  C273  1  0.874500  0.898600  0.941100  1.0  0.0311
  C  C274  1  0.817900  0.928400  0.953600  1.0  -0.1097
  C  C275  1  0.816000  0.877800  0.996700  1.0  -0.0484
  C  C276  1  0.870100  0.797900  0.027700  1.0  -0.0945
  C  C277  1  0.871100  0.755300  0.076100  1.0  0.6708
  C  C278  1  0.922900  0.766400  0.013400  1.0  -0.0172
  C  C279  1  0.925900  0.814500  0.970100  1.0  -0.1491
  C  C280  1  0.927200  0.592600  0.756800  1.0  0.0481
  C  C281  1  0.888900  0.687500  0.776000  1.0  -0.1535
  C  C282  1  0.877600  0.648700  0.813300  1.0  -0.0545
  C  C283  1  0.899000  0.544000  0.834500  1.0  -0.1233
  C  C284  1  0.931500  0.464500  0.813500  1.0  0.1745
  C  C285  1  0.707500  0.030500  0.594300  1.0  0.1683
  C  C286  1  0.661700  0.926300  0.574200  1.0  -0.1421
  C  C287  1  0.673500  0.814400  0.601400  1.0  -0.1222
  C  C288  1  0.730600  0.805100  0.643000  1.0  -0.0712
  C  C289  1  0.771200  0.911600  0.660000  1.0  0.2119
  C  C290  1  0.399400  0.649400  0.774300  1.0  0.69
  C  C291  1  0.392700  0.586700  0.816800  1.0  -0.116
  C  C292  1  0.329600  0.530800  0.812900  1.0  -0.0985
  C  C293  1  0.321400  0.468800  0.851500  1.0  -0.0524
  C  C294  1  0.250800  0.410400  0.842500  1.0  0.6741
  C  C295  1  0.379200  0.460600  0.897400  1.0  0.0042
  C  C296  1  0.441200  0.518300  0.901200  1.0  -0.1238
  C  C297  1  0.448800  0.577100  0.862400  1.0  -0.0589
  C  C298  1  0.374500  0.398600  0.941100  1.0  0.0311
  C  C299  1  0.317900  0.428400  0.953600  1.0  -0.1097
  C  C300  1  0.316000  0.377800  0.996700  1.0  -0.0484
  C  C301  1  0.370100  0.297900  0.027700  1.0  -0.0945
  C  C302  1  0.371100  0.255300  0.076100  1.0  0.6708
  C  C303  1  0.422900  0.266400  0.013400  1.0  -0.0172
  C  C304  1  0.425900  0.314500  0.970100  1.0  -0.1491
  C  C305  1  0.427200  0.092600  0.756800  1.0  0.0481
  C  C306  1  0.388900  0.187500  0.776000  1.0  -0.1535
  C  C307  1  0.377600  0.148700  0.813300  1.0  -0.0545
  C  C308  1  0.399000  0.044000  0.834500  1.0  -0.1233
  C  C309  1  0.431500  0.964500  0.813500  1.0  0.1745
  C  C310  1  0.207500  0.530500  0.594300  1.0  0.1683
  C  C311  1  0.161700  0.426300  0.574200  1.0  -0.1421
  C  C312  1  0.173500  0.314400  0.601400  1.0  -0.1222
  C  C313  1  0.230600  0.305100  0.643000  1.0  -0.0712
  C  C314  1  0.271200  0.411600  0.660000  1.0  0.2119
  C  C315  1  0.100600  0.149400  0.725700  1.0  0.6892
  C  C316  1  0.107300  0.086700  0.683200  1.0  -0.1158
  C  C317  1  0.170400  0.030800  0.687100  1.0  -0.0992
  C  C318  1  0.178600  0.968800  0.648500  1.0  -0.0524
  C  C319  1  0.249200  0.910400  0.657500  1.0  0.6751
  C  C320  1  0.120800  0.960600  0.602600  1.0  0.0039
  C  C321  1  0.058800  0.018300  0.598800  1.0  -0.1235
  C  C322  1  0.051200  0.077100  0.637600  1.0  -0.0588
  C  C323  1  0.125500  0.898600  0.558900  1.0  0.0301
  C  C324  1  0.182100  0.928400  0.546400  1.0  -0.1097
  C  C325  1  0.184000  0.877800  0.503300  1.0  -0.0482
  C  C326  1  0.129900  0.797900  0.472300  1.0  -0.0936
  C  C327  1  0.128900  0.755300  0.423900  1.0  0.6695
  C  C328  1  0.077100  0.766400  0.486600  1.0  -0.0158
  C  C329  1  0.074100  0.814500  0.529900  1.0  -0.149
  C  C330  1  0.072800  0.592600  0.743200  1.0  0.0483
  C  C331  1  0.111100  0.687500  0.724000  1.0  -0.1533
  C  C332  1  0.122400  0.648700  0.686700  1.0  -0.0517
  C  C333  1  0.101000  0.544000  0.665500  1.0  -0.1242
  C  C334  1  0.068500  0.464500  0.686500  1.0  0.1741
  C  C335  1  0.292500  0.030500  0.905700  1.0  0.1691
  C  C336  1  0.338300  0.926300  0.925800  1.0  -0.1441
  C  C337  1  0.326500  0.814400  0.898600  1.0  -0.1221
  C  C338  1  0.269400  0.805100  0.857000  1.0  -0.0739
  C  C339  1  0.228800  0.911600  0.840000  1.0  0.2111
  C  C340  1  0.600600  0.649400  0.725700  1.0  0.6892
  C  C341  1  0.607300  0.586700  0.683200  1.0  -0.1158
  C  C342  1  0.670400  0.530800  0.687100  1.0  -0.0992
  C  C343  1  0.678600  0.468800  0.648500  1.0  -0.0524
  C  C344  1  0.749200  0.410400  0.657500  1.0  0.6751
  C  C345  1  0.620800  0.460600  0.602600  1.0  0.0039
  C  C346  1  0.558800  0.518300  0.598800  1.0  -0.1235
  C  C347  1  0.551200  0.577100  0.637600  1.0  -0.0588
  C  C348  1  0.625500  0.398600  0.558900  1.0  0.0301
  C  C349  1  0.682100  0.428400  0.546400  1.0  -0.1097
  C  C350  1  0.684000  0.377800  0.503300  1.0  -0.0482
  C  C351  1  0.629900  0.297900  0.472300  1.0  -0.0936
  C  C352  1  0.628900  0.255300  0.423900  1.0  0.6695
  C  C353  1  0.577100  0.266400  0.486600  1.0  -0.0158
  C  C354  1  0.574100  0.314500  0.529900  1.0  -0.149
  C  C355  1  0.572800  0.092600  0.743200  1.0  0.0483
  C  C356  1  0.611100  0.187500  0.724000  1.0  -0.1533
  C  C357  1  0.622400  0.148700  0.686700  1.0  -0.0517
  C  C358  1  0.601000  0.044000  0.665500  1.0  -0.1242
  C  C359  1  0.568500  0.964500  0.686500  1.0  0.1741
  C  C360  1  0.792500  0.530500  0.905700  1.0  0.1691
  C  C361  1  0.838300  0.426300  0.925800  1.0  -0.1441
  C  C362  1  0.826500  0.314400  0.898600  1.0  -0.1221
  C  C363  1  0.769400  0.305100  0.857000  1.0  -0.0739
  C  C364  1  0.728800  0.411600  0.840000  1.0  0.2111
  N  N365  1  0.050300  0.513700  0.222000  1.0  -0.2583
  N  N366  1  0.238500  0.979200  0.362800  1.0  -0.2811
  N  N367  1  0.550300  0.013700  0.222000  1.0  -0.2583
  N  N368  1  0.738500  0.479200  0.362800  1.0  -0.2811
  N  N369  1  0.949700  0.513700  0.278000  1.0  -0.2567
  N  N370  1  0.761500  0.979200  0.137200  1.0  -0.2809
  N  N371  1  0.449700  0.013700  0.278000  1.0  -0.2567
  N  N372  1  0.261500  0.479200  0.137200  1.0  -0.2809
  N  N373  1  0.949700  0.486300  0.778000  1.0  -0.2568
  N  N374  1  0.761500  0.020800  0.637200  1.0  -0.2815
  N  N375  1  0.449700  0.986300  0.778000  1.0  -0.2568
  N  N376  1  0.261500  0.520800  0.637200  1.0  -0.2815
  N  N377  1  0.050300  0.486300  0.722000  1.0  -0.2585
  N  N378  1  0.238500  0.020800  0.862800  1.0  -0.2802
  N  N379  1  0.550300  0.986300  0.722000  1.0  -0.2585
  N  N380  1  0.738500  0.520800  0.862800  1.0  -0.2802
  O  O381  1  0.040200  0.805300  0.219250  1.0  -0.6176
  O  O382  1  0.155200  0.844100  0.265130  1.0  -0.599
  O  O383  1  0.302200  0.017500  0.172800  1.0  -0.588
  O  O384  1  0.249600  0.208800  0.148930  1.0  -0.5864
  O  O385  1  0.085000  0.329200  0.901000  1.0  -0.5889
  O  O386  1  0.169400  0.187500  0.908380  1.0  -0.5915
  O  O387  1  0.090400  0.662300  0.315780  1.0  -0.812
  O  O388  1  0.540200  0.305300  0.219250  1.0  -0.6176
  O  O389  1  0.655200  0.344100  0.265130  1.0  -0.599
  O  O390  1  0.802200  0.517500  0.172800  1.0  -0.588
  O  O391  1  0.749600  0.708800  0.148930  1.0  -0.5864
  O  O392  1  0.585000  0.829200  0.901000  1.0  -0.5889
  O  O393  1  0.669400  0.687500  0.908380  1.0  -0.5915
  O  O394  1  0.590400  0.162300  0.315780  1.0  -0.812
  O  O395  1  0.959800  0.805300  0.280750  1.0  -0.6173
  O  O396  1  0.844800  0.844100  0.234870  1.0  -0.5984
  O  O397  1  0.697800  0.017500  0.327200  1.0  -0.5869
  O  O398  1  0.750400  0.208800  0.351070  1.0  -0.5872
  O  O399  1  0.915000  0.329200  0.599000  1.0  -0.5883
  O  O400  1  0.830600  0.187500  0.591620  1.0  -0.5909
  O  O401  1  0.909600  0.662300  0.184220  1.0  -0.8126
  O  O402  1  0.459800  0.305300  0.280750  1.0  -0.6173
  O  O403  1  0.344800  0.344100  0.234870  1.0  -0.5984
  O  O404  1  0.197800  0.517500  0.327200  1.0  -0.5869
  O  O405  1  0.250400  0.708800  0.351070  1.0  -0.5872
  O  O406  1  0.415000  0.829200  0.599000  1.0  -0.5883
  O  O407  1  0.330600  0.687500  0.591620  1.0  -0.5909
  O  O408  1  0.409600  0.162300  0.184220  1.0  -0.8126
  O  O409  1  0.959800  0.194700  0.780750  1.0  -0.618
  O  O410  1  0.844800  0.155900  0.734870  1.0  -0.5984
  O  O411  1  0.697800  0.982500  0.827200  1.0  -0.5868
  O  O412  1  0.750400  0.791200  0.851070  1.0  -0.5867
  O  O413  1  0.915000  0.670800  0.099000  1.0  -0.5874
  O  O414  1  0.830600  0.812500  0.091620  1.0  -0.5904
  O  O415  1  0.909600  0.337700  0.684220  1.0  -0.8122
  O  O416  1  0.459800  0.694700  0.780750  1.0  -0.618
  O  O417  1  0.344800  0.655900  0.734870  1.0  -0.5984
  O  O418  1  0.197800  0.482500  0.827200  1.0  -0.5868
  O  O419  1  0.250400  0.291200  0.851070  1.0  -0.5867
  O  O420  1  0.415000  0.170800  0.099000  1.0  -0.5874
  O  O421  1  0.330600  0.312500  0.091620  1.0  -0.5904
  O  O422  1  0.409600  0.837700  0.684220  1.0  -0.8122
  O  O423  1  0.040200  0.194700  0.719250  1.0  -0.6186
  O  O424  1  0.155200  0.155900  0.765130  1.0  -0.5986
  O  O425  1  0.302200  0.982500  0.672800  1.0  -0.5884
  O  O426  1  0.249600  0.791200  0.648930  1.0  -0.5863
  O  O427  1  0.085000  0.670800  0.401000  1.0  -0.5881
  O  O428  1  0.169400  0.812500  0.408380  1.0  -0.5916
  O  O429  1  0.090400  0.337700  0.815780  1.0  -0.8116
  O  O430  1  0.540200  0.694700  0.719250  1.0  -0.6186
  O  O431  1  0.655200  0.655900  0.765130  1.0  -0.5986
  O  O432  1  0.802200  0.482500  0.672800  1.0  -0.5884
  O  O433  1  0.749600  0.291200  0.648930  1.0  -0.5863
  O  O434  1  0.585000  0.170800  0.401000  1.0  -0.5881
  O  O435  1  0.669400  0.312500  0.408380  1.0  -0.5916
  O  O436  1  0.590400  0.837700  0.815780  1.0  -0.8116
