# generated using pymatgen
data_Eu2Mn3H18C42(NO4)6
_symmetry_space_group_name_H-M   'P 1'
_cell_length_a   15.28800000
_cell_length_b   15.28800000
_cell_length_c   15.66300000
_cell_angle_alpha   90.00000000
_cell_angle_beta   90.00000000
_cell_angle_gamma   120.00000000
_symmetry_Int_Tables_number   1
_chemical_formula_structural   Eu2Mn3H18C42(NO4)6
_chemical_formula_sum   'Eu4 Mn6 H36 C84 N12 O48'
_cell_volume   3170.34793888
_cell_formula_units_Z   2
loop_
 _symmetry_equiv_pos_site_id
 _symmetry_equiv_pos_as_xyz
  1  'x, y, z'
loop_
 _atom_site_type_symbol
 _atom_site_label
 _atom_site_symmetry_multiplicity
 _atom_site_fract_x
 _atom_site_fract_y
 _atom_site_fract_z
 _atom_site_occupancy
 _atom_site_charge
  Eu  Eu1  1  0.666667  0.333333  0.750000  1.0  1.9597
  Eu  Eu2  1  0.333333  0.666667  0.750000  1.0  1.9597
  Eu  Eu3  1  0.333333  0.666667  0.250000  1.0  1.9597
  Eu  Eu4  1  0.666667  0.333333  0.250000  1.0  1.9597
  Mn  Mn5  1  0.500000  0.500000  0.000000  1.0  1.2344
  Mn  Mn6  1  0.000000  0.500000  0.000000  1.0  1.2344
  Mn  Mn7  1  0.500000  0.000000  0.000000  1.0  1.2344
  Mn  Mn8  1  0.000000  0.500000  0.500000  1.0  1.2344
  Mn  Mn9  1  0.500000  0.500000  0.500000  1.0  1.2344
  Mn  Mn10  1  0.500000  0.000000  0.500000  1.0  1.2344
  H  H11  1  0.288600  0.056100  0.842900  1.0  0.1111
  H  H12  1  0.767500  0.711400  0.842900  1.0  0.1114
  H  H13  1  0.943900  0.232500  0.842900  1.0  0.1109
  H  H14  1  0.711400  0.943900  0.842900  1.0  0.1108
  H  H15  1  0.232500  0.288600  0.842900  1.0  0.1114
  H  H16  1  0.056100  0.767500  0.842900  1.0  0.1114
  H  H17  1  0.232500  0.943900  0.657100  1.0  0.1104
  H  H18  1  0.056100  0.288600  0.657100  1.0  0.1108
  H  H19  1  0.711400  0.767500  0.657100  1.0  0.1103
  H  H20  1  0.767500  0.056100  0.657100  1.0  0.11
  H  H21  1  0.943900  0.711400  0.657100  1.0  0.1109
  H  H22  1  0.288600  0.232500  0.657100  1.0  0.1106
  H  H23  1  0.711400  0.943900  0.157100  1.0  0.1106
  H  H24  1  0.232500  0.288600  0.157100  1.0  0.1111
  H  H25  1  0.056100  0.767500  0.157100  1.0  0.1109
  H  H26  1  0.288600  0.056100  0.157100  1.0  0.1105
  H  H27  1  0.767500  0.711400  0.157100  1.0  0.1112
  H  H28  1  0.943900  0.232500  0.157100  1.0  0.1104
  H  H29  1  0.767500  0.056100  0.342900  1.0  0.1103
  H  H30  1  0.943900  0.711400  0.342900  1.0  0.111
  H  H31  1  0.288600  0.232500  0.342900  1.0  0.1109
  H  H32  1  0.232500  0.943900  0.342900  1.0  0.1107
  H  H33  1  0.056100  0.288600  0.342900  1.0  0.1111
  H  H34  1  0.711400  0.767500  0.342900  1.0  0.1107
  H  H35  1  0.201000  0.100500  0.750000  1.0  0.093
  H  H36  1  0.899500  0.799000  0.750000  1.0  0.0902
  H  H37  1  0.899500  0.100500  0.750000  1.0  0.0929
  H  H38  1  0.799000  0.899500  0.750000  1.0  0.0927
  H  H39  1  0.100500  0.201000  0.750000  1.0  0.09
  H  H40  1  0.100500  0.899500  0.750000  1.0  0.0929
  H  H41  1  0.799000  0.899500  0.250000  1.0  0.0927
  H  H42  1  0.100500  0.201000  0.250000  1.0  0.09
  H  H43  1  0.100500  0.899500  0.250000  1.0  0.0929
  H  H44  1  0.201000  0.100500  0.250000  1.0  0.093
  H  H45  1  0.899500  0.799000  0.250000  1.0  0.0902
  H  H46  1  0.899500  0.100500  0.250000  1.0  0.0929
  C  C47  1  0.426100  0.162300  0.803300  1.0  0.1439
  C  C48  1  0.322900  0.109300  0.804900  1.0  -0.1074
  C  C49  1  0.490500  0.351700  0.640000  1.0  0.6689
  C  C50  1  0.736200  0.573900  0.803300  1.0  0.1433
  C  C51  1  0.786400  0.677100  0.804900  1.0  -0.1062
  C  C52  1  0.861200  0.509500  0.640000  1.0  0.6665
  C  C53  1  0.837700  0.263800  0.803300  1.0  0.143
  C  C54  1  0.890700  0.213600  0.804900  1.0  -0.1073
  C  C55  1  0.648300  0.138800  0.640000  1.0  0.6685
  C  C56  1  0.573900  0.837700  0.803300  1.0  0.1435
  C  C57  1  0.677100  0.890700  0.804900  1.0  -0.1076
  C  C58  1  0.509500  0.648300  0.640000  1.0  0.6682
  C  C59  1  0.263800  0.426100  0.803300  1.0  0.1428
  C  C60  1  0.213600  0.322900  0.804900  1.0  -0.1058
  C  C61  1  0.138800  0.490500  0.640000  1.0  0.6679
  C  C62  1  0.162300  0.736200  0.803300  1.0  0.143
  C  C63  1  0.109300  0.786400  0.804900  1.0  -0.1066
  C  C64  1  0.351700  0.861200  0.640000  1.0  0.6678
  C  C65  1  0.263800  0.837700  0.696700  1.0  0.1444
  C  C66  1  0.213600  0.890700  0.695100  1.0  -0.1076
  C  C67  1  0.138800  0.648300  0.860000  1.0  0.6675
  C  C68  1  0.162300  0.426100  0.696700  1.0  0.1439
  C  C69  1  0.109300  0.322900  0.695100  1.0  -0.1062
  C  C70  1  0.351700  0.490500  0.860000  1.0  0.6663
  C  C71  1  0.573900  0.736200  0.696700  1.0  0.1434
  C  C72  1  0.677100  0.786400  0.695100  1.0  -0.1085
  C  C73  1  0.509500  0.861200  0.860000  1.0  0.6673
  C  C74  1  0.736200  0.162300  0.696700  1.0  0.1441
  C  C75  1  0.786400  0.109300  0.695100  1.0  -0.1087
  C  C76  1  0.861200  0.351700  0.860000  1.0  0.667
  C  C77  1  0.837700  0.573900  0.696700  1.0  0.1433
  C  C78  1  0.890700  0.677100  0.695100  1.0  -0.1069
  C  C79  1  0.648300  0.509500  0.860000  1.0  0.6667
  C  C80  1  0.426100  0.263800  0.696700  1.0  0.1432
  C  C81  1  0.322900  0.213600  0.695100  1.0  -0.1075
  C  C82  1  0.490500  0.138800  0.860000  1.0  0.6673
  C  C83  1  0.573900  0.837700  0.196700  1.0  0.1439
  C  C84  1  0.677100  0.890700  0.195100  1.0  -0.1076
  C  C85  1  0.509500  0.648300  0.360000  1.0  0.6673
  C  C86  1  0.263800  0.426100  0.196700  1.0  0.1435
  C  C87  1  0.213600  0.322900  0.195100  1.0  -0.1056
  C  C88  1  0.138800  0.490500  0.360000  1.0  0.6665
  C  C89  1  0.162300  0.736200  0.196700  1.0  0.1428
  C  C90  1  0.109300  0.786400  0.195100  1.0  -0.1062
  C  C91  1  0.351700  0.861200  0.360000  1.0  0.6673
  C  C92  1  0.426100  0.162300  0.196700  1.0  0.1444
  C  C93  1  0.322900  0.109300  0.195100  1.0  -0.1066
  C  C94  1  0.490500  0.351700  0.360000  1.0  0.6671
  C  C95  1  0.736200  0.573900  0.196700  1.0  0.1431
  C  C96  1  0.786400  0.677100  0.195100  1.0  -0.1053
  C  C97  1  0.861200  0.509500  0.360000  1.0  0.6665
  C  C98  1  0.837700  0.263800  0.196700  1.0  0.1436
  C  C99  1  0.890700  0.213600  0.195100  1.0  -0.1077
  C  C100  1  0.648300  0.138800  0.360000  1.0  0.6674
  C  C101  1  0.736200  0.162300  0.303300  1.0  0.1438
  C  C102  1  0.786400  0.109300  0.304900  1.0  -0.1084
  C  C103  1  0.861200  0.351700  0.140000  1.0  0.6691
  C  C104  1  0.837700  0.573900  0.303300  1.0  0.1436
  C  C105  1  0.890700  0.677100  0.304900  1.0  -0.1073
  C  C106  1  0.648300  0.509500  0.140000  1.0  0.6674
  C  C107  1  0.426100  0.263800  0.303300  1.0  0.1426
  C  C108  1  0.322900  0.213600  0.304900  1.0  -0.108
  C  C109  1  0.490500  0.138800  0.140000  1.0  0.6676
  C  C110  1  0.263800  0.837700  0.303300  1.0  0.1441
  C  C111  1  0.213600  0.890700  0.304900  1.0  -0.1088
  C  C112  1  0.138800  0.648300  0.140000  1.0  0.6683
  C  C113  1  0.162300  0.426100  0.303300  1.0  0.1433
  C  C114  1  0.109300  0.322900  0.304900  1.0  -0.1068
  C  C115  1  0.351700  0.490500  0.140000  1.0  0.6672
  C  C116  1  0.573900  0.736200  0.303300  1.0  0.1438
  C  C117  1  0.677100  0.786400  0.304900  1.0  -0.1081
  C  C118  1  0.509500  0.861200  0.140000  1.0  0.6685
  C  C119  1  0.271200  0.135600  0.750000  1.0  -0.0334
  C  C120  1  0.864400  0.728800  0.750000  1.0  -0.0316
  C  C121  1  0.864400  0.135600  0.750000  1.0  -0.0338
  C  C122  1  0.728800  0.864400  0.750000  1.0  -0.0342
  C  C123  1  0.135600  0.271200  0.750000  1.0  -0.0312
  C  C124  1  0.135600  0.864400  0.750000  1.0  -0.0336
  C  C125  1  0.728800  0.864400  0.250000  1.0  -0.0342
  C  C126  1  0.135600  0.271200  0.250000  1.0  -0.0312
  C  C127  1  0.135600  0.864400  0.250000  1.0  -0.0336
  C  C128  1  0.271200  0.135600  0.250000  1.0  -0.0334
  C  C129  1  0.864400  0.728800  0.250000  1.0  -0.0316
  C  C130  1  0.864400  0.135600  0.250000  1.0  -0.0338
  N  N131  1  0.477560  0.238780  0.750000  1.0  -0.3628
  N  N132  1  0.761220  0.522440  0.750000  1.0  -0.363
  N  N133  1  0.761220  0.238780  0.750000  1.0  -0.3639
  N  N134  1  0.522440  0.761220  0.750000  1.0  -0.3635
  N  N135  1  0.238780  0.477560  0.750000  1.0  -0.3654
  N  N136  1  0.238780  0.761220  0.750000  1.0  -0.3618
  N  N137  1  0.522440  0.761220  0.250000  1.0  -0.3635
  N  N138  1  0.238780  0.477560  0.250000  1.0  -0.3654
  N  N139  1  0.238780  0.761220  0.250000  1.0  -0.3618
  N  N140  1  0.477560  0.238780  0.250000  1.0  -0.3628
  N  N141  1  0.761220  0.522440  0.250000  1.0  -0.363
  N  N142  1  0.761220  0.238780  0.250000  1.0  -0.3639
  O  O143  1  0.585400  0.386600  0.643650  1.0  -0.6687
  O  O144  1  0.615700  0.552400  0.093800  1.0  -0.6294
  O  O145  1  0.801200  0.414600  0.643650  1.0  -0.6673
  O  O146  1  0.936700  0.384300  0.093800  1.0  -0.6321
  O  O147  1  0.613400  0.198800  0.643650  1.0  -0.6673
  O  O148  1  0.447600  0.063300  0.093800  1.0  -0.6286
  O  O149  1  0.414600  0.613400  0.643650  1.0  -0.6674
  O  O150  1  0.384300  0.447600  0.093800  1.0  -0.6314
  O  O151  1  0.198800  0.585400  0.643650  1.0  -0.6676
  O  O152  1  0.063300  0.615700  0.093800  1.0  -0.6292
  O  O153  1  0.386600  0.801200  0.643650  1.0  -0.6687
  O  O154  1  0.552400  0.936700  0.093800  1.0  -0.6299
  O  O155  1  0.198800  0.613400  0.856350  1.0  -0.6676
  O  O156  1  0.063300  0.447600  0.406200  1.0  -0.6291
  O  O157  1  0.386600  0.585400  0.856350  1.0  -0.6672
  O  O158  1  0.552400  0.615700  0.406200  1.0  -0.6314
  O  O159  1  0.414600  0.801200  0.856350  1.0  -0.667
  O  O160  1  0.384300  0.936700  0.406200  1.0  -0.6292
  O  O161  1  0.801200  0.386600  0.856350  1.0  -0.6681
  O  O162  1  0.936700  0.552400  0.406200  1.0  -0.6311
  O  O163  1  0.613400  0.414600  0.856350  1.0  -0.6671
  O  O164  1  0.447600  0.384300  0.406200  1.0  -0.6299
  O  O165  1  0.585400  0.198800  0.856350  1.0  -0.6678
  O  O166  1  0.615700  0.063300  0.406200  1.0  -0.6287
  O  O167  1  0.414600  0.613400  0.356350  1.0  -0.6667
  O  O168  1  0.384300  0.447600  0.906200  1.0  -0.6311
  O  O169  1  0.198800  0.585400  0.356350  1.0  -0.6677
  O  O170  1  0.063300  0.615700  0.906200  1.0  -0.6299
  O  O171  1  0.386600  0.801200  0.356350  1.0  -0.6679
  O  O172  1  0.552400  0.936700  0.906200  1.0  -0.629
  O  O173  1  0.585400  0.386600  0.356350  1.0  -0.6684
  O  O174  1  0.615700  0.552400  0.906200  1.0  -0.6292
  O  O175  1  0.801200  0.414600  0.356350  1.0  -0.6668
  O  O176  1  0.936700  0.384300  0.906200  1.0  -0.6316
  O  O177  1  0.613400  0.198800  0.356350  1.0  -0.667
  O  O178  1  0.447600  0.063300  0.906200  1.0  -0.6293
  O  O179  1  0.801200  0.386600  0.143650  1.0  -0.668
  O  O180  1  0.936700  0.552400  0.593800  1.0  -0.6318
  O  O181  1  0.613400  0.414600  0.143650  1.0  -0.6674
  O  O182  1  0.447600  0.384300  0.593800  1.0  -0.6299
  O  O183  1  0.585400  0.198800  0.143650  1.0  -0.6684
  O  O184  1  0.615700  0.063300  0.593800  1.0  -0.6285
  O  O185  1  0.198800  0.613400  0.143650  1.0  -0.6683
  O  O186  1  0.063300  0.447600  0.593800  1.0  -0.6287
  O  O187  1  0.386600  0.585400  0.143650  1.0  -0.6675
  O  O188  1  0.552400  0.615700  0.593800  1.0  -0.631
  O  O189  1  0.414600  0.801200  0.143650  1.0  -0.6677
  O  O190  1  0.384300  0.936700  0.593800  1.0  -0.6302
