# generated using pymatgen
data_Tb2Mn3H18C42(NO4)6
_symmetry_space_group_name_H-M   'P 1'
_cell_length_a   15.35100000
_cell_length_b   15.35100000
_cell_length_c   15.81200000
_cell_angle_alpha   90.00000000
_cell_angle_beta   90.00000000
_cell_angle_gamma   120.00000000
_symmetry_Int_Tables_number   1
_chemical_formula_structural   Tb2Mn3H18C42(NO4)6
_chemical_formula_sum   'Tb4 Mn6 H36 C84 N12 O48'
_cell_volume   3226.93918498
_cell_formula_units_Z   2
loop_
 _symmetry_equiv_pos_site_id
 _symmetry_equiv_pos_as_xyz
  1  'x, y, z'
loop_
 _atom_site_type_symbol
 _atom_site_label
 _atom_site_symmetry_multiplicity
 _atom_site_fract_x
 _atom_site_fract_y
 _atom_site_fract_z
 _atom_site_occupancy
 _atom_site_charge
  Tb  Tb1  1  0.333333  0.666667  0.750000  1.0  2.1118
  Tb  Tb2  1  0.666667  0.333333  0.750000  1.0  2.1118
  Tb  Tb3  1  0.666667  0.333333  0.250000  1.0  2.1118
  Tb  Tb4  1  0.333333  0.666667  0.250000  1.0  2.1118
  Mn  Mn5  1  0.500000  0.000000  0.000000  1.0  1.3549
  Mn  Mn6  1  0.500000  0.500000  0.000000  1.0  1.3549
  Mn  Mn7  1  0.000000  0.500000  0.000000  1.0  1.3549
  Mn  Mn8  1  0.500000  0.000000  0.500000  1.0  1.3549
  Mn  Mn9  1  0.000000  0.500000  0.500000  1.0  1.3549
  Mn  Mn10  1  0.500000  0.500000  0.500000  1.0  1.3549
  H  H11  1  0.708700  0.942200  0.843800  1.0  0.106
  H  H12  1  0.233500  0.291300  0.843800  1.0  0.1069
  H  H13  1  0.057800  0.766500  0.843800  1.0  0.1069
  H  H14  1  0.291300  0.057800  0.843800  1.0  0.1065
  H  H15  1  0.766500  0.708700  0.843800  1.0  0.1069
  H  H16  1  0.942200  0.233500  0.843800  1.0  0.1067
  H  H17  1  0.766500  0.057800  0.656200  1.0  0.1055
  H  H18  1  0.942200  0.708700  0.656200  1.0  0.1065
  H  H19  1  0.291300  0.233500  0.656200  1.0  0.1062
  H  H20  1  0.233500  0.942200  0.656200  1.0  0.1058
  H  H21  1  0.057800  0.291300  0.656200  1.0  0.1062
  H  H22  1  0.708700  0.766500  0.656200  1.0  0.1064
  H  H23  1  0.291300  0.057800  0.156200  1.0  0.1057
  H  H24  1  0.766500  0.708700  0.156200  1.0  0.1065
  H  H25  1  0.942200  0.233500  0.156200  1.0  0.1061
  H  H26  1  0.708700  0.942200  0.156200  1.0  0.1056
  H  H27  1  0.233500  0.291300  0.156200  1.0  0.1064
  H  H28  1  0.057800  0.766500  0.156200  1.0  0.1064
  H  H29  1  0.233500  0.942200  0.343800  1.0  0.1063
  H  H30  1  0.057800  0.291300  0.343800  1.0  0.1068
  H  H31  1  0.708700  0.766500  0.343800  1.0  0.1068
  H  H32  1  0.766500  0.057800  0.343800  1.0  0.1062
  H  H33  1  0.942200  0.708700  0.343800  1.0  0.1069
  H  H34  1  0.291300  0.233500  0.343800  1.0  0.1068
  H  H35  1  0.797500  0.898750  0.750000  1.0  0.0901
  H  H36  1  0.101250  0.202500  0.750000  1.0  0.0873
  H  H37  1  0.101250  0.898750  0.750000  1.0  0.0901
  H  H38  1  0.202500  0.101250  0.750000  1.0  0.09
  H  H39  1  0.898750  0.797500  0.750000  1.0  0.0878
  H  H40  1  0.898750  0.101250  0.750000  1.0  0.0902
  H  H41  1  0.202500  0.101250  0.250000  1.0  0.09
  H  H42  1  0.898750  0.797500  0.250000  1.0  0.0878
  H  H43  1  0.898750  0.101250  0.250000  1.0  0.0902
  H  H44  1  0.797500  0.898750  0.250000  1.0  0.0901
  H  H45  1  0.101250  0.202500  0.250000  1.0  0.0873
  H  H46  1  0.101250  0.898750  0.250000  1.0  0.0901
  C  C47  1  0.506150  0.858800  0.860010  1.0  0.643
  C  C48  1  0.572500  0.837940  0.802610  1.0  0.1136
  C  C49  1  0.674870  0.890000  0.805360  1.0  -0.1103
  C  C50  1  0.352650  0.493850  0.860010  1.0  0.6443
  C  C51  1  0.265440  0.427500  0.802610  1.0  0.1125
  C  C52  1  0.215130  0.325130  0.805360  1.0  -0.11
  C  C53  1  0.141200  0.647350  0.860010  1.0  0.6455
  C  C54  1  0.162060  0.734560  0.802610  1.0  0.1115
  C  C55  1  0.110000  0.784870  0.805360  1.0  -0.1101
  C  C56  1  0.493850  0.141200  0.860010  1.0  0.6444
  C  C57  1  0.427500  0.162060  0.802610  1.0  0.1139
  C  C58  1  0.325130  0.110000  0.805360  1.0  -0.1107
  C  C59  1  0.647350  0.506150  0.860010  1.0  0.644
  C  C60  1  0.734560  0.572500  0.802610  1.0  0.1134
  C  C61  1  0.784870  0.674870  0.805360  1.0  -0.1099
  C  C62  1  0.858800  0.352650  0.860010  1.0  0.6451
  C  C63  1  0.837940  0.265440  0.802610  1.0  0.1111
  C  C64  1  0.890000  0.215130  0.805360  1.0  -0.1105
  C  C65  1  0.647350  0.141200  0.639990  1.0  0.6447
  C  C66  1  0.734560  0.162060  0.697390  1.0  0.1133
  C  C67  1  0.784870  0.110000  0.694640  1.0  -0.1101
  C  C68  1  0.858800  0.506150  0.639990  1.0  0.6446
  C  C69  1  0.837940  0.572500  0.697390  1.0  0.1122
  C  C70  1  0.890000  0.674870  0.694640  1.0  -0.1093
  C  C71  1  0.493850  0.352650  0.639990  1.0  0.6467
  C  C72  1  0.427500  0.265440  0.697390  1.0  0.111
  C  C73  1  0.325130  0.215130  0.694640  1.0  -0.1087
  C  C74  1  0.352650  0.858800  0.639990  1.0  0.645
  C  C75  1  0.265440  0.837940  0.697390  1.0  0.1131
  C  C76  1  0.215130  0.890000  0.694640  1.0  -0.1088
  C  C77  1  0.141200  0.493850  0.639990  1.0  0.6458
  C  C78  1  0.162060  0.427500  0.697390  1.0  0.113
  C  C79  1  0.110000  0.325130  0.694640  1.0  -0.1088
  C  C80  1  0.506150  0.647350  0.639990  1.0  0.6465
  C  C81  1  0.572500  0.734560  0.697390  1.0  0.1105
  C  C82  1  0.674870  0.784870  0.694640  1.0  -0.1105
  C  C83  1  0.493850  0.141200  0.139990  1.0  0.6449
  C  C84  1  0.427500  0.162060  0.197390  1.0  0.1139
  C  C85  1  0.325130  0.110000  0.194640  1.0  -0.1085
  C  C86  1  0.647350  0.506150  0.139990  1.0  0.6453
  C  C87  1  0.734560  0.572500  0.197390  1.0  0.1129
  C  C88  1  0.784870  0.674870  0.194640  1.0  -0.1082
  C  C89  1  0.858800  0.352650  0.139990  1.0  0.6468
  C  C90  1  0.837940  0.265440  0.197390  1.0  0.1117
  C  C91  1  0.890000  0.215130  0.194640  1.0  -0.1105
  C  C92  1  0.506150  0.858800  0.139990  1.0  0.6449
  C  C93  1  0.572500  0.837940  0.197390  1.0  0.1137
  C  C94  1  0.674870  0.890000  0.194640  1.0  -0.1093
  C  C95  1  0.352650  0.493850  0.139990  1.0  0.6451
  C  C96  1  0.265440  0.427500  0.197390  1.0  0.1131
  C  C97  1  0.215130  0.325130  0.194640  1.0  -0.109
  C  C98  1  0.141200  0.647350  0.139990  1.0  0.6464
  C  C99  1  0.162060  0.734560  0.197390  1.0  0.1111
  C  C100  1  0.110000  0.784870  0.194640  1.0  -0.1079
  C  C101  1  0.352650  0.858800  0.360010  1.0  0.6444
  C  C102  1  0.265440  0.837940  0.302610  1.0  0.113
  C  C103  1  0.215130  0.890000  0.305360  1.0  -0.1111
  C  C104  1  0.141200  0.493850  0.360010  1.0  0.6441
  C  C105  1  0.162060  0.427500  0.302610  1.0  0.1125
  C  C106  1  0.110000  0.325130  0.305360  1.0  -0.1107
  C  C107  1  0.506150  0.647350  0.360010  1.0  0.6455
  C  C108  1  0.572500  0.734560  0.302610  1.0  0.111
  C  C109  1  0.674870  0.784870  0.305360  1.0  -0.1111
  C  C110  1  0.647350  0.141200  0.360010  1.0  0.643
  C  C111  1  0.734560  0.162060  0.302610  1.0  0.1133
  C  C112  1  0.784870  0.110000  0.305360  1.0  -0.1112
  C  C113  1  0.858800  0.506150  0.360010  1.0  0.644
  C  C114  1  0.837940  0.572500  0.302610  1.0  0.1126
  C  C115  1  0.890000  0.674870  0.305360  1.0  -0.1104
  C  C116  1  0.493850  0.352650  0.360010  1.0  0.6451
  C  C117  1  0.427500  0.265440  0.302610  1.0  0.1103
  C  C118  1  0.325130  0.215130  0.305360  1.0  -0.1106
  C  C119  1  0.727560  0.863780  0.750000  1.0  -0.0374
  C  C120  1  0.136220  0.272440  0.750000  1.0  -0.0348
  C  C121  1  0.136220  0.863780  0.750000  1.0  -0.0368
  C  C122  1  0.272440  0.136220  0.750000  1.0  -0.0369
  C  C123  1  0.863780  0.727560  0.750000  1.0  -0.0348
  C  C124  1  0.863780  0.136220  0.750000  1.0  -0.0378
  C  C125  1  0.272440  0.136220  0.250000  1.0  -0.0369
  C  C126  1  0.863780  0.727560  0.250000  1.0  -0.0348
  C  C127  1  0.863780  0.136220  0.250000  1.0  -0.0378
  C  C128  1  0.727560  0.863780  0.250000  1.0  -0.0374
  C  C129  1  0.136220  0.272440  0.250000  1.0  -0.0348
  C  C130  1  0.136220  0.863780  0.250000  1.0  -0.0368
  N  N131  1  0.520770  0.760390  0.750000  1.0  -0.3719
  N  N132  1  0.239620  0.479240  0.750000  1.0  -0.3757
  N  N133  1  0.239620  0.760390  0.750000  1.0  -0.3718
  N  N134  1  0.479230  0.239610  0.750000  1.0  -0.3722
  N  N135  1  0.760380  0.520760  0.750000  1.0  -0.3742
  N  N136  1  0.760380  0.239610  0.750000  1.0  -0.3721
  N  N137  1  0.479230  0.239610  0.250000  1.0  -0.3723
  N  N138  1  0.760380  0.520760  0.250000  1.0  -0.3742
  N  N139  1  0.760380  0.239610  0.250000  1.0  -0.3721
  N  N140  1  0.520770  0.760390  0.250000  1.0  -0.3719
  N  N141  1  0.239620  0.479240  0.250000  1.0  -0.3757
  N  N142  1  0.239620  0.760390  0.250000  1.0  -0.3718
  O  O143  1  0.550780  0.935000  0.906690  1.0  -0.6407
  O  O144  1  0.412800  0.800380  0.855420  1.0  -0.6427
  O  O145  1  0.384220  0.449220  0.906690  1.0  -0.642
  O  O146  1  0.387580  0.587200  0.855420  1.0  -0.6424
  O  O147  1  0.065000  0.615780  0.906690  1.0  -0.6416
  O  O148  1  0.199620  0.612420  0.855420  1.0  -0.643
  O  O149  1  0.449220  0.065000  0.906690  1.0  -0.6408
  O  O150  1  0.587200  0.199620  0.855420  1.0  -0.6437
  O  O151  1  0.615780  0.550780  0.906690  1.0  -0.6411
  O  O152  1  0.612420  0.412800  0.855420  1.0  -0.6417
  O  O153  1  0.935000  0.384220  0.906690  1.0  -0.6426
  O  O154  1  0.800380  0.387580  0.855420  1.0  -0.6425
  O  O155  1  0.615780  0.065000  0.593310  1.0  -0.6409
  O  O156  1  0.612420  0.199620  0.644580  1.0  -0.6427
  O  O157  1  0.935000  0.550780  0.593310  1.0  -0.6428
  O  O158  1  0.800380  0.412800  0.644580  1.0  -0.6418
  O  O159  1  0.449220  0.384220  0.593310  1.0  -0.6423
  O  O160  1  0.587200  0.387580  0.644580  1.0  -0.6435
  O  O161  1  0.384220  0.935000  0.593310  1.0  -0.6418
  O  O162  1  0.387580  0.800380  0.644580  1.0  -0.6435
  O  O163  1  0.065000  0.449220  0.593310  1.0  -0.6415
  O  O164  1  0.199620  0.587200  0.644580  1.0  -0.6428
  O  O165  1  0.550780  0.615780  0.593310  1.0  -0.6432
  O  O166  1  0.412800  0.612420  0.644580  1.0  -0.6423
  O  O167  1  0.449220  0.065000  0.093310  1.0  -0.6409
  O  O168  1  0.587200  0.199620  0.144580  1.0  -0.6438
  O  O169  1  0.615780  0.550780  0.093310  1.0  -0.6419
  O  O170  1  0.612420  0.412800  0.144580  1.0  -0.6419
  O  O171  1  0.935000  0.384220  0.093310  1.0  -0.6435
  O  O172  1  0.800380  0.387580  0.144580  1.0  -0.6424
  O  O173  1  0.550780  0.935000  0.093310  1.0  -0.6421
  O  O174  1  0.412800  0.800380  0.144580  1.0  -0.6428
  O  O175  1  0.384220  0.449220  0.093310  1.0  -0.6424
  O  O176  1  0.387580  0.587200  0.144580  1.0  -0.6425
  O  O177  1  0.065000  0.615780  0.093310  1.0  -0.6425
  O  O178  1  0.199620  0.612420  0.144580  1.0  -0.6433
  O  O179  1  0.384220  0.935000  0.406690  1.0  -0.6404
  O  O180  1  0.387580  0.800380  0.355420  1.0  -0.6435
  O  O181  1  0.065000  0.449220  0.406690  1.0  -0.641
  O  O182  1  0.199620  0.587200  0.355420  1.0  -0.643
  O  O183  1  0.550780  0.615780  0.406690  1.0  -0.6427
  O  O184  1  0.412800  0.612420  0.355420  1.0  -0.642
  O  O185  1  0.615780  0.065000  0.406690  1.0  -0.6408
  O  O186  1  0.612420  0.199620  0.355420  1.0  -0.6429
  O  O187  1  0.935000  0.550780  0.406690  1.0  -0.642
  O  O188  1  0.800380  0.412800  0.355420  1.0  -0.6414
  O  O189  1  0.449220  0.384220  0.406690  1.0  -0.6417
  O  O190  1  0.587200  0.387580  0.355420  1.0  -0.6435
