# generated using pymatgen
data_Co3H36C60N6O19
_symmetry_space_group_name_H-M   'P 1'
_cell_length_a   13.87730000
_cell_length_b   21.60800000
_cell_length_c   34.92210000
_cell_angle_alpha   90.00000000
_cell_angle_beta   96.23600000
_cell_angle_gamma   90.00000000
_symmetry_Int_Tables_number   1
_chemical_formula_structural   Co3H36C60N6O19
_chemical_formula_sum   'Co12 H144 C240 N24 O76'
_cell_volume   10409.80291519
_cell_formula_units_Z   4
loop_
 _symmetry_equiv_pos_site_id
 _symmetry_equiv_pos_as_xyz
  1  'x, y, z'
loop_
 _atom_site_type_symbol
 _atom_site_label
 _atom_site_symmetry_multiplicity
 _atom_site_fract_x
 _atom_site_fract_y
 _atom_site_fract_z
 _atom_site_occupancy
 _atom_site_charge
  Co  Co1  1  0.478360  0.506540  0.851350  1.0  1.0205
  Co  Co2  1  0.299780  0.584160  0.812190  1.0  1.0902
  Co  Co3  1  0.271710  0.431490  0.837740  1.0  1.0624
  Co  Co4  1  0.978360  0.993460  0.351350  1.0  1.0206
  Co  Co5  1  0.799780  0.915840  0.312190  1.0  1.0887
  Co  Co6  1  0.771710  0.068510  0.337740  1.0  1.0619
  Co  Co7  1  0.021640  0.006540  0.648650  1.0  1.0202
  Co  Co8  1  0.200220  0.084160  0.687810  1.0  1.0878
  Co  Co9  1  0.228290  0.931490  0.662260  1.0  1.0607
  Co  Co10  1  0.521640  0.493460  0.148650  1.0  1.0204
  Co  Co11  1  0.700220  0.415840  0.187810  1.0  1.0877
  Co  Co12  1  0.728290  0.568510  0.162260  1.0  1.0605
  H  H13  1  0.742600  0.033900  0.089300  1.0  0.3036
  H  H14  1  0.522800  0.125100  0.931800  1.0  0.3004
  H  H15  1  0.608400  0.905500  0.012400  1.0  0.1082
  H  H16  1  0.593000  0.035300  0.928300  1.0  0.115
  H  H17  1  0.658000  0.084300  0.039900  1.0  0.1121
  H  H18  1  0.647400  0.855300  0.958900  1.0  0.2895
  H  H19  1  0.105000  0.106600  0.947300  1.0  0.2931
  H  H20  1  0.093700  0.827300  0.989300  1.0  0.3054
  H  H21  1  0.150000  0.016800  0.120600  1.0  0.1779
  H  H22  1  0.082000  0.886900  0.033200  1.0  0.1366
  H  H23  1  0.425400  0.186400  0.891000  1.0  0.1131
  H  H24  1  0.148900  0.012300  0.954600  1.0  0.102
  H  H25  1  0.395200  0.279100  0.860200  1.0  0.1006
  H  H26  1  0.660000  0.919000  0.148000  1.0  0.1149
  H  H27  1  0.663200  0.925500  0.213300  1.0  0.1104
  H  H28  1  0.130400  0.066100  0.064800  1.0  0.1215
  H  H29  1  0.635100  0.351300  0.918700  1.0  0.1111
  H  H30  1  0.756400  0.095200  0.144600  1.0  0.1179
  H  H31  1  0.142900  0.009900  0.249800  1.0  0.1145
  H  H32  1  0.766400  0.100100  0.211700  1.0  0.1179
  H  H33  1  0.640500  0.664400  0.906800  1.0  0.1151
  H  H34  1  0.165300  0.727600  0.990800  1.0  0.1297
  H  H35  1  0.126200  0.821500  0.891200  1.0  0.1177
  H  H36  1  0.692200  0.757200  0.936600  1.0  0.1261
  H  H37  1  0.163100  0.733300  0.858300  1.0  0.1175
  H  H38  1  0.160400  0.238500  0.858000  1.0  0.1204
  H  H39  1  0.435300  0.835500  0.896700  1.0  0.1252
  H  H40  1  0.391100  0.743100  0.866100  1.0  0.0977
  H  H41  1  0.663900  0.258800  0.950900  1.0  0.1214
  H  H42  1  0.123400  0.154000  0.892100  1.0  0.1201
  H  H43  1  0.215400  0.237200  0.989400  1.0  0.1089
  H  H44  1  0.208000  0.641100  0.957100  1.0  0.1113
  H  H45  1  0.194900  0.013900  0.189000  1.0  0.1239
  H  H46  1  0.933700  0.956200  0.142300  1.0  0.1184
  H  H47  1  0.246300  0.326300  0.955400  1.0  0.1165
  H  H48  1  0.884100  0.948900  0.204300  1.0  0.0965
  H  H49  1  0.242600  0.466100  0.589300  1.0  0.3048
  H  H50  1  0.022800  0.374900  0.431800  1.0  0.3008
  H  H51  1  0.108400  0.594500  0.512400  1.0  0.1086
  H  H52  1  0.093000  0.464700  0.428300  1.0  0.1147
  H  H53  1  0.158000  0.415700  0.539900  1.0  0.1125
  H  H54  1  0.147400  0.644700  0.458900  1.0  0.2892
  H  H55  1  0.605000  0.393400  0.447300  1.0  0.2933
  H  H56  1  0.593700  0.672700  0.489300  1.0  0.305
  H  H57  1  0.650000  0.483200  0.620600  1.0  0.1781
  H  H58  1  0.582000  0.613100  0.533200  1.0  0.1375
  H  H59  1  0.925400  0.313600  0.391000  1.0  0.1136
  H  H60  1  0.648900  0.487700  0.454600  1.0  0.102
  H  H61  1  0.895200  0.220900  0.360200  1.0  0.1007
  H  H62  1  0.160000  0.581000  0.648000  1.0  0.1151
  H  H63  1  0.163200  0.574500  0.713300  1.0  0.1108
  H  H64  1  0.630400  0.433900  0.564800  1.0  0.1223
  H  H65  1  0.135100  0.148700  0.418700  1.0  0.1109
  H  H66  1  0.256400  0.404800  0.644600  1.0  0.1178
  H  H67  1  0.642900  0.490100  0.749800  1.0  0.1145
  H  H68  1  0.266400  0.399900  0.711700  1.0  0.1175
  H  H69  1  0.140500  0.835600  0.406800  1.0  0.1153
  H  H70  1  0.665300  0.772400  0.490800  1.0  0.1297
  H  H71  1  0.626200  0.678500  0.391200  1.0  0.1172
  H  H72  1  0.192200  0.742800  0.436600  1.0  0.1257
  H  H73  1  0.663100  0.766700  0.358300  1.0  0.1175
  H  H74  1  0.660400  0.261500  0.358000  1.0  0.1204
  H  H75  1  0.935300  0.664500  0.396700  1.0  0.1254
  H  H76  1  0.891100  0.756900  0.366100  1.0  0.0975
  H  H77  1  0.163900  0.241200  0.450900  1.0  0.1215
  H  H78  1  0.623400  0.346000  0.392100  1.0  0.1202
  H  H79  1  0.715400  0.262800  0.489400  1.0  0.1096
  H  H80  1  0.708000  0.858900  0.457100  1.0  0.1112
  H  H81  1  0.694900  0.486100  0.689000  1.0  0.1237
  H  H82  1  0.433700  0.543800  0.642300  1.0  0.1189
  H  H83  1  0.746300  0.173700  0.455400  1.0  0.1168
  H  H84  1  0.384100  0.551100  0.704300  1.0  0.0965
  H  H85  1  0.757400  0.533900  0.410700  1.0  0.3035
  H  H86  1  0.977200  0.625100  0.568200  1.0  0.3019
  H  H87  1  0.891600  0.405500  0.487600  1.0  0.1077
  H  H88  1  0.907000  0.535300  0.571700  1.0  0.1141
  H  H89  1  0.842000  0.584300  0.460100  1.0  0.113
  H  H90  1  0.852600  0.355300  0.541100  1.0  0.2898
  H  H91  1  0.395000  0.606600  0.552700  1.0  0.2935
  H  H92  1  0.406300  0.327300  0.510700  1.0  0.3053
  H  H93  1  0.350000  0.516800  0.379400  1.0  0.1787
  H  H94  1  0.418000  0.386900  0.466800  1.0  0.1358
  H  H95  1  0.074600  0.686400  0.609000  1.0  0.1139
  H  H96  1  0.351100  0.512300  0.545400  1.0  0.1004
  H  H97  1  0.104800  0.779100  0.639800  1.0  0.1006
  H  H98  1  0.840000  0.419000  0.352000  1.0  0.1137
  H  H99  1  0.836800  0.425500  0.286700  1.0  0.1105
  H  H100  1  0.369600  0.566100  0.435200  1.0  0.1215
  H  H101  1  0.864900  0.851300  0.581300  1.0  0.1114
  H  H102  1  0.743600  0.595200  0.355400  1.0  0.1184
  H  H103  1  0.357100  0.509900  0.250200  1.0  0.1145
  H  H104  1  0.733600  0.600100  0.288300  1.0  0.1181
  H  H105  1  0.859500  0.164400  0.593200  1.0  0.1148
  H  H106  1  0.334700  0.227600  0.509200  1.0  0.129
  H  H107  1  0.373800  0.321500  0.608800  1.0  0.117
  H  H108  1  0.807800  0.257200  0.563400  1.0  0.1256
  H  H109  1  0.336900  0.233300  0.641700  1.0  0.117
  H  H110  1  0.339600  0.738500  0.642000  1.0  0.1201
  H  H111  1  0.064700  0.335500  0.603300  1.0  0.1255
  H  H112  1  0.108900  0.243100  0.633900  1.0  0.0985
  H  H113  1  0.836100  0.758800  0.549100  1.0  0.1219
  H  H114  1  0.376600  0.654000  0.607900  1.0  0.1199
  H  H115  1  0.284600  0.737200  0.510600  1.0  0.1094
  H  H116  1  0.292000  0.141100  0.542900  1.0  0.1109
  H  H117  1  0.305100  0.513900  0.311000  1.0  0.1234
  H  H118  1  0.566300  0.456200  0.357700  1.0  0.1199
  H  H119  1  0.253700  0.826300  0.544600  1.0  0.1169
  H  H120  1  0.615900  0.448900  0.295700  1.0  0.0967
  H  H121  1  0.257400  0.966100  0.910700  1.0  0.3033
  H  H122  1  0.477200  0.874900  0.068200  1.0  0.3025
  H  H123  1  0.391600  0.094500  0.987600  1.0  0.1082
  H  H124  1  0.407000  0.964700  0.071700  1.0  0.114
  H  H125  1  0.342000  0.915700  0.960100  1.0  0.1127
  H  H126  1  0.352600  0.144700  0.041100  1.0  0.2903
  H  H127  1  0.895000  0.893400  0.052700  1.0  0.2936
  H  H128  1  0.906300  0.172700  0.010700  1.0  0.3052
  H  H129  1  0.850000  0.983200  0.879400  1.0  0.1792
  H  H130  1  0.918000  0.113100  0.966800  1.0  0.1364
  H  H131  1  0.574600  0.813600  0.109000  1.0  0.114
  H  H132  1  0.851100  0.987700  0.045400  1.0  0.1004
  H  H133  1  0.604800  0.720900  0.139800  1.0  0.1004
  H  H134  1  0.340000  0.081000  0.852000  1.0  0.1147
  H  H135  1  0.336800  0.074500  0.786700  1.0  0.1108
  H  H136  1  0.869600  0.933900  0.935200  1.0  0.1221
  H  H137  1  0.364900  0.648700  0.081300  1.0  0.1106
  H  H138  1  0.243600  0.904800  0.855400  1.0  0.1178
  H  H139  1  0.857100  0.990100  0.750200  1.0  0.1146
  H  H140  1  0.233600  0.899900  0.788300  1.0  0.117
  H  H141  1  0.359500  0.335600  0.093200  1.0  0.1154
  H  H142  1  0.834700  0.272400  0.009200  1.0  0.1292
  H  H143  1  0.873800  0.178500  0.108800  1.0  0.117
  H  H144  1  0.307800  0.242800  0.063400  1.0  0.1254
  H  H145  1  0.836900  0.266700  0.141700  1.0  0.1171
  H  H146  1  0.839600  0.761500  0.142000  1.0  0.12
  H  H147  1  0.564700  0.164500  0.103300  1.0  0.1259
  H  H148  1  0.608900  0.256900  0.133900  1.0  0.0987
  H  H149  1  0.336100  0.741200  0.049100  1.0  0.1216
  H  H150  1  0.876600  0.846000  0.107900  1.0  0.1198
  H  H151  1  0.784600  0.762800  0.010600  1.0  0.1094
  H  H152  1  0.792000  0.358900  0.042900  1.0  0.1114
  H  H153  1  0.805100  0.986100  0.811000  1.0  0.1236
  H  H154  1  0.066300  0.043800  0.857700  1.0  0.1196
  H  H155  1  0.753700  0.673700  0.044600  1.0  0.1162
  H  H156  1  0.115900  0.051100  0.795700  1.0  0.0967
  C  C157  1  0.625600  0.070310  0.981720  1.0  0.0281
  C  C158  1  0.613500  0.947370  0.004560  1.0  -0.1195
  C  C159  1  0.644900  0.972260  0.073500  1.0  0.5089
  C  C160  1  0.604000  0.024450  0.954810  1.0  -0.1345
  C  C161  1  0.636300  0.992900  0.032040  1.0  -0.0215
  C  C162  1  0.642300  0.053320  0.020990  1.0  -0.1367
  C  C163  1  0.598100  0.962540  0.965440  1.0  -0.0484
  C  C164  1  0.097900  0.928160  0.026810  1.0  -0.106
  C  C165  1  0.562400  0.916460  0.935590  1.0  0.5871
  C  C166  1  0.127900  0.894900  0.958310  1.0  0.5102
  C  C167  1  0.467900  0.220300  0.897100  1.0  -0.1946
  C  C168  1  0.138300  0.002800  0.980340  1.0  -0.1263
  C  C169  1  0.119400  0.942800  0.989630  1.0  -0.0983
  C  C170  1  0.166900  0.114100  0.998650  1.0  0.5531
  C  C171  1  0.705300  0.006730  0.139160  1.0  0.249
  C  C172  1  0.142500  0.050400  0.007360  1.0  -0.0222
  C  C173  1  0.974700  0.972500  0.272190  1.0  0.726
  C  C174  1  0.568100  0.804940  0.919890  1.0  0.2416
  C  C175  1  0.548100  0.212830  0.924550  1.0  0.2663
  C  C176  1  0.714700  0.013900  0.219510  1.0  -0.1059
  C  C177  1  0.100200  0.975100  0.054380  1.0  -0.0168
  C  C178  1  0.629100  0.136490  0.971580  1.0  0.5945
  C  C179  1  0.136500  0.782700  0.944170  1.0  0.2221
  C  C180  1  0.485400  0.387400  0.867980  1.0  0.6939
  C  C181  1  0.721600  0.016100  0.262750  1.0  0.736
  C  C182  1  0.449800  0.275600  0.878940  1.0  -0.0354
  C  C183  1  0.008800  0.977700  0.232940  1.0  -0.0946
  C  C184  1  0.679900  0.956500  0.160690  1.0  -0.1596
  C  C185  1  0.683000  0.960200  0.199370  1.0  -0.0901
  C  C186  1  0.125100  0.035200  0.045380  1.0  -0.0777
  C  C187  1  0.590900  0.318000  0.913630  1.0  -0.0528
  C  C188  1  0.511600  0.695500  0.883020  1.0  -0.1235
  C  C189  1  0.480200  0.634500  0.863520  1.0  0.7015
  C  C190  1  0.063700  0.959300  0.091880  1.0  0.4983
  C  C191  1  0.168100  0.186900  0.943570  1.0  0.3071
  C  C192  1  0.069400  0.984900  0.160130  1.0  0.2932
  C  C193  1  0.737800  0.060500  0.158740  1.0  -0.1651
  C  C194  1  0.100000  0.997800  0.228000  1.0  -0.0602
  C  C195  1  0.508200  0.326500  0.886970  1.0  -0.0893
  C  C196  1  0.743100  0.063500  0.198720  1.0  -0.0542
  C  C197  1  0.184900  0.678000  0.904310  1.0  -0.0112
  C  C198  1  0.209000  0.291400  0.903130  1.0  -0.1097
  C  C199  1  0.599300  0.699600  0.904340  1.0  -0.0494
  C  C200  1  0.163600  0.729200  0.963530  1.0  -0.1731
  C  C201  1  0.139900  0.784000  0.904900  1.0  -0.1534
  C  C202  1  0.629800  0.754400  0.922520  1.0  -0.1443
  C  C203  1  0.162800  0.731800  0.885420  1.0  -0.0574
  C  C204  1  0.171900  0.239300  0.885330  1.0  -0.1098
  C  C205  1  0.478200  0.801100  0.898760  1.0  -0.1869
  C  C206  1  0.452800  0.746000  0.880800  1.0  -0.0265
  C  C207  1  0.608900  0.262800  0.932350  1.0  -0.1193
  C  C208  1  0.231300  0.346700  0.880660  1.0  0.6489
  C  C209  1  0.151100  0.189100  0.905500  1.0  -0.1529
  C  C210  1  0.203500  0.237400  0.962130  1.0  -0.1451
  C  C211  1  0.188200  0.677700  0.943390  1.0  -0.0419
  C  C212  1  0.130700  0.000700  0.191900  1.0  -0.1431
  C  C213  1  0.977400  0.966400  0.164290  1.0  -0.1829
  C  C214  1  0.218200  0.623000  0.882330  1.0  0.7145
  C  C215  1  0.222900  0.290300  0.941770  1.0  -0.1054
  C  C216  1  0.947900  0.962500  0.201280  1.0  -0.0551
  C  C217  1  0.125600  0.429690  0.481720  1.0  0.028
  C  C218  1  0.113500  0.552630  0.504560  1.0  -0.1193
  C  C219  1  0.144900  0.527740  0.573500  1.0  0.508
  C  C220  1  0.104000  0.475550  0.454810  1.0  -0.1339
  C  C221  1  0.136300  0.507100  0.532040  1.0  -0.0214
  C  C222  1  0.142300  0.446680  0.520990  1.0  -0.1359
  C  C223  1  0.098100  0.537460  0.465440  1.0  -0.0477
  C  C224  1  0.597900  0.571840  0.526810  1.0  -0.109
  C  C225  1  0.062400  0.583540  0.435590  1.0  0.5871
  C  C226  1  0.627900  0.605100  0.458310  1.0  0.5103
  C  C227  1  0.967900  0.279700  0.397100  1.0  -0.1954
  C  C228  1  0.638300  0.497200  0.480340  1.0  -0.1263
  C  C229  1  0.619400  0.557200  0.489630  1.0  -0.099
  C  C230  1  0.666900  0.385900  0.498650  1.0  0.5542
  C  C231  1  0.205300  0.493270  0.639160  1.0  0.2491
  C  C232  1  0.642500  0.449600  0.507360  1.0  -0.0213
  C  C233  1  0.474700  0.527500  0.772190  1.0  0.7254
  C  C234  1  0.068100  0.695060  0.419890  1.0  0.242
  C  C235  1  0.048100  0.287170  0.424550  1.0  0.2657
  C  C236  1  0.214700  0.486100  0.719510  1.0  -0.1055
  C  C237  1  0.600200  0.524900  0.554380  1.0  -0.018
  C  C238  1  0.129100  0.363510  0.471580  1.0  0.5932
  C  C239  1  0.636500  0.717300  0.444170  1.0  0.2229
  C  C240  1  0.985400  0.112600  0.367980  1.0  0.6942
  C  C241  1  0.221600  0.483900  0.762750  1.0  0.7368
  C  C242  1  0.949800  0.224400  0.378940  1.0  -0.0358
  C  C243  1  0.508800  0.522300  0.732940  1.0  -0.095
  C  C244  1  0.179900  0.543500  0.660690  1.0  -0.1597
  C  C245  1  0.183000  0.539800  0.699370  1.0  -0.0907
  C  C246  1  0.625100  0.464800  0.545380  1.0  -0.0776
  C  C247  1  0.090900  0.182000  0.413630  1.0  -0.0536
  C  C248  1  0.011600  0.804500  0.383020  1.0  -0.123
  C  C249  1  0.980200  0.865500  0.363520  1.0  0.7017
  C  C250  1  0.563700  0.540700  0.591880  1.0  0.4979
  C  C251  1  0.668100  0.313100  0.443570  1.0  0.3069
  C  C252  1  0.569400  0.515100  0.660130  1.0  0.2932
  C  C253  1  0.237800  0.439500  0.658740  1.0  -0.1677
  C  C254  1  0.600000  0.502200  0.728000  1.0  -0.0595
  C  C255  1  0.008200  0.173500  0.386970  1.0  -0.0905
  C  C256  1  0.243100  0.436500  0.698720  1.0  -0.0558
  C  C257  1  0.684900  0.822000  0.404310  1.0  -0.0106
  C  C258  1  0.709000  0.208600  0.403130  1.0  -0.1116
  C  C259  1  0.099300  0.800400  0.404340  1.0  -0.0496
  C  C260  1  0.663600  0.770800  0.463530  1.0  -0.1727
  C  C261  1  0.639900  0.716000  0.404900  1.0  -0.1529
  C  C262  1  0.129800  0.745600  0.422520  1.0  -0.1431
  C  C263  1  0.662800  0.768200  0.385420  1.0  -0.058
  C  C264  1  0.671900  0.260700  0.385330  1.0  -0.1088
  C  C265  1  0.978200  0.698900  0.398760  1.0  -0.1862
  C  C266  1  0.952800  0.754000  0.380800  1.0  -0.0265
  C  C267  1  0.108900  0.237200  0.432350  1.0  -0.1196
  C  C268  1  0.731300  0.153300  0.380660  1.0  0.6485
  C  C269  1  0.651100  0.310900  0.405500  1.0  -0.1523
  C  C270  1  0.703500  0.262600  0.462130  1.0  -0.1437
  C  C271  1  0.688200  0.822300  0.443390  1.0  -0.0408
  C  C272  1  0.630700  0.499300  0.691900  1.0  -0.1423
  C  C273  1  0.477400  0.533600  0.664290  1.0  -0.1826
  C  C274  1  0.718200  0.877000  0.382330  1.0  0.7151
  C  C275  1  0.722900  0.209700  0.441770  1.0  -0.1041
  C  C276  1  0.447900  0.537500  0.701280  1.0  -0.0546
  C  C277  1  0.874400  0.570310  0.518280  1.0  0.0269
  C  C278  1  0.886500  0.447370  0.495440  1.0  -0.1194
  C  C279  1  0.855100  0.472260  0.426500  1.0  0.5086
  C  C280  1  0.896000  0.524450  0.545190  1.0  -0.1339
  C  C281  1  0.863700  0.492900  0.467960  1.0  -0.0217
  C  C282  1  0.857700  0.553320  0.479010  1.0  -0.1376
  C  C283  1  0.901900  0.462540  0.534560  1.0  -0.0455
  C  C284  1  0.402100  0.428160  0.473190  1.0  -0.1063
  C  C285  1  0.937600  0.416460  0.564410  1.0  0.5886
  C  C286  1  0.372100  0.394900  0.541690  1.0  0.5103
  C  C287  1  0.032100  0.720300  0.602900  1.0  -0.1948
  C  C288  1  0.361700  0.502800  0.519660  1.0  -0.1276
  C  C289  1  0.380600  0.442800  0.510370  1.0  -0.0985
  C  C290  1  0.333100  0.614100  0.501350  1.0  0.5555
  C  C291  1  0.794700  0.506730  0.360840  1.0  0.2518
  C  C292  1  0.357500  0.550400  0.492640  1.0  -0.0209
  C  C293  1  0.525300  0.472500  0.227810  1.0  0.726
  C  C294  1  0.931900  0.304940  0.580110  1.0  0.2412
  C  C295  1  0.951900  0.712830  0.575450  1.0  0.2666
  C  C296  1  0.785300  0.513900  0.280490  1.0  -0.108
  C  C297  1  0.399800  0.475100  0.445620  1.0  -0.0171
  C  C298  1  0.870900  0.636490  0.528420  1.0  0.5935
  C  C299  1  0.363500  0.282700  0.555830  1.0  0.2226
  C  C300  1  0.014600  0.887400  0.632020  1.0  0.6937
  C  C301  1  0.778400  0.516100  0.237250  1.0  0.7352
  C  C302  1  0.050200  0.775600  0.621060  1.0  -0.0351
  C  C303  1  0.491200  0.477700  0.267060  1.0  -0.095
  C  C304  1  0.820100  0.456500  0.339310  1.0  -0.1579
  C  C305  1  0.817000  0.460200  0.300630  1.0  -0.0908
  C  C306  1  0.374900  0.535200  0.454620  1.0  -0.0776
  C  C307  1  0.909100  0.818000  0.586370  1.0  -0.0536
  C  C308  1  0.988400  0.195500  0.616980  1.0  -0.1234
  C  C309  1  0.019800  0.134500  0.636480  1.0  0.7004
  C  C310  1  0.436300  0.459300  0.408120  1.0  0.4955
  C  C311  1  0.331900  0.686900  0.556430  1.0  0.3079
  C  C312  1  0.430600  0.484900  0.339870  1.0  0.2951
  C  C313  1  0.762200  0.560500  0.341260  1.0  -0.1677
  C  C314  1  0.400000  0.497800  0.272000  1.0  -0.0595
  C  C315  1  0.991800  0.826500  0.613030  1.0  -0.0907
  C  C316  1  0.756900  0.563500  0.301280  1.0  -0.0548
  C  C317  1  0.315100  0.178000  0.595690  1.0  -0.0104
  C  C318  1  0.291000  0.791400  0.596870  1.0  -0.1104
  C  C319  1  0.900700  0.199600  0.595660  1.0  -0.0504
  C  C320  1  0.336400  0.229200  0.536470  1.0  -0.172
  C  C321  1  0.360100  0.284000  0.595100  1.0  -0.1533
  C  C322  1  0.870200  0.254400  0.577480  1.0  -0.1464
  C  C323  1  0.337200  0.231800  0.614580  1.0  -0.0579
  C  C324  1  0.328100  0.739300  0.614670  1.0  -0.1103
  C  C325  1  0.021800  0.301100  0.601240  1.0  -0.1881
  C  C326  1  0.047200  0.246000  0.619200  1.0  -0.0272
  C  C327  1  0.891100  0.762800  0.567650  1.0  -0.1206
  C  C328  1  0.268700  0.846700  0.619340  1.0  0.6475
  C  C329  1  0.348900  0.689100  0.594500  1.0  -0.1497
  C  C330  1  0.296500  0.737400  0.537870  1.0  -0.1449
  C  C331  1  0.311800  0.177700  0.556610  1.0  -0.0426
  C  C332  1  0.369300  0.500700  0.308100  1.0  -0.1441
  C  C333  1  0.522600  0.466400  0.335710  1.0  -0.1839
  C  C334  1  0.281800  0.123000  0.617670  1.0  0.7157
  C  C335  1  0.277100  0.790300  0.558230  1.0  -0.106
  C  C336  1  0.552100  0.462500  0.298720  1.0  -0.0558
  C  C337  1  0.374400  0.929690  0.018280  1.0  0.0273
  C  C338  1  0.386500  0.052630  0.995440  1.0  -0.1191
  C  C339  1  0.355100  0.027740  0.926500  1.0  0.5075
  C  C340  1  0.396000  0.975550  0.045190  1.0  -0.1337
  C  C341  1  0.363700  0.007100  0.967960  1.0  -0.0216
  C  C342  1  0.357700  0.946680  0.979010  1.0  -0.1369
  C  C343  1  0.401900  0.037460  0.034560  1.0  -0.0473
  C  C344  1  0.902100  0.071840  0.973190  1.0  -0.1083
  C  C345  1  0.437600  0.083540  0.064410  1.0  0.5889
  C  C346  1  0.872100  0.105100  0.041690  1.0  0.5099
  C  C347  1  0.532100  0.779700  0.102900  1.0  -0.1955
  C  C348  1  0.861700  0.997200  0.019660  1.0  -0.1276
  C  C349  1  0.880600  0.057200  0.010370  1.0  -0.0993
  C  C350  1  0.833100  0.885900  0.001350  1.0  0.5564
  C  C351  1  0.294700  0.993270  0.860840  1.0  0.2515
  C  C352  1  0.857500  0.949600  0.992640  1.0  -0.0212
  C  C353  1  0.025300  0.027500  0.727810  1.0  0.7261
  C  C354  1  0.431900  0.195060  0.080110  1.0  0.2413
  C  C355  1  0.451900  0.787170  0.075450  1.0  0.2663
  C  C356  1  0.285300  0.986100  0.780490  1.0  -0.1081
  C  C357  1  0.899800  0.024900  0.945620  1.0  -0.0161
  C  C358  1  0.370900  0.863510  0.028420  1.0  0.5924
  C  C359  1  0.863500  0.217300  0.055830  1.0  0.2236
  C  C360  1  0.514600  0.612600  0.132020  1.0  0.6944
  C  C361  1  0.278400  0.983900  0.737250  1.0  0.7348
  C  C362  1  0.550200  0.724400  0.121060  1.0  -0.0356
  C  C363  1  0.991200  0.022300  0.767060  1.0  -0.0951
  C  C364  1  0.320100  0.043500  0.839310  1.0  -0.1574
  C  C365  1  0.317000  0.039800  0.800630  1.0  -0.0896
  C  C366  1  0.874900  0.964800  0.954620  1.0  -0.0782
  C  C367  1  0.409100  0.682000  0.086370  1.0  -0.053
  C  C368  1  0.488400  0.304500  0.116980  1.0  -0.1234
  C  C369  1  0.519800  0.365500  0.136480  1.0  0.7013
  C  C370  1  0.936300  0.040700  0.908120  1.0  0.4948
  C  C371  1  0.831900  0.813100  0.056430  1.0  0.3077
  C  C372  1  0.930600  0.015100  0.839870  1.0  0.295
  C  C373  1  0.262200  0.939500  0.841260  1.0  -0.1696
  C  C374  1  0.900000  0.002200  0.772000  1.0  -0.0592
  C  C375  1  0.491800  0.673500  0.113030  1.0  -0.0922
  C  C376  1  0.256900  0.936500  0.801280  1.0  -0.0563
  C  C377  1  0.815100  0.322000  0.095690  1.0  -0.0104
  C  C378  1  0.791000  0.708600  0.096870  1.0  -0.1101
  C  C379  1  0.400700  0.300400  0.095660  1.0  -0.0504
  C  C380  1  0.836400  0.270800  0.036470  1.0  -0.1721
  C  C381  1  0.860100  0.216000  0.095100  1.0  -0.1535
  C  C382  1  0.370200  0.245600  0.077480  1.0  -0.1466
  C  C383  1  0.837200  0.268200  0.114580  1.0  -0.0579
  C  C384  1  0.828100  0.760700  0.114670  1.0  -0.1104
  C  C385  1  0.521800  0.198900  0.101240  1.0  -0.188
  C  C386  1  0.547200  0.254000  0.119200  1.0  -0.0272
  C  C387  1  0.391100  0.737200  0.067650  1.0  -0.1206
  C  C388  1  0.768700  0.653300  0.119340  1.0  0.6484
  C  C389  1  0.848900  0.810900  0.094500  1.0  -0.148
  C  C390  1  0.796500  0.762600  0.037870  1.0  -0.144
  C  C391  1  0.811800  0.322300  0.056610  1.0  -0.0421
  C  C392  1  0.869300  0.999300  0.808100  1.0  -0.1438
  C  C393  1  0.022600  0.033600  0.835710  1.0  -0.1837
  C  C394  1  0.781800  0.377000  0.117670  1.0  0.7159
  C  C395  1  0.777100  0.709700  0.058230  1.0  -0.1048
  C  C396  1  0.052100  0.037500  0.798720  1.0  -0.0552
  N  N397  1  0.703000  0.007870  0.099100  1.0  -0.3328
  N  N398  1  0.562100  0.154360  0.941600  1.0  -0.3164
  N  N399  1  0.598800  0.859570  0.940640  1.0  -0.378
  N  N400  1  0.142200  0.132310  0.961760  1.0  -0.3947
  N  N401  1  0.116100  0.835150  0.967170  1.0  -0.4062
  N  N402  1  0.102100  0.991020  0.123260  1.0  -0.4088
  N  N403  1  0.203000  0.492130  0.599100  1.0  -0.3331
  N  N404  1  0.062100  0.345640  0.441600  1.0  -0.3166
  N  N405  1  0.098800  0.640430  0.440640  1.0  -0.3775
  N  N406  1  0.642200  0.367690  0.461760  1.0  -0.3942
  N  N407  1  0.616100  0.664850  0.467170  1.0  -0.4066
  N  N408  1  0.602100  0.508980  0.623260  1.0  -0.4085
  N  N409  1  0.797000  0.507870  0.400900  1.0  -0.3332
  N  N410  1  0.937900  0.654360  0.558400  1.0  -0.317
  N  N411  1  0.901200  0.359570  0.559360  1.0  -0.376
  N  N412  1  0.357800  0.632310  0.538240  1.0  -0.394
  N  N413  1  0.383900  0.335150  0.532830  1.0  -0.4056
  N  N414  1  0.397900  0.491020  0.376740  1.0  -0.407
  N  N415  1  0.297000  0.992130  0.900900  1.0  -0.3337
  N  N416  1  0.437900  0.845640  0.058400  1.0  -0.317
  N  N417  1  0.401200  0.140430  0.059360  1.0  -0.3762
  N  N418  1  0.857800  0.867690  0.038240  1.0  -0.3941
  N  N419  1  0.883900  0.164850  0.032830  1.0  -0.4067
  N  N420  1  0.897900  0.008980  0.876740  1.0  -0.4062
  O  O421  1  0.601300  0.926560  0.083090  1.0  -0.5501
  O  O422  1  0.501200  0.930680  0.909690  1.0  -0.4876
  O  O423  1  0.148400  0.911300  0.926790  1.0  -0.5519
  O  O424  1  0.337100  0.511530  0.850520  1.0  -0.8172
  O  O425  1  0.000300  0.919890  0.092500  1.0  -0.5646
  O  O426  1  0.685900  0.172170  0.988440  1.0  -0.4706
  O  O427  1  0.757200  0.063560  0.279210  1.0  -0.5675
  O  O428  1  0.524400  0.586120  0.873910  1.0  -0.575
  O  O429  1  0.024700  0.996160  0.300320  1.0  -0.5627
  O  O430  1  0.208300  0.149250  0.023110  1.0  -0.5855
  O  O431  1  0.695200  0.967830  0.279520  1.0  -0.6231
  O  O432  1  0.531500  0.434250  0.881140  1.0  -0.5812
  O  O433  1  0.404000  0.639350  0.840570  1.0  -0.6243
  O  O434  1  0.418800  0.391340  0.840340  1.0  -0.6738
  O  O435  1  0.895100  0.945290  0.274010  1.0  -0.6249
  O  O436  1  0.265600  0.393800  0.897010  1.0  -0.5528
  O  O437  1  0.218900  0.344620  0.844300  1.0  -0.5648
  O  O438  1  0.202600  0.623920  0.846660  1.0  -0.5669
  O  O439  1  0.260100  0.580200  0.903590  1.0  -0.5003
  O  O440  1  0.101300  0.573440  0.583090  1.0  -0.5502
  O  O441  1  0.001200  0.569320  0.409690  1.0  -0.4877
  O  O442  1  0.648400  0.588700  0.426790  1.0  -0.5522
  O  O443  1  0.837100  0.988470  0.350520  1.0  -0.8176
  O  O444  1  0.500300  0.580110  0.592500  1.0  -0.5637
  O  O445  1  0.185900  0.327830  0.488440  1.0  -0.47
  O  O446  1  0.257200  0.436440  0.779210  1.0  -0.5677
  O  O447  1  0.024400  0.913880  0.373910  1.0  -0.5767
  O  O448  1  0.524700  0.503840  0.800320  1.0  -0.5624
  O  O449  1  0.708300  0.350750  0.523110  1.0  -0.5875
  O  O450  1  0.195200  0.532170  0.779520  1.0  -0.6244
  O  O451  1  0.031500  0.065750  0.381140  1.0  -0.5808
  O  O452  1  0.904000  0.860650  0.340570  1.0  -0.6247
  O  O453  1  0.918800  0.108660  0.340340  1.0  -0.6735
  O  O454  1  0.395100  0.554710  0.774010  1.0  -0.6268
  O  O455  1  0.765600  0.106200  0.397010  1.0  -0.5536
  O  O456  1  0.718900  0.155380  0.344300  1.0  -0.5645
  O  O457  1  0.702600  0.876080  0.346660  1.0  -0.5665
  O  O458  1  0.760100  0.919800  0.403590  1.0  -0.5004
  O  O459  1  0.898700  0.426560  0.416910  1.0  -0.5483
  O  O460  1  0.998800  0.430680  0.590310  1.0  -0.4866
  O  O461  1  0.351600  0.411300  0.573210  1.0  -0.55
  O  O462  1  0.162900  0.011530  0.649480  1.0  -0.818
  O  O463  1  0.499700  0.419890  0.407500  1.0  -0.5651
  O  O464  1  0.814100  0.672170  0.511560  1.0  -0.4713
  O  O465  1  0.742800  0.563560  0.220790  1.0  -0.5675
  O  O466  1  0.975600  0.086120  0.626090  1.0  -0.5746
  O  O467  1  0.475300  0.496160  0.199680  1.0  -0.5625
  O  O468  1  0.291700  0.649250  0.476890  1.0  -0.587
  O  O469  1  0.804800  0.467830  0.220480  1.0  -0.6216
  O  O470  1  0.968500  0.934250  0.618860  1.0  -0.5792
  O  O471  1  0.096000  0.139350  0.659430  1.0  -0.6238
  O  O472  1  0.081200  0.891340  0.659660  1.0  -0.673
  O  O473  1  0.604900  0.445290  0.225990  1.0  -0.624
  O  O474  1  0.234400  0.893800  0.602990  1.0  -0.5557
  O  O475  1  0.281100  0.844620  0.655700  1.0  -0.5673
  O  O476  1  0.297400  0.123920  0.653340  1.0  -0.5642
  O  O477  1  0.239900  0.080200  0.596410  1.0  -0.4997
  O  O478  1  0.398700  0.073440  0.916910  1.0  -0.5489
  O  O479  1  0.498800  0.069320  0.090310  1.0  -0.4868
  O  O480  1  0.851600  0.088700  0.073210  1.0  -0.5501
  O  O481  1  0.662900  0.488470  0.149480  1.0  -0.8182
  O  O482  1  0.999700  0.080110  0.907500  1.0  -0.5642
  O  O483  1  0.314100  0.827830  0.011560  1.0  -0.4707
  O  O484  1  0.242800  0.936440  0.720790  1.0  -0.5679
  O  O485  1  0.475600  0.413880  0.126090  1.0  -0.5757
  O  O486  1  0.975300  0.003840  0.699680  1.0  -0.5634
  O  O487  1  0.791700  0.850750  0.976890  1.0  -0.5857
  O  O488  1  0.304800  0.032170  0.720480  1.0  -0.6216
  O  O489  1  0.468500  0.565750  0.118860  1.0  -0.578
  O  O490  1  0.596000  0.360650  0.159430  1.0  -0.6236
  O  O491  1  0.581200  0.608660  0.159660  1.0  -0.6735
  O  O492  1  0.104900  0.054710  0.725990  1.0  -0.6268
  O  O493  1  0.734400  0.606200  0.102990  1.0  -0.5554
  O  O494  1  0.781100  0.655380  0.155700  1.0  -0.5672
  O  O495  1  0.797400  0.376080  0.153340  1.0  -0.5639
  O  O496  1  0.739900  0.419800  0.096410  1.0  -0.5011
