# generated using pymatgen
data_AgH28(C19N2)2
_symmetry_space_group_name_H-M   'P 1'
_cell_length_a   16.69950000
_cell_length_b   16.69950000
_cell_length_c   26.75790000
_cell_angle_alpha   90.00000000
_cell_angle_beta   90.00000000
_cell_angle_gamma   90.00000000
_symmetry_Int_Tables_number   1
_chemical_formula_structural   AgH28(C19N2)2
_chemical_formula_sum   'Ag8 H224 C304 N32'
_cell_volume   7462.06388076
_cell_formula_units_Z   8
loop_
 _symmetry_equiv_pos_site_id
 _symmetry_equiv_pos_as_xyz
  1  'x, y, z'
loop_
 _atom_site_type_symbol
 _atom_site_label
 _atom_site_symmetry_multiplicity
 _atom_site_fract_x
 _atom_site_fract_y
 _atom_site_fract_z
 _atom_site_occupancy
 _atom_site_charge
  Ag  Ag1  1  0.500000  0.500000  0.871860  1.0  0.4644
  Ag  Ag2  1  0.000000  0.000000  0.371860  1.0  0.4644
  Ag  Ag3  1  0.500000  0.500000  0.128140  1.0  0.4645
  Ag  Ag4  1  0.000000  0.000000  0.628140  1.0  0.4645
  Ag  Ag5  1  0.000000  0.500000  0.878140  1.0  0.4645
  Ag  Ag6  1  0.500000  0.000000  0.378140  1.0  0.4645
  Ag  Ag7  1  0.000000  0.500000  0.621860  1.0  0.4644
  Ag  Ag8  1  0.500000  0.000000  0.121860  1.0  0.4644
  H  H9  1  0.394000  0.298900  0.729400  1.0  0.1207
  H  H10  1  0.394800  0.198300  0.670100  1.0  0.1172
  H  H11  1  0.611600  0.127300  0.718400  1.0  0.1062
  H  H12  1  0.612900  0.228600  0.776100  1.0  0.1347
  H  H13  1  0.575100  0.123600  0.599200  1.0  0.1152
  H  H14  1  0.622400  0.077000  0.640700  1.0  0.0945
  H  H15  1  0.547000  0.000200  0.707500  1.0  0.0899
  H  H16  1  0.422600  0.122500  0.600000  1.0  0.0881
  H  H17  1  0.377000  0.074900  0.641900  1.0  0.0944
  H  H18  1  0.500900  0.953100  0.533900  1.0  0.09
  H  H19  1  0.707500  0.012300  0.437200  1.0  0.1328
  H  H20  1  0.594300  0.015500  0.487400  1.0  0.1201
  H  H21  1  0.729600  0.986200  0.608300  1.0  0.1118
  H  H22  1  0.843200  0.979200  0.559000  1.0  0.1258
  H  H23  1  0.894000  0.798900  0.229400  1.0  0.1207
  H  H24  1  0.894800  0.698300  0.170100  1.0  0.1172
  H  H25  1  0.111600  0.627300  0.218400  1.0  0.1062
  H  H26  1  0.112900  0.728600  0.276100  1.0  0.1347
  H  H27  1  0.075100  0.623600  0.099200  1.0  0.1152
  H  H28  1  0.122400  0.577000  0.140700  1.0  0.0945
  H  H29  1  0.047000  0.500200  0.207500  1.0  0.0899
  H  H30  1  0.922600  0.622500  0.100000  1.0  0.0881
  H  H31  1  0.877000  0.574900  0.141900  1.0  0.0944
  H  H32  1  0.000900  0.453100  0.033900  1.0  0.09
  H  H33  1  0.207500  0.512300  0.937200  1.0  0.1328
  H  H34  1  0.094300  0.515500  0.987400  1.0  0.1201
  H  H35  1  0.229600  0.486200  0.108300  1.0  0.1118
  H  H36  1  0.343200  0.479200  0.059000  1.0  0.1258
  H  H37  1  0.606000  0.701100  0.729400  1.0  0.1198
  H  H38  1  0.605200  0.801700  0.670100  1.0  0.1184
  H  H39  1  0.388400  0.872700  0.718400  1.0  0.106
  H  H40  1  0.387100  0.771400  0.776100  1.0  0.1343
  H  H41  1  0.424900  0.876400  0.599200  1.0  0.1157
  H  H42  1  0.377600  0.923000  0.640700  1.0  0.0955
  H  H43  1  0.453000  0.999800  0.707500  1.0  0.0909
  H  H44  1  0.577400  0.877500  0.600000  1.0  0.0874
  H  H45  1  0.623000  0.925100  0.641900  1.0  0.0936
  H  H46  1  0.499100  0.046900  0.533900  1.0  0.0901
  H  H47  1  0.292500  0.987700  0.437200  1.0  0.133
  H  H48  1  0.405700  0.984500  0.487400  1.0  0.1191
  H  H49  1  0.270400  0.013800  0.608300  1.0  0.1122
  H  H50  1  0.156800  0.020800  0.559000  1.0  0.1261
  H  H51  1  0.106000  0.201100  0.229400  1.0  0.1198
  H  H52  1  0.105200  0.301700  0.170100  1.0  0.1184
  H  H53  1  0.888400  0.372700  0.218400  1.0  0.106
  H  H54  1  0.887100  0.271400  0.276100  1.0  0.1343
  H  H55  1  0.924900  0.376400  0.099200  1.0  0.1157
  H  H56  1  0.877600  0.423000  0.140700  1.0  0.0955
  H  H57  1  0.953000  0.499800  0.207500  1.0  0.0909
  H  H58  1  0.077400  0.377500  0.100000  1.0  0.0874
  H  H59  1  0.123000  0.425100  0.141900  1.0  0.0936
  H  H60  1  0.999100  0.546900  0.033900  1.0  0.0901
  H  H61  1  0.792500  0.487700  0.937200  1.0  0.133
  H  H62  1  0.905700  0.484500  0.987400  1.0  0.1191
  H  H63  1  0.770400  0.513800  0.108300  1.0  0.1122
  H  H64  1  0.656800  0.520800  0.059000  1.0  0.1261
  H  H65  1  0.298900  0.606000  0.270600  1.0  0.1214
  H  H66  1  0.198300  0.605200  0.329900  1.0  0.1179
  H  H67  1  0.127300  0.388400  0.281600  1.0  0.1046
  H  H68  1  0.228600  0.387100  0.223900  1.0  0.1351
  H  H69  1  0.123600  0.424900  0.400800  1.0  0.116
  H  H70  1  0.077000  0.377600  0.359300  1.0  0.0981
  H  H71  1  0.000200  0.453000  0.292500  1.0  0.0891
  H  H72  1  0.122500  0.577400  0.400000  1.0  0.0853
  H  H73  1  0.074900  0.623000  0.358100  1.0  0.0964
  H  H74  1  0.953100  0.499100  0.466100  1.0  0.0888
  H  H75  1  0.012300  0.292500  0.562800  1.0  0.1331
  H  H76  1  0.015500  0.405700  0.512600  1.0  0.1191
  H  H77  1  0.986200  0.270400  0.391700  1.0  0.1126
  H  H78  1  0.979200  0.156800  0.441000  1.0  0.1265
  H  H79  1  0.798900  0.106000  0.770600  1.0  0.1214
  H  H80  1  0.698300  0.105200  0.829900  1.0  0.1179
  H  H81  1  0.627300  0.888400  0.781600  1.0  0.1046
  H  H82  1  0.728600  0.887100  0.723900  1.0  0.1351
  H  H83  1  0.623600  0.924900  0.900800  1.0  0.116
  H  H84  1  0.577000  0.877600  0.859300  1.0  0.0981
  H  H85  1  0.500200  0.953000  0.792500  1.0  0.0891
  H  H86  1  0.622500  0.077400  0.900000  1.0  0.0853
  H  H87  1  0.574900  0.123000  0.858100  1.0  0.0964
  H  H88  1  0.453100  0.999100  0.966100  1.0  0.0888
  H  H89  1  0.512300  0.792500  0.062800  1.0  0.1331
  H  H90  1  0.515500  0.905700  0.012600  1.0  0.1191
  H  H91  1  0.486200  0.770400  0.891700  1.0  0.1126
  H  H92  1  0.479200  0.656800  0.941000  1.0  0.1265
  H  H93  1  0.701100  0.394000  0.270600  1.0  0.1215
  H  H94  1  0.801700  0.394800  0.329900  1.0  0.1185
  H  H95  1  0.872700  0.611600  0.281600  1.0  0.1056
  H  H96  1  0.771400  0.612900  0.223900  1.0  0.1352
  H  H97  1  0.876400  0.575100  0.400800  1.0  0.1181
  H  H98  1  0.923000  0.622400  0.359300  1.0  0.0975
  H  H99  1  0.999800  0.547000  0.292500  1.0  0.0895
  H  H100  1  0.877500  0.422600  0.400000  1.0  0.086
  H  H101  1  0.925100  0.377000  0.358100  1.0  0.0961
  H  H102  1  0.046900  0.500900  0.466100  1.0  0.0895
  H  H103  1  0.987700  0.707500  0.562800  1.0  0.1328
  H  H104  1  0.984500  0.594300  0.512600  1.0  0.1188
  H  H105  1  0.013800  0.729600  0.391700  1.0  0.1123
  H  H106  1  0.020800  0.843200  0.441000  1.0  0.1268
  H  H107  1  0.201100  0.894000  0.770600  1.0  0.1215
  H  H108  1  0.301700  0.894800  0.829900  1.0  0.1185
  H  H109  1  0.372700  0.111600  0.781600  1.0  0.1056
  H  H110  1  0.271400  0.112900  0.723900  1.0  0.1352
  H  H111  1  0.376400  0.075100  0.900800  1.0  0.1181
  H  H112  1  0.423000  0.122400  0.859300  1.0  0.0975
  H  H113  1  0.499800  0.047000  0.792500  1.0  0.0895
  H  H114  1  0.377500  0.922600  0.900000  1.0  0.086
  H  H115  1  0.425100  0.877000  0.858100  1.0  0.0961
  H  H116  1  0.546900  0.000900  0.966100  1.0  0.0895
  H  H117  1  0.487700  0.207500  0.062800  1.0  0.1328
  H  H118  1  0.484500  0.094300  0.012600  1.0  0.1188
  H  H119  1  0.513800  0.229600  0.891700  1.0  0.1123
  H  H120  1  0.520800  0.343200  0.941000  1.0  0.1268
  H  H121  1  0.106000  0.298900  0.020600  1.0  0.1198
  H  H122  1  0.105200  0.198300  0.079900  1.0  0.1183
  H  H123  1  0.888400  0.127300  0.031600  1.0  0.1072
  H  H124  1  0.887100  0.228600  0.973900  1.0  0.1344
  H  H125  1  0.924900  0.123600  0.150800  1.0  0.1149
  H  H126  1  0.877600  0.077000  0.109300  1.0  0.0961
  H  H127  1  0.953000  0.000200  0.042500  1.0  0.091
  H  H128  1  0.077400  0.122500  0.150000  1.0  0.0854
  H  H129  1  0.123000  0.074900  0.108100  1.0  0.0944
  H  H130  1  0.999100  0.953100  0.216100  1.0  0.0923
  H  H131  1  0.792500  0.012300  0.312800  1.0  0.1331
  H  H132  1  0.905700  0.015500  0.262600  1.0  0.1195
  H  H133  1  0.770400  0.986200  0.141700  1.0  0.1122
  H  H134  1  0.656800  0.979200  0.191000  1.0  0.1266
  H  H135  1  0.606000  0.798900  0.520600  1.0  0.1198
  H  H136  1  0.605200  0.698300  0.579900  1.0  0.1183
  H  H137  1  0.388400  0.627300  0.531600  1.0  0.1072
  H  H138  1  0.387100  0.728600  0.473900  1.0  0.1344
  H  H139  1  0.424900  0.623600  0.650800  1.0  0.1149
  H  H140  1  0.377600  0.577000  0.609300  1.0  0.0961
  H  H141  1  0.453000  0.500200  0.542500  1.0  0.091
  H  H142  1  0.577400  0.622500  0.650000  1.0  0.0854
  H  H143  1  0.623000  0.574900  0.608100  1.0  0.0944
  H  H144  1  0.499100  0.453100  0.716100  1.0  0.0923
  H  H145  1  0.292500  0.512300  0.812800  1.0  0.1331
  H  H146  1  0.405700  0.515500  0.762600  1.0  0.1195
  H  H147  1  0.270400  0.486200  0.641700  1.0  0.1122
  H  H148  1  0.156800  0.479200  0.691000  1.0  0.1266
  H  H149  1  0.894000  0.701100  0.020600  1.0  0.1205
  H  H150  1  0.894800  0.801700  0.079900  1.0  0.1171
  H  H151  1  0.111600  0.872700  0.031600  1.0  0.1043
  H  H152  1  0.112900  0.771400  0.973900  1.0  0.1353
  H  H153  1  0.075100  0.876400  0.150800  1.0  0.1162
  H  H154  1  0.122400  0.923000  0.109300  1.0  0.0952
  H  H155  1  0.047000  0.999800  0.042500  1.0  0.0903
  H  H156  1  0.922600  0.877500  0.150000  1.0  0.088
  H  H157  1  0.877000  0.925100  0.108100  1.0  0.0952
  H  H158  1  0.000900  0.046900  0.216100  1.0  0.0902
  H  H159  1  0.207500  0.987700  0.312800  1.0  0.1331
  H  H160  1  0.094300  0.984500  0.262600  1.0  0.1196
  H  H161  1  0.229600  0.013800  0.141700  1.0  0.1119
  H  H162  1  0.343200  0.020800  0.191000  1.0  0.126
  H  H163  1  0.394000  0.201100  0.520600  1.0  0.1205
  H  H164  1  0.394800  0.301700  0.579900  1.0  0.1171
  H  H165  1  0.611600  0.372700  0.531600  1.0  0.1043
  H  H166  1  0.612900  0.271400  0.473900  1.0  0.1353
  H  H167  1  0.575100  0.376400  0.650800  1.0  0.1162
  H  H168  1  0.622400  0.423000  0.609300  1.0  0.0952
  H  H169  1  0.547000  0.499800  0.542500  1.0  0.0903
  H  H170  1  0.422600  0.377500  0.650000  1.0  0.088
  H  H171  1  0.377000  0.425100  0.608100  1.0  0.0952
  H  H172  1  0.500900  0.546900  0.716100  1.0  0.0902
  H  H173  1  0.707500  0.487700  0.812800  1.0  0.1331
  H  H174  1  0.594300  0.484500  0.762600  1.0  0.1196
  H  H175  1  0.729600  0.513800  0.641700  1.0  0.1119
  H  H176  1  0.843200  0.520800  0.691000  1.0  0.126
  H  H177  1  0.201100  0.606000  0.479400  1.0  0.1216
  H  H178  1  0.301700  0.605200  0.420100  1.0  0.119
  H  H179  1  0.372700  0.388400  0.468400  1.0  0.1056
  H  H180  1  0.271400  0.387100  0.526100  1.0  0.1356
  H  H181  1  0.376400  0.424900  0.349200  1.0  0.1197
  H  H182  1  0.423000  0.377600  0.390700  1.0  0.0977
  H  H183  1  0.499800  0.453000  0.457500  1.0  0.0889
  H  H184  1  0.377500  0.577400  0.350000  1.0  0.0867
  H  H185  1  0.425100  0.623000  0.391900  1.0  0.0953
  H  H186  1  0.546900  0.499100  0.283900  1.0  0.0888
  H  H187  1  0.487700  0.292500  0.187200  1.0  0.1325
  H  H188  1  0.484500  0.405700  0.237400  1.0  0.1189
  H  H189  1  0.513800  0.270400  0.358300  1.0  0.1125
  H  H190  1  0.520800  0.156800  0.309000  1.0  0.1262
  H  H191  1  0.701100  0.106000  0.979400  1.0  0.1216
  H  H192  1  0.801700  0.105200  0.920100  1.0  0.119
  H  H193  1  0.872700  0.888400  0.968400  1.0  0.1056
  H  H194  1  0.771400  0.887100  0.026100  1.0  0.1356
  H  H195  1  0.876400  0.924900  0.849200  1.0  0.1197
  H  H196  1  0.923000  0.877600  0.890700  1.0  0.0977
  H  H197  1  0.999800  0.953000  0.957500  1.0  0.0889
  H  H198  1  0.877500  0.077400  0.850000  1.0  0.0867
  H  H199  1  0.925100  0.123000  0.891900  1.0  0.0953
  H  H200  1  0.046900  0.999100  0.783900  1.0  0.0888
  H  H201  1  0.987700  0.792500  0.687200  1.0  0.1325
  H  H202  1  0.984500  0.905700  0.737400  1.0  0.1189
  H  H203  1  0.013800  0.770400  0.858300  1.0  0.1125
  H  H204  1  0.020800  0.656800  0.809000  1.0  0.1262
  H  H205  1  0.798900  0.394000  0.479400  1.0  0.1219
  H  H206  1  0.698300  0.394800  0.420100  1.0  0.1178
  H  H207  1  0.627300  0.611600  0.468400  1.0  0.1062
  H  H208  1  0.728600  0.612900  0.526100  1.0  0.1341
  H  H209  1  0.623600  0.575100  0.349200  1.0  0.1159
  H  H210  1  0.577000  0.622400  0.390700  1.0  0.0967
  H  H211  1  0.500200  0.547000  0.457500  1.0  0.0887
  H  H212  1  0.622500  0.422600  0.350000  1.0  0.0866
  H  H213  1  0.574900  0.377000  0.391900  1.0  0.0967
  H  H214  1  0.453100  0.500900  0.283900  1.0  0.0881
  H  H215  1  0.512300  0.707500  0.187200  1.0  0.1324
  H  H216  1  0.515500  0.594300  0.237400  1.0  0.1187
  H  H217  1  0.486200  0.729600  0.358300  1.0  0.1119
  H  H218  1  0.479200  0.843200  0.309000  1.0  0.1265
  H  H219  1  0.298900  0.894000  0.979400  1.0  0.1219
  H  H220  1  0.198300  0.894800  0.920100  1.0  0.1178
  H  H221  1  0.127300  0.111600  0.968400  1.0  0.1062
  H  H222  1  0.228600  0.112900  0.026100  1.0  0.1341
  H  H223  1  0.123600  0.075100  0.849200  1.0  0.1159
  H  H224  1  0.077000  0.122400  0.890700  1.0  0.0967
  H  H225  1  0.000200  0.047000  0.957500  1.0  0.0887
  H  H226  1  0.122500  0.922600  0.850000  1.0  0.0866
  H  H227  1  0.074900  0.877000  0.891900  1.0  0.0967
  H  H228  1  0.953100  0.000900  0.783900  1.0  0.0881
  H  H229  1  0.012300  0.207500  0.687200  1.0  0.1324
  H  H230  1  0.015500  0.094300  0.737400  1.0  0.1187
  H  H231  1  0.986200  0.229600  0.858300  1.0  0.1119
  H  H232  1  0.979200  0.343200  0.809000  1.0  0.1265
  C  C233  1  0.501400  0.336700  0.795700  1.0  0.3775
  C  C234  1  0.502800  0.273700  0.759320  1.0  -0.0216
  C  C235  1  0.437500  0.264300  0.727200  1.0  -0.1367
  C  C236  1  0.437800  0.203000  0.692100  1.0  -0.1417
  C  C237  1  0.500300  0.148900  0.688770  1.0  0.0256
  C  C238  1  0.567600  0.161200  0.720900  1.0  -0.1258
  C  C239  1  0.568700  0.221800  0.755400  1.0  -0.0839
  C  C240  1  0.499700  0.076500  0.653530  1.0  0.1101
  C  C241  1  0.574800  0.076100  0.620000  1.0  -0.2314
  C  C242  1  0.424200  0.075000  0.620800  1.0  -0.2535
  C  C243  1  0.575900  0.001400  0.586920  1.0  0.119
  C  C244  1  0.853800  0.992700  0.460600  1.0  0.3466
  C  C245  1  0.785100  0.994500  0.493200  1.0  -0.0236
  C  C246  1  0.712000  0.005900  0.471600  1.0  -0.1301
  C  C247  1  0.644300  0.007900  0.501800  1.0  -0.1882
  C  C248  1  0.650400  0.998600  0.553800  1.0  0.0418
  C  C249  1  0.724500  0.990000  0.573700  1.0  -0.1405
  C  C250  1  0.793100  0.986600  0.544500  1.0  -0.1459
  C  C251  1  0.001400  0.836700  0.295700  1.0  0.3775
  C  C252  1  0.002800  0.773700  0.259320  1.0  -0.0216
  C  C253  1  0.937500  0.764300  0.227200  1.0  -0.1367
  C  C254  1  0.937800  0.703000  0.192100  1.0  -0.1417
  C  C255  1  0.000300  0.648900  0.188770  1.0  0.0256
  C  C256  1  0.067600  0.661200  0.220900  1.0  -0.1258
  C  C257  1  0.068700  0.721800  0.255400  1.0  -0.0839
  C  C258  1  0.999700  0.576500  0.153530  1.0  0.1101
  C  C259  1  0.074800  0.576100  0.120000  1.0  -0.2314
  C  C260  1  0.924200  0.575000  0.120800  1.0  -0.2535
  C  C261  1  0.075900  0.501400  0.086920  1.0  0.119
  C  C262  1  0.353800  0.492700  0.960600  1.0  0.3466
  C  C263  1  0.285100  0.494500  0.993200  1.0  -0.0236
  C  C264  1  0.212000  0.505900  0.971600  1.0  -0.1301
  C  C265  1  0.144300  0.507900  0.001800  1.0  -0.1882
  C  C266  1  0.150400  0.498600  0.053800  1.0  0.0418
  C  C267  1  0.224500  0.490000  0.073700  1.0  -0.1405
  C  C268  1  0.293100  0.486600  0.044500  1.0  -0.1459
  C  C269  1  0.498600  0.663300  0.795700  1.0  0.3773
  C  C270  1  0.497200  0.726300  0.759320  1.0  -0.0226
  C  C271  1  0.562500  0.735700  0.727200  1.0  -0.1361
  C  C272  1  0.562200  0.797000  0.692100  1.0  -0.1415
  C  C273  1  0.499700  0.851100  0.688770  1.0  0.0249
  C  C274  1  0.432400  0.838800  0.720900  1.0  -0.1253
  C  C275  1  0.431300  0.778200  0.755400  1.0  -0.0818
  C  C276  1  0.500300  0.923500  0.653530  1.0  0.1096
  C  C277  1  0.425200  0.923900  0.620000  1.0  -0.2316
  C  C278  1  0.575800  0.925000  0.620800  1.0  -0.2517
  C  C279  1  0.424100  0.998600  0.586920  1.0  0.1179
  C  C280  1  0.146200  0.007300  0.460600  1.0  0.3461
  C  C281  1  0.214900  0.005500  0.493200  1.0  -0.0227
  C  C282  1  0.288000  0.994100  0.471600  1.0  -0.1287
  C  C283  1  0.355700  0.992100  0.501800  1.0  -0.1907
  C  C284  1  0.349600  0.001400  0.553800  1.0  0.0434
  C  C285  1  0.275500  0.010000  0.573700  1.0  -0.1435
  C  C286  1  0.206900  0.013400  0.544500  1.0  -0.1477
  C  C287  1  0.998600  0.163300  0.295700  1.0  0.3773
  C  C288  1  0.997200  0.226300  0.259320  1.0  -0.0226
  C  C289  1  0.062500  0.235700  0.227200  1.0  -0.1361
  C  C290  1  0.062200  0.297000  0.192100  1.0  -0.1415
  C  C291  1  0.999700  0.351100  0.188770  1.0  0.0249
  C  C292  1  0.932400  0.338800  0.220900  1.0  -0.1253
  C  C293  1  0.931300  0.278200  0.255400  1.0  -0.0818
  C  C294  1  0.000300  0.423500  0.153530  1.0  0.1096
  C  C295  1  0.925200  0.423900  0.120000  1.0  -0.2316
  C  C296  1  0.075800  0.425000  0.120800  1.0  -0.2517
  C  C297  1  0.924100  0.498600  0.086920  1.0  0.1179
  C  C298  1  0.646200  0.507300  0.960600  1.0  0.3461
  C  C299  1  0.714900  0.505500  0.993200  1.0  -0.0227
  C  C300  1  0.788000  0.494100  0.971600  1.0  -0.1287
  C  C301  1  0.855700  0.492100  0.001800  1.0  -0.1907
  C  C302  1  0.849600  0.501400  0.053800  1.0  0.0434
  C  C303  1  0.775500  0.510000  0.073700  1.0  -0.1435
  C  C304  1  0.706900  0.513400  0.044500  1.0  -0.1477
  C  C305  1  0.500000  0.000000  0.686200  1.0  -0.2323
  C  C306  1  0.500000  0.000000  0.555200  1.0  -0.1956
  C  C307  1  0.000000  0.500000  0.186200  1.0  -0.2323
  C  C308  1  0.000000  0.500000  0.055200  1.0  -0.1956
  C  C309  1  0.336700  0.498600  0.204300  1.0  0.377
  C  C310  1  0.273700  0.497200  0.240680  1.0  -0.0259
  C  C311  1  0.264300  0.562500  0.272800  1.0  -0.137
  C  C312  1  0.203000  0.562200  0.307900  1.0  -0.1411
  C  C313  1  0.148900  0.499700  0.311230  1.0  0.023
  C  C314  1  0.161200  0.432400  0.279100  1.0  -0.1241
  C  C315  1  0.221800  0.431300  0.244600  1.0  -0.0859
  C  C316  1  0.076500  0.500300  0.346470  1.0  0.109
  C  C317  1  0.076100  0.425200  0.380000  1.0  -0.2293
  C  C318  1  0.075000  0.575800  0.379200  1.0  -0.2517
  C  C319  1  0.001400  0.424100  0.413080  1.0  0.1188
  C  C320  1  0.992700  0.146200  0.539400  1.0  0.3467
  C  C321  1  0.994500  0.214900  0.506800  1.0  -0.023
  C  C322  1  0.005900  0.288000  0.528400  1.0  -0.1336
  C  C323  1  0.007900  0.355700  0.498200  1.0  -0.1925
  C  C324  1  0.998600  0.349600  0.446200  1.0  0.0468
  C  C325  1  0.990000  0.275500  0.426300  1.0  -0.143
  C  C326  1  0.986600  0.206900  0.455500  1.0  -0.1509
  C  C327  1  0.836700  0.998600  0.704300  1.0  0.377
  C  C328  1  0.773700  0.997200  0.740680  1.0  -0.0259
  C  C329  1  0.764300  0.062500  0.772800  1.0  -0.137
  C  C330  1  0.703000  0.062200  0.807900  1.0  -0.1411
  C  C331  1  0.648900  0.999700  0.811230  1.0  0.023
  C  C332  1  0.661200  0.932400  0.779100  1.0  -0.1241
  C  C333  1  0.721800  0.931300  0.744600  1.0  -0.0859
  C  C334  1  0.576500  0.000300  0.846470  1.0  0.109
  C  C335  1  0.576100  0.925200  0.880000  1.0  -0.2293
  C  C336  1  0.575000  0.075800  0.879200  1.0  -0.2517
  C  C337  1  0.501400  0.924100  0.913080  1.0  0.1188
  C  C338  1  0.492700  0.646200  0.039400  1.0  0.3467
  C  C339  1  0.494500  0.714900  0.006800  1.0  -0.023
  C  C340  1  0.505900  0.788000  0.028400  1.0  -0.1336
  C  C341  1  0.507900  0.855700  0.998200  1.0  -0.1925
  C  C342  1  0.498600  0.849600  0.946200  1.0  0.0468
  C  C343  1  0.490000  0.775500  0.926300  1.0  -0.143
  C  C344  1  0.486600  0.706900  0.955500  1.0  -0.1509
  C  C345  1  0.663300  0.501400  0.204300  1.0  0.3787
  C  C346  1  0.726300  0.502800  0.240680  1.0  -0.0276
  C  C347  1  0.735700  0.437500  0.272800  1.0  -0.1369
  C  C348  1  0.797000  0.437800  0.307900  1.0  -0.1402
  C  C349  1  0.851100  0.500300  0.311230  1.0  0.0229
  C  C350  1  0.838800  0.567600  0.279100  1.0  -0.1263
  C  C351  1  0.778200  0.568700  0.244600  1.0  -0.0854
  C  C352  1  0.923500  0.499700  0.346470  1.0  0.1088
  C  C353  1  0.923900  0.574800  0.380000  1.0  -0.2325
  C  C354  1  0.925000  0.424200  0.379200  1.0  -0.2531
  C  C355  1  0.998600  0.575900  0.413080  1.0  0.1198
  C  C356  1  0.007300  0.853800  0.539400  1.0  0.3459
  C  C357  1  0.005500  0.785100  0.506800  1.0  -0.0231
  C  C358  1  0.994100  0.712000  0.528400  1.0  -0.1342
  C  C359  1  0.992100  0.644300  0.498200  1.0  -0.1925
  C  C360  1  0.001400  0.650400  0.446200  1.0  0.0469
  C  C361  1  0.010000  0.724500  0.426300  1.0  -0.1462
  C  C362  1  0.013400  0.793100  0.455500  1.0  -0.1488
  C  C363  1  0.163300  0.001400  0.704300  1.0  0.3787
  C  C364  1  0.226300  0.002800  0.740680  1.0  -0.0276
  C  C365  1  0.235700  0.937500  0.772800  1.0  -0.1369
  C  C366  1  0.297000  0.937800  0.807900  1.0  -0.1402
  C  C367  1  0.351100  0.000300  0.811230  1.0  0.0229
  C  C368  1  0.338800  0.067600  0.779100  1.0  -0.1263
  C  C369  1  0.278200  0.068700  0.744600  1.0  -0.0854
  C  C370  1  0.423500  0.999700  0.846470  1.0  0.1088
  C  C371  1  0.423900  0.074800  0.880000  1.0  -0.2325
  C  C372  1  0.425000  0.924200  0.879200  1.0  -0.2531
  C  C373  1  0.498600  0.075900  0.913080  1.0  0.1198
  C  C374  1  0.507300  0.353800  0.039400  1.0  0.3459
  C  C375  1  0.505500  0.285100  0.006800  1.0  -0.0231
  C  C376  1  0.494100  0.212000  0.028400  1.0  -0.1342
  C  C377  1  0.492100  0.144300  0.998200  1.0  -0.1925
  C  C378  1  0.501400  0.150400  0.946200  1.0  0.0469
  C  C379  1  0.510000  0.224500  0.926300  1.0  -0.1462
  C  C380  1  0.513400  0.293100  0.955500  1.0  -0.1488
  C  C381  1  0.000000  0.500000  0.313800  1.0  -0.2312
  C  C382  1  0.000000  0.500000  0.444800  1.0  -0.1924
  C  C383  1  0.500000  0.000000  0.813800  1.0  -0.2312
  C  C384  1  0.500000  0.000000  0.944800  1.0  -0.1924
  C  C385  1  0.998600  0.336700  0.954300  1.0  0.3788
  C  C386  1  0.997200  0.273700  0.990680  1.0  -0.0208
  C  C387  1  0.062500  0.264300  0.022800  1.0  -0.1358
  C  C388  1  0.062200  0.203000  0.057900  1.0  -0.1411
  C  C389  1  0.999700  0.148900  0.061230  1.0  0.0253
  C  C390  1  0.932400  0.161200  0.029100  1.0  -0.1264
  C  C391  1  0.931300  0.221800  0.994600  1.0  -0.0837
  C  C392  1  0.000300  0.076500  0.096470  1.0  0.1102
  C  C393  1  0.925200  0.076100  0.130000  1.0  -0.2345
  C  C394  1  0.075800  0.075000  0.129200  1.0  -0.2515
  C  C395  1  0.924100  0.001400  0.163080  1.0  0.1187
  C  C396  1  0.646200  0.992700  0.289400  1.0  0.3455
  C  C397  1  0.714900  0.994500  0.256800  1.0  -0.0241
  C  C398  1  0.788000  0.005900  0.278400  1.0  -0.1311
  C  C399  1  0.855700  0.007900  0.248200  1.0  -0.1911
  C  C400  1  0.849600  0.998600  0.196200  1.0  0.043
  C  C401  1  0.775500  0.990000  0.176300  1.0  -0.1398
  C  C402  1  0.706900  0.986600  0.205500  1.0  -0.1478
  C  C403  1  0.498600  0.836700  0.454300  1.0  0.3788
  C  C404  1  0.497200  0.773700  0.490680  1.0  -0.0208
  C  C405  1  0.562500  0.764300  0.522800  1.0  -0.1358
  C  C406  1  0.562200  0.703000  0.557900  1.0  -0.1411
  C  C407  1  0.499700  0.648900  0.561230  1.0  0.0253
  C  C408  1  0.432400  0.661200  0.529100  1.0  -0.1264
  C  C409  1  0.431300  0.721800  0.494600  1.0  -0.0837
  C  C410  1  0.500300  0.576500  0.596470  1.0  0.1102
  C  C411  1  0.425200  0.576100  0.630000  1.0  -0.2345
  C  C412  1  0.575800  0.575000  0.629200  1.0  -0.2515
  C  C413  1  0.424100  0.501400  0.663080  1.0  0.1187
  C  C414  1  0.146200  0.492700  0.789400  1.0  0.3455
  C  C415  1  0.214900  0.494500  0.756800  1.0  -0.0241
  C  C416  1  0.288000  0.505900  0.778400  1.0  -0.1311
  C  C417  1  0.355700  0.507900  0.748200  1.0  -0.1911
  C  C418  1  0.349600  0.498600  0.696200  1.0  0.043
  C  C419  1  0.275500  0.490000  0.676300  1.0  -0.1398
  C  C420  1  0.206900  0.486600  0.705500  1.0  -0.1478
  C  C421  1  0.001400  0.663300  0.954300  1.0  0.3792
  C  C422  1  0.002800  0.726300  0.990680  1.0  -0.022
  C  C423  1  0.937500  0.735700  0.022800  1.0  -0.1362
  C  C424  1  0.937800  0.797000  0.057900  1.0  -0.1416
  C  C425  1  0.000300  0.851100  0.061230  1.0  0.0256
  C  C426  1  0.067600  0.838800  0.029100  1.0  -0.1252
  C  C427  1  0.068700  0.778200  0.994600  1.0  -0.0849
  C  C428  1  0.999700  0.923500  0.096470  1.0  0.1087
  C  C429  1  0.074800  0.923900  0.130000  1.0  -0.2313
  C  C430  1  0.924200  0.925000  0.129200  1.0  -0.2534
  C  C431  1  0.075900  0.998600  0.163080  1.0  0.119
  C  C432  1  0.353800  0.007300  0.289400  1.0  0.3465
  C  C433  1  0.285100  0.005500  0.256800  1.0  -0.0254
  C  C434  1  0.212000  0.994100  0.278400  1.0  -0.1324
  C  C435  1  0.144300  0.992100  0.248200  1.0  -0.1881
  C  C436  1  0.150400  0.001400  0.196200  1.0  0.0413
  C  C437  1  0.224500  0.010000  0.176300  1.0  -0.1439
  C  C438  1  0.293100  0.013400  0.205500  1.0  -0.1468
  C  C439  1  0.501400  0.163300  0.454300  1.0  0.3792
  C  C440  1  0.502800  0.226300  0.490680  1.0  -0.022
  C  C441  1  0.437500  0.235700  0.522800  1.0  -0.1362
  C  C442  1  0.437800  0.297000  0.557900  1.0  -0.1416
  C  C443  1  0.500300  0.351100  0.561230  1.0  0.0256
  C  C444  1  0.567600  0.338800  0.529100  1.0  -0.1252
  C  C445  1  0.568700  0.278200  0.494600  1.0  -0.0849
  C  C446  1  0.499700  0.423500  0.596470  1.0  0.1087
  C  C447  1  0.574800  0.423900  0.630000  1.0  -0.2313
  C  C448  1  0.424200  0.425000  0.629200  1.0  -0.2534
  C  C449  1  0.575900  0.498600  0.663080  1.0  0.119
  C  C450  1  0.853800  0.507300  0.789400  1.0  0.3465
  C  C451  1  0.785100  0.505500  0.756800  1.0  -0.0254
  C  C452  1  0.712000  0.494100  0.778400  1.0  -0.1324
  C  C453  1  0.644300  0.492100  0.748200  1.0  -0.1881
  C  C454  1  0.650400  0.501400  0.696200  1.0  0.0413
  C  C455  1  0.724500  0.510000  0.676300  1.0  -0.1439
  C  C456  1  0.793100  0.513400  0.705500  1.0  -0.1468
  C  C457  1  0.000000  0.000000  0.063800  1.0  -0.2312
  C  C458  1  0.000000  0.000000  0.194800  1.0  -0.1924
  C  C459  1  0.500000  0.500000  0.563800  1.0  -0.2312
  C  C460  1  0.500000  0.500000  0.694800  1.0  -0.1924
  C  C461  1  0.163300  0.498600  0.545700  1.0  0.3769
  C  C462  1  0.226300  0.497200  0.509320  1.0  -0.0285
  C  C463  1  0.235700  0.562500  0.477200  1.0  -0.1381
  C  C464  1  0.297000  0.562200  0.442100  1.0  -0.14
  C  C465  1  0.351100  0.499700  0.438770  1.0  0.0223
  C  C466  1  0.338800  0.432400  0.470900  1.0  -0.127
  C  C467  1  0.278200  0.431300  0.505400  1.0  -0.0846
  C  C468  1  0.423500  0.500300  0.403530  1.0  0.1088
  C  C469  1  0.423900  0.425200  0.370000  1.0  -0.2309
  C  C470  1  0.425000  0.575800  0.370800  1.0  -0.2526
  C  C471  1  0.498600  0.424100  0.336920  1.0  0.118
  C  C472  1  0.507300  0.146200  0.210600  1.0  0.3466
  C  C473  1  0.505500  0.214900  0.243200  1.0  -0.0227
  C  C474  1  0.494100  0.288000  0.221600  1.0  -0.1314
  C  C475  1  0.492100  0.355700  0.251800  1.0  -0.1918
  C  C476  1  0.501400  0.349600  0.303800  1.0  0.048
  C  C477  1  0.510000  0.275500  0.323700  1.0  -0.1442
  C  C478  1  0.513400  0.206900  0.294500  1.0  -0.1503
  C  C479  1  0.663300  0.998600  0.045700  1.0  0.3769
  C  C480  1  0.726300  0.997200  0.009320  1.0  -0.0285
  C  C481  1  0.735700  0.062500  0.977200  1.0  -0.1381
  C  C482  1  0.797000  0.062200  0.942100  1.0  -0.14
  C  C483  1  0.851100  0.999700  0.938770  1.0  0.0223
  C  C484  1  0.838800  0.932400  0.970900  1.0  -0.127
  C  C485  1  0.778200  0.931300  0.005400  1.0  -0.0846
  C  C486  1  0.923500  0.000300  0.903530  1.0  0.1088
  C  C487  1  0.923900  0.925200  0.870000  1.0  -0.2309
  C  C488  1  0.925000  0.075800  0.870800  1.0  -0.2526
  C  C489  1  0.998600  0.924100  0.836920  1.0  0.118
  C  C490  1  0.007300  0.646200  0.710600  1.0  0.3466
  C  C491  1  0.005500  0.714900  0.743200  1.0  -0.0227
  C  C492  1  0.994100  0.788000  0.721600  1.0  -0.1314
  C  C493  1  0.992100  0.855700  0.751800  1.0  -0.1918
  C  C494  1  0.001400  0.849600  0.803800  1.0  0.048
  C  C495  1  0.010000  0.775500  0.823700  1.0  -0.1442
  C  C496  1  0.013400  0.706900  0.794500  1.0  -0.1503
  C  C497  1  0.836700  0.501400  0.545700  1.0  0.3763
  C  C498  1  0.773700  0.502800  0.509320  1.0  -0.0272
  C  C499  1  0.764300  0.437500  0.477200  1.0  -0.1383
  C  C500  1  0.703000  0.437800  0.442100  1.0  -0.1403
  C  C501  1  0.648900  0.500300  0.438770  1.0  0.0233
  C  C502  1  0.661200  0.567600  0.470900  1.0  -0.1254
  C  C503  1  0.721800  0.568700  0.505400  1.0  -0.085
  C  C504  1  0.576500  0.499700  0.403530  1.0  0.1089
  C  C505  1  0.576100  0.574800  0.370000  1.0  -0.2296
  C  C506  1  0.575000  0.424200  0.370800  1.0  -0.251
  C  C507  1  0.501400  0.575900  0.336920  1.0  0.1192
  C  C508  1  0.492700  0.853800  0.210600  1.0  0.3462
  C  C509  1  0.494500  0.785100  0.243200  1.0  -0.0211
  C  C510  1  0.505900  0.712000  0.221600  1.0  -0.1327
  C  C511  1  0.507900  0.644300  0.251800  1.0  -0.1938
  C  C512  1  0.498600  0.650400  0.303800  1.0  0.0471
  C  C513  1  0.490000  0.724500  0.323700  1.0  -0.145
  C  C514  1  0.486600  0.793100  0.294500  1.0  -0.1485
  C  C515  1  0.336700  0.001400  0.045700  1.0  0.3763
  C  C516  1  0.273700  0.002800  0.009320  1.0  -0.0272
  C  C517  1  0.264300  0.937500  0.977200  1.0  -0.1383
  C  C518  1  0.203000  0.937800  0.942100  1.0  -0.1403
  C  C519  1  0.148900  0.000300  0.938770  1.0  0.0233
  C  C520  1  0.161200  0.067600  0.970900  1.0  -0.1254
  C  C521  1  0.221800  0.068700  0.005400  1.0  -0.085
  C  C522  1  0.076500  0.999700  0.903530  1.0  0.1089
  C  C523  1  0.076100  0.074800  0.870000  1.0  -0.2296
  C  C524  1  0.075000  0.924200  0.870800  1.0  -0.251
  C  C525  1  0.001400  0.075900  0.836920  1.0  0.1192
  C  C526  1  0.992700  0.353800  0.710600  1.0  0.3462
  C  C527  1  0.994500  0.285100  0.743200  1.0  -0.0211
  C  C528  1  0.005900  0.212000  0.721600  1.0  -0.1327
  C  C529  1  0.007900  0.144300  0.751800  1.0  -0.1938
  C  C530  1  0.998600  0.150400  0.803800  1.0  0.0471
  C  C531  1  0.990000  0.224500  0.823700  1.0  -0.145
  C  C532  1  0.986600  0.293100  0.794500  1.0  -0.1485
  C  C533  1  0.500000  0.500000  0.436200  1.0  -0.2323
  C  C534  1  0.500000  0.500000  0.305200  1.0  -0.1956
  C  C535  1  0.000000  0.000000  0.936200  1.0  -0.2323
  C  C536  1  0.000000  0.000000  0.805200  1.0  -0.1956
  N  N537  1  0.502400  0.388100  0.823760  1.0  -0.5111
  N  N538  1  0.905600  0.989500  0.432300  1.0  -0.4412
  N  N539  1  0.002400  0.888100  0.323760  1.0  -0.5111
  N  N540  1  0.405600  0.489500  0.932300  1.0  -0.4412
  N  N541  1  0.497600  0.611900  0.823760  1.0  -0.5093
  N  N542  1  0.094400  0.010500  0.432300  1.0  -0.4406
  N  N543  1  0.997600  0.111900  0.323760  1.0  -0.5093
  N  N544  1  0.594400  0.510500  0.932300  1.0  -0.4406
  N  N545  1  0.388100  0.497600  0.176240  1.0  -0.5081
  N  N546  1  0.989500  0.094400  0.567700  1.0  -0.4421
  N  N547  1  0.888100  0.997600  0.676240  1.0  -0.5081
  N  N548  1  0.489500  0.594400  0.067700  1.0  -0.4421
  N  N549  1  0.611900  0.502400  0.176240  1.0  -0.509
  N  N550  1  0.010500  0.905600  0.567700  1.0  -0.4428
  N  N551  1  0.111900  0.002400  0.676240  1.0  -0.509
  N  N552  1  0.510500  0.405600  0.067700  1.0  -0.4428
  N  N553  1  0.997600  0.388100  0.926240  1.0  -0.5102
  N  N554  1  0.594400  0.989500  0.317700  1.0  -0.4403
  N  N555  1  0.497600  0.888100  0.426240  1.0  -0.5102
  N  N556  1  0.094400  0.489500  0.817700  1.0  -0.4403
  N  N557  1  0.002400  0.611900  0.926240  1.0  -0.5099
  N  N558  1  0.405600  0.010500  0.317700  1.0  -0.4415
  N  N559  1  0.502400  0.111900  0.426240  1.0  -0.5099
  N  N560  1  0.905600  0.510500  0.817700  1.0  -0.4415
  N  N561  1  0.111900  0.497600  0.573760  1.0  -0.5089
  N  N562  1  0.510500  0.094400  0.182300  1.0  -0.4413
  N  N563  1  0.611900  0.997600  0.073760  1.0  -0.5089
  N  N564  1  0.010500  0.594400  0.682300  1.0  -0.4413
  N  N565  1  0.888100  0.502400  0.573760  1.0  -0.5073
  N  N566  1  0.489500  0.905600  0.182300  1.0  -0.4437
  N  N567  1  0.388100  0.002400  0.073760  1.0  -0.5073
  N  N568  1  0.989500  0.405600  0.682300  1.0  -0.4437
