# generated using pymatgen
data_NiH5C9O5
_symmetry_space_group_name_H-M   'P 1'
_cell_length_a   13.34640000
_cell_length_b   13.89450000
_cell_length_c   14.56500000
_cell_angle_alpha   90.00000000
_cell_angle_beta   114.55300000
_cell_angle_gamma   90.00000000
_symmetry_Int_Tables_number   1
_chemical_formula_structural   NiH5C9O5
_chemical_formula_sum   'Ni8 H40 C72 O40'
_cell_volume   2456.72843589
_cell_formula_units_Z   8
loop_
 _symmetry_equiv_pos_site_id
 _symmetry_equiv_pos_as_xyz
  1  'x, y, z'
loop_
 _atom_site_type_symbol
 _atom_site_label
 _atom_site_symmetry_multiplicity
 _atom_site_fract_x
 _atom_site_fract_y
 _atom_site_fract_z
 _atom_site_occupancy
 _atom_site_charge
  Ni  Ni1  1  0.476700  0.598770  0.236920  1.0  1.0087
  Ni  Ni2  1  0.658270  0.734170  0.425090  1.0  0.9518
  Ni  Ni3  1  0.023300  0.098770  0.263080  1.0  1.0086
  Ni  Ni4  1  0.841730  0.234170  0.074910  1.0  0.9514
  Ni  Ni5  1  0.523300  0.401230  0.763080  1.0  1.0087
  Ni  Ni6  1  0.341730  0.265830  0.574910  1.0  0.9519
  Ni  Ni7  1  0.976700  0.901230  0.736920  1.0  1.0088
  Ni  Ni8  1  0.158270  0.765830  0.925090  1.0  0.9514
  H  H9  1  0.067000  0.170600  0.819400  1.0  0.0735
  H  H10  1  0.962800  0.233700  0.802600  1.0  0.0789
  H  H11  1  0.964500  0.233900  0.498400  1.0  0.1274
  H  H12  1  0.759600  0.399600  0.270700  1.0  0.113
  H  H13  1  0.802900  0.452000  0.556100  1.0  0.1332
  H  H14  1  0.042300  0.212100  0.974200  1.0  0.1256
  H  H15  1  0.243200  0.421500  0.959300  1.0  0.1342
  H  H16  1  0.249000  0.345700  0.227700  1.0  0.1106
  H  H17  1  0.974100  0.184000  0.648000  1.0  0.0701
  H  H18  1  0.075400  0.253900  0.676900  1.0  0.0797
  H  H19  1  0.433000  0.670600  0.680600  1.0  0.0731
  H  H20  1  0.537200  0.733700  0.697400  1.0  0.0784
  H  H21  1  0.535500  0.733900  0.001600  1.0  0.1279
  H  H22  1  0.740400  0.899600  0.229300  1.0  0.1128
  H  H23  1  0.697100  0.952000  0.943900  1.0  0.1335
  H  H24  1  0.457700  0.712100  0.525800  1.0  0.125
  H  H25  1  0.256800  0.921500  0.540700  1.0  0.1352
  H  H26  1  0.251000  0.845700  0.272300  1.0  0.1111
  H  H27  1  0.525900  0.684000  0.852000  1.0  0.0706
  H  H28  1  0.424600  0.753900  0.823100  1.0  0.0799
  H  H29  1  0.933000  0.829400  0.180600  1.0  0.0741
  H  H30  1  0.037200  0.766300  0.197400  1.0  0.078
  H  H31  1  0.035500  0.766100  0.501600  1.0  0.128
  H  H32  1  0.240400  0.600400  0.729300  1.0  0.113
  H  H33  1  0.197100  0.548000  0.443900  1.0  0.1335
  H  H34  1  0.957700  0.787900  0.025800  1.0  0.1251
  H  H35  1  0.756800  0.578500  0.040700  1.0  0.1353
  H  H36  1  0.751000  0.654300  0.772300  1.0  0.1107
  H  H37  1  0.025900  0.816000  0.352000  1.0  0.0698
  H  H38  1  0.924600  0.746100  0.323100  1.0  0.0797
  H  H39  1  0.567000  0.329400  0.319400  1.0  0.0737
  H  H40  1  0.462800  0.266300  0.302600  1.0  0.0789
  H  H41  1  0.464500  0.266100  0.998400  1.0  0.1282
  H  H42  1  0.259600  0.100400  0.770700  1.0  0.1128
  H  H43  1  0.302900  0.048000  0.056100  1.0  0.1335
  H  H44  1  0.542300  0.287900  0.474200  1.0  0.1252
  H  H45  1  0.743200  0.078500  0.459300  1.0  0.1348
  H  H46  1  0.749000  0.154300  0.727700  1.0  0.1108
  H  H47  1  0.474100  0.316000  0.148000  1.0  0.0703
  H  H48  1  0.575400  0.246100  0.176900  1.0  0.0796
  C  C49  1  0.694400  0.525680  0.372600  1.0  0.7189
  C  C50  1  0.770900  0.440400  0.408300  1.0  -0.1014
  C  C51  1  0.259200  0.395020  0.101540  1.0  -0.0986
  C  C52  1  0.890600  0.339300  0.543210  1.0  0.2689
  C  C53  1  0.031000  0.231700  0.793800  1.0  0.0834
  C  C54  1  0.866500  0.309300  0.373070  1.0  -0.097
  C  C55  1  0.915700  0.285400  0.475900  1.0  -0.1978
  C  C56  1  0.793500  0.385300  0.339200  1.0  -0.0398
  C  C57  1  0.819000  0.416200  0.510100  1.0  -0.1499
  C  C58  1  0.096800  0.257700  0.006100  1.0  -0.1986
  C  C59  1  0.217300  0.383200  0.997200  1.0  -0.1557
  C  C60  1  0.137000  0.314600  0.950200  1.0  0.2724
  C  C61  1  0.220500  0.338200  0.157970  1.0  -0.0402
  C  C62  1  0.345300  0.469700  0.152850  1.0  0.6183
  C  C63  1  0.007600  0.242300  0.684500  1.0  0.0844
  C  C64  1  0.139100  0.269980  0.110510  1.0  -0.112
  C  C65  1  0.895200  0.253530  0.299500  1.0  0.7129
  C  C66  1  0.097400  0.210730  0.172000  1.0  0.6712
  C  C67  1  0.805600  0.025680  0.127400  1.0  0.7196
  C  C68  1  0.729100  0.940400  0.091700  1.0  -0.1011
  C  C69  1  0.240800  0.895020  0.398460  1.0  -0.0982
  C  C70  1  0.609400  0.839300  0.956790  1.0  0.2686
  C  C71  1  0.469000  0.731700  0.706200  1.0  0.0841
  C  C72  1  0.633500  0.809300  0.126930  1.0  -0.0988
  C  C73  1  0.584300  0.785400  0.024100  1.0  -0.1992
  C  C74  1  0.706500  0.885300  0.160800  1.0  -0.0333
  C  C75  1  0.681000  0.916200  0.989900  1.0  -0.1499
  C  C76  1  0.403200  0.757700  0.493900  1.0  -0.1923
  C  C77  1  0.282700  0.883200  0.502800  1.0  -0.1568
  C  C78  1  0.363000  0.814600  0.549800  1.0  0.2729
  C  C79  1  0.279500  0.838200  0.342030  1.0  -0.0418
  C  C80  1  0.154700  0.969700  0.347150  1.0  0.6177
  C  C81  1  0.492400  0.742300  0.815500  1.0  0.0831
  C  C82  1  0.360900  0.769980  0.389490  1.0  -0.1124
  C  C83  1  0.604800  0.753530  0.200500  1.0  0.7123
  C  C84  1  0.402600  0.710730  0.328000  1.0  0.6697
  C  C85  1  0.305600  0.474320  0.627400  1.0  0.7191
  C  C86  1  0.229100  0.559600  0.591700  1.0  -0.1022
  C  C87  1  0.740800  0.604980  0.898460  1.0  -0.0984
  C  C88  1  0.109400  0.660700  0.456790  1.0  0.2674
  C  C89  1  0.969000  0.768300  0.206200  1.0  0.0834
  C  C90  1  0.133500  0.690700  0.626930  1.0  -0.0985
  C  C91  1  0.084300  0.714600  0.524100  1.0  -0.1995
  C  C92  1  0.206500  0.614700  0.660800  1.0  -0.0339
  C  C93  1  0.181000  0.583800  0.489900  1.0  -0.1495
  C  C94  1  0.903200  0.742300  0.993900  1.0  -0.1914
  C  C95  1  0.782700  0.616800  0.002800  1.0  -0.1559
  C  C96  1  0.863000  0.685400  0.049800  1.0  0.2729
  C  C97  1  0.779500  0.661800  0.842030  1.0  -0.0412
  C  C98  1  0.654700  0.530300  0.847150  1.0  0.617
  C  C99  1  0.992400  0.757700  0.315500  1.0  0.0854
  C  C100  1  0.860900  0.730020  0.889490  1.0  -0.112
  C  C101  1  0.104800  0.746470  0.700500  1.0  0.7123
  C  C102  1  0.902600  0.789270  0.828000  1.0  0.6697
  C  C103  1  0.194400  0.974320  0.872600  1.0  0.7188
  C  C104  1  0.270900  0.059600  0.908300  1.0  -0.1024
  C  C105  1  0.759200  0.104980  0.601540  1.0  -0.0985
  C  C106  1  0.390600  0.160700  0.043210  1.0  0.2683
  C  C107  1  0.531000  0.268300  0.293800  1.0  0.0852
  C  C108  1  0.366500  0.190700  0.873070  1.0  -0.097
  C  C109  1  0.415700  0.214600  0.975900  1.0  -0.1982
  C  C110  1  0.293500  0.114700  0.839200  1.0  -0.0392
  C  C111  1  0.319000  0.083800  0.010100  1.0  -0.1493
  C  C112  1  0.596800  0.242300  0.506100  1.0  -0.1985
  C  C113  1  0.717300  0.116800  0.497200  1.0  -0.1547
  C  C114  1  0.637000  0.185400  0.450200  1.0  0.2722
  C  C115  1  0.720500  0.161800  0.657970  1.0  -0.041
  C  C116  1  0.845300  0.030300  0.652850  1.0  0.617
  C  C117  1  0.507600  0.257700  0.184500  1.0  0.0845
  C  C118  1  0.639100  0.230020  0.610510  1.0  -0.112
  C  C119  1  0.395200  0.246470  0.799500  1.0  0.7133
  C  C120  1  0.597400  0.289270  0.672000  1.0  0.6713
  O  O121  1  0.101170  0.309620  0.847200  1.0  -0.2843
  O  O122  1  0.933910  0.322080  0.645690  1.0  -0.2867
  O  O123  1  0.377740  0.484060  0.245950  1.0  -0.5421
  O  O124  1  0.613590  0.517940  0.287840  1.0  -0.5808
  O  O125  1  0.385920  0.519220  0.104500  1.0  -0.5377
  O  O126  1  0.717310  0.597660  0.429400  1.0  -0.6092
  O  O127  1  0.973830  0.193650  0.335540  1.0  -0.5767
  O  O128  1  0.842660  0.270960  0.207900  1.0  -0.6265
  O  O129  1  0.000690  0.173220  0.132100  1.0  -0.6684
  O  O130  1  0.155670  0.194170  0.263240  1.0  -0.5365
  O  O131  1  0.398830  0.809620  0.652800  1.0  -0.2844
  O  O132  1  0.566090  0.822080  0.854310  1.0  -0.2866
  O  O133  1  0.122260  0.984060  0.254050  1.0  -0.5421
  O  O134  1  0.886410  0.017940  0.212160  1.0  -0.5811
  O  O135  1  0.114080  0.019220  0.395500  1.0  -0.5376
  O  O136  1  0.782690  0.097660  0.070600  1.0  -0.6094
  O  O137  1  0.526170  0.693650  0.164460  1.0  -0.5753
  O  O138  1  0.657340  0.770960  0.292100  1.0  -0.6281
  O  O139  1  0.499310  0.673220  0.367900  1.0  -0.6686
  O  O140  1  0.344330  0.694170  0.236760  1.0  -0.5371
  O  O141  1  0.898830  0.690380  0.152800  1.0  -0.2848
  O  O142  1  0.066090  0.677920  0.354310  1.0  -0.2854
  O  O143  1  0.622260  0.515940  0.754050  1.0  -0.5415
  O  O144  1  0.386410  0.482060  0.712160  1.0  -0.5804
  O  O145  1  0.614080  0.480780  0.895500  1.0  -0.5392
  O  O146  1  0.282690  0.402340  0.570600  1.0  -0.6097
  O  O147  1  0.026170  0.806350  0.664460  1.0  -0.5756
  O  O148  1  0.157340  0.729040  0.792100  1.0  -0.6278
  O  O149  1  0.999310  0.826780  0.867900  1.0  -0.6685
  O  O150  1  0.844330  0.805830  0.736760  1.0  -0.5366
  O  O151  1  0.601170  0.190380  0.347200  1.0  -0.2837
  O  O152  1  0.433910  0.177920  0.145690  1.0  -0.2876
  O  O153  1  0.877740  0.015940  0.745950  1.0  -0.5414
  O  O154  1  0.113590  0.982060  0.787840  1.0  -0.581
  O  O155  1  0.885920  0.980780  0.604500  1.0  -0.5379
  O  O156  1  0.217310  0.902340  0.929400  1.0  -0.6111
  O  O157  1  0.473830  0.306350  0.835540  1.0  -0.5761
  O  O158  1  0.342660  0.229040  0.707900  1.0  -0.626
  O  O159  1  0.500690  0.326780  0.632100  1.0  -0.6681
  O  O160  1  0.655670  0.305830  0.763240  1.0  -0.5363
