# generated using pymatgen
data_MnH6(C3N)6
_symmetry_space_group_name_H-M   'P 1'
_cell_length_a   10.85320000
_cell_length_b   13.01580000
_cell_length_c   13.01580000
_cell_angle_alpha   120.00000000
_cell_angle_beta   90.00000000
_cell_angle_gamma   90.00000000
_symmetry_Int_Tables_number   1
_chemical_formula_structural   MnH6(C3N)6
_chemical_formula_sum   'Mn2 H12 C36 N12'
_cell_volume   1592.31934414
_cell_formula_units_Z   2
loop_
 _symmetry_equiv_pos_site_id
 _symmetry_equiv_pos_as_xyz
  1  'x, y, z'
loop_
 _atom_site_type_symbol
 _atom_site_label
 _atom_site_symmetry_multiplicity
 _atom_site_fract_x
 _atom_site_fract_y
 _atom_site_fract_z
 _atom_site_occupancy
 _atom_site_charge
  Mn  Mn1  1  0.000000  0.333333  0.666667  1.0  0.7588
  Mn  Mn2  1  0.000000  0.666667  0.333333  1.0  0.7588
  H  H3  1  0.604600  0.610000  0.180200  1.0  0.1158
  H  H4  1  0.604600  0.570200  0.390000  1.0  0.1168
  H  H5  1  0.604600  0.819800  0.429800  1.0  0.1159
  H  H6  1  0.395400  0.570200  0.180200  1.0  0.1165
  H  H7  1  0.395400  0.819800  0.390000  1.0  0.1157
  H  H8  1  0.395400  0.610000  0.429800  1.0  0.1163
  H  H9  1  0.395400  0.390000  0.819800  1.0  0.1165
  H  H10  1  0.395400  0.429800  0.610000  1.0  0.1165
  H  H11  1  0.395400  0.180200  0.570200  1.0  0.1156
  H  H12  1  0.604600  0.429800  0.819800  1.0  0.1171
  H  H13  1  0.604600  0.180200  0.610000  1.0  0.1156
  H  H14  1  0.604600  0.390000  0.570200  1.0  0.1164
  C  C15  1  0.825800  0.503500  0.895000  1.0  0.4073
  C  C16  1  0.562300  0.565000  0.107000  1.0  -0.1058
  C  C17  1  0.825800  0.391500  0.496500  1.0  0.4059
  C  C18  1  0.562300  0.542000  0.435000  1.0  -0.1097
  C  C19  1  0.825800  0.105000  0.608500  1.0  0.4066
  C  C20  1  0.562300  0.893000  0.458000  1.0  -0.1078
  C  C21  1  0.174200  0.391500  0.895000  1.0  0.406
  C  C22  1  0.437700  0.542000  0.107000  1.0  -0.1123
  C  C23  1  0.174200  0.105000  0.496500  1.0  0.4069
  C  C24  1  0.437700  0.893000  0.435000  1.0  -0.1112
  C  C25  1  0.174200  0.503500  0.608500  1.0  0.407
  C  C26  1  0.437700  0.565000  0.458000  1.0  -0.1083
  C  C27  1  0.174200  0.496500  0.105000  1.0  0.4073
  C  C28  1  0.437700  0.435000  0.893000  1.0  -0.1086
  C  C29  1  0.174200  0.608500  0.503500  1.0  0.4069
  C  C30  1  0.437700  0.458000  0.565000  1.0  -0.1127
  C  C31  1  0.174200  0.895000  0.391500  1.0  0.4068
  C  C32  1  0.437700  0.107000  0.542000  1.0  -0.1121
  C  C33  1  0.825800  0.608500  0.105000  1.0  0.4069
  C  C34  1  0.562300  0.458000  0.893000  1.0  -0.1071
  C  C35  1  0.825800  0.895000  0.503500  1.0  0.4074
  C  C36  1  0.562300  0.107000  0.565000  1.0  -0.1061
  C  C37  1  0.825800  0.496500  0.391500  1.0  0.4077
  C  C38  1  0.562300  0.435000  0.542000  1.0  -0.1062
  C  C39  1  0.760500  0.546000  0.000000  1.0  -0.3227
  C  C40  1  0.626400  0.522300  0.000000  1.0  0.1232
  C  C41  1  0.760500  0.454000  0.454000  1.0  -0.3263
  C  C42  1  0.626400  0.477700  0.477700  1.0  0.1263
  C  C43  1  0.760500  0.000000  0.546000  1.0  -0.3223
  C  C44  1  0.626400  0.000000  0.522300  1.0  0.1228
  C  C45  1  0.239500  0.454000  0.000000  1.0  -0.3234
  C  C46  1  0.373600  0.477700  0.000000  1.0  0.1206
  C  C47  1  0.239500  0.000000  0.454000  1.0  -0.322
  C  C48  1  0.373600  0.000000  0.477700  1.0  0.1201
  C  C49  1  0.239500  0.546000  0.546000  1.0  -0.3262
  C  C50  1  0.373600  0.522300  0.522300  1.0  0.1229
  N  N51  1  0.880000  0.467600  0.807000  1.0  -0.439
  N  N52  1  0.880000  0.339400  0.532400  1.0  -0.4405
  N  N53  1  0.880000  0.193000  0.660600  1.0  -0.4405
  N  N54  1  0.120000  0.339400  0.807000  1.0  -0.439
  N  N55  1  0.120000  0.193000  0.532400  1.0  -0.4406
  N  N56  1  0.120000  0.467600  0.660600  1.0  -0.4394
  N  N57  1  0.120000  0.532400  0.193000  1.0  -0.4389
  N  N58  1  0.120000  0.660600  0.467600  1.0  -0.4396
  N  N59  1  0.120000  0.807000  0.339400  1.0  -0.4411
  N  N60  1  0.880000  0.660600  0.193000  1.0  -0.4418
  N  N61  1  0.880000  0.807000  0.467600  1.0  -0.4406
  N  N62  1  0.880000  0.532400  0.339400  1.0  -0.4391
