# generated using pymatgen
data_ZnH6(C3N)6
_symmetry_space_group_name_H-M   'P 1'
_cell_length_a   12.74470000
_cell_length_b   12.74470000
_cell_length_c   10.71070000
_cell_angle_alpha   90.00000000
_cell_angle_beta   90.00000000
_cell_angle_gamma   120.00000000
_symmetry_Int_Tables_number   1
_chemical_formula_structural   ZnH6(C3N)6
_chemical_formula_sum   'Zn2 H12 C36 N12'
_cell_volume   1506.63385067
_cell_formula_units_Z   2
loop_
 _symmetry_equiv_pos_site_id
 _symmetry_equiv_pos_as_xyz
  1  'x, y, z'
loop_
 _atom_site_type_symbol
 _atom_site_label
 _atom_site_symmetry_multiplicity
 _atom_site_fract_x
 _atom_site_fract_y
 _atom_site_fract_z
 _atom_site_occupancy
 _atom_site_charge
  Zn  Zn1  1  0.333333  0.666667  0.000000  1.0  0.8851
  Zn  Zn2  1  0.666667  0.333333  0.000000  1.0  0.8851
  H  H3  1  0.429600  0.612000  0.393000  1.0  0.1179
  H  H4  1  0.388000  0.817600  0.393000  1.0  0.1178
  H  H5  1  0.182400  0.570400  0.393000  1.0  0.1174
  H  H6  1  0.388000  0.570400  0.607000  1.0  0.1172
  H  H7  1  0.182400  0.612000  0.607000  1.0  0.1178
  H  H8  1  0.429600  0.817600  0.607000  1.0  0.1178
  H  H9  1  0.570400  0.388000  0.607000  1.0  0.1183
  H  H10  1  0.612000  0.182400  0.607000  1.0  0.1175
  H  H11  1  0.817600  0.429600  0.607000  1.0  0.117
  H  H12  1  0.612000  0.429600  0.393000  1.0  0.1176
  H  H13  1  0.817600  0.388000  0.393000  1.0  0.1178
  H  H14  1  0.570400  0.182400  0.393000  1.0  0.1177
  C  C15  1  0.458800  0.566400  0.435800  1.0  -0.064
  C  C16  1  0.507100  0.614300  0.169900  1.0  0.43
  C  C17  1  0.433600  0.892400  0.435800  1.0  -0.0669
  C  C18  1  0.385700  0.892800  0.169900  1.0  0.4314
  C  C19  1  0.107600  0.541200  0.435800  1.0  -0.0656
  C  C20  1  0.107200  0.492900  0.169900  1.0  0.4309
  C  C21  1  0.433600  0.541200  0.564200  1.0  -0.0708
  C  C22  1  0.385700  0.492900  0.830100  1.0  0.4307
  C  C23  1  0.107600  0.566400  0.564200  1.0  -0.0696
  C  C24  1  0.107200  0.614300  0.830100  1.0  0.4305
  C  C25  1  0.458800  0.892400  0.564200  1.0  -0.0661
  C  C26  1  0.507100  0.892800  0.830100  1.0  0.4316
  C  C27  1  0.541200  0.433600  0.564200  1.0  -0.0706
  C  C28  1  0.492900  0.385700  0.830100  1.0  0.4318
  C  C29  1  0.566400  0.107600  0.564200  1.0  -0.0656
  C  C30  1  0.614300  0.107200  0.830100  1.0  0.4318
  C  C31  1  0.892400  0.458800  0.564200  1.0  -0.0654
  C  C32  1  0.892800  0.507100  0.830100  1.0  0.4314
  C  C33  1  0.566400  0.458800  0.435800  1.0  -0.0662
  C  C34  1  0.614300  0.507100  0.169900  1.0  0.4321
  C  C35  1  0.892400  0.433600  0.435800  1.0  -0.0648
  C  C36  1  0.892800  0.385700  0.169900  1.0  0.431
  C  C37  1  0.541200  0.107600  0.435800  1.0  -0.0655
  C  C38  1  0.492900  0.107200  0.169900  1.0  0.4321
  C  C39  1  0.552600  0.552600  0.237400  1.0  -0.3403
  C  C40  1  0.525500  0.525500  0.371800  1.0  -0.0508
  C  C41  1  0.447400  0.000000  0.237400  1.0  -0.3377
  C  C42  1  0.474500  0.000000  0.371800  1.0  -0.0507
  C  C43  1  0.000000  0.447400  0.237400  1.0  -0.3406
  C  C44  1  0.000000  0.474500  0.371800  1.0  -0.0502
  C  C45  1  0.447400  0.447400  0.762600  1.0  -0.3389
  C  C46  1  0.474500  0.474500  0.628200  1.0  -0.0513
  C  C47  1  0.000000  0.552600  0.762600  1.0  -0.3388
  C  C48  1  0.000000  0.525500  0.628200  1.0  -0.0517
  C  C49  1  0.552600  0.000000  0.762600  1.0  -0.3363
  C  C50  1  0.525500  0.000000  0.628200  1.0  -0.0521
  N  N51  1  0.468400  0.664800  0.115500  1.0  -0.4363
  N  N52  1  0.335200  0.803600  0.115500  1.0  -0.4359
  N  N53  1  0.196400  0.531600  0.115500  1.0  -0.432
  N  N54  1  0.335200  0.531600  0.884500  1.0  -0.4318
  N  N55  1  0.196400  0.664800  0.884500  1.0  -0.4365
  N  N56  1  0.468400  0.803600  0.884500  1.0  -0.4369
  N  N57  1  0.531600  0.335200  0.884500  1.0  -0.4353
  N  N58  1  0.664800  0.196400  0.884500  1.0  -0.4364
  N  N59  1  0.803600  0.468400  0.884500  1.0  -0.4323
  N  N60  1  0.664800  0.468400  0.115500  1.0  -0.4323
  N  N61  1  0.803600  0.335200  0.115500  1.0  -0.4352
  N  N62  1  0.531600  0.196400  0.115500  1.0  -0.4356
