# generated using pymatgen
data_CdH6(C3N)6
_symmetry_space_group_name_H-M   'P 1'
_cell_length_a   10.88180000
_cell_length_b   12.95150000
_cell_length_c   12.95150000
_cell_angle_alpha   120.00000000
_cell_angle_beta   90.00000000
_cell_angle_gamma   90.00000000
_symmetry_Int_Tables_number   1
_chemical_formula_structural   CdH6(C3N)6
_chemical_formula_sum   'Cd2 H12 C36 N12'
_cell_volume   1580.78028566
_cell_formula_units_Z   2
loop_
 _symmetry_equiv_pos_site_id
 _symmetry_equiv_pos_as_xyz
  1  'x, y, z'
loop_
 _atom_site_type_symbol
 _atom_site_label
 _atom_site_symmetry_multiplicity
 _atom_site_fract_x
 _atom_site_fract_y
 _atom_site_fract_z
 _atom_site_occupancy
 _atom_site_charge
  Cd  Cd1  1  0.500000  0.666667  0.333333  1.0  1.0785
  Cd  Cd2  1  0.500000  0.333333  0.666667  1.0  1.0785
  H  H3  1  0.897300  0.566600  0.178900  1.0  0.1059
  H  H4  1  0.897300  0.612300  0.433400  1.0  0.1047
  H  H5  1  0.897300  0.821100  0.387700  1.0  0.1042
  H  H6  1  0.102700  0.612300  0.178900  1.0  0.1046
  H  H7  1  0.102700  0.821100  0.433400  1.0  0.1047
  H  H8  1  0.102700  0.566600  0.387700  1.0  0.1054
  H  H9  1  0.102700  0.433400  0.821100  1.0  0.1056
  H  H10  1  0.102700  0.387700  0.566600  1.0  0.1048
  H  H11  1  0.102700  0.178900  0.612300  1.0  0.1047
  H  H12  1  0.897300  0.387700  0.821100  1.0  0.1044
  H  H13  1  0.897300  0.178900  0.566600  1.0  0.1046
  H  H14  1  0.897300  0.433400  0.612300  1.0  0.1058
  C  C15  1  0.938500  0.538600  0.104900  1.0  -0.114
  C  C16  1  0.678000  0.484400  0.106100  1.0  0.4367
  C  C17  1  0.938500  0.566300  0.461400  1.0  -0.1191
  C  C18  1  0.678000  0.621700  0.515600  1.0  0.4365
  C  C19  1  0.938500  0.895100  0.433700  1.0  -0.1185
  C  C20  1  0.678000  0.893900  0.378300  1.0  0.4361
  C  C21  1  0.061500  0.566300  0.104900  1.0  -0.1192
  C  C22  1  0.322000  0.621700  0.106100  1.0  0.4362
  C  C23  1  0.061500  0.895100  0.461400  1.0  -0.1133
  C  C24  1  0.322000  0.893900  0.515600  1.0  0.4363
  C  C25  1  0.061500  0.538600  0.433700  1.0  -0.1153
  C  C26  1  0.322000  0.484400  0.378300  1.0  0.4365
  C  C27  1  0.061500  0.461400  0.895100  1.0  -0.1153
  C  C28  1  0.322000  0.515600  0.893900  1.0  0.4364
  C  C29  1  0.061500  0.433700  0.538600  1.0  -0.1192
  C  C30  1  0.322000  0.378300  0.484400  1.0  0.4365
  C  C31  1  0.061500  0.104900  0.566300  1.0  -0.1135
  C  C32  1  0.322000  0.106100  0.621700  1.0  0.4367
  C  C33  1  0.938500  0.433700  0.895100  1.0  -0.1129
  C  C34  1  0.678000  0.378300  0.893900  1.0  0.4367
  C  C35  1  0.938500  0.104900  0.538600  1.0  -0.1129
  C  C36  1  0.678000  0.106100  0.484400  1.0  0.4367
  C  C37  1  0.938500  0.461400  0.566300  1.0  -0.1137
  C  C38  1  0.678000  0.515600  0.621700  1.0  0.4365
  C  C39  1  0.743600  0.441900  0.000000  1.0  -0.3544
  C  C40  1  0.874200  0.471300  0.000000  1.0  0.1379
  C  C41  1  0.743600  0.558100  0.558100  1.0  -0.3543
  C  C42  1  0.874200  0.528700  0.528700  1.0  0.1403
  C  C43  1  0.743600  0.000000  0.441900  1.0  -0.3526
  C  C44  1  0.874200  0.000000  0.471300  1.0  0.1377
  C  C45  1  0.256400  0.558100  0.000000  1.0  -0.3534
  C  C46  1  0.125800  0.528700  0.000000  1.0  0.1408
  C  C47  1  0.256400  0.000000  0.558100  1.0  -0.3533
  C  C48  1  0.125800  0.000000  0.528700  1.0  0.1405
  C  C49  1  0.256400  0.441900  0.441900  1.0  -0.3536
  C  C50  1  0.125800  0.471300  0.471300  1.0  0.1422
  N  N51  1  0.624200  0.518000  0.192000  1.0  -0.4983
  N  N52  1  0.624200  0.674000  0.482000  1.0  -0.499
  N  N53  1  0.624200  0.808000  0.326000  1.0  -0.498
  N  N54  1  0.375800  0.674000  0.192000  1.0  -0.5004
  N  N55  1  0.375800  0.808000  0.482000  1.0  -0.4979
  N  N56  1  0.375800  0.518000  0.326000  1.0  -0.4993
  N  N57  1  0.375800  0.482000  0.808000  1.0  -0.4994
  N  N58  1  0.375800  0.326000  0.518000  1.0  -0.4997
  N  N59  1  0.375800  0.192000  0.674000  1.0  -0.4982
  N  N60  1  0.624200  0.326000  0.808000  1.0  -0.498
  N  N61  1  0.624200  0.192000  0.518000  1.0  -0.498
  N  N62  1  0.624200  0.482000  0.674000  1.0  -0.4986
