# generated using pymatgen
data_MnH6(C3N)6
_symmetry_space_group_name_H-M   'P 1'
_cell_length_a   12.88140000
_cell_length_b   12.88140000
_cell_length_c   22.05910000
_cell_angle_alpha   90.00000000
_cell_angle_beta   90.00000000
_cell_angle_gamma   120.00000000
_symmetry_Int_Tables_number   1
_chemical_formula_structural   MnH6(C3N)6
_chemical_formula_sum   'Mn4 H24 C72 N24'
_cell_volume   3169.89264316
_cell_formula_units_Z   4
loop_
 _symmetry_equiv_pos_site_id
 _symmetry_equiv_pos_as_xyz
  1  'x, y, z'
loop_
 _atom_site_type_symbol
 _atom_site_label
 _atom_site_symmetry_multiplicity
 _atom_site_fract_x
 _atom_site_fract_y
 _atom_site_fract_z
 _atom_site_occupancy
 _atom_site_charge
  Mn  Mn1  1  0.333333  0.666667  0.500000  1.0  0.722
  Mn  Mn2  1  0.666667  0.333333  0.000000  1.0  0.722
  Mn  Mn3  1  0.666667  0.333333  0.500000  1.0  0.722
  Mn  Mn4  1  0.333333  0.666667  0.000000  1.0  0.722
  H  H5  1  0.524700  0.180800  0.302800  1.0  0.1132
  H  H6  1  0.656100  0.475300  0.302800  1.0  0.1129
  H  H7  1  0.819200  0.343900  0.302800  1.0  0.1137
  H  H8  1  0.475300  0.819200  0.802800  1.0  0.1129
  H  H9  1  0.343900  0.524700  0.802800  1.0  0.1129
  H  H10  1  0.180800  0.656100  0.802800  1.0  0.113
  H  H11  1  0.343900  0.819200  0.197200  1.0  0.1135
  H  H12  1  0.180800  0.524700  0.197200  1.0  0.1134
  H  H13  1  0.475300  0.656100  0.197200  1.0  0.114
  H  H14  1  0.656100  0.180800  0.697200  1.0  0.1136
  H  H15  1  0.819200  0.475300  0.697200  1.0  0.1133
  H  H16  1  0.524700  0.343900  0.697200  1.0  0.1139
  H  H17  1  0.475300  0.819200  0.697200  1.0  0.1136
  H  H18  1  0.343900  0.524700  0.697200  1.0  0.1134
  H  H19  1  0.180800  0.656100  0.697200  1.0  0.1136
  H  H20  1  0.524700  0.180800  0.197200  1.0  0.1137
  H  H21  1  0.656100  0.475300  0.197200  1.0  0.1133
  H  H22  1  0.819200  0.343900  0.197200  1.0  0.114
  H  H23  1  0.656100  0.180800  0.802800  1.0  0.1131
  H  H24  1  0.819200  0.475300  0.802800  1.0  0.113
  H  H25  1  0.524700  0.343900  0.802800  1.0  0.1135
  H  H26  1  0.343900  0.819200  0.302800  1.0  0.1129
  H  H27  1  0.180800  0.524700  0.302800  1.0  0.1129
  H  H28  1  0.475300  0.656100  0.302800  1.0  0.1134
  C  C29  1  0.374800  0.892500  0.414170  1.0  0.4147
  C  C30  1  0.487000  0.106700  0.281650  1.0  -0.119
  C  C31  1  0.517700  0.625200  0.414170  1.0  0.4142
  C  C32  1  0.619700  0.513000  0.281650  1.0  -0.1173
  C  C33  1  0.107500  0.482300  0.414170  1.0  0.415
  C  C34  1  0.893300  0.380300  0.281650  1.0  -0.1181
  C  C35  1  0.625200  0.107500  0.914170  1.0  0.4151
  C  C36  1  0.513000  0.893300  0.781650  1.0  -0.116
  C  C37  1  0.482300  0.374800  0.914170  1.0  0.415
  C  C38  1  0.380300  0.487000  0.781650  1.0  -0.1176
  C  C39  1  0.892500  0.517700  0.914170  1.0  0.414
  C  C40  1  0.106700  0.619700  0.781650  1.0  -0.1176
  C  C41  1  0.482300  0.107500  0.085830  1.0  0.4149
  C  C42  1  0.380300  0.893300  0.218350  1.0  -0.1179
  C  C43  1  0.892500  0.374800  0.085830  1.0  0.4149
  C  C44  1  0.106700  0.487000  0.218350  1.0  -0.1207
  C  C45  1  0.625200  0.517700  0.085830  1.0  0.4154
  C  C46  1  0.513000  0.619700  0.218350  1.0  -0.1193
  C  C47  1  0.517700  0.892500  0.585830  1.0  0.4156
  C  C48  1  0.619700  0.106700  0.718350  1.0  -0.1188
  C  C49  1  0.107500  0.625200  0.585830  1.0  0.4148
  C  C50  1  0.893300  0.513000  0.718350  1.0  -0.1181
  C  C51  1  0.374800  0.482300  0.585830  1.0  0.4143
  C  C52  1  0.487000  0.380300  0.718350  1.0  -0.1179
  C  C53  1  0.625200  0.107500  0.585830  1.0  0.4159
  C  C54  1  0.513000  0.893300  0.718350  1.0  -0.1194
  C  C55  1  0.482300  0.374800  0.585830  1.0  0.4154
  C  C56  1  0.380300  0.487000  0.718350  1.0  -0.1201
  C  C57  1  0.892500  0.517700  0.585830  1.0  0.4152
  C  C58  1  0.106700  0.619700  0.718350  1.0  -0.1201
  C  C59  1  0.374800  0.892500  0.085830  1.0  0.4158
  C  C60  1  0.487000  0.106700  0.218350  1.0  -0.119
  C  C61  1  0.517700  0.625200  0.085830  1.0  0.4152
  C  C62  1  0.619700  0.513000  0.218350  1.0  -0.1203
  C  C63  1  0.107500  0.482300  0.085830  1.0  0.4158
  C  C64  1  0.893300  0.380300  0.218350  1.0  -0.1211
  C  C65  1  0.517700  0.892500  0.914170  1.0  0.4159
  C  C66  1  0.619700  0.106700  0.781650  1.0  -0.1178
  C  C67  1  0.107500  0.625200  0.914170  1.0  0.4149
  C  C68  1  0.893300  0.513000  0.781650  1.0  -0.1164
  C  C69  1  0.374800  0.482300  0.914170  1.0  0.4148
  C  C70  1  0.487000  0.380300  0.781650  1.0  -0.1158
  C  C71  1  0.482300  0.107500  0.414170  1.0  0.4153
  C  C72  1  0.380300  0.893300  0.281650  1.0  -0.1154
  C  C73  1  0.892500  0.374800  0.414170  1.0  0.4155
  C  C74  1  0.106700  0.487000  0.281650  1.0  -0.1169
  C  C75  1  0.625200  0.517700  0.414170  1.0  0.4156
  C  C76  1  0.513000  0.619700  0.281650  1.0  -0.1178
  C  C77  1  0.432600  0.000000  0.314120  1.0  0.1332
  C  C78  1  0.428900  0.000000  0.380700  1.0  -0.3272
  C  C79  1  0.567400  0.567400  0.314120  1.0  0.1349
  C  C80  1  0.571100  0.571100  0.380700  1.0  -0.3272
  C  C81  1  0.000000  0.432600  0.314120  1.0  0.1349
  C  C82  1  0.000000  0.428900  0.380700  1.0  -0.3271
  C  C83  1  0.567400  0.000000  0.814120  1.0  0.1342
  C  C84  1  0.571100  0.000000  0.880700  1.0  -0.3272
  C  C85  1  0.432600  0.432600  0.814120  1.0  0.1342
  C  C86  1  0.428900  0.428900  0.880700  1.0  -0.3269
  C  C87  1  0.000000  0.567400  0.814120  1.0  0.1341
  C  C88  1  0.000000  0.571100  0.880700  1.0  -0.327
  C  C89  1  0.432600  0.000000  0.185880  1.0  0.1338
  C  C90  1  0.428900  0.000000  0.119300  1.0  -0.3281
  C  C91  1  0.000000  0.432600  0.185880  1.0  0.1353
  C  C92  1  0.000000  0.428900  0.119300  1.0  -0.3285
  C  C93  1  0.567400  0.567400  0.185880  1.0  0.1354
  C  C94  1  0.571100  0.571100  0.119300  1.0  -0.3284
  C  C95  1  0.567400  0.000000  0.685880  1.0  0.1346
  C  C96  1  0.571100  0.000000  0.619300  1.0  -0.3284
  C  C97  1  0.000000  0.567400  0.685880  1.0  0.1346
  C  C98  1  0.000000  0.571100  0.619300  1.0  -0.328
  C  C99  1  0.432600  0.432600  0.685880  1.0  0.1345
  C  C100  1  0.428900  0.428900  0.619300  1.0  -0.3281
  N  N101  1  0.334000  0.807000  0.441760  1.0  -0.435
  N  N102  1  0.473000  0.666000  0.441760  1.0  -0.4372
  N  N103  1  0.193000  0.527000  0.441760  1.0  -0.4341
  N  N104  1  0.666000  0.193000  0.941760  1.0  -0.436
  N  N105  1  0.527000  0.334000  0.941760  1.0  -0.4358
  N  N106  1  0.807000  0.473000  0.941760  1.0  -0.4341
  N  N107  1  0.527000  0.193000  0.058240  1.0  -0.4328
  N  N108  1  0.807000  0.334000  0.058240  1.0  -0.4337
  N  N109  1  0.666000  0.473000  0.058240  1.0  -0.4315
  N  N110  1  0.473000  0.807000  0.558240  1.0  -0.4332
  N  N111  1  0.193000  0.666000  0.558240  1.0  -0.4336
  N  N112  1  0.334000  0.527000  0.558240  1.0  -0.4306
  N  N113  1  0.666000  0.193000  0.558240  1.0  -0.4352
  N  N114  1  0.527000  0.334000  0.558240  1.0  -0.4359
  N  N115  1  0.807000  0.473000  0.558240  1.0  -0.433
  N  N116  1  0.334000  0.807000  0.058240  1.0  -0.4349
  N  N117  1  0.473000  0.666000  0.058240  1.0  -0.4361
  N  N118  1  0.193000  0.527000  0.058240  1.0  -0.4337
  N  N119  1  0.473000  0.807000  0.941760  1.0  -0.4332
  N  N120  1  0.193000  0.666000  0.941760  1.0  -0.4344
  N  N121  1  0.334000  0.527000  0.941760  1.0  -0.4308
  N  N122  1  0.527000  0.193000  0.441760  1.0  -0.4335
  N  N123  1  0.807000  0.334000  0.441760  1.0  -0.4338
  N  N124  1  0.666000  0.473000  0.441760  1.0  -0.4327
