# generated using pymatgen
data_Cd2H25C40(NO6)2
_symmetry_space_group_name_H-M   'P 1'
_cell_length_a   14.53560000
_cell_length_b   15.89890000
_cell_length_c   17.25540000
_cell_angle_alpha   112.54700000
_cell_angle_beta   111.54500000
_cell_angle_gamma   95.78700000
_symmetry_Int_Tables_number   1
_chemical_formula_structural   Cd2H25C40(NO6)2
_chemical_formula_sum   'Cd4 H50 C80 N4 O24'
_cell_volume   3287.27441503
_cell_formula_units_Z   2
loop_
 _symmetry_equiv_pos_site_id
 _symmetry_equiv_pos_as_xyz
  1  'x, y, z'
loop_
 _atom_site_type_symbol
 _atom_site_label
 _atom_site_symmetry_multiplicity
 _atom_site_fract_x
 _atom_site_fract_y
 _atom_site_fract_z
 _atom_site_occupancy
 _atom_site_charge
  Cd  Cd1  1  0.762310  0.422090  0.111160  1.0  1.107
  Cd  Cd2  1  0.829430  0.661520  0.186440  1.0  0.9958
  Cd  Cd3  1  0.237690  0.577910  0.888840  1.0  1.1046
  Cd  Cd4  1  0.170570  0.338480  0.813560  1.0  0.9952
  H  H5  1  0.509500  0.814400  0.770300  1.0  0.1205
  H  H6  1  0.685600  0.980200  0.763700  1.0  0.1273
  H  H7  1  0.753000  0.137500  0.874900  1.0  0.1275
  H  H8  1  0.563000  0.098500  0.984400  1.0  0.1183
  H  H9  1  0.496800  0.939300  0.874900  1.0  0.1393
  H  H10  1  0.422300  0.577000  0.486900  1.0  0.1245
  H  H11  1  0.264100  0.728200  0.512100  1.0  0.1276
  H  H12  1  0.097700  0.695500  0.401900  1.0  0.1314
  H  H13  1  0.106400  0.432400  0.254400  1.0  0.1333
  H  H14  1  0.272200  0.466400  0.362700  1.0  0.1084
  H  H15  1  0.687400  0.683600  0.751400  1.0  0.128
  H  H16  1  0.795600  0.654700  0.860400  1.0  0.1433
  H  H17  1  0.819700  0.587000  0.961000  1.0  0.1263
  H  H18  1  0.518600  0.491300  0.873100  1.0  0.1217
  H  H19  1  0.485300  0.552800  0.762900  1.0  0.1194
  H  H20  1  0.576800  0.764100  0.550500  1.0  0.1455
  H  H21  1  0.615000  0.539500  0.466100  1.0  0.1264
  H  H22  1  0.674300  0.473200  0.355400  1.0  0.1234
  H  H23  1  0.698300  0.709300  0.325800  1.0  0.1237
  H  H24  1  0.641100  0.778100  0.437100  1.0  0.1499
  H  H25  1  0.869000  0.823100  0.119600  1.0  0.1233
  H  H26  1  0.848600  0.914000  0.038700  1.0  0.122
  H  H27  1  0.684700  0.910500  0.945800  1.0  0.1014
  H  H28  1  0.542100  0.818700  0.933200  1.0  0.1184
  H  H29  1  0.576900  0.632000  0.100200  1.0  0.1152
  H  H30  1  0.490500  0.185600  0.229700  1.0  0.1202
  H  H31  1  0.314400  0.019800  0.236300  1.0  0.1284
  H  H32  1  0.247000  0.862500  0.125100  1.0  0.127
  H  H33  1  0.437000  0.901500  0.015600  1.0  0.1191
  H  H34  1  0.503200  0.060700  0.125100  1.0  0.1401
  H  H35  1  0.577700  0.423000  0.513100  1.0  0.124
  H  H36  1  0.735900  0.271800  0.487900  1.0  0.1281
  H  H37  1  0.902300  0.304500  0.598100  1.0  0.1315
  H  H38  1  0.893600  0.567600  0.745600  1.0  0.1325
  H  H39  1  0.727800  0.533600  0.637300  1.0  0.1081
  H  H40  1  0.312600  0.316400  0.248600  1.0  0.1271
  H  H41  1  0.204400  0.345300  0.139600  1.0  0.1431
  H  H42  1  0.180300  0.413000  0.039000  1.0  0.1263
  H  H43  1  0.481400  0.508700  0.126900  1.0  0.1217
  H  H44  1  0.514700  0.447200  0.237100  1.0  0.1201
  H  H45  1  0.423200  0.235900  0.449500  1.0  0.146
  H  H46  1  0.385000  0.460500  0.533900  1.0  0.1256
  H  H47  1  0.325700  0.526800  0.644600  1.0  0.1218
  H  H48  1  0.301700  0.290700  0.674200  1.0  0.1246
  H  H49  1  0.358900  0.221900  0.562900  1.0  0.1501
  H  H50  1  0.131000  0.176900  0.880400  1.0  0.1248
  H  H51  1  0.151400  0.086000  0.961300  1.0  0.1223
  H  H52  1  0.315300  0.089500  0.054200  1.0  0.1003
  H  H53  1  0.457900  0.181300  0.066800  1.0  0.1183
  H  H54  1  0.423100  0.368000  0.899800  1.0  0.1157
  C  C55  1  0.534800  0.708900  0.638700  1.0  0.0304
  C  C56  1  0.546800  0.852300  0.756000  1.0  0.0848
  C  C57  1  0.583600  0.944700  0.807600  1.0  0.3353
  C  C58  1  0.660900  0.003800  0.808100  1.0  -0.1108
  C  C59  1  0.701200  0.097800  0.874600  1.0  -0.0223
  C  C60  1  0.664800  0.132600  0.940400  1.0  -0.1002
  C  C61  1  0.588000  0.074300  0.940300  1.0  -0.0194
  C  C62  1  0.547600  0.979300  0.874300  1.0  -0.1718
  C  C63  1  0.701400  0.240400  0.007500  1.0  0.6811
  C  C64  1  0.381200  0.612100  0.507600  1.0  0.0416
  C  C65  1  0.286000  0.600900  0.448800  1.0  0.2401
  C  C66  1  0.232600  0.669000  0.460100  1.0  -0.1518
  C  C67  1  0.132500  0.649100  0.394000  1.0  -0.15
  C  C68  1  0.083700  0.560800  0.316500  1.0  -0.093
  C  C69  1  0.137900  0.492100  0.305800  1.0  -0.0547
  C  C70  1  0.237100  0.512500  0.370800  1.0  -0.185
  C  C71  1  0.978600  0.552800  0.260200  1.0  0.5358
  C  C72  1  0.629000  0.655500  0.752700  1.0  0.1318
  C  C73  1  0.634600  0.615800  0.803300  1.0  0.2181
  C  C74  1  0.739600  0.623100  0.862300  1.0  -0.2115
  C  C75  1  0.753000  0.581500  0.921100  1.0  -0.0857
  C  C76  1  0.671900  0.532500  0.922700  1.0  0.0409
  C  C77  1  0.572500  0.522800  0.868600  1.0  -0.0878
  C  C78  1  0.552700  0.562500  0.804200  1.0  -0.0801
  C  C79  1  0.692500  0.492100  0.986200  1.0  0.7179
  C  C80  1  0.591900  0.706100  0.535900  1.0  0.0676
  C  C81  1  0.624200  0.664800  0.463400  1.0  0.0361
  C  C82  1  0.632500  0.574200  0.438200  1.0  -0.1699
  C  C83  1  0.666900  0.534200  0.371100  1.0  -0.1291
  C  C84  1  0.690200  0.584100  0.327400  1.0  -0.1209
  C  C85  1  0.681200  0.674800  0.354000  1.0  -0.0427
  C  C86  1  0.647700  0.716900  0.420900  1.0  -0.1324
  C  C87  1  0.717300  0.540100  0.246500  1.0  0.6334
  C  C88  1  0.717200  0.767000  0.074700  1.0  0.1194
  C  C89  1  0.803400  0.822200  0.082400  1.0  -0.0634
  C  C90  1  0.791100  0.876700  0.033700  1.0  -0.0901
  C  C91  1  0.693000  0.874600  0.978300  1.0  -0.0927
  C  C92  1  0.607600  0.819600  0.970900  1.0  -0.0924
  C  C93  1  0.618100  0.765600  0.018900  1.0  0.1459
  C  C94  1  0.606900  0.674800  0.085800  1.0  0.2632
  C  C95  1  0.465200  0.291100  0.361300  1.0  0.0291
  C  C96  1  0.453200  0.147700  0.244000  1.0  0.0827
  C  C97  1  0.416400  0.055300  0.192400  1.0  0.3353
  C  C98  1  0.339100  0.996200  0.191900  1.0  -0.1128
  C  C99  1  0.298800  0.902200  0.125400  1.0  -0.0213
  C  C100  1  0.335200  0.867400  0.059600  1.0  -0.098
  C  C101  1  0.412000  0.925700  0.059700  1.0  -0.0205
  C  C102  1  0.452400  0.020700  0.125700  1.0  -0.1691
  C  C103  1  0.298600  0.759600  0.992500  1.0  0.6804
  C  C104  1  0.618800  0.387900  0.492400  1.0  0.0418
  C  C105  1  0.714000  0.399100  0.551200  1.0  0.24
  C  C106  1  0.767400  0.331000  0.539900  1.0  -0.1501
  C  C107  1  0.867500  0.350900  0.606000  1.0  -0.1503
  C  C108  1  0.916300  0.439200  0.683500  1.0  -0.0931
  C  C109  1  0.862100  0.507900  0.694200  1.0  -0.0557
  C  C110  1  0.762900  0.487500  0.629200  1.0  -0.1814
  C  C111  1  0.021400  0.447200  0.739800  1.0  0.5363
  C  C112  1  0.371000  0.344500  0.247300  1.0  0.1334
  C  C113  1  0.365400  0.384200  0.196700  1.0  0.2191
  C  C114  1  0.260400  0.376900  0.137700  1.0  -0.214
  C  C115  1  0.247000  0.418500  0.078900  1.0  -0.0861
  C  C116  1  0.328100  0.467500  0.077300  1.0  0.0438
  C  C117  1  0.427500  0.477200  0.131400  1.0  -0.0875
  C  C118  1  0.447300  0.437500  0.195800  1.0  -0.0796
  C  C119  1  0.307500  0.507900  0.013800  1.0  0.72
  C  C120  1  0.408100  0.293900  0.464100  1.0  0.0694
  C  C121  1  0.375800  0.335200  0.536600  1.0  0.0362
  C  C122  1  0.367500  0.425800  0.561800  1.0  -0.1711
  C  C123  1  0.333100  0.465800  0.628900  1.0  -0.131
  C  C124  1  0.309800  0.415900  0.672600  1.0  -0.1195
  C  C125  1  0.318800  0.325200  0.646000  1.0  -0.0433
  C  C126  1  0.352300  0.283100  0.579100  1.0  -0.1366
  C  C127  1  0.282700  0.459900  0.753500  1.0  0.6332
  C  C128  1  0.282800  0.233000  0.925300  1.0  0.1173
  C  C129  1  0.196600  0.177800  0.917600  1.0  -0.063
  C  C130  1  0.208900  0.123300  0.966300  1.0  -0.0903
  C  C131  1  0.307000  0.125400  0.021700  1.0  -0.0925
  C  C132  1  0.392400  0.180400  0.029100  1.0  -0.0938
  C  C133  1  0.381900  0.234400  0.981100  1.0  0.1435
  C  C134  1  0.393100  0.325200  0.914200  1.0  0.2632
  N  N135  1  0.707600  0.706900  0.116000  1.0  -0.3464
  N  N136  1  0.553100  0.712900  0.030900  1.0  -0.272
  N  N137  1  0.292400  0.293100  0.884000  1.0  -0.3453
  N  N138  1  0.446900  0.287100  0.969100  1.0  -0.2747
  O  O139  1  0.566600  0.815100  0.679700  1.0  -0.4072
  O  O140  1  0.782100  0.291800  0.016000  1.0  -0.5782
  O  O141  1  0.649400  0.275100  0.047000  1.0  -0.5393
  O  O142  1  0.420400  0.681500  0.606500  1.0  -0.4382
  O  O143  1  0.930000  0.461100  0.193300  1.0  -0.6261
  O  O144  1  0.935400  0.610000  0.268400  1.0  -0.5981
  O  O145  1  0.525800  0.655900  0.695100  1.0  -0.4709
  O  O146  1  0.625700  0.433900  0.978600  1.0  -0.5867
  O  O147  1  0.780300  0.516600  0.048500  1.0  -0.6191
  O  O148  1  0.584900  0.651700  0.582900  1.0  -0.3748
  O  O149  1  0.739100  0.462800  0.231400  1.0  -0.5741
  O  O150  1  0.707400  0.588600  0.201600  1.0  -0.6768
  O  O151  1  0.433400  0.184900  0.320300  1.0  -0.4097
  O  O152  1  0.217900  0.708200  0.984000  1.0  -0.5752
  O  O153  1  0.350600  0.724900  0.953000  1.0  -0.5399
  O  O154  1  0.579600  0.318500  0.393500  1.0  -0.4387
  O  O155  1  0.070000  0.538900  0.806700  1.0  -0.6277
  O  O156  1  0.064600  0.390000  0.731600  1.0  -0.5983
  O  O157  1  0.474200  0.344100  0.304900  1.0  -0.4714
  O  O158  1  0.374300  0.566100  0.021400  1.0  -0.5871
  O  O159  1  0.219700  0.483400  0.951500  1.0  -0.6228
  O  O160  1  0.415100  0.348300  0.417100  1.0  -0.375
  O  O161  1  0.260900  0.537200  0.768600  1.0  -0.5735
  O  O162  1  0.292600  0.411400  0.798400  1.0  -0.6783
