# generated using pymatgen
data_Cd2H32C40N2O9
_symmetry_space_group_name_H-M   'P 1'
_cell_length_a   9.36630000
_cell_length_b   34.92760000
_cell_length_c   17.18620000
_cell_angle_alpha   90.00000000
_cell_angle_beta   99.35600000
_cell_angle_gamma   90.00000000
_symmetry_Int_Tables_number   1
_chemical_formula_structural   Cd2H32C40N2O9
_chemical_formula_sum   'Cd8 H128 C160 N8 O36'
_cell_volume   5547.54211930
_cell_formula_units_Z   4
loop_
 _symmetry_equiv_pos_site_id
 _symmetry_equiv_pos_as_xyz
  1  'x, y, z'
loop_
 _atom_site_type_symbol
 _atom_site_label
 _atom_site_symmetry_multiplicity
 _atom_site_fract_x
 _atom_site_fract_y
 _atom_site_fract_z
 _atom_site_occupancy
 _atom_site_charge
  Cd  Cd1  1  0.570870  0.831990  0.014670  1.0  0.9024
  Cd  Cd2  1  0.903220  0.820660  0.940280  1.0  0.9887
  Cd  Cd3  1  0.929130  0.331990  0.485330  1.0  0.8995
  Cd  Cd4  1  0.596780  0.320660  0.559720  1.0  0.9888
  Cd  Cd5  1  0.429130  0.168010  0.985330  1.0  0.9013
  Cd  Cd6  1  0.096780  0.179340  0.059720  1.0  0.989
  Cd  Cd7  1  0.070870  0.668010  0.514670  1.0  0.9019
  Cd  Cd8  1  0.403220  0.679340  0.440280  1.0  0.9886
  H  H9  1  0.449800  0.066900  0.650500  1.0  0.1213
  H  H10  1  0.327700  0.098000  0.636100  1.0  0.1211
  H  H11  1  0.455400  0.099100  0.587400  1.0  0.123
  H  H12  1  0.495800  0.979500  0.574800  1.0  0.068
  H  H13  1  0.527400  0.018900  0.618800  1.0  0.061
  H  H14  1  0.332300  0.944600  0.541800  1.0  0.115
  H  H15  1  0.293600  0.942700  0.449600  1.0  0.1188
  H  H16  1  0.171300  0.938500  0.501500  1.0  0.1213
  H  H17  1  0.988700  0.965700  0.414000  1.0  0.0744
  H  H18  1  0.950100  0.000100  0.354800  1.0  0.0866
  H  H19  1  0.982100  0.095500  0.389600  1.0  0.1124
  H  H20  1  0.907000  0.055500  0.372400  1.0  0.1213
  H  H21  1  0.026400  0.068900  0.324000  1.0  0.1308
  H  H22  1  0.265200  0.130500  0.514000  1.0  0.1065
  H  H23  1  0.150200  0.126500  0.435500  1.0  0.1042
  H  H24  1  0.316100  0.944600  0.773400  1.0  0.1277
  H  H25  1  0.448400  0.902000  0.858400  1.0  0.106
  H  H26  1  0.790900  0.918800  0.754200  1.0  0.1071
  H  H27  1  0.667500  0.966500  0.675000  1.0  0.1168
  H  H28  1  0.247800  0.928100  0.247100  1.0  0.1222
  H  H29  1  0.157700  0.882700  0.153500  1.0  0.113
  H  H30  1  0.759200  0.899900  0.204200  1.0  0.1101
  H  H31  1  0.850000  0.945500  0.296800  1.0  0.1125
  H  H32  1  0.907900  0.138600  0.641400  1.0  0.1132
  H  H33  1  0.783800  0.195300  0.650800  1.0  0.1139
  H  H34  1  0.978900  0.242000  0.485500  1.0  0.1022
  H  H35  1  0.104800  0.186100  0.475300  1.0  0.1215
  H  H36  1  0.244600  0.814200  0.025300  1.0  0.11
  H  H37  1  0.999800  0.821700  0.756900  1.0  0.1217
  H  H38  1  0.133600  0.820700  0.654200  1.0  0.0994
  H  H39  1  0.389200  0.817700  0.680400  1.0  0.1079
  H  H40  1  0.509500  0.813400  0.810400  1.0  0.1204
  H  H41  1  0.050200  0.566900  0.849500  1.0  0.1208
  H  H42  1  0.172300  0.598000  0.863900  1.0  0.1204
  H  H43  1  0.044600  0.599100  0.912600  1.0  0.1221
  H  H44  1  0.004200  0.479500  0.925200  1.0  0.0683
  H  H45  1  0.972600  0.518900  0.881200  1.0  0.0623
  H  H46  1  0.167700  0.444600  0.958200  1.0  0.1138
  H  H47  1  0.206400  0.442700  0.050400  1.0  0.1194
  H  H48  1  0.328700  0.438500  0.998500  1.0  0.122
  H  H49  1  0.511300  0.465700  0.086000  1.0  0.0725
  H  H50  1  0.549900  0.500100  0.145200  1.0  0.0871
  H  H51  1  0.517900  0.595500  0.110400  1.0  0.1115
  H  H52  1  0.593000  0.555500  0.127600  1.0  0.1221
  H  H53  1  0.473600  0.568900  0.176000  1.0  0.1308
  H  H54  1  0.234800  0.630500  0.986000  1.0  0.1066
  H  H55  1  0.349800  0.626500  0.064500  1.0  0.1035
  H  H56  1  0.183900  0.444600  0.726600  1.0  0.1265
  H  H57  1  0.051600  0.402000  0.641600  1.0  0.1057
  H  H58  1  0.709100  0.418800  0.745800  1.0  0.1081
  H  H59  1  0.832500  0.466500  0.825000  1.0  0.1177
  H  H60  1  0.252200  0.428100  0.252900  1.0  0.1227
  H  H61  1  0.342300  0.382700  0.346500  1.0  0.113
  H  H62  1  0.740800  0.399900  0.295800  1.0  0.1102
  H  H63  1  0.650000  0.445500  0.203200  1.0  0.1124
  H  H64  1  0.592100  0.638600  0.858600  1.0  0.1138
  H  H65  1  0.716200  0.695300  0.849200  1.0  0.1144
  H  H66  1  0.521100  0.742000  0.014500  1.0  0.1021
  H  H67  1  0.395200  0.686100  0.024700  1.0  0.1219
  H  H68  1  0.255400  0.314200  0.474700  1.0  0.1106
  H  H69  1  0.500200  0.321700  0.743100  1.0  0.1206
  H  H70  1  0.366400  0.320700  0.845800  1.0  0.0994
  H  H71  1  0.110800  0.317700  0.819600  1.0  0.1079
  H  H72  1  0.990500  0.313400  0.689600  1.0  0.1223
  H  H73  1  0.550200  0.933100  0.349500  1.0  0.1207
  H  H74  1  0.672300  0.902000  0.363900  1.0  0.1197
  H  H75  1  0.544600  0.900900  0.412600  1.0  0.1233
  H  H76  1  0.504200  0.020500  0.425200  1.0  0.0677
  H  H77  1  0.472600  0.981100  0.381200  1.0  0.0608
  H  H78  1  0.667700  0.055400  0.458200  1.0  0.1134
  H  H79  1  0.706400  0.057300  0.550400  1.0  0.1184
  H  H80  1  0.828700  0.061500  0.498500  1.0  0.1218
  H  H81  1  0.011300  0.034300  0.586000  1.0  0.073
  H  H82  1  0.049900  0.999900  0.645200  1.0  0.0874
  H  H83  1  0.017900  0.904500  0.610400  1.0  0.1137
  H  H84  1  0.093000  0.944500  0.627600  1.0  0.1229
  H  H85  1  0.973600  0.931100  0.676000  1.0  0.1314
  H  H86  1  0.734800  0.869500  0.486000  1.0  0.1076
  H  H87  1  0.849800  0.873500  0.564500  1.0  0.1036
  H  H88  1  0.683900  0.055400  0.226600  1.0  0.1264
  H  H89  1  0.551600  0.098000  0.141600  1.0  0.1064
  H  H90  1  0.209100  0.081200  0.245800  1.0  0.1079
  H  H91  1  0.332500  0.033500  0.325000  1.0  0.1175
  H  H92  1  0.752200  0.071900  0.752900  1.0  0.123
  H  H93  1  0.842300  0.117300  0.846500  1.0  0.1126
  H  H94  1  0.240800  0.100100  0.795800  1.0  0.1101
  H  H95  1  0.150000  0.054500  0.703200  1.0  0.113
  H  H96  1  0.092100  0.861400  0.358600  1.0  0.1136
  H  H97  1  0.216200  0.804700  0.349200  1.0  0.1146
  H  H98  1  0.021100  0.758000  0.514500  1.0  0.1023
  H  H99  1  0.895200  0.813900  0.524700  1.0  0.122
  H  H100  1  0.755400  0.185800  0.974700  1.0  0.1107
  H  H101  1  0.000200  0.178300  0.243100  1.0  0.1204
  H  H102  1  0.866400  0.179300  0.345800  1.0  0.099
  H  H103  1  0.610800  0.182300  0.319600  1.0  0.108
  H  H104  1  0.490500  0.186600  0.189600  1.0  0.1219
  H  H105  1  0.949800  0.433100  0.150500  1.0  0.1222
  H  H106  1  0.827700  0.402000  0.136100  1.0  0.1221
  H  H107  1  0.955400  0.400900  0.087400  1.0  0.1229
  H  H108  1  0.995800  0.520500  0.074800  1.0  0.0676
  H  H109  1  0.027400  0.481100  0.118800  1.0  0.0615
  H  H110  1  0.832300  0.555400  0.041800  1.0  0.1122
  H  H111  1  0.793600  0.557300  0.949600  1.0  0.1189
  H  H112  1  0.671300  0.561500  0.001500  1.0  0.1211
  H  H113  1  0.488700  0.534300  0.914000  1.0  0.0743
  H  H114  1  0.450100  0.499900  0.854800  1.0  0.0852
  H  H115  1  0.482100  0.404500  0.889600  1.0  0.1118
  H  H116  1  0.407000  0.444500  0.872400  1.0  0.1213
  H  H117  1  0.526400  0.431100  0.824000  1.0  0.1309
  H  H118  1  0.765200  0.369500  0.014000  1.0  0.1075
  H  H119  1  0.650200  0.373500  0.935500  1.0  0.1038
  H  H120  1  0.816100  0.555400  0.273400  1.0  0.1276
  H  H121  1  0.948400  0.598000  0.358400  1.0  0.1065
  H  H122  1  0.290900  0.581200  0.254200  1.0  0.1071
  H  H123  1  0.167500  0.533500  0.175000  1.0  0.117
  H  H124  1  0.747800  0.571900  0.747100  1.0  0.1221
  H  H125  1  0.657700  0.617300  0.653500  1.0  0.113
  H  H126  1  0.259200  0.600100  0.704200  1.0  0.1098
  H  H127  1  0.350000  0.554500  0.796800  1.0  0.1128
  H  H128  1  0.407900  0.361400  0.141400  1.0  0.1132
  H  H129  1  0.283800  0.304700  0.150800  1.0  0.1141
  H  H130  1  0.478900  0.258000  0.985500  1.0  0.102
  H  H131  1  0.604800  0.313900  0.975300  1.0  0.1211
  H  H132  1  0.744600  0.685800  0.525300  1.0  0.1099
  H  H133  1  0.499800  0.678300  0.256900  1.0  0.1214
  H  H134  1  0.633600  0.679300  0.154200  1.0  0.0993
  H  H135  1  0.889200  0.682300  0.180400  1.0  0.1075
  H  H136  1  0.009500  0.686600  0.310400  1.0  0.1205
  C  C137  1  0.329400  0.017980  0.546900  1.0  -0.0458
  C  C138  1  0.237700  0.994750  0.493900  1.0  0.0095
  C  C139  1  0.129300  0.011240  0.438700  1.0  -0.0843
  C  C140  1  0.113200  0.050680  0.436300  1.0  0.0977
  C  C141  1  0.199800  0.073230  0.491200  1.0  -0.0478
  C  C142  1  0.305100  0.057020  0.548000  1.0  0.0778
  C  C143  1  0.392800  0.082700  0.611500  1.0  -0.3395
  C  C144  1  0.453200  0.000010  0.601400  1.0  0.0209
  C  C145  1  0.260900  0.950990  0.497000  1.0  -0.3402
  C  C146  1  0.028900  0.985510  0.384400  1.0  0.0201
  C  C147  1  0.996200  0.069390  0.374800  1.0  -0.3352
  C  C148  1  0.179500  0.116950  0.488700  1.0  -0.0411
  C  C149  1  0.477900  0.959890  0.715600  1.0  0.2995
  C  C150  1  0.412900  0.940200  0.770200  1.0  -0.2527
  C  C151  1  0.491300  0.914070  0.819800  1.0  -0.0461
  C  C152  1  0.633800  0.905500  0.813000  1.0  -0.1124
  C  C153  1  0.695900  0.924560  0.759200  1.0  -0.0344
  C  C154  1  0.621400  0.952840  0.710200  1.0  -0.266
  C  C155  1  0.716500  0.876440  0.864300  1.0  0.7369
  C  C156  1  0.055800  0.941470  0.279700  1.0  0.2783
  C  C157  1  0.149300  0.922580  0.237700  1.0  -0.2082
  C  C158  1  0.095200  0.895450  0.181500  1.0  -0.0354
  C  C159  1  0.947700  0.887280  0.167100  1.0  -0.1389
  C  C160  1  0.857200  0.905840  0.211900  1.0  -0.0183
  C  C161  1  0.911500  0.933070  0.267700  1.0  -0.2832
  C  C162  1  0.884800  0.859970  0.102800  1.0  0.7572
  C  C163  1  0.008600  0.155470  0.552200  1.0  0.2589
  C  C164  1  0.918900  0.158910  0.607900  1.0  -0.1435
  C  C165  1  0.845100  0.192950  0.613600  1.0  -0.045
  C  C166  1  0.861600  0.223520  0.564100  1.0  -0.1268
  C  C167  1  0.960900  0.220800  0.515300  1.0  -0.036
  C  C168  1  0.036100  0.187320  0.508700  1.0  -0.2573
  C  C169  1  0.772600  0.258570  0.568100  1.0  0.7002
  C  C170  1  0.246200  0.814990  0.971300  1.0  0.3229
  C  C171  1  0.174400  0.816570  0.845900  1.0  0.0835
  C  C172  1  0.100100  0.819630  0.767300  1.0  -0.116
  C  C173  1  0.180900  0.819520  0.706100  1.0  -0.0983
  C  C174  1  0.336900  0.817530  0.722000  1.0  -0.0945
  C  C175  1  0.409200  0.815330  0.799300  1.0  -0.0922
  C  C176  1  0.326300  0.816110  0.859500  1.0  0.1335
  C  C177  1  0.170600  0.517980  0.953100  1.0  -0.0453
  C  C178  1  0.262300  0.494750  0.006100  1.0  0.0094
  C  C179  1  0.370700  0.511240  0.061300  1.0  -0.0838
  C  C180  1  0.386800  0.550680  0.063700  1.0  0.0977
  C  C181  1  0.300200  0.573230  0.008800  1.0  -0.0473
  C  C182  1  0.194900  0.557020  0.952000  1.0  0.0776
  C  C183  1  0.107200  0.582700  0.888500  1.0  -0.3375
  C  C184  1  0.046800  0.500010  0.898600  1.0  0.0244
  C  C185  1  0.239100  0.450990  0.003000  1.0  -0.3398
  C  C186  1  0.471100  0.485510  0.115600  1.0  0.0198
  C  C187  1  0.503800  0.569390  0.125200  1.0  -0.3365
  C  C188  1  0.320500  0.616950  0.011300  1.0  -0.0391
  C  C189  1  0.022100  0.459890  0.784400  1.0  0.2971
  C  C190  1  0.087100  0.440200  0.729800  1.0  -0.2492
  C  C191  1  0.008700  0.414070  0.680200  1.0  -0.0461
  C  C192  1  0.866200  0.405500  0.687000  1.0  -0.1124
  C  C193  1  0.804100  0.424560  0.740800  1.0  -0.0353
  C  C194  1  0.878600  0.452840  0.789800  1.0  -0.2646
  C  C195  1  0.783500  0.376440  0.635700  1.0  0.7362
  C  C196  1  0.444200  0.441470  0.220300  1.0  0.2803
  C  C197  1  0.350700  0.422580  0.262300  1.0  -0.2121
  C  C198  1  0.404800  0.395450  0.318500  1.0  -0.0371
  C  C199  1  0.552300  0.387280  0.332900  1.0  -0.1374
  C  C200  1  0.642800  0.405840  0.288100  1.0  -0.0183
  C  C201  1  0.588500  0.433070  0.232300  1.0  -0.2809
  C  C202  1  0.615200  0.359970  0.397200  1.0  0.7564
  C  C203  1  0.491400  0.655470  0.947800  1.0  0.2586
  C  C204  1  0.581100  0.658910  0.892100  1.0  -0.1438
  C  C205  1  0.654900  0.692950  0.886400  1.0  -0.0448
  C  C206  1  0.638400  0.723520  0.935900  1.0  -0.1271
  C  C207  1  0.539100  0.720800  0.984700  1.0  -0.0378
  C  C208  1  0.463900  0.687320  0.991300  1.0  -0.2592
  C  C209  1  0.727400  0.758570  0.931900  1.0  0.7009
  C  C210  1  0.253800  0.314990  0.528700  1.0  0.323
  C  C211  1  0.325600  0.316570  0.654100  1.0  0.0822
  C  C212  1  0.399900  0.319630  0.732700  1.0  -0.1118
  C  C213  1  0.319100  0.319520  0.793900  1.0  -0.099
  C  C214  1  0.163100  0.317530  0.778000  1.0  -0.0954
  C  C215  1  0.090800  0.315330  0.700700  1.0  -0.0927
  C  C216  1  0.173700  0.316110  0.640500  1.0  0.133
  C  C217  1  0.670600  0.982020  0.453100  1.0  -0.0449
  C  C218  1  0.762300  0.005250  0.506100  1.0  0.0089
  C  C219  1  0.870700  0.988760  0.561300  1.0  -0.0842
  C  C220  1  0.886800  0.949320  0.563700  1.0  0.0966
  C  C221  1  0.800200  0.926770  0.508800  1.0  -0.0477
  C  C222  1  0.694900  0.942980  0.452000  1.0  0.0777
  C  C223  1  0.607200  0.917300  0.388500  1.0  -0.3357
  C  C224  1  0.546800  0.999990  0.398600  1.0  0.0243
  C  C225  1  0.739100  0.049010  0.503000  1.0  -0.3415
  C  C226  1  0.971100  0.014490  0.615600  1.0  0.0197
  C  C227  1  0.003800  0.930610  0.625200  1.0  -0.3362
  C  C228  1  0.820500  0.883050  0.511300  1.0  -0.039
  C  C229  1  0.522100  0.040110  0.284400  1.0  0.2965
  C  C230  1  0.587100  0.059800  0.229800  1.0  -0.2486
  C  C231  1  0.508700  0.085930  0.180200  1.0  -0.0461
  C  C232  1  0.366200  0.094500  0.187000  1.0  -0.112
  C  C233  1  0.304100  0.075440  0.240800  1.0  -0.036
  C  C234  1  0.378600  0.047160  0.289800  1.0  -0.2652
  C  C235  1  0.283500  0.123560  0.135700  1.0  0.7364
  C  C236  1  0.944200  0.058530  0.720300  1.0  0.2804
  C  C237  1  0.850700  0.077420  0.762300  1.0  -0.2112
  C  C238  1  0.904800  0.104550  0.818500  1.0  -0.0372
  C  C239  1  0.052300  0.112720  0.832900  1.0  -0.1386
  C  C240  1  0.142800  0.094160  0.788100  1.0  -0.0183
  C  C241  1  0.088500  0.066930  0.732300  1.0  -0.2805
  C  C242  1  0.115200  0.140030  0.897200  1.0  0.756
  C  C243  1  0.991400  0.844530  0.447800  1.0  0.2595
  C  C244  1  0.081100  0.841090  0.392100  1.0  -0.1441
  C  C245  1  0.154900  0.807050  0.386400  1.0  -0.0447
  C  C246  1  0.138400  0.776480  0.435900  1.0  -0.1261
  C  C247  1  0.039100  0.779200  0.484700  1.0  -0.0374
  C  C248  1  0.963900  0.812680  0.491300  1.0  -0.2596
  C  C249  1  0.227400  0.741430  0.431900  1.0  0.7004
  C  C250  1  0.753800  0.185010  0.028700  1.0  0.3229
  C  C251  1  0.825600  0.183430  0.154100  1.0  0.0824
  C  C252  1  0.899900  0.180370  0.232700  1.0  -0.1115
  C  C253  1  0.819100  0.180480  0.293900  1.0  -0.0997
  C  C254  1  0.663100  0.182470  0.278000  1.0  -0.0954
  C  C255  1  0.590800  0.184670  0.200700  1.0  -0.0925
  C  C256  1  0.673700  0.183890  0.140500  1.0  0.1334
  C  C257  1  0.829400  0.482020  0.046900  1.0  -0.0455
  C  C258  1  0.737700  0.505250  0.993900  1.0  0.009
  C  C259  1  0.629300  0.488760  0.938700  1.0  -0.0846
  C  C260  1  0.613200  0.449320  0.936300  1.0  0.0968
  C  C261  1  0.699800  0.426770  0.991200  1.0  -0.0484
  C  C262  1  0.805100  0.442980  0.048000  1.0  0.078
  C  C263  1  0.892800  0.417300  0.111500  1.0  -0.3384
  C  C264  1  0.953200  0.499990  0.101400  1.0  0.0211
  C  C265  1  0.760900  0.549010  0.997000  1.0  -0.3416
  C  C266  1  0.528900  0.514490  0.884400  1.0  0.0196
  C  C267  1  0.496200  0.430610  0.874800  1.0  -0.3358
  C  C268  1  0.679500  0.383050  0.988700  1.0  -0.0388
  C  C269  1  0.977900  0.540110  0.215600  1.0  0.3
  C  C270  1  0.912900  0.559800  0.270200  1.0  -0.2515
  C  C271  1  0.991300  0.585930  0.319800  1.0  -0.0453
  C  C272  1  0.133800  0.594500  0.313000  1.0  -0.1127
  C  C273  1  0.195900  0.575440  0.259200  1.0  -0.0344
  C  C274  1  0.121400  0.547160  0.210200  1.0  -0.2662
  C  C275  1  0.216500  0.623560  0.364300  1.0  0.7374
  C  C276  1  0.555800  0.558530  0.779700  1.0  0.278
  C  C277  1  0.649300  0.577420  0.737700  1.0  -0.2088
  C  C278  1  0.595200  0.604550  0.681500  1.0  -0.0358
  C  C279  1  0.447700  0.612720  0.667100  1.0  -0.1372
  C  C280  1  0.357200  0.594160  0.711900  1.0  -0.0189
  C  C281  1  0.411500  0.566930  0.767700  1.0  -0.2836
  C  C282  1  0.384800  0.640030  0.602800  1.0  0.757
  C  C283  1  0.508600  0.344530  0.052200  1.0  0.2599
  C  C284  1  0.418900  0.341090  0.107900  1.0  -0.1434
  C  C285  1  0.345100  0.307050  0.113600  1.0  -0.0448
  C  C286  1  0.361600  0.276480  0.064100  1.0  -0.127
  C  C287  1  0.460900  0.279200  0.015300  1.0  -0.0365
  C  C288  1  0.536100  0.312680  0.008700  1.0  -0.2584
  C  C289  1  0.272600  0.241430  0.068100  1.0  0.6998
  C  C290  1  0.746200  0.685010  0.471300  1.0  0.3227
  C  C291  1  0.674400  0.683430  0.345900  1.0  0.0841
  C  C292  1  0.600100  0.680370  0.267300  1.0  -0.1164
  C  C293  1  0.680900  0.680480  0.206100  1.0  -0.0987
  C  C294  1  0.836900  0.682470  0.222000  1.0  -0.0941
  C  C295  1  0.909200  0.684670  0.299300  1.0  -0.0918
  C  C296  1  0.826300  0.683890  0.359500  1.0  0.1335
  N  N297  1  0.370300  0.815100  0.940630  1.0  -0.3994
  N  N298  1  0.124100  0.816050  0.916800  1.0  -0.4288
  N  N299  1  0.129700  0.315100  0.559370  1.0  -0.3975
  N  N300  1  0.375900  0.316050  0.583200  1.0  -0.427
  N  N301  1  0.629700  0.184900  0.059370  1.0  -0.3974
  N  N302  1  0.875900  0.183950  0.083200  1.0  -0.4272
  N  N303  1  0.870300  0.684900  0.440630  1.0  -0.3995
  N  N304  1  0.624100  0.683950  0.416800  1.0  -0.4285
  O  O305  1  0.670500  0.865770  0.924750  1.0  -0.7049
  O  O306  1  0.832000  0.864500  0.847920  1.0  -0.5729
  O  O307  1  0.392700  0.984910  0.669200  1.0  -0.2761
  O  O308  1  0.966800  0.849610  0.057010  1.0  -0.5921
  O  O309  1  0.758700  0.849390  0.103200  1.0  -0.6587
  O  O310  1  0.121100  0.968550  0.330980  1.0  -0.2789
  O  O311  1  0.775600  0.283690  0.515480  1.0  -0.685
  O  O312  1  0.694800  0.262330  0.618750  1.0  -0.602
  O  O313  1  0.058900  0.118380  0.536460  1.0  -0.3657
  O  O314  1  0.829500  0.365770  0.575250  1.0  -0.7038
  O  O315  1  0.668000  0.364500  0.652080  1.0  -0.5725
  O  O316  1  0.107300  0.484910  0.830800  1.0  -0.2781
  O  O317  1  0.533200  0.349610  0.442990  1.0  -0.5914
  O  O318  1  0.741300  0.349390  0.396800  1.0  -0.6614
  O  O319  1  0.378900  0.468550  0.169020  1.0  -0.2779
  O  O320  1  0.724400  0.783690  0.984520  1.0  -0.6833
  O  O321  1  0.805200  0.762330  0.881250  1.0  -0.6006
  O  O322  1  0.441100  0.618380  0.963540  1.0  -0.365
  O  O323  1  0.329500  0.134230  0.075250  1.0  -0.7038
  O  O324  1  0.168000  0.135500  0.152080  1.0  -0.5726
  O  O325  1  0.607300  0.015090  0.330800  1.0  -0.2782
  O  O326  1  0.033200  0.150390  0.942990  1.0  -0.5916
  O  O327  1  0.241300  0.150610  0.896800  1.0  -0.6607
  O  O328  1  0.878900  0.031450  0.669020  1.0  -0.2776
  O  O329  1  0.224400  0.716310  0.484520  1.0  -0.6835
  O  O330  1  0.305200  0.737670  0.381250  1.0  -0.601
  O  O331  1  0.941100  0.881620  0.463540  1.0  -0.3641
  O  O332  1  0.170500  0.634230  0.424750  1.0  -0.7047
  O  O333  1  0.332000  0.635500  0.347920  1.0  -0.5726
  O  O334  1  0.892700  0.515090  0.169200  1.0  -0.2762
  O  O335  1  0.466800  0.650390  0.557010  1.0  -0.5925
  O  O336  1  0.258700  0.650610  0.603200  1.0  -0.6601
  O  O337  1  0.621100  0.531450  0.830980  1.0  -0.2787
  O  O338  1  0.275600  0.216310  0.015480  1.0  -0.6861
  O  O339  1  0.194800  0.237670  0.118750  1.0  -0.6018
  O  O340  1  0.558900  0.381620  0.036460  1.0  -0.365
