# generated using pymatgen
data_Eu2H44C46S3(N4O9)2
_symmetry_space_group_name_H-M   'P 1'
_cell_length_a   11.13990000
_cell_length_b   18.04970000
_cell_length_c   29.33800000
_cell_angle_alpha   90.00000000
_cell_angle_beta   90.00000000
_cell_angle_gamma   90.00000000
_symmetry_Int_Tables_number   1
_chemical_formula_structural   Eu2H44C46S3(N4O9)2
_chemical_formula_sum   'Eu8 H176 C184 S12 N32 O72'
_cell_volume   5899.04602419
_cell_formula_units_Z   4
loop_
 _symmetry_equiv_pos_site_id
 _symmetry_equiv_pos_as_xyz
  1  'x, y, z'
loop_
 _atom_site_type_symbol
 _atom_site_label
 _atom_site_symmetry_multiplicity
 _atom_site_fract_x
 _atom_site_fract_y
 _atom_site_fract_z
 _atom_site_occupancy
 _atom_site_charge
  Eu  Eu1  1  0.457280  0.917430  0.790000  1.0  2.1454
  Eu  Eu2  1  0.468510  0.707150  0.731420  1.0  2.1776
  Eu  Eu3  1  0.042720  0.082570  0.290000  1.0  2.1437
  Eu  Eu4  1  0.031490  0.292850  0.231420  1.0  2.1771
  Eu  Eu5  1  0.542720  0.417430  0.710000  1.0  2.1443
  Eu  Eu6  1  0.531490  0.207150  0.768580  1.0  2.1779
  Eu  Eu7  1  0.957280  0.582570  0.210000  1.0  2.1449
  Eu  Eu8  1  0.968510  0.792850  0.268580  1.0  2.177
  H  H9  1  0.687800  0.899500  0.369100  1.0  0.2322
  H  H10  1  0.329800  0.671300  0.120200  1.0  0.2756
  H  H11  1  0.615600  0.845300  0.598100  1.0  0.2035
  H  H12  1  0.269000  0.047900  0.630300  1.0  0.2543
  H  H13  1  0.281600  0.958600  0.398700  1.0  0.2179
  H  H14  1  0.515300  0.839800  0.967800  1.0  0.1202
  H  H15  1  0.295100  0.691500  0.892800  1.0  0.2292
  H  H16  1  0.530600  0.045900  0.879300  1.0  0.0661
  H  H17  1  0.133000  0.767700  0.840300  1.0  0.0983
  H  H18  1  0.197300  0.827100  0.365400  1.0  0.1003
  H  H19  1  0.136600  0.961900  0.686200  1.0  0.096
  H  H20  1  0.545200  0.060000  0.956100  1.0  0.126
  H  H21  1  0.724100  0.034400  0.327800  1.0  0.0827
  H  H22  1  0.507900  0.832900  0.889700  1.0  0.067
  H  H23  1  0.323300  0.781500  0.182400  1.0  0.0722
  H  H24  1  0.540400  0.944800  0.661800  1.0  0.0906
  H  H25  1  0.394000  0.662900  0.044300  1.0  0.1057
  H  H26  1  0.474700  0.695500  0.192500  1.0  0.1141
  H  H27  1  0.390700  0.691300  0.235300  1.0  0.1157
  H  H28  1  0.381500  0.630900  0.197000  1.0  0.1016
  H  H29  1  0.234900  0.102500  0.707400  1.0  0.1074
  H  H30  1  0.103500  0.089400  0.690100  1.0  0.1015
  H  H31  1  0.142100  0.061300  0.738500  1.0  0.105
  H  H32  1  0.121600  0.644500  0.823000  1.0  0.1091
  H  H33  1  0.172500  0.686100  0.780300  1.0  0.1058
  H  H34  1  0.259300  0.641300  0.812000  1.0  0.1142
  H  H35  1  0.360600  0.660900  0.961800  1.0  0.1072
  H  H36  1  0.290700  0.032700  0.467600  1.0  0.098
  H  H37  1  0.295800  0.062400  0.548300  1.0  0.1003
  H  H38  1  0.582300  0.063600  0.027000  1.0  0.1254
  H  H39  1  0.484400  0.865300  0.114600  1.0  0.0618
  H  H40  1  0.577900  0.069100  0.105800  1.0  0.0771
  H  H41  1  0.480400  0.853100  0.036900  1.0  0.1118
  H  H42  1  0.662800  0.839700  0.437900  1.0  0.1098
  H  H43  1  0.771800  0.882500  0.673800  1.0  0.1157
  H  H44  1  0.746800  0.966900  0.665600  1.0  0.1104
  H  H45  1  0.705600  0.929300  0.711100  1.0  0.1057
  H  H46  1  0.640000  0.819100  0.520600  1.0  0.1068
  H  H47  1  0.399300  0.896300  0.325700  1.0  0.1226
  H  H48  1  0.406700  0.824800  0.355900  1.0  0.1135
  H  H49  1  0.341600  0.822100  0.308600  1.0  0.1103
  H  H50  1  0.537600  0.997000  0.301000  1.0  0.1016
  H  H51  1  0.629100  0.993000  0.260500  1.0  0.0993
  H  H52  1  0.589800  0.920300  0.285700  1.0  0.1044
  H  H53  1  0.812200  0.100500  0.869100  1.0  0.231
  H  H54  1  0.170200  0.328700  0.620200  1.0  0.2762
  H  H55  1  0.884400  0.154700  0.098100  1.0  0.2025
  H  H56  1  0.231000  0.952100  0.130300  1.0  0.253
  H  H57  1  0.218400  0.041400  0.898700  1.0  0.2187
  H  H58  1  0.984700  0.160200  0.467800  1.0  0.1204
  H  H59  1  0.204900  0.308500  0.392800  1.0  0.2299
  H  H60  1  0.969400  0.954100  0.379300  1.0  0.066
  H  H61  1  0.367000  0.232300  0.340300  1.0  0.099
  H  H62  1  0.302700  0.172900  0.865400  1.0  0.099
  H  H63  1  0.363400  0.038100  0.186200  1.0  0.097
  H  H64  1  0.954800  0.940000  0.456100  1.0  0.126
  H  H65  1  0.775900  0.965600  0.827800  1.0  0.083
  H  H66  1  0.992100  0.167100  0.389700  1.0  0.0671
  H  H67  1  0.176700  0.218500  0.682400  1.0  0.0737
  H  H68  1  0.959600  0.055200  0.161800  1.0  0.0905
  H  H69  1  0.106000  0.337100  0.544300  1.0  0.1054
  H  H70  1  0.025300  0.304500  0.692500  1.0  0.1126
  H  H71  1  0.109300  0.308700  0.735300  1.0  0.1159
  H  H72  1  0.118500  0.369100  0.697000  1.0  0.1015
  H  H73  1  0.265100  0.897500  0.207400  1.0  0.1064
  H  H74  1  0.396500  0.910600  0.190100  1.0  0.1012
  H  H75  1  0.357900  0.938700  0.238500  1.0  0.1051
  H  H76  1  0.378400  0.355500  0.323000  1.0  0.1074
  H  H77  1  0.327500  0.313900  0.280300  1.0  0.1056
  H  H78  1  0.240700  0.358700  0.312000  1.0  0.1133
  H  H79  1  0.139400  0.339100  0.461800  1.0  0.1072
  H  H80  1  0.209300  0.967300  0.967600  1.0  0.0978
  H  H81  1  0.204200  0.937600  0.048300  1.0  0.1005
  H  H82  1  0.917700  0.936400  0.527000  1.0  0.1254
  H  H83  1  0.015600  0.134700  0.614600  1.0  0.0621
  H  H84  1  0.922100  0.930900  0.605800  1.0  0.0775
  H  H85  1  0.019600  0.146900  0.536900  1.0  0.1125
  H  H86  1  0.837200  0.160300  0.937900  1.0  0.1103
  H  H87  1  0.728200  0.117500  0.173800  1.0  0.1149
  H  H88  1  0.753200  0.033100  0.165600  1.0  0.11
  H  H89  1  0.794400  0.070700  0.211100  1.0  0.1052
  H  H90  1  0.860000  0.180900  0.020600  1.0  0.1069
  H  H91  1  0.100700  0.103700  0.825700  1.0  0.1246
  H  H92  1  0.093300  0.175200  0.855900  1.0  0.1133
  H  H93  1  0.158400  0.177900  0.808600  1.0  0.1103
  H  H94  1  0.962400  0.003000  0.801000  1.0  0.1004
  H  H95  1  0.870900  0.007000  0.760500  1.0  0.0999
  H  H96  1  0.910200  0.079700  0.785700  1.0  0.1047
  H  H97  1  0.312200  0.399500  0.130900  1.0  0.2321
  H  H98  1  0.670200  0.171300  0.379800  1.0  0.2757
  H  H99  1  0.384400  0.345300  0.901900  1.0  0.2035
  H  H100  1  0.731000  0.547900  0.869700  1.0  0.2547
  H  H101  1  0.718400  0.458600  0.101300  1.0  0.2187
  H  H102  1  0.484700  0.339800  0.532200  1.0  0.1198
  H  H103  1  0.704900  0.191500  0.607200  1.0  0.2297
  H  H104  1  0.469400  0.545900  0.620700  1.0  0.0665
  H  H105  1  0.867000  0.267700  0.659700  1.0  0.099
  H  H106  1  0.802700  0.327100  0.134600  1.0  0.0992
  H  H107  1  0.863400  0.461900  0.813800  1.0  0.0971
  H  H108  1  0.454800  0.560000  0.543900  1.0  0.1263
  H  H109  1  0.275900  0.534400  0.172200  1.0  0.0822
  H  H110  1  0.492100  0.332900  0.610300  1.0  0.0674
  H  H111  1  0.676700  0.281500  0.317600  1.0  0.0724
  H  H112  1  0.459600  0.444800  0.838200  1.0  0.0906
  H  H113  1  0.606000  0.162900  0.455700  1.0  0.1055
  H  H114  1  0.525300  0.195500  0.307500  1.0  0.1126
  H  H115  1  0.609300  0.191300  0.264700  1.0  0.1154
  H  H116  1  0.618500  0.130900  0.303000  1.0  0.1
  H  H117  1  0.765100  0.602500  0.792600  1.0  0.1061
  H  H118  1  0.896500  0.589400  0.809900  1.0  0.1008
  H  H119  1  0.857900  0.561300  0.761500  1.0  0.1059
  H  H120  1  0.878400  0.144500  0.677000  1.0  0.1082
  H  H121  1  0.827500  0.186100  0.719700  1.0  0.1057
  H  H122  1  0.740700  0.141300  0.688000  1.0  0.1132
  H  H123  1  0.639400  0.160900  0.538200  1.0  0.1071
  H  H124  1  0.709300  0.532700  0.032400  1.0  0.0975
  H  H125  1  0.704200  0.562400  0.951700  1.0  0.1002
  H  H126  1  0.417700  0.563600  0.473000  1.0  0.1259
  H  H127  1  0.515600  0.365300  0.385400  1.0  0.0611
  H  H128  1  0.422100  0.569100  0.394200  1.0  0.0771
  H  H129  1  0.519600  0.353100  0.463100  1.0  0.1125
  H  H130  1  0.337200  0.339700  0.062100  1.0  0.11
  H  H131  1  0.228200  0.382500  0.826200  1.0  0.1157
  H  H132  1  0.253200  0.466900  0.834400  1.0  0.1103
  H  H133  1  0.294400  0.429300  0.788900  1.0  0.1055
  H  H134  1  0.360000  0.319100  0.979400  1.0  0.1072
  H  H135  1  0.600700  0.396300  0.174300  1.0  0.1244
  H  H136  1  0.593300  0.324800  0.144100  1.0  0.114
  H  H137  1  0.658400  0.322100  0.191400  1.0  0.1103
  H  H138  1  0.462400  0.497000  0.199000  1.0  0.1003
  H  H139  1  0.370900  0.493000  0.239500  1.0  0.0999
  H  H140  1  0.410200  0.420300  0.214300  1.0  0.1042
  H  H141  1  0.187800  0.600500  0.630900  1.0  0.2307
  H  H142  1  0.829800  0.828700  0.879800  1.0  0.2758
  H  H143  1  0.115600  0.654700  0.401900  1.0  0.2023
  H  H144  1  0.769000  0.452100  0.369700  1.0  0.2535
  H  H145  1  0.781600  0.541400  0.601300  1.0  0.2182
  H  H146  1  0.015300  0.660200  0.032200  1.0  0.1203
  H  H147  1  0.795100  0.808500  0.107200  1.0  0.2287
  H  H148  1  0.030600  0.454100  0.120700  1.0  0.0666
  H  H149  1  0.633000  0.732300  0.159700  1.0  0.0977
  H  H150  1  0.697300  0.672900  0.634600  1.0  0.0998
  H  H151  1  0.636600  0.538100  0.313800  1.0  0.0956
  H  H152  1  0.045200  0.440000  0.043900  1.0  0.1256
  H  H153  1  0.224100  0.465600  0.672200  1.0  0.083
  H  H154  1  0.007900  0.667100  0.110300  1.0  0.0678
  H  H155  1  0.823300  0.718500  0.817600  1.0  0.0732
  H  H156  1  0.040400  0.555200  0.338200  1.0  0.0903
  H  H157  1  0.894000  0.837100  0.955700  1.0  0.1057
  H  H158  1  0.974700  0.804500  0.807500  1.0  0.1138
  H  H159  1  0.890700  0.808700  0.764700  1.0  0.1161
  H  H160  1  0.881500  0.869100  0.803000  1.0  0.1014
  H  H161  1  0.734900  0.397500  0.292600  1.0  0.1079
  H  H162  1  0.603500  0.410600  0.309900  1.0  0.1008
  H  H163  1  0.642100  0.438700  0.261500  1.0  0.1056
  H  H164  1  0.621600  0.855500  0.177000  1.0  0.1086
  H  H165  1  0.672500  0.813900  0.219700  1.0  0.1056
  H  H166  1  0.759300  0.858700  0.188000  1.0  0.1146
  H  H167  1  0.860600  0.839100  0.038200  1.0  0.1068
  H  H168  1  0.790700  0.467300  0.532400  1.0  0.0978
  H  H169  1  0.795800  0.437600  0.451700  1.0  0.1007
  H  H170  1  0.082300  0.436400  0.973000  1.0  0.1256
  H  H171  1  0.984400  0.634700  0.885400  1.0  0.0619
  H  H172  1  0.077900  0.430900  0.894200  1.0  0.0774
  H  H173  1  0.980400  0.646900  0.963100  1.0  0.1127
  H  H174  1  0.162800  0.660300  0.562100  1.0  0.1095
  H  H175  1  0.271800  0.617500  0.326200  1.0  0.1144
  H  H176  1  0.246800  0.533100  0.334400  1.0  0.1106
  H  H177  1  0.205600  0.570700  0.288900  1.0  0.1064
  H  H178  1  0.140000  0.680900  0.479400  1.0  0.107
  H  H179  1  0.899300  0.603700  0.674300  1.0  0.1243
  H  H180  1  0.906700  0.675200  0.644100  1.0  0.1135
  H  H181  1  0.841600  0.677900  0.691400  1.0  0.1103
  H  H182  1  0.037600  0.503000  0.699000  1.0  0.1012
  H  H183  1  0.129100  0.507000  0.739500  1.0  0.0996
  H  H184  1  0.089800  0.579700  0.714300  1.0  0.1048
  C  C185  1  0.179700  0.715600  0.200340  1.0  0.6585
  C  C186  1  0.162400  0.915800  0.324160  1.0  0.6891
  C  C187  1  0.532100  0.956900  0.022550  1.0  0.0669
  C  C188  1  0.300900  0.961400  0.718640  1.0  0.6811
  C  C189  1  0.304700  0.792600  0.821940  1.0  0.6924
  C  C190  1  0.264400  0.924000  0.482200  1.0  -0.1961
  C  C191  1  0.824500  0.948800  0.302340  1.0  0.7058
  C  C192  1  0.518900  0.882900  0.950510  1.0  -0.1822
  C  C193  1  0.543100  0.835800  0.680820  1.0  0.6885
  C  C194  1  0.527500  0.003600  0.897350  1.0  0.1721
  C  C195  1  0.233100  0.740700  0.968370  1.0  -0.1532
  C  C196  1  0.258900  0.761800  0.099980  1.0  0.6096
  C  C197  1  0.184500  0.756800  0.922210  1.0  0.6206
  C  C198  1  0.208800  0.740200  0.839870  1.0  0.0806
  C  C199  1  0.239600  0.873100  0.357840  1.0  0.0702
  C  C200  1  0.615300  0.929200  0.529460  1.0  -0.1708
  C  C201  1  0.529800  0.951100  0.971820  1.0  0.0735
  C  C202  1  0.206400  0.994900  0.686970  1.0  0.0567
  C  C203  1  0.535700  0.012900  0.943690  1.0  -0.1876
  C  C204  1  0.600000  0.945400  0.578710  1.0  0.636
  C  C205  1  0.711100  0.981300  0.322810  1.0  0.057
  C  C206  1  0.513400  0.879400  0.903260  1.0  0.1778
  C  C207  1  0.302500  0.729200  0.178340  1.0  0.0797
  C  C208  1  0.595200  0.903000  0.657130  1.0  0.0736
  C  C209  1  0.338500  0.692800  0.029410  1.0  -0.0691
  C  C210  1  0.263500  0.945000  0.614320  1.0  0.594
  C  C211  1  0.266800  0.742500  0.050970  1.0  -0.1299
  C  C212  1  0.396000  0.682400  0.203080  1.0  -0.3431
  C  C213  1  0.168200  0.068900  0.707650  1.0  -0.3368
  C  C214  1  0.188700  0.671800  0.811200  1.0  -0.342
  C  C215  1  0.319200  0.691700  0.981810  1.0  -0.0525
  C  C216  1  0.274200  0.953900  0.564170  1.0  -0.1675
  C  C217  1  0.282100  0.997500  0.490500  1.0  -0.0565
  C  C218  1  0.245200  0.881200  0.439930  1.0  0.6091
  C  C219  1  0.286100  0.014600  0.537090  1.0  -0.0344
  C  C220  1  0.561400  0.021900  0.043820  1.0  -0.205
  C  C221  1  0.504200  0.906300  0.096950  1.0  0.1752
  C  C222  1  0.655800  0.987800  0.403200  1.0  0.6103
  C  C223  1  0.640800  0.949500  0.447270  1.0  -0.1518
  C  C224  1  0.559100  0.024300  0.091780  1.0  0.1834
  C  C225  1  0.502100  0.898100  0.049810  1.0  -0.2003
  C  C226  1  0.649400  0.877500  0.458830  1.0  -0.0767
  C  C227  1  0.716100  0.922200  0.678930  1.0  -0.3495
  C  C228  1  0.635600  0.865400  0.506790  1.0  -0.0954
  C  C229  1  0.357700  0.852100  0.334870  1.0  -0.3453
  C  C230  1  0.607300  0.972100  0.289400  1.0  -0.3339
  C  C231  1  0.320300  0.284400  0.700340  1.0  0.6595
  C  C232  1  0.337600  0.084200  0.824160  1.0  0.6908
  C  C233  1  0.967900  0.043100  0.522550  1.0  0.0677
  C  C234  1  0.199100  0.038600  0.218640  1.0  0.6773
  C  C235  1  0.195300  0.207400  0.321940  1.0  0.6912
  C  C236  1  0.235600  0.076000  0.982200  1.0  -0.1945
  C  C237  1  0.675500  0.051200  0.802340  1.0  0.7049
  C  C238  1  0.981100  0.117100  0.450510  1.0  -0.1816
  C  C239  1  0.956900  0.164200  0.180820  1.0  0.6868
  C  C240  1  0.972500  0.996400  0.397350  1.0  0.1718
  C  C241  1  0.266900  0.259300  0.468370  1.0  -0.1522
  C  C242  1  0.241100  0.238200  0.599980  1.0  0.6106
  C  C243  1  0.315500  0.243200  0.422210  1.0  0.6214
  C  C244  1  0.291200  0.259800  0.339870  1.0  0.0811
  C  C245  1  0.260400  0.126900  0.857840  1.0  0.0698
  C  C246  1  0.884700  0.070800  0.029460  1.0  -0.1708
  C  C247  1  0.970200  0.048900  0.471820  1.0  0.0735
  C  C248  1  0.293600  0.005100  0.186970  1.0  0.0572
  C  C249  1  0.964300  0.987100  0.443690  1.0  -0.1861
  C  C250  1  0.900000  0.054600  0.078710  1.0  0.6371
  C  C251  1  0.788900  0.018700  0.822810  1.0  0.0562
  C  C252  1  0.986600  0.120600  0.403260  1.0  0.1775
  C  C253  1  0.197500  0.270800  0.678340  1.0  0.079
  C  C254  1  0.904800  0.097000  0.157130  1.0  0.0737
  C  C255  1  0.161500  0.307200  0.529410  1.0  -0.0684
  C  C256  1  0.236500  0.055000  0.114320  1.0  0.5948
  C  C257  1  0.233200  0.257500  0.550970  1.0  -0.1293
  C  C258  1  0.104000  0.317600  0.703080  1.0  -0.3419
  C  C259  1  0.331800  0.931100  0.207650  1.0  -0.3383
  C  C260  1  0.311300  0.328200  0.311200  1.0  -0.3445
  C  C261  1  0.180800  0.308300  0.481810  1.0  -0.052
  C  C262  1  0.225800  0.046100  0.064170  1.0  -0.1657
  C  C263  1  0.217900  0.002500  0.990500  1.0  -0.0565
  C  C264  1  0.254800  0.118800  0.939930  1.0  0.6087
  C  C265  1  0.213900  0.985400  0.037090  1.0  -0.0339
  C  C266  1  0.938600  0.978100  0.543820  1.0  -0.2049
  C  C267  1  0.995800  0.093700  0.596950  1.0  0.1765
  C  C268  1  0.844200  0.012200  0.903200  1.0  0.6087
  C  C269  1  0.859200  0.050500  0.947270  1.0  -0.1514
  C  C270  1  0.940900  0.975700  0.591780  1.0  0.1845
  C  C271  1  0.997900  0.101900  0.549810  1.0  -0.1999
  C  C272  1  0.850600  0.122500  0.958830  1.0  -0.0759
  C  C273  1  0.783900  0.077800  0.178930  1.0  -0.349
  C  C274  1  0.864400  0.134600  0.006790  1.0  -0.0953
  C  C275  1  0.142300  0.147900  0.834870  1.0  -0.3434
  C  C276  1  0.892700  0.027900  0.789400  1.0  -0.336
  C  C277  1  0.820300  0.215600  0.299660  1.0  0.6582
  C  C278  1  0.837600  0.415800  0.175840  1.0  0.6907
  C  C279  1  0.467900  0.456900  0.477450  1.0  0.0682
  C  C280  1  0.699100  0.461400  0.781360  1.0  0.6801
  C  C281  1  0.695300  0.292600  0.678060  1.0  0.6921
  C  C282  1  0.735600  0.424000  0.017800  1.0  -0.1958
  C  C283  1  0.175500  0.448800  0.197660  1.0  0.7049
  C  C284  1  0.481100  0.382900  0.549490  1.0  -0.1812
  C  C285  1  0.456900  0.335800  0.819180  1.0  0.6883
  C  C286  1  0.472500  0.503600  0.602650  1.0  0.1719
  C  C287  1  0.766900  0.240700  0.531630  1.0  -0.1525
  C  C288  1  0.741100  0.261800  0.400020  1.0  0.6069
  C  C289  1  0.815500  0.256800  0.577790  1.0  0.6211
  C  C290  1  0.791200  0.240200  0.660130  1.0  0.0814
  C  C291  1  0.760400  0.373100  0.142160  1.0  0.0706
  C  C292  1  0.384700  0.429200  0.970540  1.0  -0.1704
  C  C293  1  0.470200  0.451100  0.528180  1.0  0.0733
  C  C294  1  0.793600  0.494900  0.813030  1.0  0.0565
  C  C295  1  0.464300  0.512900  0.556310  1.0  -0.1884
  C  C296  1  0.400000  0.445400  0.921290  1.0  0.6344
  C  C297  1  0.288900  0.481300  0.177190  1.0  0.0567
  C  C298  1  0.486600  0.379400  0.596740  1.0  0.1792
  C  C299  1  0.697500  0.229200  0.321660  1.0  0.0793
  C  C300  1  0.404800  0.403000  0.842870  1.0  0.0733
  C  C301  1  0.661500  0.192800  0.470590  1.0  -0.0674
  C  C302  1  0.736500  0.445000  0.885680  1.0  0.5935
  C  C303  1  0.733200  0.242500  0.449030  1.0  -0.1307
  C  C304  1  0.604000  0.182400  0.296920  1.0  -0.3414
  C  C305  1  0.831800  0.568900  0.792350  1.0  -0.3381
  C  C306  1  0.811300  0.171800  0.688800  1.0  -0.3445
  C  C307  1  0.680800  0.191700  0.518190  1.0  -0.0518
  C  C308  1  0.725800  0.453900  0.935830  1.0  -0.1676
  C  C309  1  0.717900  0.497500  0.009500  1.0  -0.0563
  C  C310  1  0.754800  0.381200  0.060070  1.0  0.6133
  C  C311  1  0.713900  0.514600  0.962910  1.0  -0.0341
  C  C312  1  0.438600  0.521900  0.456180  1.0  -0.2058
  C  C313  1  0.495800  0.406300  0.403050  1.0  0.177
  C  C314  1  0.344200  0.487800  0.096800  1.0  0.6098
  C  C315  1  0.359200  0.449500  0.052730  1.0  -0.1511
  C  C316  1  0.440900  0.524300  0.408220  1.0  0.1825
  C  C317  1  0.497900  0.398100  0.450190  1.0  -0.2001
  C  C318  1  0.350600  0.377500  0.041170  1.0  -0.0761
  C  C319  1  0.283900  0.422200  0.821070  1.0  -0.3488
  C  C320  1  0.364400  0.365400  0.993210  1.0  -0.0958
  C  C321  1  0.642300  0.352100  0.165130  1.0  -0.3446
  C  C322  1  0.392700  0.472100  0.210600  1.0  -0.3364
  C  C323  1  0.679700  0.784400  0.799660  1.0  0.657
  C  C324  1  0.662400  0.584200  0.675840  1.0  0.6891
  C  C325  1  0.032100  0.543100  0.977450  1.0  0.0673
  C  C326  1  0.800900  0.538600  0.281360  1.0  0.6819
  C  C327  1  0.804700  0.707400  0.178060  1.0  0.6933
  C  C328  1  0.764400  0.576000  0.517800  1.0  -0.1945
  C  C329  1  0.324500  0.551200  0.697660  1.0  0.7046
  C  C330  1  0.018900  0.617100  0.049490  1.0  -0.1817
  C  C331  1  0.043100  0.664200  0.319180  1.0  0.6878
  C  C332  1  0.027500  0.496400  0.102650  1.0  0.1716
  C  C333  1  0.733100  0.759300  0.031630  1.0  -0.1533
  C  C334  1  0.758900  0.738200  0.900020  1.0  0.6072
  C  C335  1  0.684500  0.743200  0.077790  1.0  0.6209
  C  C336  1  0.708800  0.759800  0.160130  1.0  0.0803
  C  C337  1  0.739600  0.626900  0.642160  1.0  0.07
  C  C338  1  0.115300  0.570800  0.470540  1.0  -0.1715
  C  C339  1  0.029800  0.548900  0.028180  1.0  0.0727
  C  C340  1  0.706400  0.505100  0.313030  1.0  0.0572
  C  C341  1  0.035700  0.487100  0.056310  1.0  -0.1862
  C  C342  1  0.100000  0.554600  0.421290  1.0  0.6366
  C  C343  1  0.211100  0.518700  0.677190  1.0  0.0564
  C  C344  1  0.013400  0.620600  0.096740  1.0  0.1768
  C  C345  1  0.802500  0.770800  0.821660  1.0  0.0792
  C  C346  1  0.095200  0.597000  0.342870  1.0  0.0733
  C  C347  1  0.838500  0.807200  0.970590  1.0  -0.0678
  C  C348  1  0.763500  0.555000  0.385680  1.0  0.5941
  C  C349  1  0.766800  0.757500  0.949030  1.0  -0.1294
  C  C350  1  0.896000  0.817600  0.796920  1.0  -0.3437
  C  C351  1  0.668200  0.431100  0.292350  1.0  -0.3376
  C  C352  1  0.688700  0.828200  0.188800  1.0  -0.3423
  C  C353  1  0.819200  0.808300  0.018190  1.0  -0.0516
  C  C354  1  0.774200  0.546100  0.435830  1.0  -0.1654
  C  C355  1  0.782100  0.502500  0.509500  1.0  -0.0569
  C  C356  1  0.745200  0.618800  0.560070  1.0  0.6131
  C  C357  1  0.786100  0.485400  0.462910  1.0  -0.0345
  C  C358  1  0.061400  0.478100  0.956180  1.0  -0.205
  C  C359  1  0.004200  0.593700  0.903050  1.0  0.1757
  C  C360  1  0.155800  0.512200  0.596800  1.0  0.6096
  C  C361  1  0.140800  0.550500  0.552730  1.0  -0.1518
  C  C362  1  0.059100  0.475700  0.908220  1.0  0.1838
  C  C363  1  0.002100  0.601900  0.950190  1.0  -0.1999
  C  C364  1  0.149400  0.622500  0.541170  1.0  -0.0754
  C  C365  1  0.216100  0.577800  0.321070  1.0  -0.3495
  C  C366  1  0.135600  0.634600  0.493210  1.0  -0.0958
  C  C367  1  0.857700  0.647900  0.665130  1.0  -0.3451
  C  C368  1  0.107300  0.527900  0.710600  1.0  -0.3354
  S  S369  1  0.615820  0.003610  0.493690  1.0  0.1227
  S  S370  1  0.176090  0.789120  0.013260  1.0  0.1146
  S  S371  1  0.256300  0.875220  0.532370  1.0  0.1372
  S  S372  1  0.884180  0.996390  0.993690  1.0  0.1235
  S  S373  1  0.323910  0.210880  0.513260  1.0  0.1145
  S  S374  1  0.243700  0.124780  0.032370  1.0  0.134
  S  S375  1  0.384180  0.503610  0.006310  1.0  0.1218
  S  S376  1  0.823910  0.289120  0.486740  1.0  0.1146
  S  S377  1  0.743700  0.375220  0.967630  1.0  0.1377
  S  S378  1  0.115820  0.496390  0.506310  1.0  0.1228
  S  S379  1  0.676090  0.710880  0.986740  1.0  0.114
  S  S380  1  0.756300  0.624780  0.467630  1.0  0.1339
  N  N381  1  0.515400  0.938540  0.876200  1.0  -0.3806
  N  N382  1  0.684800  0.947000  0.366620  1.0  -0.3995
  N  N383  1  0.302000  0.712920  0.129800  1.0  -0.4086
  N  N384  1  0.605700  0.889800  0.607970  1.0  -0.3882
  N  N385  1  0.251100  0.004640  0.640460  1.0  -0.3919
  N  N386  1  0.259600  0.913000  0.399850  1.0  -0.3754
  N  N387  1  0.239800  0.723530  0.887240  1.0  -0.3967
  N  N388  1  0.532400  0.967900  0.118260  1.0  -0.426
  N  N389  1  0.984600  0.061460  0.376200  1.0  -0.3801
  N  N390  1  0.815200  0.053000  0.866620  1.0  -0.404
  N  N391  1  0.198000  0.287080  0.629800  1.0  -0.4088
  N  N392  1  0.894300  0.110200  0.107970  1.0  -0.3889
  N  N393  1  0.248900  0.995360  0.140460  1.0  -0.3914
  N  N394  1  0.240400  0.087000  0.899850  1.0  -0.3753
  N  N395  1  0.260200  0.276470  0.387240  1.0  -0.396
  N  N396  1  0.967600  0.032100  0.618260  1.0  -0.4249
  N  N397  1  0.484600  0.438540  0.623800  1.0  -0.382
  N  N398  1  0.315200  0.447000  0.133380  1.0  -0.3996
  N  N399  1  0.698000  0.212920  0.370200  1.0  -0.4095
  N  N400  1  0.394300  0.389800  0.892030  1.0  -0.3872
  N  N401  1  0.748900  0.504640  0.859540  1.0  -0.3926
  N  N402  1  0.740400  0.413000  0.100150  1.0  -0.3752
  N  N403  1  0.760200  0.223530  0.612760  1.0  -0.3941
  N  N404  1  0.467600  0.467900  0.381740  1.0  -0.423
  N  N405  1  0.015400  0.561460  0.123800  1.0  -0.3822
  N  N406  1  0.184800  0.553000  0.633380  1.0  -0.4045
  N  N407  1  0.802000  0.787080  0.870200  1.0  -0.4078
  N  N408  1  0.105700  0.610200  0.392030  1.0  -0.3893
  N  N409  1  0.751100  0.495360  0.359540  1.0  -0.3941
  N  N410  1  0.759600  0.587000  0.600150  1.0  -0.3739
  N  N411  1  0.739800  0.776470  0.112760  1.0  -0.3956
  N  N412  1  0.032400  0.532100  0.881740  1.0  -0.4241
  O  O413  1  0.382600  0.771340  0.793840  1.0  -0.8123
  O  O414  1  0.509600  0.844250  0.721810  1.0  -0.7897
  O  O415  1  0.101400  0.876500  0.297640  1.0  -0.7284
  O  O416  1  0.837200  0.879920  0.304120  1.0  -0.6807
  O  O417  1  0.147300  0.762670  0.229240  1.0  -0.7099
  O  O418  1  0.403000  0.989580  0.721110  1.0  -0.6336
  O  O419  1  0.124200  0.658110  0.189410  1.0  -0.7215
  O  O420  1  0.895600  0.992520  0.283230  1.0  -0.7156
  O  O421  1  0.270500  0.907280  0.743470  1.0  -0.6706
  O  O422  1  0.307300  0.857280  0.837510  1.0  -0.6786
  O  O423  1  0.165500  0.985550  0.323000  1.0  -0.7148
  O  O424  1  0.262300  0.882740  0.630870  1.0  -0.5164
  O  O425  1  0.581800  0.008640  0.590720  1.0  -0.5071
  O  O426  1  0.214900  0.814500  0.443880  1.0  -0.553
  O  O427  1  0.215300  0.821970  0.111660  1.0  -0.5624
  O  O428  1  0.539100  0.774810  0.661680  1.0  -0.6375
  O  O429  1  0.642200  0.055720  0.400880  1.0  -0.5634
  O  O430  1  0.097400  0.797600  0.917940  1.0  -0.5104
  O  O431  1  0.117400  0.228660  0.293840  1.0  -0.8123
  O  O432  1  0.990400  0.155750  0.221810  1.0  -0.7892
  O  O433  1  0.398600  0.123500  0.797640  1.0  -0.727
  O  O434  1  0.662800  0.120080  0.804120  1.0  -0.6806
  O  O435  1  0.352700  0.237330  0.729240  1.0  -0.7104
  O  O436  1  0.097000  0.010420  0.221110  1.0  -0.6332
  O  O437  1  0.375800  0.341890  0.689410  1.0  -0.7199
  O  O438  1  0.604400  0.007480  0.783230  1.0  -0.7153
  O  O439  1  0.229500  0.092720  0.243470  1.0  -0.6726
  O  O440  1  0.192700  0.142720  0.337510  1.0  -0.6763
  O  O441  1  0.334500  0.014450  0.823000  1.0  -0.7156
  O  O442  1  0.237700  0.117260  0.130870  1.0  -0.5152
  O  O443  1  0.918200  0.991360  0.090720  1.0  -0.5083
  O  O444  1  0.285100  0.185500  0.943880  1.0  -0.5524
  O  O445  1  0.284700  0.178030  0.611660  1.0  -0.5623
  O  O446  1  0.960900  0.225190  0.161680  1.0  -0.6355
  O  O447  1  0.857800  0.944280  0.900880  1.0  -0.5635
  O  O448  1  0.402600  0.202400  0.417940  1.0  -0.5118
  O  O449  1  0.617400  0.271340  0.706160  1.0  -0.8109
  O  O450  1  0.490400  0.344250  0.778190  1.0  -0.7904
  O  O451  1  0.898600  0.376500  0.202360  1.0  -0.7281
  O  O452  1  0.162800  0.379920  0.195880  1.0  -0.679
  O  O453  1  0.852700  0.262670  0.270760  1.0  -0.7097
  O  O454  1  0.597000  0.489580  0.778890  1.0  -0.6331
  O  O455  1  0.875800  0.158110  0.310590  1.0  -0.7198
  O  O456  1  0.104400  0.492520  0.216770  1.0  -0.7156
  O  O457  1  0.729500  0.407280  0.756530  1.0  -0.6725
  O  O458  1  0.692700  0.357280  0.662490  1.0  -0.6786
  O  O459  1  0.834500  0.485550  0.177000  1.0  -0.7141
  O  O460  1  0.737700  0.382740  0.869130  1.0  -0.5163
  O  O461  1  0.418200  0.508640  0.909280  1.0  -0.5073
  O  O462  1  0.785100  0.314500  0.056120  1.0  -0.5532
  O  O463  1  0.784700  0.321970  0.388340  1.0  -0.562
  O  O464  1  0.460900  0.274810  0.838320  1.0  -0.6379
  O  O465  1  0.357800  0.555720  0.099120  1.0  -0.5631
  O  O466  1  0.902600  0.297600  0.582060  1.0  -0.5113
  O  O467  1  0.882600  0.728660  0.206160  1.0  -0.8117
  O  O468  1  0.009600  0.655750  0.278190  1.0  -0.7894
  O  O469  1  0.601400  0.623500  0.702360  1.0  -0.7278
  O  O470  1  0.337200  0.620080  0.695880  1.0  -0.6812
  O  O471  1  0.647300  0.737330  0.770760  1.0  -0.7111
  O  O472  1  0.903000  0.510420  0.278890  1.0  -0.6344
  O  O473  1  0.624200  0.841890  0.810590  1.0  -0.7214
  O  O474  1  0.395600  0.507480  0.716770  1.0  -0.7162
  O  O475  1  0.770500  0.592720  0.256530  1.0  -0.6725
  O  O476  1  0.807300  0.642720  0.162490  1.0  -0.6767
  O  O477  1  0.665500  0.514450  0.677000  1.0  -0.7159
  O  O478  1  0.762300  0.617260  0.369130  1.0  -0.5148
  O  O479  1  0.081800  0.491360  0.409280  1.0  -0.5085
  O  O480  1  0.714900  0.685500  0.556120  1.0  -0.5523
  O  O481  1  0.715300  0.678030  0.888340  1.0  -0.5623
  O  O482  1  0.039100  0.725190  0.338320  1.0  -0.637
  O  O483  1  0.142200  0.444280  0.599120  1.0  -0.5629
  O  O484  1  0.597400  0.702400  0.082060  1.0  -0.5112
