# generated using pymatgen
data_Cu4WC4(S2N)4
_symmetry_space_group_name_H-M   'P 1'
_cell_length_a   15.59100000
_cell_length_b   15.24100000
_cell_length_c   12.12600000
_cell_angle_alpha   90.00000000
_cell_angle_beta   90.00000000
_cell_angle_gamma   90.00000000
_symmetry_Int_Tables_number   1
_chemical_formula_structural   Cu4WC4(S2N)4
_chemical_formula_sum   'Cu16 W4 C16 S32 N16'
_cell_volume   2881.40959831
_cell_formula_units_Z   4
loop_
 _symmetry_equiv_pos_site_id
 _symmetry_equiv_pos_as_xyz
  1  'x, y, z'
loop_
 _atom_site_type_symbol
 _atom_site_label
 _atom_site_symmetry_multiplicity
 _atom_site_fract_x
 _atom_site_fract_y
 _atom_site_fract_z
 _atom_site_occupancy
 _atom_site_charge
  Cu  Cu1  1  0.146600  0.987500  0.237000  1.0  0.3841
  Cu  Cu2  1  0.109400  0.152600  0.025200  1.0  0.3198
  Cu  Cu3  1  0.882000  0.070900  0.967000  1.0  0.3246
  Cu  Cu4  1  0.911400  0.888400  0.172000  1.0  0.4272
  Cu  Cu5  1  0.353400  0.012500  0.737000  1.0  0.3828
  Cu  Cu6  1  0.390600  0.847400  0.525200  1.0  0.3222
  Cu  Cu7  1  0.618000  0.929100  0.467000  1.0  0.3251
  Cu  Cu8  1  0.588600  0.111600  0.672000  1.0  0.4269
  Cu  Cu9  1  0.853400  0.487500  0.263000  1.0  0.383
  Cu  Cu10  1  0.890600  0.652600  0.474800  1.0  0.3203
  Cu  Cu11  1  0.118000  0.570900  0.533000  1.0  0.325
  Cu  Cu12  1  0.088600  0.388400  0.328000  1.0  0.4271
  Cu  Cu13  1  0.646600  0.512500  0.763000  1.0  0.3842
  Cu  Cu14  1  0.609400  0.347400  0.974800  1.0  0.3225
  Cu  Cu15  1  0.382000  0.429100  0.033000  1.0  0.3248
  Cu  Cu16  1  0.411400  0.611600  0.828000  1.0  0.4267
  W  W17  1  0.015240  0.018100  0.098420  1.0  0.5721
  W  W18  1  0.484760  0.981900  0.598420  1.0  0.5723
  W  W19  1  0.984760  0.518100  0.401580  1.0  0.5717
  W  W20  1  0.515240  0.481900  0.901580  1.0  0.572
  C  C21  1  0.302900  0.878000  0.293000  1.0  0.3674
  C  C22  1  0.208500  0.324200  0.006000  1.0  0.2866
  C  C23  1  0.136000  0.193200  0.332000  1.0  0.341
  C  C24  1  0.781400  0.093000  0.749000  1.0  0.3401
  C  C25  1  0.197100  0.122000  0.793000  1.0  0.3695
  C  C26  1  0.291500  0.675800  0.506000  1.0  0.2865
  C  C27  1  0.364000  0.806800  0.832000  1.0  0.3422
  C  C28  1  0.718600  0.907000  0.249000  1.0  0.34
  C  C29  1  0.697100  0.378000  0.207000  1.0  0.3685
  C  C30  1  0.791500  0.824200  0.494000  1.0  0.2855
  C  C31  1  0.864000  0.693200  0.168000  1.0  0.3417
  C  C32  1  0.218600  0.593000  0.751000  1.0  0.3401
  C  C33  1  0.802900  0.622000  0.707000  1.0  0.3689
  C  C34  1  0.708500  0.175800  0.994000  1.0  0.2853
  C  C35  1  0.636000  0.306800  0.668000  1.0  0.3414
  C  C36  1  0.281400  0.407000  0.251000  1.0  0.3401
  S  S37  1  0.969800  0.156400  0.078900  1.0  -0.2596
  S  S38  1  0.152900  0.011200  0.049200  1.0  -0.2729
  S  S39  1  0.002100  0.974500  0.273700  1.0  -0.2071
  S  S40  1  0.937000  0.930600  0.991300  1.0  -0.2423
  S  S41  1  0.243900  0.416300  0.958900  1.0  -0.1636
  S  S42  1  0.884200  0.103700  0.779100  1.0  -0.1839
  S  S43  1  0.194700  0.108600  0.351400  1.0  -0.2191
  S  S44  1  0.400000  0.837300  0.306300  1.0  -0.194
  S  S45  1  0.530200  0.843600  0.578900  1.0  -0.2599
  S  S46  1  0.347100  0.988800  0.549200  1.0  -0.2729
  S  S47  1  0.497900  0.025500  0.773700  1.0  -0.2072
  S  S48  1  0.563000  0.069400  0.491300  1.0  -0.2428
  S  S49  1  0.256100  0.583700  0.458900  1.0  -0.1631
  S  S50  1  0.615800  0.896300  0.279100  1.0  -0.1861
  S  S51  1  0.305300  0.891400  0.851400  1.0  -0.2204
  S  S52  1  0.100000  0.162700  0.806300  1.0  -0.1958
  S  S53  1  0.030200  0.656400  0.421100  1.0  -0.2589
  S  S54  1  0.847100  0.511200  0.450800  1.0  -0.2741
  S  S55  1  0.997900  0.474500  0.226300  1.0  -0.2059
  S  S56  1  0.063000  0.430600  0.508700  1.0  -0.2454
  S  S57  1  0.756100  0.916300  0.541100  1.0  -0.1643
  S  S58  1  0.115800  0.603700  0.720900  1.0  -0.1846
  S  S59  1  0.805300  0.608600  0.148600  1.0  -0.2208
  S  S60  1  0.600000  0.337300  0.193700  1.0  -0.1965
  S  S61  1  0.469800  0.343600  0.921100  1.0  -0.2601
  S  S62  1  0.652900  0.488800  0.950800  1.0  -0.2725
  S  S63  1  0.502100  0.525500  0.726300  1.0  -0.2057
  S  S64  1  0.437000  0.569400  0.008700  1.0  -0.2453
  S  S65  1  0.743900  0.083700  0.041100  1.0  -0.1638
  S  S66  1  0.384200  0.396300  0.220900  1.0  -0.1849
  S  S67  1  0.694700  0.391400  0.648600  1.0  -0.218
  S  S68  1  0.900000  0.662700  0.693700  1.0  -0.1934
  N  N69  1  0.234800  0.907100  0.284000  1.0  -0.3796
  N  N70  1  0.178700  0.257000  0.033000  1.0  -0.3776
  N  N71  1  0.094000  0.256000  0.319000  1.0  -0.4246
  N  N72  1  0.711300  0.088000  0.721000  1.0  -0.4353
  N  N73  1  0.265200  0.092900  0.784000  1.0  -0.3808
  N  N74  1  0.321300  0.743000  0.533000  1.0  -0.3776
  N  N75  1  0.406000  0.744000  0.819000  1.0  -0.4264
  N  N76  1  0.788700  0.912000  0.221000  1.0  -0.4343
  N  N77  1  0.765200  0.407100  0.216000  1.0  -0.3803
  N  N78  1  0.821300  0.757000  0.467000  1.0  -0.3761
  N  N79  1  0.906000  0.756000  0.181000  1.0  -0.4263
  N  N80  1  0.288700  0.588000  0.779000  1.0  -0.4344
  N  N81  1  0.734800  0.592900  0.716000  1.0  -0.3814
  N  N82  1  0.678700  0.243000  0.967000  1.0  -0.3773
  N  N83  1  0.594000  0.244000  0.681000  1.0  -0.4261
  N  N84  1  0.211300  0.412000  0.279000  1.0  -0.4362
