# generated using pymatgen
data_Ga5P5O21F
_symmetry_space_group_name_H-M   'P 1'
_cell_length_a   13.22900000
_cell_length_b   15.39600000
_cell_length_c   14.80000000
_cell_angle_alpha   90.00000000
_cell_angle_beta   95.10000000
_cell_angle_gamma   90.00000000
_symmetry_Int_Tables_number   1
_chemical_formula_structural   Ga5P5O21F
_chemical_formula_sum   'Ga20 P20 O84 F4'
_cell_volume   3002.43682747
_cell_formula_units_Z   4
loop_
 _symmetry_equiv_pos_site_id
 _symmetry_equiv_pos_as_xyz
  1  'x, y, z'
loop_
 _atom_site_type_symbol
 _atom_site_label
 _atom_site_symmetry_multiplicity
 _atom_site_fract_x
 _atom_site_fract_y
 _atom_site_fract_z
 _atom_site_occupancy
 _atom_site_charge
  Ga  Ga1  1  0.613800  0.539800  0.179100  1.0  1.2071
  Ga  Ga2  1  0.564800  0.604900  0.500900  1.0  1.6838
  Ga  Ga3  1  0.568800  0.351500  0.496600  1.0  1.6884
  Ga  Ga4  1  0.324800  0.474000  0.472000  1.0  1.635
  Ga  Ga5  1  0.253400  0.375000  0.247900  1.0  1.637
  Ga  Ga6  1  0.893400  0.430600  0.312500  1.0  1.2709
  Ga  Ga7  1  0.944900  0.350200  0.000000  1.0  1.7014
  Ga  Ga8  1  0.918300  0.607400  0.000800  1.0  1.6793
  Ga  Ga9  1  0.178000  0.477200  0.029000  1.0  1.645
  Ga  Ga10  1  0.240700  0.579700  0.252400  1.0  1.632
  Ga  Ga11  1  0.386200  0.039800  0.820900  1.0  1.209
  Ga  Ga12  1  0.435200  0.104900  0.499100  1.0  1.6821
  Ga  Ga13  1  0.431200  0.851500  0.503400  1.0  1.688
  Ga  Ga14  1  0.675200  0.974000  0.528000  1.0  1.6337
  Ga  Ga15  1  0.746600  0.875000  0.752100  1.0  1.6371
  Ga  Ga16  1  0.106600  0.930600  0.687500  1.0  1.2699
  Ga  Ga17  1  0.055100  0.850200  0.000000  1.0  1.7027
  Ga  Ga18  1  0.081700  0.107400  0.999200  1.0  1.6812
  Ga  Ga19  1  0.822000  0.977200  0.971000  1.0  1.6428
  Ga  Ga20  1  0.759300  0.079700  0.747600  1.0  1.6332
  P  P21  1  0.679800  0.479800  0.378600  1.0  1.9814
  P  P22  1  0.479100  0.475800  0.638500  1.0  1.7934
  P  P23  1  0.368800  0.279900  0.413700  1.0  1.8868
  P  P24  1  0.635400  0.170800  0.582100  1.0  1.9021
  P  P25  1  0.385900  0.482800  0.126700  1.0  1.8547
  P  P26  1  0.817300  0.465700  0.116200  1.0  1.7227
  P  P27  1  0.023500  0.484300  0.863300  1.0  1.7645
  P  P28  1  0.119400  0.669600  0.089300  1.0  1.8757
  P  P29  1  0.148700  0.280800  0.075900  1.0  1.7418
  P  P30  1  0.115100  0.468300  0.376300  1.0  1.8159
  P  P31  1  0.320200  0.979800  0.621400  1.0  1.9757
  P  P32  1  0.520900  0.975800  0.361500  1.0  1.7907
  P  P33  1  0.631200  0.779900  0.586300  1.0  1.886
  P  P34  1  0.364600  0.670800  0.417900  1.0  1.9018
  P  P35  1  0.614100  0.982800  0.873300  1.0  1.854
  P  P36  1  0.182700  0.965700  0.883800  1.0  1.726
  P  P37  1  0.976500  0.984300  0.136700  1.0  1.7678
  P  P38  1  0.880600  0.169600  0.910700  1.0  1.8762
  P  P39  1  0.851300  0.780800  0.924100  1.0  1.7423
  P  P40  1  0.884900  0.968300  0.623700  1.0  1.819
  O  O41  1  0.607600  0.487000  0.296900  1.0  -0.7604
  O  O42  1  0.663600  0.556400  0.442000  1.0  -0.9282
  O  O43  1  0.664700  0.393900  0.428500  1.0  -0.8728
  O  O44  1  0.708300  0.457400  0.141100  1.0  -0.7291
  O  O45  1  0.525000  0.558400  0.606700  1.0  -0.8153
  O  O46  1  0.543700  0.398700  0.604400  1.0  -0.872
  O  O47  1  0.488700  0.476500  0.739900  1.0  -0.5658
  O  O48  1  0.365300  0.468100  0.597700  1.0  -0.79
  O  O49  1  0.652700  0.259600  0.543300  1.0  -0.7691
  O  O50  1  0.479800  0.656700  0.412600  1.0  -0.8761
  O  O51  1  0.482700  0.287300  0.418600  1.0  -0.8432
  O  O52  1  0.324600  0.285000  0.315700  1.0  -0.7615
  O  O53  1  0.138600  0.390700  0.319600  1.0  -0.7547
  O  O54  1  0.189000  0.283400  0.176600  1.0  -0.7508
  O  O55  1  0.366100  0.399900  0.175800  1.0  -0.7587
  O  O56  1  0.325700  0.484800  0.032700  1.0  -0.6998
  O  O57  1  0.498800  0.493200  0.116400  1.0  -0.7836
  O  O58  1  0.325800  0.602400  0.477900  1.0  -0.7847
  O  O59  1  0.655200  0.687700  0.549800  1.0  -0.8148
  O  O60  1  0.324200  0.348100  0.470600  1.0  -0.7835
  O  O61  1  0.895400  0.482100  0.202400  1.0  -0.8013
  O  O62  1  0.840800  0.382800  0.068000  1.0  -0.7694
  O  O63  1  0.820300  0.540600  0.050400  1.0  -0.8079
  O  O64  1  0.788700  0.485900  0.359700  1.0  -0.8487
  O  O65  1  0.962100  0.400800  0.886800  1.0  -0.7784
  O  O66  1  0.966800  0.564600  0.896000  1.0  -0.8559
  O  O67  1  0.016300  0.490900  0.762200  1.0  -0.5589
  O  O68  1  0.132900  0.480800  0.900000  1.0  -0.7182
  O  O69  1  0.179300  0.190500  0.037500  1.0  -0.7698
  O  O70  1  0.030400  0.280800  0.069700  1.0  -0.8745
  O  O71  1  0.004800  0.656700  0.090200  1.0  -0.8834
  O  O72  1  0.165000  0.665900  0.187000  1.0  -0.7701
  O  O73  1  0.354500  0.564900  0.178300  1.0  -0.7562
  O  O74  1  0.683100  0.164700  0.678500  1.0  -0.8048
  O  O75  1  0.134100  0.553900  0.323200  1.0  -0.8461
  O  O76  1  0.175500  0.469300  0.469700  1.0  -0.6983
  O  O77  1  0.000700  0.466600  0.392000  1.0  -0.7571
  O  O78  1  0.187400  0.353300  0.019600  1.0  -0.8029
  O  O79  1  0.862300  0.260000  0.947200  1.0  -0.7899
  O  O80  1  0.165500  0.601900  0.027400  1.0  -0.8055
  O  O81  1  0.181500  0.476400  0.167900  1.0  -0.8308
  O  O82  1  0.314000  0.476300  0.329400  1.0  -0.8379
  O  O83  1  0.392400  0.987000  0.703100  1.0  -0.7637
  O  O84  1  0.336400  0.056400  0.558000  1.0  -0.9304
  O  O85  1  0.335300  0.893900  0.571500  1.0  -0.8718
  O  O86  1  0.291700  0.957400  0.858900  1.0  -0.7294
  O  O87  1  0.475000  0.058400  0.393300  1.0  -0.8157
  O  O88  1  0.456300  0.898700  0.395600  1.0  -0.8676
  O  O89  1  0.511300  0.976500  0.260100  1.0  -0.5655
  O  O90  1  0.634700  0.968100  0.402300  1.0  -0.7891
  O  O91  1  0.347300  0.759600  0.456700  1.0  -0.772
  O  O92  1  0.520200  0.156700  0.587400  1.0  -0.8753
  O  O93  1  0.517300  0.787300  0.581400  1.0  -0.8434
  O  O94  1  0.675400  0.785000  0.684300  1.0  -0.7611
  O  O95  1  0.861400  0.890700  0.680400  1.0  -0.7535
  O  O96  1  0.811000  0.783400  0.823400  1.0  -0.75
  O  O97  1  0.633900  0.899900  0.824200  1.0  -0.7592
  O  O98  1  0.674300  0.984800  0.967300  1.0  -0.6989
  O  O99  1  0.501200  0.993200  0.883600  1.0  -0.7824
  O  O100  1  0.674200  0.102400  0.522100  1.0  -0.7852
  O  O101  1  0.344800  0.187700  0.450200  1.0  -0.8148
  O  O102  1  0.675800  0.848100  0.529400  1.0  -0.7827
  O  O103  1  0.104600  0.982100  0.797600  1.0  -0.8019
  O  O104  1  0.159200  0.882800  0.932000  1.0  -0.77
  O  O105  1  0.179700  0.040600  0.949600  1.0  -0.8051
  O  O106  1  0.211300  0.985900  0.640300  1.0  -0.8509
  O  O107  1  0.037900  0.900800  0.113200  1.0  -0.7789
  O  O108  1  0.033200  0.064600  0.104000  1.0  -0.8545
  O  O109  1  0.983700  0.990900  0.237800  1.0  -0.5638
  O  O110  1  0.867100  0.980800  0.100000  1.0  -0.7181
  O  O111  1  0.820700  0.690500  0.962500  1.0  -0.7692
  O  O112  1  0.969600  0.780800  0.930300  1.0  -0.8744
  O  O113  1  0.995200  0.156700  0.909800  1.0  -0.8813
  O  O114  1  0.835000  0.165900  0.813000  1.0  -0.7709
  O  O115  1  0.645500  0.064900  0.821700  1.0  -0.7573
  O  O116  1  0.316900  0.664700  0.321500  1.0  -0.8041
  O  O117  1  0.865900  0.053900  0.676800  1.0  -0.8446
  O  O118  1  0.824500  0.969300  0.530300  1.0  -0.6994
  O  O119  1  0.999300  0.966600  0.608000  1.0  -0.7593
  O  O120  1  0.812600  0.853300  0.980400  1.0  -0.8031
  O  O121  1  0.137700  0.760000  0.052800  1.0  -0.788
  O  O122  1  0.834500  0.101900  0.972600  1.0  -0.8067
  O  O123  1  0.818500  0.976400  0.832100  1.0  -0.8304
  O  O124  1  0.686000  0.976300  0.670600  1.0  -0.8387
  F  F125  1  0.473600  0.470900  0.451900  1.0  -0.4901
  F  F126  1  0.025700  0.458400  0.051500  1.0  -0.5478
  F  F127  1  0.526400  0.970900  0.548100  1.0  -0.4879
  F  F128  1  0.974300  0.958400  0.948500  1.0  -0.5501
