# generated using pymatgen
data_La2Cu3H54C36(NO4)6
_symmetry_space_group_name_H-M   'P 1'
_cell_length_a   7.49350000
_cell_length_b   13.62240000
_cell_length_c   13.62240000
_cell_angle_alpha   120.00000000
_cell_angle_beta   90.00000000
_cell_angle_gamma   90.00000000
_symmetry_Int_Tables_number   1
_chemical_formula_structural   La2Cu3H54C36(NO4)6
_chemical_formula_sum   'La2 Cu3 H54 C36 N6 O24'
_cell_volume   1204.26648590
_cell_formula_units_Z   1
loop_
 _symmetry_equiv_pos_site_id
 _symmetry_equiv_pos_as_xyz
  1  'x, y, z'
loop_
 _atom_site_type_symbol
 _atom_site_label
 _atom_site_symmetry_multiplicity
 _atom_site_fract_x
 _atom_site_fract_y
 _atom_site_fract_z
 _atom_site_occupancy
 _atom_site_charge
  La  La1  1  0.341020  0.333333  0.666667  1.0  2.1551
  La  La2  1  0.658980  0.666667  0.333333  1.0  2.1554
  Cu  Cu3  1  0.000000  0.000000  0.500000  1.0  0.8385
  Cu  Cu4  1  0.000000  0.500000  0.000000  1.0  0.8385
  Cu  Cu5  1  0.000000  0.500000  0.500000  1.0  0.8385
  H  H6  1  0.860100  0.968100  0.645000  1.0  0.264
  H  H7  1  0.953100  0.142300  0.802900  1.0  0.0603
  H  H8  1  0.768400  0.183100  0.731200  1.0  0.086
  H  H9  1  0.641400  0.065500  0.787400  1.0  0.1149
  H  H10  1  0.541100  0.997500  0.668000  1.0  0.1272
  H  H11  1  0.494700  0.128000  0.752600  1.0  0.1193
  H  H12  1  0.019000  0.989900  0.787900  1.0  0.1182
  H  H13  1  0.137600  0.100600  0.861800  1.0  0.1229
  H  H14  1  0.208900  0.002800  0.741700  1.0  0.1165
  H  H15  1  0.860100  0.676900  0.031900  1.0  0.2646
  H  H16  1  0.953100  0.660600  0.857700  1.0  0.0591
  H  H17  1  0.768400  0.548100  0.816900  1.0  0.0853
  H  H18  1  0.641400  0.721900  0.934500  1.0  0.1117
  H  H19  1  0.541100  0.670500  0.002500  1.0  0.1266
  H  H20  1  0.494700  0.624600  0.872000  1.0  0.1187
  H  H21  1  0.019000  0.798000  0.010100  1.0  0.1202
  H  H22  1  0.137600  0.761200  0.899400  1.0  0.1183
  H  H23  1  0.208900  0.738900  0.997200  1.0  0.1153
  H  H24  1  0.860100  0.355000  0.323100  1.0  0.2643
  H  H25  1  0.953100  0.197100  0.339400  1.0  0.0593
  H  H26  1  0.768400  0.268800  0.451900  1.0  0.0858
  H  H27  1  0.641400  0.212600  0.278100  1.0  0.1117
  H  H28  1  0.541100  0.332000  0.329500  1.0  0.1265
  H  H29  1  0.494700  0.247400  0.375400  1.0  0.119
  H  H30  1  0.019000  0.212100  0.202000  1.0  0.116
  H  H31  1  0.137600  0.138200  0.238800  1.0  0.1261
  H  H32  1  0.208900  0.258300  0.261100  1.0  0.1163
  H  H33  1  0.139900  0.031900  0.355000  1.0  0.262
  H  H34  1  0.046900  0.857700  0.197100  1.0  0.0597
  H  H35  1  0.231600  0.816900  0.268800  1.0  0.0871
  H  H36  1  0.358600  0.934500  0.212600  1.0  0.116
  H  H37  1  0.458900  0.002500  0.332000  1.0  0.1257
  H  H38  1  0.505300  0.872000  0.247400  1.0  0.1194
  H  H39  1  0.981000  0.010100  0.212100  1.0  0.1185
  H  H40  1  0.862400  0.899400  0.138200  1.0  0.1204
  H  H41  1  0.791100  0.997200  0.258300  1.0  0.1137
  H  H42  1  0.139900  0.323100  0.968100  1.0  0.2649
  H  H43  1  0.046900  0.339400  0.142300  1.0  0.0598
  H  H44  1  0.231600  0.451900  0.183100  1.0  0.0859
  H  H45  1  0.358600  0.278100  0.065500  1.0  0.1133
  H  H46  1  0.458900  0.329500  0.997500  1.0  0.127
  H  H47  1  0.505300  0.375400  0.128000  1.0  0.1189
  H  H48  1  0.981000  0.202000  0.989900  1.0  0.1203
  H  H49  1  0.862400  0.238800  0.100600  1.0  0.1172
  H  H50  1  0.791100  0.261100  0.002800  1.0  0.1147
  H  H51  1  0.139900  0.645000  0.676900  1.0  0.2648
  H  H52  1  0.046900  0.802900  0.660600  1.0  0.0602
  H  H53  1  0.231600  0.731200  0.548100  1.0  0.0871
  H  H54  1  0.358600  0.787400  0.721900  1.0  0.1114
  H  H55  1  0.458900  0.668000  0.670500  1.0  0.1269
  H  H56  1  0.505300  0.752600  0.624600  1.0  0.1186
  H  H57  1  0.981000  0.787900  0.798000  1.0  0.1163
  H  H58  1  0.862400  0.861800  0.761200  1.0  0.1232
  H  H59  1  0.791100  0.741700  0.738900  1.0  0.1149
  C  C60  1  0.136500  0.177420  0.724010  1.0  0.6259
  C  C61  1  0.032100  0.089300  0.739100  1.0  0.0957
  C  C62  1  0.732200  0.105600  0.670400  1.0  0.0293
  C  C63  1  0.687100  0.120360  0.570160  1.0  0.7044
  C  C64  1  0.590100  0.071200  0.724200  1.0  -0.3431
  C  C65  1  0.102600  0.043500  0.784700  1.0  -0.3883
  C  C66  1  0.136500  0.546590  0.822580  1.0  0.6245
  C  C67  1  0.032100  0.649800  0.910700  1.0  0.0977
  C  C68  1  0.732200  0.564800  0.894400  1.0  0.0292
  C  C69  1  0.687100  0.449800  0.879640  1.0  0.7004
  C  C70  1  0.590100  0.653000  0.928800  1.0  -0.3421
  C  C71  1  0.102600  0.741200  0.956500  1.0  -0.3855
  C  C72  1  0.136500  0.275990  0.453410  1.0  0.6313
  C  C73  1  0.032100  0.260900  0.350200  1.0  0.0986
  C  C74  1  0.732200  0.329600  0.435200  1.0  0.0295
  C  C75  1  0.687100  0.429840  0.550200  1.0  0.7016
  C  C76  1  0.590100  0.275800  0.347000  1.0  -0.3425
  C  C77  1  0.102600  0.215300  0.258800  1.0  -0.3875
  C  C78  1  0.863500  0.822580  0.275990  1.0  0.6266
  C  C79  1  0.967900  0.910700  0.260900  1.0  0.0967
  C  C80  1  0.267800  0.894400  0.329600  1.0  0.0305
  C  C81  1  0.312900  0.879640  0.429840  1.0  0.7017
  C  C82  1  0.409900  0.928800  0.275800  1.0  -0.343
  C  C83  1  0.897400  0.956500  0.215300  1.0  -0.3886
  C  C84  1  0.863500  0.453410  0.177420  1.0  0.6265
  C  C85  1  0.967900  0.350200  0.089300  1.0  0.0956
  C  C86  1  0.267800  0.435200  0.105600  1.0  0.0283
  C  C87  1  0.312900  0.550200  0.120360  1.0  0.7002
  C  C88  1  0.409900  0.347000  0.071200  1.0  -0.3425
  C  C89  1  0.897400  0.258800  0.043500  1.0  -0.3865
  C  C90  1  0.863500  0.724010  0.546590  1.0  0.627
  C  C91  1  0.967900  0.739100  0.649800  1.0  0.0985
  C  C92  1  0.267800  0.670400  0.564800  1.0  0.0282
  C  C93  1  0.312900  0.570160  0.449800  1.0  0.7018
  C  C94  1  0.409900  0.724200  0.653000  1.0  -0.343
  C  C95  1  0.897400  0.784700  0.741200  1.0  -0.3883
  N  N96  1  0.894100  0.035940  0.649630  1.0  -0.4123
  N  N97  1  0.894100  0.613690  0.964060  1.0  -0.4105
  N  N98  1  0.894100  0.350370  0.386310  1.0  -0.4145
  N  N99  1  0.105900  0.964060  0.350370  1.0  -0.4116
  N  N100  1  0.105900  0.386310  0.035940  1.0  -0.4106
  N  N101  1  0.105900  0.649630  0.613690  1.0  -0.4151
  O  O102  1  0.241900  0.241520  0.799350  1.0  -0.618
  O  O103  1  0.117300  0.179650  0.633330  1.0  -0.6964
  O  O104  1  0.788600  0.076820  0.484770  1.0  -0.5537
  O  O105  1  0.551900  0.177670  0.578220  1.0  -0.7035
  O  O106  1  0.241900  0.557830  0.758480  1.0  -0.6188
  O  O107  1  0.117300  0.453680  0.820350  1.0  -0.6971
  O  O108  1  0.788600  0.407950  0.923180  1.0  -0.5546
  O  O109  1  0.551900  0.400550  0.822330  1.0  -0.7043
  O  O110  1  0.241900  0.200650  0.442170  1.0  -0.6188
  O  O111  1  0.117300  0.366670  0.546320  1.0  -0.6996
  O  O112  1  0.788600  0.515230  0.592050  1.0  -0.5541
  O  O113  1  0.551900  0.421780  0.599450  1.0  -0.7017
  O  O114  1  0.758100  0.758480  0.200650  1.0  -0.6172
  O  O115  1  0.882700  0.820350  0.366670  1.0  -0.6984
  O  O116  1  0.211400  0.923180  0.515230  1.0  -0.5533
  O  O117  1  0.448100  0.822330  0.421780  1.0  -0.7035
  O  O118  1  0.758100  0.442170  0.241520  1.0  -0.6193
  O  O119  1  0.882700  0.546320  0.179650  1.0  -0.6982
  O  O120  1  0.211400  0.592050  0.076820  1.0  -0.555
  O  O121  1  0.448100  0.599450  0.177670  1.0  -0.701
  O  O122  1  0.758100  0.799350  0.557830  1.0  -0.6201
  O  O123  1  0.882700  0.633330  0.453680  1.0  -0.7
  O  O124  1  0.211400  0.484770  0.407950  1.0  -0.5548
  O  O125  1  0.448100  0.578220  0.400550  1.0  -0.7006
