# generated using pymatgen
data_Nd2Cu3H54C36(NO4)6
_symmetry_space_group_name_H-M   'P 1'
_cell_length_a   7.38170000
_cell_length_b   13.63190000
_cell_length_c   13.63190000
_cell_angle_alpha   120.00000000
_cell_angle_beta   90.00000000
_cell_angle_gamma   90.00000000
_symmetry_Int_Tables_number   1
_chemical_formula_structural   Nd2Cu3H54C36(NO4)6
_chemical_formula_sum   'Nd2 Cu3 H54 C36 N6 O24'
_cell_volume   1187.95449691
_cell_formula_units_Z   1
loop_
 _symmetry_equiv_pos_site_id
 _symmetry_equiv_pos_as_xyz
  1  'x, y, z'
loop_
 _atom_site_type_symbol
 _atom_site_label
 _atom_site_symmetry_multiplicity
 _atom_site_fract_x
 _atom_site_fract_y
 _atom_site_fract_z
 _atom_site_occupancy
 _atom_site_charge
  Nd  Nd1  1  0.339920  0.333333  0.666667  1.0  2.3065
  Nd  Nd2  1  0.660080  0.666667  0.333333  1.0  2.3065
  Cu  Cu3  1  0.000000  0.500000  0.500000  1.0  0.842
  Cu  Cu4  1  0.000000  0.000000  0.500000  1.0  0.842
  Cu  Cu5  1  0.000000  0.500000  0.000000  1.0  0.842
  H  H6  1  0.860200  0.354300  0.325200  1.0  0.2709
  H  H7  1  0.952100  0.204400  0.349200  1.0  0.0796
  H  H8  1  0.766600  0.269500  0.451700  1.0  0.073
  H  H9  1  0.642400  0.214400  0.280500  1.0  0.1101
  H  H10  1  0.539700  0.330300  0.330900  1.0  0.119
  H  H11  1  0.495100  0.246200  0.374500  1.0  0.1212
  H  H12  1  0.997400  0.209700  0.208200  1.0  0.1233
  H  H13  1  0.094600  0.128300  0.241500  1.0  0.1183
  H  H14  1  0.199500  0.231800  0.249000  1.0  0.1073
  H  H15  1  0.860200  0.970900  0.645700  1.0  0.2708
  H  H16  1  0.952100  0.144800  0.795600  1.0  0.077
  H  H17  1  0.766600  0.182200  0.730500  1.0  0.0741
  H  H18  1  0.642400  0.066100  0.785600  1.0  0.1112
  H  H19  1  0.539700  0.000600  0.669700  1.0  0.1209
  H  H20  1  0.495100  0.128300  0.753800  1.0  0.1214
  H  H21  1  0.997400  0.998500  0.790300  1.0  0.1257
  H  H22  1  0.094600  0.113200  0.871700  1.0  0.1166
  H  H23  1  0.199500  0.017200  0.768200  1.0  0.1059
  H  H24  1  0.860200  0.674800  0.029100  1.0  0.2702
  H  H25  1  0.952100  0.650800  0.855200  1.0  0.0805
  H  H26  1  0.766600  0.548300  0.817800  1.0  0.0728
  H  H27  1  0.642400  0.719500  0.933900  1.0  0.1093
  H  H28  1  0.539700  0.669100  0.999400  1.0  0.1199
  H  H29  1  0.495100  0.625500  0.871700  1.0  0.1212
  H  H30  1  0.997400  0.791800  0.001500  1.0  0.1262
  H  H31  1  0.094600  0.758500  0.886800  1.0  0.1157
  H  H32  1  0.199500  0.751000  0.982800  1.0  0.1069
  H  H33  1  0.139800  0.645700  0.674800  1.0  0.2715
  H  H34  1  0.047900  0.795600  0.650800  1.0  0.0764
  H  H35  1  0.233400  0.730500  0.548300  1.0  0.0737
  H  H36  1  0.357600  0.785600  0.719500  1.0  0.1092
  H  H37  1  0.460300  0.669700  0.669100  1.0  0.1206
  H  H38  1  0.504900  0.753800  0.625500  1.0  0.1214
  H  H39  1  0.002600  0.790300  0.791800  1.0  0.1251
  H  H40  1  0.905400  0.871700  0.758500  1.0  0.1184
  H  H41  1  0.800500  0.768200  0.751000  1.0  0.1045
  H  H42  1  0.139800  0.029100  0.354300  1.0  0.2702
  H  H43  1  0.047900  0.855200  0.204400  1.0  0.0766
  H  H44  1  0.233400  0.817800  0.269500  1.0  0.072
  H  H45  1  0.357600  0.933900  0.214400  1.0  0.1118
  H  H46  1  0.460300  0.999400  0.330300  1.0  0.1205
  H  H47  1  0.504900  0.871700  0.246200  1.0  0.1221
  H  H48  1  0.002600  0.001500  0.209700  1.0  0.1257
  H  H49  1  0.905400  0.886800  0.128300  1.0  0.1157
  H  H50  1  0.800500  0.982800  0.231800  1.0  0.1062
  H  H51  1  0.139800  0.325200  0.970900  1.0  0.2708
  H  H52  1  0.047900  0.349200  0.144800  1.0  0.079
  H  H53  1  0.233400  0.451700  0.182200  1.0  0.0724
  H  H54  1  0.357600  0.280500  0.066100  1.0  0.1118
  H  H55  1  0.460300  0.330900  0.000600  1.0  0.121
  H  H56  1  0.504900  0.374500  0.128300  1.0  0.121
  H  H57  1  0.002600  0.208200  0.998500  1.0  0.1259
  H  H58  1  0.905400  0.241500  0.113200  1.0  0.1162
  H  H59  1  0.800500  0.249000  0.017200  1.0  0.1039
  C  C60  1  0.138300  0.275700  0.455200  1.0  0.6269
  C  C61  1  0.035300  0.261700  0.351900  1.0  0.0863
  C  C62  1  0.730000  0.329400  0.436000  1.0  0.0301
  C  C63  1  0.684300  0.428500  0.551500  1.0  0.7154
  C  C64  1  0.589500  0.275300  0.347700  1.0  -0.341
  C  C65  1  0.084000  0.205400  0.258500  1.0  -0.3692
  C  C66  1  0.138300  0.179500  0.724300  1.0  0.6216
  C  C67  1  0.035300  0.090200  0.738300  1.0  0.0893
  C  C68  1  0.730000  0.106600  0.670600  1.0  0.0306
  C  C69  1  0.684300  0.123000  0.571500  1.0  0.7172
  C  C70  1  0.589500  0.072400  0.724700  1.0  -0.3414
  C  C71  1  0.084000  0.053100  0.794600  1.0  -0.3691
  C  C72  1  0.138300  0.544800  0.820500  1.0  0.6227
  C  C73  1  0.035300  0.648100  0.909800  1.0  0.0869
  C  C74  1  0.730000  0.564000  0.893400  1.0  0.0311
  C  C75  1  0.684300  0.448500  0.877000  1.0  0.7137
  C  C76  1  0.589500  0.652300  0.927600  1.0  -0.3397
  C  C77  1  0.084000  0.741500  0.946900  1.0  -0.3685
  C  C78  1  0.861700  0.724300  0.544800  1.0  0.625
  C  C79  1  0.964700  0.738300  0.648100  1.0  0.0964
  C  C80  1  0.270000  0.670600  0.564000  1.0  0.0285
  C  C81  1  0.315700  0.571500  0.448500  1.0  0.7146
  C  C82  1  0.410500  0.724700  0.652300  1.0  -0.3396
  C  C83  1  0.916000  0.794600  0.741500  1.0  -0.3665
  C  C84  1  0.861700  0.820500  0.275700  1.0  0.6276
  C  C85  1  0.964700  0.909800  0.261700  1.0  0.0976
  C  C86  1  0.270000  0.893400  0.329400  1.0  0.0327
  C  C87  1  0.315700  0.877000  0.428500  1.0  0.7159
  C  C88  1  0.410500  0.927600  0.275300  1.0  -0.3407
  C  C89  1  0.916000  0.946900  0.205400  1.0  -0.3671
  C  C90  1  0.861700  0.455200  0.179500  1.0  0.6239
  C  C91  1  0.964700  0.351900  0.090200  1.0  0.0963
  C  C92  1  0.270000  0.436000  0.106600  1.0  0.0283
  C  C93  1  0.315700  0.551500  0.123000  1.0  0.7136
  C  C94  1  0.410500  0.347700  0.072400  1.0  -0.3401
  C  C95  1  0.916000  0.258500  0.053100  1.0  -0.3668
  N  N96  1  0.894000  0.350260  0.387320  1.0  -0.4227
  N  N97  1  0.894000  0.037060  0.649740  1.0  -0.4212
  N  N98  1  0.894000  0.612680  0.962940  1.0  -0.4145
  N  N99  1  0.106000  0.649740  0.612680  1.0  -0.4251
  N  N100  1  0.106000  0.962940  0.350260  1.0  -0.4215
  N  N101  1  0.106000  0.387320  0.037060  1.0  -0.4191
  O  O102  1  0.242800  0.199660  0.444390  1.0  -0.6279
  O  O103  1  0.121100  0.365860  0.547670  1.0  -0.7256
  O  O104  1  0.787300  0.514280  0.592930  1.0  -0.5668
  O  O105  1  0.549600  0.419600  0.600700  1.0  -0.7234
  O  O106  1  0.242800  0.244730  0.800340  1.0  -0.6287
  O  O107  1  0.121100  0.181810  0.634140  1.0  -0.7216
  O  O108  1  0.787300  0.078650  0.485720  1.0  -0.5663
  O  O109  1  0.549600  0.181100  0.580400  1.0  -0.7246
  O  O110  1  0.242800  0.555610  0.755270  1.0  -0.6297
  O  O111  1  0.121100  0.452330  0.818190  1.0  -0.7255
  O  O112  1  0.787300  0.407070  0.921350  1.0  -0.567
  O  O113  1  0.549600  0.399300  0.818900  1.0  -0.7265
  O  O114  1  0.757200  0.800340  0.555610  1.0  -0.6302
  O  O115  1  0.878900  0.634140  0.452330  1.0  -0.7245
  O  O116  1  0.212700  0.485720  0.407070  1.0  -0.5668
  O  O117  1  0.450400  0.580400  0.399300  1.0  -0.7229
  O  O118  1  0.757200  0.755270  0.199660  1.0  -0.6279
  O  O119  1  0.878900  0.818190  0.365860  1.0  -0.7246
  O  O120  1  0.212700  0.921350  0.514280  1.0  -0.5664
  O  O121  1  0.450400  0.818900  0.419600  1.0  -0.7256
  O  O122  1  0.757200  0.444390  0.244730  1.0  -0.6307
  O  O123  1  0.878900  0.547670  0.181810  1.0  -0.7248
  O  O124  1  0.212700  0.592930  0.078650  1.0  -0.5678
  O  O125  1  0.450400  0.600700  0.181100  1.0  -0.7237
