# generated using pymatgen
data_Pr2Cu3H54C36(NO4)6
_symmetry_space_group_name_H-M   'P 1'
_cell_length_a   7.41470000
_cell_length_b   13.66140000
_cell_length_c   13.66140000
_cell_angle_alpha   120.00000000
_cell_angle_beta   90.00000000
_cell_angle_gamma   90.00000000
_symmetry_Int_Tables_number   1
_chemical_formula_structural   Pr2Cu3H54C36(NO4)6
_chemical_formula_sum   'Pr2 Cu3 H54 C36 N6 O24'
_cell_volume   1198.43540494
_cell_formula_units_Z   1
loop_
 _symmetry_equiv_pos_site_id
 _symmetry_equiv_pos_as_xyz
  1  'x, y, z'
loop_
 _atom_site_type_symbol
 _atom_site_label
 _atom_site_symmetry_multiplicity
 _atom_site_fract_x
 _atom_site_fract_y
 _atom_site_fract_z
 _atom_site_occupancy
 _atom_site_charge
  Pr  Pr1  1  0.340050  0.666667  0.333333  1.0  2.2493
  Pr  Pr2  1  0.659950  0.333333  0.666667  1.0  2.2494
  Cu  Cu3  1  0.000000  0.000000  0.500000  1.0  0.8408
  Cu  Cu4  1  0.000000  0.500000  0.000000  1.0  0.8408
  Cu  Cu5  1  0.000000  0.500000  0.500000  1.0  0.8408
  H  H6  1  0.859800  0.029200  0.674800  1.0  0.3016
  H  H7  1  0.952400  0.856900  0.655200  1.0  0.0782
  H  H8  1  0.767500  0.817400  0.547700  1.0  0.0891
  H  H9  1  0.639300  0.932600  0.718400  1.0  0.1143
  H  H10  1  0.494200  0.871200  0.623300  1.0  0.1167
  H  H11  1  0.539600  0.998700  0.668000  1.0  0.1155
  H  H12  1  0.004700  0.006100  0.793100  1.0  0.1065
  H  H13  1  0.201400  0.991800  0.745800  1.0  0.1098
  H  H14  1  0.114300  0.896200  0.761800  1.0  0.0921
  H  H15  1  0.859800  0.645600  0.970800  1.0  0.3025
  H  H16  1  0.952400  0.798300  0.143100  1.0  0.0806
  H  H17  1  0.767500  0.730300  0.182600  1.0  0.0911
  H  H18  1  0.639300  0.785800  0.067400  1.0  0.1126
  H  H19  1  0.494200  0.752100  0.128800  1.0  0.1155
  H  H20  1  0.539600  0.669300  0.001300  1.0  0.1138
  H  H21  1  0.004700  0.787000  0.993900  1.0  0.1054
  H  H22  1  0.201400  0.754000  0.008200  1.0  0.1098
  H  H23  1  0.114300  0.865600  0.103800  1.0  0.0909
  H  H24  1  0.859800  0.325200  0.354400  1.0  0.3019
  H  H25  1  0.952400  0.344800  0.201700  1.0  0.0773
  H  H26  1  0.767500  0.452300  0.269700  1.0  0.0916
  H  H27  1  0.639300  0.281600  0.214200  1.0  0.1132
  H  H28  1  0.494200  0.376700  0.247900  1.0  0.1164
  H  H29  1  0.539600  0.332000  0.330700  1.0  0.1144
  H  H30  1  0.004700  0.206900  0.213000  1.0  0.1075
  H  H31  1  0.201400  0.254200  0.246000  1.0  0.1095
  H  H32  1  0.114300  0.238200  0.134400  1.0  0.0893
  H  H33  1  0.140200  0.970800  0.325200  1.0  0.3012
  H  H34  1  0.047600  0.143100  0.344800  1.0  0.0813
  H  H35  1  0.232500  0.182600  0.452300  1.0  0.0892
  H  H36  1  0.360700  0.067400  0.281600  1.0  0.1145
  H  H37  1  0.505800  0.128800  0.376700  1.0  0.1175
  H  H38  1  0.460400  0.001300  0.332000  1.0  0.1163
  H  H39  1  0.995300  0.993900  0.206900  1.0  0.1069
  H  H40  1  0.798600  0.008200  0.254200  1.0  0.1072
  H  H41  1  0.885700  0.103800  0.238200  1.0  0.0912
  H  H42  1  0.140200  0.354400  0.029200  1.0  0.3018
  H  H43  1  0.047600  0.201700  0.856900  1.0  0.0782
  H  H44  1  0.232500  0.269700  0.817400  1.0  0.0928
  H  H45  1  0.360700  0.214200  0.932600  1.0  0.1143
  H  H46  1  0.505800  0.247900  0.871200  1.0  0.1169
  H  H47  1  0.460400  0.330700  0.998700  1.0  0.113
  H  H48  1  0.995300  0.213000  0.006100  1.0  0.1067
  H  H49  1  0.798600  0.246000  0.991800  1.0  0.1075
  H  H50  1  0.885700  0.134400  0.896200  1.0  0.0908
  H  H51  1  0.140200  0.674800  0.645600  1.0  0.3022
  H  H52  1  0.047600  0.655200  0.798300  1.0  0.0776
  H  H53  1  0.232500  0.547700  0.730300  1.0  0.0914
  H  H54  1  0.360700  0.718400  0.785800  1.0  0.1107
  H  H55  1  0.505800  0.623300  0.752100  1.0  0.1167
  H  H56  1  0.460400  0.668000  0.669300  1.0  0.1144
  H  H57  1  0.995300  0.793100  0.787000  1.0  0.1081
  H  H58  1  0.798600  0.745800  0.754000  1.0  0.1065
  H  H59  1  0.885700  0.761800  0.865600  1.0  0.0899
  C  C60  1  0.137400  0.820640  0.545010  1.0  0.6327
  C  C61  1  0.033300  0.909800  0.648250  1.0  0.0797
  C  C62  1  0.730900  0.893000  0.563800  1.0  0.021
  C  C63  1  0.685100  0.877910  0.448560  1.0  0.7044
  C  C64  1  0.588400  0.926900  0.651100  1.0  -0.3401
  C  C65  1  0.091200  0.953000  0.741600  1.0  -0.3631
  C  C66  1  0.137400  0.724370  0.179360  1.0  0.6368
  C  C67  1  0.033300  0.738450  0.090200  1.0  0.0785
  C  C68  1  0.730900  0.670800  0.107000  1.0  0.0202
  C  C69  1  0.685100  0.570650  0.122090  1.0  0.7017
  C  C70  1  0.588400  0.724200  0.073100  1.0  -0.339
  C  C71  1  0.091200  0.788600  0.047000  1.0  -0.3621
  C  C72  1  0.137400  0.454990  0.275630  1.0  0.632
  C  C73  1  0.033300  0.351750  0.261550  1.0  0.078
  C  C74  1  0.730900  0.436200  0.329200  1.0  0.0213
  C  C75  1  0.685100  0.551440  0.429350  1.0  0.7012
  C  C76  1  0.588400  0.348900  0.275800  1.0  -0.3391
  C  C77  1  0.091200  0.258400  0.211400  1.0  -0.3622
  C  C78  1  0.862600  0.179360  0.454990  1.0  0.6346
  C  C79  1  0.966700  0.090200  0.351750  1.0  0.0803
  C  C80  1  0.269100  0.107000  0.436200  1.0  0.0215
  C  C81  1  0.314900  0.122090  0.551440  1.0  0.7019
  C  C82  1  0.411600  0.073100  0.348900  1.0  -0.339
  C  C83  1  0.908800  0.047000  0.258400  1.0  -0.3624
  C  C84  1  0.862600  0.275630  0.820640  1.0  0.6348
  C  C85  1  0.966700  0.261550  0.909800  1.0  0.0782
  C  C86  1  0.269100  0.329200  0.893000  1.0  0.0202
  C  C87  1  0.314900  0.429350  0.877910  1.0  0.7017
  C  C88  1  0.411600  0.275800  0.926900  1.0  -0.3394
  C  C89  1  0.908800  0.211400  0.953000  1.0  -0.3614
  C  C90  1  0.862600  0.545010  0.724370  1.0  0.6315
  C  C91  1  0.966700  0.648250  0.738450  1.0  0.0787
  C  C92  1  0.269100  0.563800  0.670800  1.0  0.0181
  C  C93  1  0.314900  0.448560  0.570650  1.0  0.7002
  C  C94  1  0.411600  0.651100  0.724200  1.0  -0.3386
  C  C95  1  0.908800  0.741600  0.788600  1.0  -0.36
  N  N96  1  0.893800  0.963330  0.612920  1.0  -0.4085
  N  N97  1  0.893800  0.649590  0.036670  1.0  -0.4094
  N  N98  1  0.893800  0.387080  0.350410  1.0  -0.4033
  N  N99  1  0.106200  0.036670  0.387080  1.0  -0.4061
  N  N100  1  0.106200  0.350410  0.963330  1.0  -0.4105
  N  N101  1  0.106200  0.612920  0.649590  1.0  -0.4054
  O  O102  1  0.241200  0.755710  0.556410  1.0  -0.6153
  O  O103  1  0.120300  0.819030  0.453070  1.0  -0.7036
  O  O104  1  0.788300  0.921560  0.406920  1.0  -0.5717
  O  O105  1  0.550800  0.819480  0.398850  1.0  -0.7275
  O  O106  1  0.241200  0.800700  0.244290  1.0  -0.6159
  O  O107  1  0.120300  0.634040  0.180970  1.0  -0.7057
  O  O108  1  0.788300  0.485360  0.078440  1.0  -0.5722
  O  O109  1  0.550800  0.579370  0.180520  1.0  -0.7241
  O  O110  1  0.241200  0.443590  0.199300  1.0  -0.6173
  O  O111  1  0.120300  0.546930  0.365960  1.0  -0.7036
  O  O112  1  0.788300  0.593080  0.514640  1.0  -0.5731
  O  O113  1  0.550800  0.601150  0.420630  1.0  -0.7251
  O  O114  1  0.758800  0.244290  0.443590  1.0  -0.6166
  O  O115  1  0.879700  0.180970  0.546930  1.0  -0.7044
  O  O116  1  0.211700  0.078440  0.593080  1.0  -0.5726
  O  O117  1  0.449200  0.180520  0.601150  1.0  -0.7255
  O  O118  1  0.758800  0.199300  0.755710  1.0  -0.6168
  O  O119  1  0.879700  0.365960  0.819030  1.0  -0.7057
  O  O120  1  0.211700  0.514640  0.921560  1.0  -0.5725
  O  O121  1  0.449200  0.420630  0.819480  1.0  -0.7235
  O  O122  1  0.758800  0.556410  0.800700  1.0  -0.6171
  O  O123  1  0.879700  0.453070  0.634040  1.0  -0.7032
  O  O124  1  0.211700  0.406920  0.485360  1.0  -0.573
  O  O125  1  0.449200  0.398850  0.579370  1.0  -0.7262
