# generated using pymatgen
data_Pr2Cu2H5(C5O4)5
_symmetry_space_group_name_H-M   'P 1'
_cell_length_a   10.90600000
_cell_length_b   19.76900000
_cell_length_c   20.21200000
_cell_angle_alpha   90.00000000
_cell_angle_beta   90.00000000
_cell_angle_gamma   99.22000000
_symmetry_Int_Tables_number   1
_chemical_formula_structural   Pr2Cu2H5(C5O4)5
_chemical_formula_sum   'Pr8 Cu8 H20 C100 O80'
_cell_volume   4301.42159299
_cell_formula_units_Z   4
loop_
 _symmetry_equiv_pos_site_id
 _symmetry_equiv_pos_as_xyz
  1  'x, y, z'
loop_
 _atom_site_type_symbol
 _atom_site_label
 _atom_site_symmetry_multiplicity
 _atom_site_fract_x
 _atom_site_fract_y
 _atom_site_fract_z
 _atom_site_occupancy
 _atom_site_charge
  Pr  Pr1  1  0.467600  0.654940  0.873690  1.0  1.6893
  Pr  Pr2  1  0.666960  0.417200  0.623940  1.0  1.5451
  Pr  Pr3  1  0.032400  0.845060  0.373690  1.0  1.6886
  Pr  Pr4  1  0.833040  0.082800  0.123940  1.0  1.5488
  Pr  Pr5  1  0.532400  0.345060  0.126310  1.0  1.6955
  Pr  Pr6  1  0.333040  0.582800  0.376060  1.0  1.5332
  Pr  Pr7  1  0.967600  0.154940  0.626310  1.0  1.6959
  Pr  Pr8  1  0.166960  0.917200  0.876060  1.0  1.5405
  Cu  Cu9  1  0.427980  0.668280  0.672650  1.0  0.9009
  Cu  Cu10  1  0.711540  0.410930  0.825350  1.0  1.3598
  Cu  Cu11  1  0.072020  0.831720  0.172650  1.0  0.8999
  Cu  Cu12  1  0.788460  0.089070  0.325350  1.0  1.3588
  Cu  Cu13  1  0.572020  0.331720  0.327350  1.0  0.9012
  Cu  Cu14  1  0.288460  0.589070  0.174650  1.0  1.3588
  Cu  Cu15  1  0.927980  0.168280  0.827350  1.0  0.903
  Cu  Cu16  1  0.211540  0.910930  0.674650  1.0  1.3597
  H  H17  1  0.238300  0.323500  0.680600  1.0  0.1172
  H  H18  1  0.136000  0.504800  0.803900  1.0  0.1147
  H  H19  1  0.082600  0.434300  0.078200  1.0  0.113
  H  H20  1  0.900800  0.752900  0.811900  1.0  0.1266
  H  H21  1  0.993300  0.572800  0.684500  1.0  0.1362
  H  H22  1  0.261700  0.176500  0.180600  1.0  0.1179
  H  H23  1  0.364000  0.995200  0.303900  1.0  0.1153
  H  H24  1  0.417400  0.065700  0.578200  1.0  0.1125
  H  H25  1  0.599200  0.747100  0.311900  1.0  0.1271
  H  H26  1  0.506700  0.927200  0.184500  1.0  0.1355
  H  H27  1  0.761700  0.676500  0.319400  1.0  0.1186
  H  H28  1  0.864000  0.495200  0.196100  1.0  0.1152
  H  H29  1  0.917400  0.565700  0.921800  1.0  0.113
  H  H30  1  0.099200  0.247100  0.188100  1.0  0.1264
  H  H31  1  0.006700  0.427200  0.315500  1.0  0.1361
  H  H32  1  0.738300  0.823500  0.819400  1.0  0.1185
  H  H33  1  0.636000  0.004800  0.696100  1.0  0.115
  H  H34  1  0.582600  0.934300  0.421800  1.0  0.1129
  H  H35  1  0.400800  0.252900  0.688100  1.0  0.1263
  H  H36  1  0.493300  0.072800  0.815500  1.0  0.1358
  C  C37  1  0.261800  0.478500  0.739000  1.0  -0.0723
  C  C38  1  0.293800  0.423600  0.702800  1.0  -0.0848
  C  C39  1  0.219600  0.359300  0.706500  1.0  -0.0356
  C  C40  1  0.117900  0.348600  0.748800  1.0  -0.1733
  C  C41  1  0.085900  0.403100  0.785600  1.0  -0.0016
  C  C42  1  0.157700  0.468200  0.780100  1.0  -0.0986
  C  C43  1  0.332100  0.550000  0.731700  1.0  0.6902
  C  C44  1  0.416000  0.428400  0.667100  1.0  0.6711
  C  C45  1  0.051500  0.277300  0.758800  1.0  0.7015
  C  C46  1  0.970100  0.394100  0.827800  1.0  0.3252
  C  C47  1  0.126400  0.512900  0.013900  1.0  -0.0672
  C  C48  1  0.077600  0.552200  0.966000  1.0  -0.1538
  C  C49  1  0.049000  0.460700  0.047000  1.0  -0.0108
  C  C50  1  0.261700  0.524900  0.032000  1.0  0.633
  C  C51  1  0.159800  0.605800  0.925900  1.0  0.592
  C  C52  1  0.050600  0.673500  0.705700  1.0  -0.0658
  C  C53  1  0.020800  0.728200  0.743000  1.0  -0.126
  C  C54  1  0.918400  0.717000  0.785700  1.0  0.0157
  C  C55  1  0.842900  0.653800  0.789700  1.0  -0.0713
  C  C56  1  0.872700  0.599200  0.751600  1.0  -0.1003
  C  C57  1  0.974800  0.609100  0.709900  1.0  -0.055
  C  C58  1  0.090400  0.799300  0.734800  1.0  0.6591
  C  C59  1  0.723200  0.646300  0.828400  1.0  0.6543
  C  C60  1  0.804300  0.527200  0.758400  1.0  0.7211
  C  C61  1  0.168200  0.676900  0.664800  1.0  0.5037
  C  C62  1  0.238200  0.021500  0.239000  1.0  -0.0717
  C  C63  1  0.206200  0.076400  0.202800  1.0  -0.0851
  C  C64  1  0.280400  0.140700  0.206500  1.0  -0.0361
  C  C65  1  0.382100  0.151400  0.248800  1.0  -0.1721
  C  C66  1  0.414100  0.096900  0.285600  1.0  -0.0016
  C  C67  1  0.342300  0.031800  0.280100  1.0  -0.0955
  C  C68  1  0.167900  0.950000  0.231700  1.0  0.6918
  C  C69  1  0.084000  0.071600  0.167100  1.0  0.6718
  C  C70  1  0.448500  0.222700  0.258800  1.0  0.6982
  C  C71  1  0.529900  0.105900  0.327800  1.0  0.329
  C  C72  1  0.373600  0.987100  0.513900  1.0  -0.067
  C  C73  1  0.422400  0.947800  0.466000  1.0  -0.1536
  C  C74  1  0.451000  0.039300  0.547000  1.0  -0.0108
  C  C75  1  0.238300  0.975100  0.532000  1.0  0.6331
  C  C76  1  0.340200  0.894200  0.425900  1.0  0.5925
  C  C77  1  0.449400  0.826500  0.205700  1.0  -0.0657
  C  C78  1  0.479200  0.771800  0.243000  1.0  -0.1253
  C  C79  1  0.581600  0.783000  0.285700  1.0  0.0169
  C  C80  1  0.657100  0.846200  0.289700  1.0  -0.0715
  C  C81  1  0.627300  0.900800  0.251600  1.0  -0.0998
  C  C82  1  0.525200  0.890900  0.209900  1.0  -0.0557
  C  C83  1  0.409600  0.700700  0.234800  1.0  0.66
  C  C84  1  0.776800  0.853700  0.328400  1.0  0.6549
  C  C85  1  0.695700  0.972800  0.258400  1.0  0.7197
  C  C86  1  0.331800  0.823100  0.164800  1.0  0.5108
  C  C87  1  0.738200  0.521500  0.261000  1.0  -0.0712
  C  C88  1  0.706200  0.576400  0.297200  1.0  -0.0836
  C  C89  1  0.780400  0.640700  0.293500  1.0  -0.0354
  C  C90  1  0.882100  0.651400  0.251200  1.0  -0.1721
  C  C91  1  0.914100  0.596900  0.214400  1.0  -0.0014
  C  C92  1  0.842300  0.531800  0.219900  1.0  -0.0939
  C  C93  1  0.667900  0.450000  0.268300  1.0  0.6911
  C  C94  1  0.584000  0.571600  0.332900  1.0  0.6705
  C  C95  1  0.948500  0.722700  0.241200  1.0  0.698
  C  C96  1  0.029900  0.605900  0.172200  1.0  0.3338
  C  C97  1  0.873600  0.487100  0.986100  1.0  -0.0669
  C  C98  1  0.922400  0.447800  0.034000  1.0  -0.1536
  C  C99  1  0.951000  0.539300  0.953000  1.0  -0.0113
  C  C100  1  0.738300  0.475100  0.968000  1.0  0.633
  C  C101  1  0.840200  0.394200  0.074100  1.0  0.5922
  C  C102  1  0.949400  0.326500  0.294300  1.0  -0.0639
  C  C103  1  0.979200  0.271800  0.257000  1.0  -0.1252
  C  C104  1  0.081600  0.283000  0.214300  1.0  0.0175
  C  C105  1  0.157100  0.346200  0.210300  1.0  -0.0713
  C  C106  1  0.127300  0.400800  0.248400  1.0  -0.099
  C  C107  1  0.025200  0.390900  0.290100  1.0  -0.0557
  C  C108  1  0.909600  0.200700  0.265200  1.0  0.6606
  C  C109  1  0.276800  0.353700  0.171600  1.0  0.6545
  C  C110  1  0.195700  0.472800  0.241600  1.0  0.719
  C  C111  1  0.831800  0.323100  0.335200  1.0  0.4868
  C  C112  1  0.761800  0.978500  0.761000  1.0  -0.0719
  C  C113  1  0.793800  0.923600  0.797200  1.0  -0.0835
  C  C114  1  0.719600  0.859300  0.793500  1.0  -0.0353
  C  C115  1  0.617900  0.848600  0.751200  1.0  -0.1732
  C  C116  1  0.585900  0.903100  0.714400  1.0  -0.0015
  C  C117  1  0.657700  0.968200  0.719900  1.0  -0.0972
  C  C118  1  0.832100  0.050000  0.768300  1.0  0.6894
  C  C119  1  0.916000  0.928400  0.832900  1.0  0.672
  C  C120  1  0.551500  0.777300  0.741200  1.0  0.7013
  C  C121  1  0.470100  0.894100  0.672200  1.0  0.3288
  C  C122  1  0.626400  0.012900  0.486100  1.0  -0.0672
  C  C123  1  0.577600  0.052200  0.534000  1.0  -0.1541
  C  C124  1  0.549000  0.960700  0.453000  1.0  -0.0116
  C  C125  1  0.761700  0.024900  0.468000  1.0  0.633
  C  C126  1  0.659800  0.105800  0.574100  1.0  0.5904
  C  C127  1  0.550600  0.173500  0.794300  1.0  -0.0651
  C  C128  1  0.520800  0.228200  0.757000  1.0  -0.1261
  C  C129  1  0.418400  0.217000  0.714300  1.0  0.0159
  C  C130  1  0.342900  0.153800  0.710300  1.0  -0.0714
  C  C131  1  0.372700  0.099200  0.748400  1.0  -0.0991
  C  C132  1  0.474800  0.109100  0.790100  1.0  -0.055
  C  C133  1  0.590400  0.299300  0.765200  1.0  0.6594
  C  C134  1  0.223200  0.146300  0.671600  1.0  0.6546
  C  C135  1  0.304300  0.027200  0.741600  1.0  0.7206
  C  C136  1  0.668200  0.176900  0.835200  1.0  0.4836
  O  O137  1  0.366400  0.584110  0.782720  1.0  -0.6613
  O  O138  1  0.346500  0.572710  0.673110  1.0  -0.5353
  O  O139  1  0.508800  0.466420  0.692070  1.0  -0.6853
  O  O140  1  0.426300  0.392100  0.617080  1.0  -0.7103
  O  O141  1  0.044500  0.235680  0.711910  1.0  -0.7308
  O  O142  1  0.009100  0.262730  0.815990  1.0  -0.5464
  O  O143  1  0.869000  0.385590  0.793490  1.0  -0.6307
  O  O144  1  0.976100  0.397900  0.888180  1.0  -0.0828
  O  O145  1  0.306500  0.575870  0.066370  1.0  -0.6145
  O  O146  1  0.323900  0.479750  0.012140  1.0  -0.3269
  O  O147  1  0.275400  0.603540  0.925540  1.0  -0.6921
  O  O148  1  0.108800  0.648400  0.894200  1.0  -0.3478
  O  O149  1  0.268500  0.696790  0.696620  1.0  -0.444
  O  O150  1  0.161200  0.656400  0.607000  1.0  -0.2556
  O  O151  1  0.132400  0.815450  0.677250  1.0  -0.5569
  O  O152  1  0.098800  0.839720  0.783100  1.0  -0.7154
  O  O153  1  0.714900  0.678800  0.881070  1.0  -0.6376
  O  O154  1  0.629200  0.609290  0.802600  1.0  -0.646
  O  O155  1  0.775800  0.492430  0.706950  1.0  -0.7161
  O  O156  1  0.787100  0.505900  0.817140  1.0  -0.6217
  O  O157  1  0.133600  0.915890  0.282720  1.0  -0.6611
  O  O158  1  0.153500  0.927290  0.173110  1.0  -0.5398
  O  O159  1  0.991200  0.033580  0.192070  1.0  -0.684
  O  O160  1  0.073700  0.107900  0.117080  1.0  -0.7111
  O  O161  1  0.455500  0.264320  0.211910  1.0  -0.7298
  O  O162  1  0.490900  0.237270  0.315990  1.0  -0.5482
  O  O163  1  0.631000  0.114410  0.293490  1.0  -0.6295
  O  O164  1  0.523900  0.102100  0.388180  1.0  -0.1229
  O  O165  1  0.193500  0.924130  0.566370  1.0  -0.6122
  O  O166  1  0.176100  0.020250  0.512140  1.0  -0.3291
  O  O167  1  0.224600  0.896460  0.425540  1.0  -0.6959
  O  O168  1  0.391200  0.851600  0.394200  1.0  -0.3474
  O  O169  1  0.231500  0.803210  0.196620  1.0  -0.4446
  O  O170  1  0.338800  0.843600  0.107000  1.0  -0.2563
  O  O171  1  0.367600  0.684550  0.177250  1.0  -0.5563
  O  O172  1  0.401200  0.660280  0.283100  1.0  -0.7153
  O  O173  1  0.785100  0.821200  0.381070  1.0  -0.6356
  O  O174  1  0.870800  0.890710  0.302600  1.0  -0.6467
  O  O175  1  0.724200  0.007570  0.206950  1.0  -0.7165
  O  O176  1  0.712900  0.994100  0.317140  1.0  -0.6221
  O  O177  1  0.633600  0.415890  0.217280  1.0  -0.661
  O  O178  1  0.653500  0.427290  0.326890  1.0  -0.5422
  O  O179  1  0.491200  0.533580  0.307930  1.0  -0.687
  O  O180  1  0.573700  0.607900  0.382920  1.0  -0.7108
  O  O181  1  0.955500  0.764320  0.288090  1.0  -0.7301
  O  O182  1  0.990900  0.737270  0.184010  1.0  -0.5419
  O  O183  1  0.131000  0.614410  0.206510  1.0  -0.6277
  O  O184  1  0.023900  0.602100  0.111820  1.0  -0.0631
  O  O185  1  0.693500  0.424130  0.933630  1.0  -0.6119
  O  O186  1  0.676100  0.520250  0.987860  1.0  -0.3259
  O  O187  1  0.724600  0.396460  0.074460  1.0  -0.6948
  O  O188  1  0.891200  0.351600  0.105800  1.0  -0.3472
  O  O189  1  0.731500  0.303210  0.303380  1.0  -0.4434
  O  O190  1  0.838800  0.343600  0.393000  1.0  -0.257
  O  O191  1  0.867600  0.184550  0.322750  1.0  -0.5573
  O  O192  1  0.901200  0.160280  0.216900  1.0  -0.7158
  O  O193  1  0.285100  0.321200  0.118930  1.0  -0.6347
  O  O194  1  0.370800  0.390710  0.197400  1.0  -0.6466
  O  O195  1  0.224200  0.507570  0.293050  1.0  -0.7161
  O  O196  1  0.212900  0.494100  0.182860  1.0  -0.6215
  O  O197  1  0.866400  0.084110  0.717280  1.0  -0.6605
  O  O198  1  0.846500  0.072710  0.826890  1.0  -0.5374
  O  O199  1  0.008800  0.966420  0.807930  1.0  -0.6886
  O  O200  1  0.926300  0.892100  0.882920  1.0  -0.7097
  O  O201  1  0.544500  0.735680  0.788090  1.0  -0.7313
  O  O202  1  0.509100  0.762730  0.684010  1.0  -0.5411
  O  O203  1  0.369000  0.885590  0.706510  1.0  -0.63
  O  O204  1  0.476100  0.897900  0.611820  1.0  -0.0334
  O  O205  1  0.806500  0.075870  0.433630  1.0  -0.6151
  O  O206  1  0.823900  0.979750  0.487860  1.0  -0.3316
  O  O207  1  0.775400  0.103540  0.574460  1.0  -0.6921
  O  O208  1  0.608800  0.148400  0.605800  1.0  -0.3557
  O  O209  1  0.768500  0.196790  0.803380  1.0  -0.4436
  O  O210  1  0.661200  0.156400  0.893000  1.0  -0.2576
  O  O211  1  0.632400  0.315450  0.822750  1.0  -0.5582
  O  O212  1  0.598800  0.339720  0.716900  1.0  -0.7154
  O  O213  1  0.214900  0.178800  0.618930  1.0  -0.6373
  O  O214  1  0.129200  0.109290  0.697400  1.0  -0.6458
  O  O215  1  0.275800  0.992430  0.793050  1.0  -0.7162
  O  O216  1  0.287100  0.005900  0.682860  1.0  -0.6215
