# generated using pymatgen
data_Pr2Cu2H5(C5O4)5
_symmetry_space_group_name_H-M   'P 1'
_cell_length_a   10.92000000
_cell_length_b   19.79200000
_cell_length_c   20.36900000
_cell_angle_alpha   90.00000000
_cell_angle_beta   90.00000000
_cell_angle_gamma   99.59000000
_symmetry_Int_Tables_number   1
_chemical_formula_structural   Pr2Cu2H5(C5O4)5
_chemical_formula_sum   'Pr8 Cu8 H20 C100 O80'
_cell_volume   4340.80235305
_cell_formula_units_Z   4
loop_
 _symmetry_equiv_pos_site_id
 _symmetry_equiv_pos_as_xyz
  1  'x, y, z'
loop_
 _atom_site_type_symbol
 _atom_site_label
 _atom_site_symmetry_multiplicity
 _atom_site_fract_x
 _atom_site_fract_y
 _atom_site_fract_z
 _atom_site_occupancy
 _atom_site_charge
  Pr  Pr1  1  0.462760  0.654840  0.872470  1.0  1.8454
  Pr  Pr2  1  0.660620  0.418760  0.626350  1.0  1.6245
  Pr  Pr3  1  0.037240  0.845160  0.372470  1.0  1.8455
  Pr  Pr4  1  0.839380  0.081240  0.126350  1.0  1.6293
  Pr  Pr5  1  0.537240  0.345160  0.127530  1.0  1.8516
  Pr  Pr6  1  0.339380  0.581240  0.373650  1.0  1.6206
  Pr  Pr7  1  0.962760  0.154840  0.627530  1.0  1.8515
  Pr  Pr8  1  0.160620  0.918760  0.873650  1.0  1.6254
  Cu  Cu9  1  0.421450  0.669750  0.673380  1.0  0.9142
  Cu  Cu10  1  0.704930  0.410890  0.826900  1.0  1.2297
  Cu  Cu11  1  0.078550  0.830250  0.173380  1.0  0.9117
  Cu  Cu12  1  0.795070  0.089110  0.326900  1.0  1.2286
  Cu  Cu13  1  0.578550  0.330250  0.326620  1.0  0.9113
  Cu  Cu14  1  0.295070  0.589110  0.173100  1.0  1.2273
  Cu  Cu15  1  0.921450  0.169750  0.826620  1.0  0.9151
  Cu  Cu16  1  0.204930  0.910890  0.673100  1.0  1.2282
  H  H17  1  0.232400  0.325400  0.681500  1.0  0.1134
  H  H18  1  0.131200  0.505900  0.803600  1.0  0.1127
  H  H19  1  0.082800  0.435300  0.077700  1.0  0.1185
  H  H20  1  0.893600  0.753900  0.811400  1.0  0.116
  H  H21  1  0.988700  0.573300  0.687700  1.0  0.1281
  H  H22  1  0.267600  0.174600  0.181500  1.0  0.1138
  H  H23  1  0.368800  0.994100  0.303600  1.0  0.1128
  H  H24  1  0.417200  0.064700  0.577700  1.0  0.1183
  H  H25  1  0.606400  0.746100  0.311400  1.0  0.1165
  H  H26  1  0.511300  0.926700  0.187700  1.0  0.1274
  H  H27  1  0.767600  0.674600  0.318500  1.0  0.114
  H  H28  1  0.868800  0.494100  0.196400  1.0  0.1128
  H  H29  1  0.917200  0.564700  0.922300  1.0  0.1186
  H  H30  1  0.106400  0.246100  0.188600  1.0  0.1166
  H  H31  1  0.011300  0.426700  0.312300  1.0  0.129
  H  H32  1  0.732400  0.825400  0.818500  1.0  0.1141
  H  H33  1  0.631200  0.005900  0.696400  1.0  0.1132
  H  H34  1  0.582800  0.935300  0.422300  1.0  0.1183
  H  H35  1  0.393600  0.253900  0.688600  1.0  0.1165
  H  H36  1  0.488700  0.073300  0.812300  1.0  0.1289
  C  C37  1  0.255900  0.480020  0.739330  1.0  -0.0584
  C  C38  1  0.287900  0.425050  0.703350  1.0  -0.0739
  C  C39  1  0.213900  0.361190  0.707120  1.0  -0.0277
  C  C40  1  0.111800  0.350260  0.749140  1.0  -0.1475
  C  C41  1  0.079800  0.404630  0.785320  1.0  -0.0195
  C  C42  1  0.152400  0.469460  0.779800  1.0  -0.0574
  C  C43  1  0.326600  0.551210  0.732130  1.0  0.7206
  C  C44  1  0.410400  0.430490  0.668700  1.0  0.6778
  C  C45  1  0.044500  0.278850  0.758600  1.0  0.7222
  C  C46  1  0.965600  0.395070  0.828310  1.0  0.5014
  C  C47  1  0.127000  0.512620  0.012630  1.0  -0.0643
  C  C48  1  0.077300  0.551100  0.965760  1.0  -0.1483
  C  C49  1  0.049400  0.461420  0.046530  1.0  -0.0525
  C  C50  1  0.262200  0.523390  0.030170  1.0  0.6763
  C  C51  1  0.157600  0.604200  0.925300  1.0  0.6595
  C  C52  1  0.044200  0.673870  0.707370  1.0  -0.0494
  C  C53  1  0.014500  0.728860  0.743850  1.0  -0.1027
  C  C54  1  0.912100  0.717900  0.786000  1.0  -0.009
  C  C55  1  0.837400  0.654090  0.790440  1.0  -0.0732
  C  C56  1  0.867100  0.599550  0.753040  1.0  -0.0843
  C  C57  1  0.969400  0.609740  0.712250  1.0  -0.0765
  C  C58  1  0.083500  0.799960  0.734190  1.0  0.732
  C  C59  1  0.716500  0.646760  0.828070  1.0  0.6849
  C  C60  1  0.798200  0.527560  0.760040  1.0  0.7273
  C  C61  1  0.159900  0.677710  0.666530  1.0  0.6447
  C  C62  1  0.244100  0.019980  0.239330  1.0  -0.0583
  C  C63  1  0.212100  0.074950  0.203350  1.0  -0.0744
  C  C64  1  0.286100  0.138810  0.207120  1.0  -0.0281
  C  C65  1  0.388200  0.149740  0.249140  1.0  -0.1475
  C  C66  1  0.420200  0.095370  0.285320  1.0  -0.019
  C  C67  1  0.347600  0.030540  0.279800  1.0  -0.0556
  C  C68  1  0.173400  0.948790  0.232130  1.0  0.722
  C  C69  1  0.089600  0.069510  0.168700  1.0  0.6784
  C  C70  1  0.455500  0.221150  0.258600  1.0  0.7203
  C  C71  1  0.534400  0.104930  0.328310  1.0  0.4981
  C  C72  1  0.373000  0.987380  0.512630  1.0  -0.0639
  C  C73  1  0.422700  0.948900  0.465760  1.0  -0.1483
  C  C74  1  0.450600  0.038580  0.546530  1.0  -0.0537
  C  C75  1  0.237800  0.976610  0.530170  1.0  0.6762
  C  C76  1  0.342400  0.895800  0.425300  1.0  0.659
  C  C77  1  0.455800  0.826130  0.207370  1.0  -0.0495
  C  C78  1  0.485500  0.771140  0.243850  1.0  -0.102
  C  C79  1  0.587900  0.782100  0.286000  1.0  -0.0082
  C  C80  1  0.662600  0.845910  0.290440  1.0  -0.0737
  C  C81  1  0.632900  0.900450  0.253040  1.0  -0.0835
  C  C82  1  0.530600  0.890260  0.212250  1.0  -0.0778
  C  C83  1  0.416500  0.700040  0.234190  1.0  0.7328
  C  C84  1  0.783500  0.853240  0.328070  1.0  0.6845
  C  C85  1  0.701800  0.972440  0.260040  1.0  0.7253
  C  C86  1  0.340100  0.822290  0.166530  1.0  0.6472
  C  C87  1  0.744100  0.519980  0.260670  1.0  -0.0582
  C  C88  1  0.712100  0.574950  0.296650  1.0  -0.0723
  C  C89  1  0.786100  0.638810  0.292880  1.0  -0.0277
  C  C90  1  0.888200  0.649740  0.250860  1.0  -0.1476
  C  C91  1  0.920200  0.595370  0.214680  1.0  -0.0191
  C  C92  1  0.847600  0.530540  0.220200  1.0  -0.0545
  C  C93  1  0.673400  0.448790  0.267870  1.0  0.7223
  C  C94  1  0.589600  0.569510  0.331300  1.0  0.6776
  C  C95  1  0.955500  0.721150  0.241400  1.0  0.7205
  C  C96  1  0.034400  0.604930  0.171690  1.0  0.4996
  C  C97  1  0.873000  0.487380  0.987370  1.0  -0.0638
  C  C98  1  0.922700  0.448900  0.034240  1.0  -0.1482
  C  C99  1  0.950600  0.538580  0.953470  1.0  -0.0534
  C  C100  1  0.737800  0.476610  0.969830  1.0  0.6759
  C  C101  1  0.842400  0.395800  0.074700  1.0  0.6586
  C  C102  1  0.955800  0.326130  0.292630  1.0  -0.0471
  C  C103  1  0.985500  0.271140  0.256150  1.0  -0.1021
  C  C104  1  0.087900  0.282100  0.214000  1.0  -0.0079
  C  C105  1  0.162600  0.345910  0.209560  1.0  -0.0736
  C  C106  1  0.132900  0.400450  0.246960  1.0  -0.0828
  C  C107  1  0.030600  0.390260  0.287750  1.0  -0.0777
  C  C108  1  0.916500  0.200040  0.265810  1.0  0.733
  C  C109  1  0.283500  0.353240  0.171930  1.0  0.6839
  C  C110  1  0.201800  0.472440  0.239960  1.0  0.725
  C  C111  1  0.840100  0.322290  0.333470  1.0  0.6376
  C  C112  1  0.755900  0.980020  0.760670  1.0  -0.0583
  C  C113  1  0.787900  0.925050  0.796650  1.0  -0.0722
  C  C114  1  0.713900  0.861190  0.792880  1.0  -0.0275
  C  C115  1  0.611800  0.850260  0.750860  1.0  -0.1476
  C  C116  1  0.579800  0.904630  0.714680  1.0  -0.0196
  C  C117  1  0.652400  0.969460  0.720200  1.0  -0.0569
  C  C118  1  0.826600  0.051210  0.767870  1.0  0.721
  C  C119  1  0.910400  0.930490  0.831300  1.0  0.6787
  C  C120  1  0.544500  0.778850  0.741400  1.0  0.7221
  C  C121  1  0.465600  0.895070  0.671690  1.0  0.5016
  C  C122  1  0.627000  0.012620  0.487370  1.0  -0.0643
  C  C123  1  0.577300  0.051100  0.534240  1.0  -0.1488
  C  C124  1  0.549400  0.961420  0.453470  1.0  -0.0523
  C  C125  1  0.762200  0.023390  0.469830  1.0  0.6764
  C  C126  1  0.657600  0.104200  0.574700  1.0  0.6582
  C  C127  1  0.544200  0.173870  0.792630  1.0  -0.0483
  C  C128  1  0.514500  0.228860  0.756150  1.0  -0.103
  C  C129  1  0.412100  0.217900  0.714000  1.0  -0.0093
  C  C130  1  0.337400  0.154090  0.709560  1.0  -0.0735
  C  C131  1  0.367100  0.099550  0.746960  1.0  -0.0826
  C  C132  1  0.469400  0.109740  0.787750  1.0  -0.0772
  C  C133  1  0.583500  0.299960  0.765810  1.0  0.7321
  C  C134  1  0.216500  0.146760  0.671930  1.0  0.6846
  C  C135  1  0.298200  0.027560  0.739960  1.0  0.7268
  C  C136  1  0.659900  0.177710  0.833470  1.0  0.6377
  O  O137  1  0.360700  0.585600  0.782100  1.0  -0.717
  O  O138  1  0.343000  0.573590  0.674170  1.0  -0.5575
  O  O139  1  0.503200  0.468380  0.694140  1.0  -0.6541
  O  O140  1  0.421100  0.394810  0.618690  1.0  -0.6644
  O  O141  1  0.038000  0.237770  0.711610  1.0  -0.7337
  O  O142  1  0.001900  0.263850  0.814710  1.0  -0.5574
  O  O143  1  0.863800  0.386690  0.795590  1.0  -0.6148
  O  O144  1  0.975500  0.398220  0.887800  1.0  -0.3768
  O  O145  1  0.308300  0.574800  0.064290  1.0  -0.6532
  O  O146  1  0.323600  0.478310  0.010610  1.0  -0.4212
  O  O147  1  0.273800  0.603600  0.924950  1.0  -0.7257
  O  O148  1  0.107000  0.645700  0.892700  1.0  -0.4631
  O  O149  1  0.260800  0.696320  0.697370  1.0  -0.5359
  O  O150  1  0.151400  0.659070  0.608620  1.0  -0.3964
  O  O151  1  0.125400  0.814960  0.677490  1.0  -0.5625
  O  O152  1  0.092400  0.841360  0.781150  1.0  -0.7293
  O  O153  1  0.707800  0.677600  0.880290  1.0  -0.5607
  O  O154  1  0.622800  0.611050  0.800500  1.0  -0.6656
  O  O155  1  0.770700  0.492720  0.709090  1.0  -0.7241
  O  O156  1  0.778200  0.506500  0.817690  1.0  -0.5915
  O  O157  1  0.139300  0.914400  0.282100  1.0  -0.715
  O  O158  1  0.157000  0.926410  0.174170  1.0  -0.5605
  O  O159  1  0.996800  0.031620  0.194140  1.0  -0.6529
  O  O160  1  0.078900  0.105190  0.118690  1.0  -0.6677
  O  O161  1  0.462000  0.262230  0.211610  1.0  -0.7328
  O  O162  1  0.498100  0.236150  0.314710  1.0  -0.5588
  O  O163  1  0.636200  0.113310  0.295590  1.0  -0.614
  O  O164  1  0.524500  0.101780  0.387800  1.0  -0.3906
  O  O165  1  0.191700  0.925200  0.564290  1.0  -0.6528
  O  O166  1  0.176400  0.021690  0.510610  1.0  -0.4216
  O  O167  1  0.226200  0.896400  0.424950  1.0  -0.7282
  O  O168  1  0.393000  0.854300  0.392700  1.0  -0.4644
  O  O169  1  0.239200  0.803680  0.197370  1.0  -0.5357
  O  O170  1  0.348600  0.840930  0.108620  1.0  -0.3975
  O  O171  1  0.374600  0.685040  0.177490  1.0  -0.5619
  O  O172  1  0.407600  0.658640  0.281150  1.0  -0.729
  O  O173  1  0.792200  0.822400  0.380290  1.0  -0.5579
  O  O174  1  0.877200  0.888950  0.300500  1.0  -0.6681
  O  O175  1  0.729300  0.007280  0.209090  1.0  -0.7248
  O  O176  1  0.721800  0.993500  0.317690  1.0  -0.5928
  O  O177  1  0.639300  0.414400  0.217900  1.0  -0.7154
  O  O178  1  0.657000  0.426410  0.325830  1.0  -0.5636
  O  O179  1  0.496800  0.531620  0.305860  1.0  -0.6534
  O  O180  1  0.578900  0.605190  0.381310  1.0  -0.6696
  O  O181  1  0.962000  0.762230  0.288390  1.0  -0.7343
  O  O182  1  0.998100  0.736150  0.185290  1.0  -0.5548
  O  O183  1  0.136200  0.613310  0.204410  1.0  -0.6136
  O  O184  1  0.024500  0.601780  0.112200  1.0  -0.3602
  O  O185  1  0.691700  0.425200  0.935710  1.0  -0.6517
  O  O186  1  0.676400  0.521690  0.989390  1.0  -0.4194
  O  O187  1  0.726200  0.396400  0.075050  1.0  -0.728
  O  O188  1  0.893000  0.354300  0.107300  1.0  -0.4659
  O  O189  1  0.739200  0.303680  0.302630  1.0  -0.5339
  O  O190  1  0.848600  0.340930  0.391380  1.0  -0.3993
  O  O191  1  0.874600  0.185040  0.322510  1.0  -0.5623
  O  O192  1  0.907600  0.158640  0.218850  1.0  -0.7296
  O  O193  1  0.292200  0.322400  0.119710  1.0  -0.5563
  O  O194  1  0.377200  0.388950  0.199500  1.0  -0.6676
  O  O195  1  0.229300  0.507280  0.290910  1.0  -0.7255
  O  O196  1  0.221800  0.493500  0.182310  1.0  -0.5916
  O  O197  1  0.860700  0.085600  0.717900  1.0  -0.7153
  O  O198  1  0.843000  0.073590  0.825830  1.0  -0.5593
  O  O199  1  0.003200  0.968380  0.805860  1.0  -0.6546
  O  O200  1  0.921100  0.894810  0.881310  1.0  -0.6676
  O  O201  1  0.538000  0.737770  0.788390  1.0  -0.7355
  O  O202  1  0.501900  0.763850  0.685290  1.0  -0.554
  O  O203  1  0.363800  0.886690  0.704410  1.0  -0.6144
  O  O204  1  0.475500  0.898220  0.612200  1.0  -0.3533
  O  O205  1  0.808300  0.074800  0.435710  1.0  -0.6522
  O  O206  1  0.823600  0.978310  0.489390  1.0  -0.4236
  O  O207  1  0.773800  0.103600  0.575050  1.0  -0.726
  O  O208  1  0.607000  0.145700  0.607300  1.0  -0.469
  O  O209  1  0.760800  0.196320  0.802630  1.0  -0.535
  O  O210  1  0.651400  0.159070  0.891380  1.0  -0.3987
  O  O211  1  0.625400  0.314960  0.822510  1.0  -0.5633
  O  O212  1  0.592400  0.341360  0.718850  1.0  -0.7291
  O  O213  1  0.207800  0.177600  0.619710  1.0  -0.5573
  O  O214  1  0.122800  0.111050  0.699500  1.0  -0.6653
  O  O215  1  0.270700  0.992720  0.790910  1.0  -0.7253
  O  O216  1  0.278200  0.006500  0.682310  1.0  -0.5909
