# generated using pymatgen
data_Pr2Cu2H5(C5O4)5
_symmetry_space_group_name_H-M   'P 1'
_cell_length_a   10.95300000
_cell_length_b   19.81100000
_cell_length_c   23.05600000
_cell_angle_alpha   90.00000000
_cell_angle_beta   90.00000000
_cell_angle_gamma   99.88000000
_symmetry_Int_Tables_number   1
_chemical_formula_structural   Pr2Cu2H5(C5O4)5
_chemical_formula_sum   'Pr8 Cu8 H20 C100 O80'
_cell_volume   4928.72185897
_cell_formula_units_Z   4
loop_
 _symmetry_equiv_pos_site_id
 _symmetry_equiv_pos_as_xyz
  1  'x, y, z'
loop_
 _atom_site_type_symbol
 _atom_site_label
 _atom_site_symmetry_multiplicity
 _atom_site_fract_x
 _atom_site_fract_y
 _atom_site_fract_z
 _atom_site_occupancy
 _atom_site_charge
  Pr  Pr1  1  0.960650  0.099810  0.646150  1.0  1.9534
  Pr  Pr2  1  0.148920  0.852300  0.854880  1.0  1.7711
  Pr  Pr3  1  0.539350  0.400190  0.146150  1.0  1.9525
  Pr  Pr4  1  0.351080  0.647700  0.354880  1.0  1.7638
  Pr  Pr5  1  0.039350  0.900190  0.353850  1.0  1.9488
  Pr  Pr6  1  0.851080  0.147700  0.145120  1.0  1.776
  Pr  Pr7  1  0.460650  0.599810  0.853850  1.0  1.9502
  Pr  Pr8  1  0.648920  0.352300  0.645120  1.0  1.7732
  Cu  Cu9  1  0.910060  0.100050  0.822580  1.0  1.0249
  Cu  Cu10  1  0.197390  0.847470  0.678300  1.0  1.1378
  Cu  Cu11  1  0.589940  0.399950  0.322580  1.0  1.0248
  Cu  Cu12  1  0.302610  0.652530  0.178300  1.0  1.1364
  Cu  Cu13  1  0.089940  0.899950  0.177420  1.0  1.0263
  Cu  Cu14  1  0.802610  0.152530  0.321700  1.0  1.1478
  Cu  Cu15  1  0.410060  0.600050  0.677420  1.0  1.0258
  Cu  Cu16  1  0.697390  0.347470  0.821700  1.0  1.1472
  H  H17  1  0.728000  0.756000  0.794200  1.0  0.1002
  H  H18  1  0.622500  0.941700  0.695600  1.0  0.1234
  H  H19  1  0.582100  0.959000  0.417200  1.0  0.1084
  H  H20  1  0.391100  0.191600  0.700500  1.0  0.1034
  H  H21  1  0.482800  0.007200  0.804800  1.0  0.121
  H  H22  1  0.772000  0.744000  0.294200  1.0  0.0995
  H  H23  1  0.877500  0.558300  0.195600  1.0  0.1234
  H  H24  1  0.917900  0.541000  0.917200  1.0  0.1085
  H  H25  1  0.108900  0.308400  0.200500  1.0  0.104
  H  H26  1  0.017200  0.492800  0.304800  1.0  0.1201
  H  H27  1  0.272000  0.244000  0.205800  1.0  0.0998
  H  H28  1  0.377500  0.058300  0.304400  1.0  0.1232
  H  H29  1  0.417900  0.041000  0.582800  1.0  0.1082
  H  H30  1  0.608900  0.808400  0.299500  1.0  0.1041
  H  H31  1  0.517200  0.992800  0.195200  1.0  0.119
  H  H32  1  0.228000  0.256000  0.705800  1.0  0.1004
  H  H33  1  0.122500  0.441700  0.804400  1.0  0.1233
  H  H34  1  0.082100  0.459000  0.082800  1.0  0.1082
  H  H35  1  0.891100  0.691600  0.799500  1.0  0.1031
  H  H36  1  0.982800  0.507200  0.695200  1.0  0.1195
  C  C37  1  0.748200  0.913500  0.750800  1.0  -0.0545
  C  C38  1  0.780800  0.856900  0.780200  1.0  -0.1029
  C  C39  1  0.707700  0.793100  0.773900  1.0  -0.0173
  C  C40  1  0.604400  0.783300  0.737700  1.0  -0.1378
  C  C41  1  0.572600  0.839700  0.708200  1.0  -0.0084
  C  C42  1  0.644200  0.904300  0.715000  1.0  -0.066
  C  C43  1  0.816900  0.985100  0.760200  1.0  0.7469
  C  C44  1  0.901100  0.862400  0.812200  1.0  0.683
  C  C45  1  0.535800  0.712200  0.728900  1.0  0.7568
  C  C46  1  0.455100  0.834200  0.673400  1.0  0.6706
  C  C47  1  0.626800  0.998500  0.496300  1.0  -0.0334
  C  C48  1  0.578000  0.023600  0.546500  1.0  -0.1213
  C  C49  1  0.549200  0.975400  0.450500  1.0  -0.0409
  C  C50  1  0.761100  0.991800  0.490200  1.0  0.5867
  C  C51  1  0.658400  0.052900  0.595800  1.0  0.7327
  C  C52  1  0.536800  0.108500  0.791100  1.0  -0.0177
  C  C53  1  0.508600  0.164100  0.759700  1.0  -0.115
  C  C54  1  0.408300  0.154700  0.722000  1.0  -0.0151
  C  C55  1  0.333200  0.091100  0.715900  1.0  -0.0674
  C  C56  1  0.361100  0.034700  0.747100  1.0  -0.0769
  C  C57  1  0.463500  0.044400  0.784300  1.0  -0.0777
  C  C58  1  0.650500  0.111800  0.828800  1.0  0.674
  C  C59  1  0.577900  0.235800  0.769200  1.0  0.7492
  C  C60  1  0.212700  0.085800  0.683000  1.0  0.6672
  C  C61  1  0.291700  0.963600  0.739100  1.0  0.7637
  C  C62  1  0.751800  0.586500  0.250800  1.0  -0.0538
  C  C63  1  0.719200  0.643100  0.280200  1.0  -0.1028
  C  C64  1  0.792300  0.706900  0.273900  1.0  -0.0181
  C  C65  1  0.895600  0.716700  0.237700  1.0  -0.1377
  C  C66  1  0.927400  0.660300  0.208200  1.0  -0.008
  C  C67  1  0.855800  0.595700  0.215000  1.0  -0.0643
  C  C68  1  0.683100  0.514900  0.260200  1.0  0.7479
  C  C69  1  0.598900  0.637600  0.312200  1.0  0.6814
  C  C70  1  0.964200  0.787800  0.228900  1.0  0.7548
  C  C71  1  0.044900  0.665800  0.173400  1.0  0.6699
  C  C72  1  0.873200  0.501500  0.996300  1.0  -0.0335
  C  C73  1  0.922000  0.476400  0.046500  1.0  -0.121
  C  C74  1  0.950800  0.524600  0.950500  1.0  -0.0433
  C  C75  1  0.738900  0.508200  0.990200  1.0  0.5878
  C  C76  1  0.841600  0.447100  0.095800  1.0  0.7327
  C  C77  1  0.963200  0.391500  0.291100  1.0  -0.0164
  C  C78  1  0.991400  0.335900  0.259700  1.0  -0.1156
  C  C79  1  0.091700  0.345300  0.222000  1.0  -0.0136
  C  C80  1  0.166800  0.408900  0.215900  1.0  -0.0683
  C  C81  1  0.138900  0.465300  0.247100  1.0  -0.0776
  C  C82  1  0.036500  0.455600  0.284300  1.0  -0.0791
  C  C83  1  0.849500  0.388200  0.328800  1.0  0.6739
  C  C84  1  0.922100  0.264200  0.269200  1.0  0.7516
  C  C85  1  0.287300  0.414200  0.183000  1.0  0.6676
  C  C86  1  0.208300  0.536400  0.239100  1.0  0.7628
  C  C87  1  0.251800  0.086500  0.249200  1.0  -0.0538
  C  C88  1  0.219200  0.143100  0.219800  1.0  -0.104
  C  C89  1  0.292300  0.206900  0.226100  1.0  -0.0188
  C  C90  1  0.395600  0.216700  0.262300  1.0  -0.1375
  C  C91  1  0.427400  0.160300  0.291800  1.0  -0.005
  C  C92  1  0.355800  0.095700  0.285000  1.0  -0.0651
  C  C93  1  0.183100  0.014900  0.239800  1.0  0.7472
  C  C94  1  0.098900  0.137600  0.187800  1.0  0.6824
  C  C95  1  0.464200  0.287800  0.271100  1.0  0.7553
  C  C96  1  0.544900  0.165800  0.326600  1.0  0.6698
  C  C97  1  0.373200  0.001500  0.503700  1.0  -0.0347
  C  C98  1  0.422000  0.976400  0.453500  1.0  -0.1214
  C  C99  1  0.450800  0.024600  0.549500  1.0  -0.043
  C  C100  1  0.238900  0.008200  0.509800  1.0  0.5875
  C  C101  1  0.341600  0.947100  0.404200  1.0  0.7317
  C  C102  1  0.463200  0.891500  0.208900  1.0  -0.0188
  C  C103  1  0.491400  0.835900  0.240300  1.0  -0.1162
  C  C104  1  0.591700  0.845300  0.278000  1.0  -0.0137
  C  C105  1  0.666800  0.908900  0.284100  1.0  -0.0686
  C  C106  1  0.638900  0.965300  0.252900  1.0  -0.0791
  C  C107  1  0.536500  0.955600  0.215700  1.0  -0.08
  C  C108  1  0.349500  0.888200  0.171200  1.0  0.6785
  C  C109  1  0.422100  0.764200  0.230800  1.0  0.7508
  C  C110  1  0.787300  0.914200  0.317000  1.0  0.6683
  C  C111  1  0.708300  0.036400  0.260900  1.0  0.7628
  C  C112  1  0.248200  0.413500  0.749200  1.0  -0.0545
  C  C113  1  0.280800  0.356900  0.719800  1.0  -0.1038
  C  C114  1  0.207700  0.293100  0.726100  1.0  -0.017
  C  C115  1  0.104400  0.283300  0.762300  1.0  -0.1377
  C  C116  1  0.072600  0.339700  0.791800  1.0  -0.0051
  C  C117  1  0.144200  0.404300  0.785000  1.0  -0.0662
  C  C118  1  0.316900  0.485100  0.739800  1.0  0.7457
  C  C119  1  0.401100  0.362400  0.687800  1.0  0.6821
  C  C120  1  0.035800  0.212200  0.771100  1.0  0.7572
  C  C121  1  0.955100  0.334200  0.826600  1.0  0.6689
  C  C122  1  0.126800  0.498500  0.003700  1.0  -0.0342
  C  C123  1  0.078000  0.523600  0.953500  1.0  -0.1214
  C  C124  1  0.049200  0.475400  0.049500  1.0  -0.0402
  C  C125  1  0.261100  0.491800  0.009800  1.0  0.5864
  C  C126  1  0.158400  0.552900  0.904200  1.0  0.7326
  C  C127  1  0.036800  0.608500  0.708900  1.0  -0.0192
  C  C128  1  0.008600  0.664100  0.740300  1.0  -0.1152
  C  C129  1  0.908300  0.654700  0.778000  1.0  -0.0148
  C  C130  1  0.833200  0.591100  0.784100  1.0  -0.0671
  C  C131  1  0.861100  0.534700  0.752900  1.0  -0.0786
  C  C132  1  0.963500  0.544400  0.715700  1.0  -0.0781
  C  C133  1  0.150500  0.611800  0.671200  1.0  0.6769
  C  C134  1  0.077900  0.735800  0.730800  1.0  0.7481
  C  C135  1  0.712700  0.585800  0.817000  1.0  0.6675
  C  C136  1  0.791700  0.463600  0.760900  1.0  0.7633
  O  O137  1  0.853800  0.020870  0.717380  1.0  -0.7304
  O  O138  1  0.827500  0.004960  0.812430  1.0  -0.6008
  O  O139  1  0.994500  0.901310  0.791280  1.0  -0.6489
  O  O140  1  0.909100  0.826100  0.855910  1.0  -0.6374
  O  O141  1  0.527100  0.671870  0.771010  1.0  -0.7698
  O  O142  1  0.494300  0.695920  0.678780  1.0  -0.5641
  O  O143  1  0.356100  0.819940  0.702420  1.0  -0.6537
  O  O144  1  0.462200  0.848200  0.621110  1.0  -0.5173
  O  O145  1  0.830000  0.037700  0.460510  1.0  -0.4616
  O  O146  1  0.798000  0.941100  0.511870  1.0  -0.4233
  O  O147  1  0.774100  0.059000  0.590200  1.0  -0.7816
  O  O148  1  0.605200  0.070400  0.639400  1.0  -0.5686
  O  O149  1  0.752700  0.131880  0.803970  1.0  -0.6115
  O  O150  1  0.638600  0.091600  0.879300  1.0  -0.5445
  O  O151  1  0.614400  0.251790  0.820040  1.0  -0.5612
  O  O152  1  0.590600  0.276670  0.727670  1.0  -0.7713
  O  O153  1  0.204900  0.121400  0.638680  1.0  -0.6617
  O  O154  1  0.118700  0.047570  0.704470  1.0  -0.6665
  O  O155  1  0.260200  0.928230  0.783460  1.0  -0.7773
  O  O156  1  0.275400  0.942800  0.687560  1.0  -0.5634
  O  O157  1  0.646200  0.479130  0.217380  1.0  -0.7315
  O  O158  1  0.672500  0.495040  0.312430  1.0  -0.6028
  O  O159  1  0.505500  0.598690  0.291280  1.0  -0.6478
  O  O160  1  0.590900  0.673900  0.355910  1.0  -0.64
  O  O161  1  0.972900  0.828130  0.271010  1.0  -0.7698
  O  O162  1  0.005700  0.804080  0.178780  1.0  -0.5654
  O  O163  1  0.143900  0.680060  0.202420  1.0  -0.6536
  O  O164  1  0.037800  0.651800  0.121110  1.0  -0.5176
  O  O165  1  0.670000  0.462300  0.960510  1.0  -0.4611
  O  O166  1  0.702000  0.558900  0.011870  1.0  -0.426
  O  O167  1  0.725900  0.441000  0.090200  1.0  -0.7808
  O  O168  1  0.894800  0.429600  0.139400  1.0  -0.5672
  O  O169  1  0.747300  0.368120  0.303970  1.0  -0.6102
  O  O170  1  0.861400  0.408400  0.379300  1.0  -0.5449
  O  O171  1  0.885600  0.248210  0.320040  1.0  -0.5605
  O  O172  1  0.909400  0.223330  0.227670  1.0  -0.7719
  O  O173  1  0.295100  0.378600  0.138680  1.0  -0.6626
  O  O174  1  0.381300  0.452430  0.204470  1.0  -0.668
  O  O175  1  0.239800  0.571770  0.283460  1.0  -0.7774
  O  O176  1  0.224600  0.557200  0.187560  1.0  -0.563
  O  O177  1  0.146200  0.979130  0.282620  1.0  -0.7314
  O  O178  1  0.172500  0.995040  0.187570  1.0  -0.6041
  O  O179  1  0.005500  0.098690  0.208720  1.0  -0.65
  O  O180  1  0.090900  0.173900  0.144090  1.0  -0.6389
  O  O181  1  0.472900  0.328130  0.228990  1.0  -0.7681
  O  O182  1  0.505700  0.304080  0.321220  1.0  -0.5637
  O  O183  1  0.643900  0.180060  0.297580  1.0  -0.6546
  O  O184  1  0.537800  0.151800  0.378890  1.0  -0.5173
  O  O185  1  0.170000  0.962300  0.539490  1.0  -0.4602
  O  O186  1  0.202000  0.058900  0.488130  1.0  -0.4262
  O  O187  1  0.225900  0.941000  0.409800  1.0  -0.7817
  O  O188  1  0.394800  0.929600  0.360600  1.0  -0.5681
  O  O189  1  0.247300  0.868120  0.196030  1.0  -0.6113
  O  O190  1  0.361400  0.908400  0.120700  1.0  -0.5476
  O  O191  1  0.385600  0.748210  0.179960  1.0  -0.5612
  O  O192  1  0.409400  0.723330  0.272330  1.0  -0.7697
  O  O193  1  0.795100  0.878600  0.361320  1.0  -0.6621
  O  O194  1  0.881300  0.952430  0.295530  1.0  -0.6678
  O  O195  1  0.739800  0.071770  0.216540  1.0  -0.7778
  O  O196  1  0.724600  0.057200  0.312440  1.0  -0.5633
  O  O197  1  0.353800  0.520870  0.782620  1.0  -0.7315
  O  O198  1  0.327500  0.504960  0.687570  1.0  -0.6029
  O  O199  1  0.494500  0.401310  0.708720  1.0  -0.6506
  O  O200  1  0.409100  0.326100  0.644090  1.0  -0.6383
  O  O201  1  0.027100  0.171870  0.728990  1.0  -0.7683
  O  O202  1  0.994300  0.195920  0.821220  1.0  -0.5633
  O  O203  1  0.856100  0.319940  0.797580  1.0  -0.6544
  O  O204  1  0.962200  0.348200  0.878890  1.0  -0.5176
  O  O205  1  0.330000  0.537700  0.039490  1.0  -0.4616
  O  O206  1  0.298000  0.441100  0.988130  1.0  -0.4227
  O  O207  1  0.274100  0.559000  0.909800  1.0  -0.7814
  O  O208  1  0.105200  0.570400  0.860600  1.0  -0.5683
  O  O209  1  0.252700  0.631880  0.696030  1.0  -0.6121
  O  O210  1  0.138600  0.591600  0.620700  1.0  -0.5477
  O  O211  1  0.114400  0.751790  0.679960  1.0  -0.5622
  O  O212  1  0.090600  0.776670  0.772330  1.0  -0.7704
  O  O213  1  0.704900  0.621400  0.861320  1.0  -0.6633
  O  O214  1  0.618700  0.547570  0.795530  1.0  -0.667
  O  O215  1  0.760200  0.428230  0.716540  1.0  -0.7779
  O  O216  1  0.775400  0.442800  0.812440  1.0  -0.563
