# generated using pymatgen
data_Li2Al(PO4)4
_symmetry_space_group_name_H-M   'P 1'
_cell_length_a   16.66070000
_cell_length_b   16.66070000
_cell_length_c   16.66070000
_cell_angle_alpha   90.00000000
_cell_angle_beta   90.00000000
_cell_angle_gamma   90.00000000
_symmetry_Int_Tables_number   1
_chemical_formula_structural   Li2Al(PO4)4
_chemical_formula_sum   'Li12 Al6 P24 O96'
_cell_volume   4624.65918725
_cell_formula_units_Z   6
loop_
 _symmetry_equiv_pos_site_id
 _symmetry_equiv_pos_as_xyz
  1  'x, y, z'
loop_
 _atom_site_type_symbol
 _atom_site_label
 _atom_site_symmetry_multiplicity
 _atom_site_fract_x
 _atom_site_fract_y
 _atom_site_fract_z
 _atom_site_occupancy
 _atom_site_charge
  Li  Li1  1  0.000000  0.500000  0.750000  1.0  1.0871
  Li  Li2  1  0.000000  0.500000  0.250000  1.0  1.0871
  Li  Li3  1  0.750000  0.000000  0.500000  1.0  1.0871
  Li  Li4  1  0.250000  0.000000  0.500000  1.0  1.0871
  Li  Li5  1  0.500000  0.750000  0.000000  1.0  1.0871
  Li  Li6  1  0.500000  0.250000  0.000000  1.0  1.0871
  Li  Li7  1  0.500000  0.000000  0.750000  1.0  1.0871
  Li  Li8  1  0.500000  0.000000  0.250000  1.0  1.0871
  Li  Li9  1  0.000000  0.750000  0.500000  1.0  1.0871
  Li  Li10  1  0.000000  0.250000  0.500000  1.0  1.0871
  Li  Li11  1  0.750000  0.500000  0.000000  1.0  1.0871
  Li  Li12  1  0.250000  0.500000  0.000000  1.0  1.0871
  Al  Al13  1  0.000000  0.500000  0.000000  1.0  2.0494
  Al  Al14  1  0.500000  0.000000  0.500000  1.0  2.0494
  Al  Al15  1  0.000000  0.000000  0.500000  1.0  2.0494
  Al  Al16  1  0.500000  0.500000  0.000000  1.0  2.0494
  Al  Al17  1  0.500000  0.000000  0.000000  1.0  2.0494
  Al  Al18  1  0.000000  0.500000  0.500000  1.0  2.0494
  P  P19  1  0.122320  0.565840  0.877680  1.0  1.8174
  P  P20  1  0.622320  0.065840  0.377680  1.0  1.8174
  P  P21  1  0.877680  0.434160  0.877680  1.0  1.8163
  P  P22  1  0.377680  0.934160  0.377680  1.0  1.8163
  P  P23  1  0.877680  0.565840  0.122320  1.0  1.8169
  P  P24  1  0.377680  0.065840  0.622320  1.0  1.8169
  P  P25  1  0.122320  0.434160  0.122320  1.0  1.817
  P  P26  1  0.622320  0.934160  0.622320  1.0  1.817
  P  P27  1  0.877680  0.122320  0.565840  1.0  1.8154
  P  P28  1  0.377680  0.622320  0.065840  1.0  1.8154
  P  P29  1  0.877680  0.877680  0.434160  1.0  1.8154
  P  P30  1  0.377680  0.377680  0.934160  1.0  1.8154
  P  P31  1  0.122320  0.877680  0.565840  1.0  1.8166
  P  P32  1  0.622320  0.377680  0.065840  1.0  1.8166
  P  P33  1  0.122320  0.122320  0.434160  1.0  1.8151
  P  P34  1  0.622320  0.622320  0.934160  1.0  1.8151
  P  P35  1  0.565840  0.877680  0.122320  1.0  1.8178
  P  P36  1  0.065840  0.377680  0.622320  1.0  1.8178
  P  P37  1  0.434160  0.877680  0.877680  1.0  1.8159
  P  P38  1  0.934160  0.377680  0.377680  1.0  1.8159
  P  P39  1  0.565840  0.122320  0.877680  1.0  1.8168
  P  P40  1  0.065840  0.622320  0.377680  1.0  1.8168
  P  P41  1  0.434160  0.122320  0.122320  1.0  1.8153
  P  P42  1  0.934160  0.622320  0.622320  1.0  1.8153
  O  O43  1  0.090700  0.518670  0.805220  1.0  -0.79
  O  O44  1  0.590700  0.018670  0.305220  1.0  -0.79
  O  O45  1  0.909300  0.481330  0.805220  1.0  -0.791
  O  O46  1  0.409300  0.981330  0.305220  1.0  -0.791
  O  O47  1  0.909300  0.518670  0.194780  1.0  -0.7926
  O  O48  1  0.409300  0.018670  0.694780  1.0  -0.7926
  O  O49  1  0.090700  0.481330  0.194780  1.0  -0.7921
  O  O50  1  0.590700  0.981330  0.694780  1.0  -0.7921
  O  O51  1  0.805220  0.090700  0.518670  1.0  -0.7923
  O  O52  1  0.305220  0.590700  0.018670  1.0  -0.7923
  O  O53  1  0.805220  0.909300  0.481330  1.0  -0.7914
  O  O54  1  0.305220  0.409300  0.981330  1.0  -0.7914
  O  O55  1  0.194780  0.909300  0.518670  1.0  -0.7894
  O  O56  1  0.694780  0.409300  0.018670  1.0  -0.7894
  O  O57  1  0.194780  0.090700  0.481330  1.0  -0.7907
  O  O58  1  0.694780  0.590700  0.981330  1.0  -0.7907
  O  O59  1  0.518670  0.805220  0.090700  1.0  -0.7899
  O  O60  1  0.018670  0.305220  0.590700  1.0  -0.7899
  O  O61  1  0.481330  0.805220  0.909300  1.0  -0.7885
  O  O62  1  0.981330  0.305220  0.409300  1.0  -0.7885
  O  O63  1  0.518670  0.194780  0.909300  1.0  -0.7897
  O  O64  1  0.018670  0.694780  0.409300  1.0  -0.7897
  O  O65  1  0.481330  0.194780  0.090700  1.0  -0.7896
  O  O66  1  0.981330  0.694780  0.590700  1.0  -0.7896
  O  O67  1  0.518670  0.090700  0.805220  1.0  -0.7907
  O  O68  1  0.018670  0.590700  0.305220  1.0  -0.7907
  O  O69  1  0.481330  0.909300  0.805220  1.0  -0.7893
  O  O70  1  0.981330  0.409300  0.305220  1.0  -0.7893
  O  O71  1  0.518670  0.909300  0.194780  1.0  -0.7922
  O  O72  1  0.018670  0.409300  0.694780  1.0  -0.7922
  O  O73  1  0.481330  0.090700  0.194780  1.0  -0.7921
  O  O74  1  0.981330  0.590700  0.694780  1.0  -0.7921
  O  O75  1  0.090700  0.805220  0.518670  1.0  -0.7899
  O  O76  1  0.590700  0.305220  0.018670  1.0  -0.7899
  O  O77  1  0.909300  0.805220  0.481330  1.0  -0.7917
  O  O78  1  0.409300  0.305220  0.981330  1.0  -0.7917
  O  O79  1  0.909300  0.194780  0.518670  1.0  -0.7922
  O  O80  1  0.409300  0.694780  0.018670  1.0  -0.7922
  O  O81  1  0.090700  0.194780  0.481330  1.0  -0.7919
  O  O82  1  0.590700  0.694780  0.981330  1.0  -0.7919
  O  O83  1  0.805220  0.518670  0.090700  1.0  -0.7903
  O  O84  1  0.305220  0.018670  0.590700  1.0  -0.7903
  O  O85  1  0.805220  0.481330  0.909300  1.0  -0.7892
  O  O86  1  0.305220  0.981330  0.409300  1.0  -0.7892
  O  O87  1  0.194780  0.518670  0.909300  1.0  -0.7878
  O  O88  1  0.694780  0.018670  0.409300  1.0  -0.7878
  O  O89  1  0.194780  0.481330  0.090700  1.0  -0.7884
  O  O90  1  0.694780  0.981330  0.590700  1.0  -0.7884
  O  O91  1  0.144160  0.651360  0.855840  1.0  -0.4656
  O  O92  1  0.056910  0.565950  0.943090  1.0  -0.831
  O  O93  1  0.644160  0.151360  0.355840  1.0  -0.4656
  O  O94  1  0.556910  0.065950  0.443090  1.0  -0.831
  O  O95  1  0.855840  0.348640  0.855840  1.0  -0.4648
  O  O96  1  0.943090  0.434050  0.943090  1.0  -0.8283
  O  O97  1  0.355840  0.848640  0.355840  1.0  -0.4648
  O  O98  1  0.443090  0.934050  0.443090  1.0  -0.8283
  O  O99  1  0.855840  0.651360  0.144160  1.0  -0.4669
  O  O100  1  0.943090  0.565950  0.056910  1.0  -0.8308
  O  O101  1  0.355840  0.151360  0.644160  1.0  -0.4669
  O  O102  1  0.443090  0.065950  0.556910  1.0  -0.8308
  O  O103  1  0.144160  0.348640  0.144160  1.0  -0.465
  O  O104  1  0.056910  0.434050  0.056910  1.0  -0.828
  O  O105  1  0.644160  0.848640  0.644160  1.0  -0.465
  O  O106  1  0.556910  0.934050  0.556910  1.0  -0.828
  O  O107  1  0.855840  0.144160  0.651360  1.0  -0.4685
  O  O108  1  0.943090  0.056910  0.565950  1.0  -0.8229
  O  O109  1  0.355840  0.644160  0.151360  1.0  -0.4685
  O  O110  1  0.443090  0.556910  0.065950  1.0  -0.8229
  O  O111  1  0.855840  0.855840  0.348640  1.0  -0.4684
  O  O112  1  0.943090  0.943090  0.434050  1.0  -0.8208
  O  O113  1  0.355840  0.355840  0.848640  1.0  -0.4684
  O  O114  1  0.443090  0.443090  0.934050  1.0  -0.8208
  O  O115  1  0.144160  0.855840  0.651360  1.0  -0.4671
  O  O116  1  0.056910  0.943090  0.565950  1.0  -0.8239
  O  O117  1  0.644160  0.355840  0.151360  1.0  -0.4671
  O  O118  1  0.556910  0.443090  0.065950  1.0  -0.8239
  O  O119  1  0.144160  0.144160  0.348640  1.0  -0.4675
  O  O120  1  0.056910  0.056910  0.434050  1.0  -0.8218
  O  O121  1  0.644160  0.644160  0.848640  1.0  -0.4675
  O  O122  1  0.556910  0.556910  0.934050  1.0  -0.8218
  O  O123  1  0.651360  0.855840  0.144160  1.0  -0.4639
  O  O124  1  0.565950  0.943090  0.056910  1.0  -0.8277
  O  O125  1  0.151360  0.355840  0.644160  1.0  -0.4639
  O  O126  1  0.065950  0.443090  0.556910  1.0  -0.8277
  O  O127  1  0.348640  0.855840  0.855840  1.0  -0.4558
  O  O128  1  0.434050  0.943090  0.943090  1.0  -0.8294
  O  O129  1  0.848640  0.355840  0.355840  1.0  -0.4558
  O  O130  1  0.934050  0.443090  0.443090  1.0  -0.8294
  O  O131  1  0.651360  0.144160  0.855840  1.0  -0.4617
  O  O132  1  0.565950  0.056910  0.943090  1.0  -0.8287
  O  O133  1  0.151360  0.644160  0.355840  1.0  -0.4617
  O  O134  1  0.065950  0.556910  0.443090  1.0  -0.8287
  O  O135  1  0.348640  0.144160  0.144160  1.0  -0.4561
  O  O136  1  0.434050  0.056910  0.056910  1.0  -0.8294
  O  O137  1  0.848640  0.644160  0.644160  1.0  -0.4561
  O  O138  1  0.934050  0.556910  0.556910  1.0  -0.8294
