# generated using pymatgen
data_Li2Ga(PO4)4
_symmetry_space_group_name_H-M   'P 1'
_cell_length_a   16.83950000
_cell_length_b   16.83950000
_cell_length_c   16.83950000
_cell_angle_alpha   90.00000000
_cell_angle_beta   90.00000000
_cell_angle_gamma   90.00000000
_symmetry_Int_Tables_number   1
_chemical_formula_structural   Li2Ga(PO4)4
_chemical_formula_sum   'Li12 Ga6 P24 O96'
_cell_volume   4775.15613823
_cell_formula_units_Z   6
loop_
 _symmetry_equiv_pos_site_id
 _symmetry_equiv_pos_as_xyz
  1  'x, y, z'
loop_
 _atom_site_type_symbol
 _atom_site_label
 _atom_site_symmetry_multiplicity
 _atom_site_fract_x
 _atom_site_fract_y
 _atom_site_fract_z
 _atom_site_occupancy
 _atom_site_charge
  Li  Li1  1  0.000000  0.500000  0.250000  1.0  1.0205
  Li  Li2  1  0.000000  0.500000  0.750000  1.0  1.0205
  Li  Li3  1  0.500000  0.000000  0.250000  1.0  1.0205
  Li  Li4  1  0.250000  0.000000  0.500000  1.0  1.0205
  Li  Li5  1  0.750000  0.000000  0.500000  1.0  1.0205
  Li  Li6  1  0.250000  0.500000  0.000000  1.0  1.0205
  Li  Li7  1  0.500000  0.250000  0.000000  1.0  1.0205
  Li  Li8  1  0.500000  0.750000  0.000000  1.0  1.0205
  Li  Li9  1  0.000000  0.250000  0.500000  1.0  1.0205
  Li  Li10  1  0.500000  0.000000  0.750000  1.0  1.0205
  Li  Li11  1  0.000000  0.750000  0.500000  1.0  1.0205
  Li  Li12  1  0.750000  0.500000  0.000000  1.0  1.0205
  Ga  Ga13  1  0.000000  0.500000  0.000000  1.0  1.7563
  Ga  Ga14  1  0.500000  0.000000  0.500000  1.0  1.7563
  Ga  Ga15  1  0.000000  0.000000  0.500000  1.0  1.7563
  Ga  Ga16  1  0.500000  0.500000  0.000000  1.0  1.7563
  Ga  Ga17  1  0.500000  0.000000  0.000000  1.0  1.7563
  Ga  Ga18  1  0.000000  0.500000  0.500000  1.0  1.7563
  P  P19  1  0.876690  0.435040  0.123310  1.0  1.781
  P  P20  1  0.376690  0.935040  0.623310  1.0  1.781
  P  P21  1  0.123310  0.564960  0.123310  1.0  1.782
  P  P22  1  0.623310  0.064960  0.623310  1.0  1.782
  P  P23  1  0.123310  0.435040  0.876690  1.0  1.7817
  P  P24  1  0.623310  0.935040  0.376690  1.0  1.7817
  P  P25  1  0.876690  0.564960  0.876690  1.0  1.7809
  P  P26  1  0.376690  0.064960  0.376690  1.0  1.7809
  P  P27  1  0.123310  0.876690  0.435040  1.0  1.7808
  P  P28  1  0.623310  0.376690  0.935040  1.0  1.7808
  P  P29  1  0.123310  0.123310  0.564960  1.0  1.7806
  P  P30  1  0.623310  0.623310  0.064960  1.0  1.7806
  P  P31  1  0.876690  0.123310  0.435040  1.0  1.7792
  P  P32  1  0.376690  0.623310  0.935040  1.0  1.7792
  P  P33  1  0.876690  0.876690  0.564960  1.0  1.7803
  P  P34  1  0.376690  0.376690  0.064960  1.0  1.7803
  P  P35  1  0.435040  0.123310  0.876690  1.0  1.7798
  P  P36  1  0.935040  0.623310  0.376690  1.0  1.7798
  P  P37  1  0.564960  0.123310  0.123310  1.0  1.781
  P  P38  1  0.064960  0.623310  0.623310  1.0  1.781
  P  P39  1  0.435040  0.876690  0.123310  1.0  1.7808
  P  P40  1  0.935040  0.376690  0.623310  1.0  1.7808
  P  P41  1  0.564960  0.876690  0.876690  1.0  1.7815
  P  P42  1  0.064960  0.376690  0.376690  1.0  1.7815
  O  O43  1  0.907490  0.483620  0.194000  1.0  -0.753
  O  O44  1  0.407490  0.983620  0.694000  1.0  -0.753
  O  O45  1  0.092510  0.516380  0.194000  1.0  -0.7521
  O  O46  1  0.592510  0.016380  0.694000  1.0  -0.7521
  O  O47  1  0.092510  0.483620  0.806000  1.0  -0.7489
  O  O48  1  0.592510  0.983620  0.306000  1.0  -0.7489
  O  O49  1  0.907490  0.516380  0.806000  1.0  -0.7508
  O  O50  1  0.407490  0.016380  0.306000  1.0  -0.7508
  O  O51  1  0.194000  0.907490  0.483620  1.0  -0.7497
  O  O52  1  0.694000  0.407490  0.983620  1.0  -0.7497
  O  O53  1  0.194000  0.092510  0.516380  1.0  -0.7498
  O  O54  1  0.694000  0.592510  0.016380  1.0  -0.7498
  O  O55  1  0.806000  0.092510  0.483620  1.0  -0.7514
  O  O56  1  0.306000  0.592510  0.983620  1.0  -0.7514
  O  O57  1  0.806000  0.907490  0.516380  1.0  -0.7503
  O  O58  1  0.306000  0.407490  0.016380  1.0  -0.7503
  O  O59  1  0.483620  0.194000  0.907490  1.0  -0.7469
  O  O60  1  0.983620  0.694000  0.407490  1.0  -0.7469
  O  O61  1  0.516380  0.194000  0.092510  1.0  -0.748
  O  O62  1  0.016380  0.694000  0.592510  1.0  -0.748
  O  O63  1  0.483620  0.806000  0.092510  1.0  -0.7467
  O  O64  1  0.983620  0.306000  0.592510  1.0  -0.7467
  O  O65  1  0.516380  0.806000  0.907490  1.0  -0.7489
  O  O66  1  0.016380  0.306000  0.407490  1.0  -0.7489
  O  O67  1  0.483620  0.907490  0.194000  1.0  -0.7504
  O  O68  1  0.983620  0.407490  0.694000  1.0  -0.7504
  O  O69  1  0.516380  0.092510  0.194000  1.0  -0.7528
  O  O70  1  0.016380  0.592510  0.694000  1.0  -0.7528
  O  O71  1  0.483620  0.092510  0.806000  1.0  -0.7484
  O  O72  1  0.983620  0.592510  0.306000  1.0  -0.7484
  O  O73  1  0.516380  0.907490  0.806000  1.0  -0.7493
  O  O74  1  0.016380  0.407490  0.306000  1.0  -0.7493
  O  O75  1  0.907490  0.194000  0.483620  1.0  -0.7513
  O  O76  1  0.407490  0.694000  0.983620  1.0  -0.7513
  O  O77  1  0.092510  0.194000  0.516380  1.0  -0.7499
  O  O78  1  0.592510  0.694000  0.016380  1.0  -0.7499
  O  O79  1  0.092510  0.806000  0.483620  1.0  -0.75
  O  O80  1  0.592510  0.306000  0.983620  1.0  -0.75
  O  O81  1  0.907490  0.806000  0.516380  1.0  -0.751
  O  O82  1  0.407490  0.306000  0.016380  1.0  -0.751
  O  O83  1  0.194000  0.483620  0.907490  1.0  -0.7464
  O  O84  1  0.694000  0.983620  0.407490  1.0  -0.7464
  O  O85  1  0.194000  0.516380  0.092510  1.0  -0.7469
  O  O86  1  0.694000  0.016380  0.592510  1.0  -0.7469
  O  O87  1  0.806000  0.483620  0.092510  1.0  -0.7476
  O  O88  1  0.306000  0.983620  0.592510  1.0  -0.7476
  O  O89  1  0.806000  0.516380  0.907490  1.0  -0.7484
  O  O90  1  0.306000  0.016380  0.407490  1.0  -0.7484
  O  O91  1  0.853380  0.352500  0.146620  1.0  -0.4868
  O  O92  1  0.941760  0.430200  0.058240  1.0  -0.7448
  O  O93  1  0.353380  0.852500  0.646620  1.0  -0.4868
  O  O94  1  0.441760  0.930200  0.558240  1.0  -0.7448
  O  O95  1  0.146620  0.647500  0.146620  1.0  -0.4877
  O  O96  1  0.058240  0.569800  0.058240  1.0  -0.7481
  O  O97  1  0.646620  0.147500  0.646620  1.0  -0.4877
  O  O98  1  0.558240  0.069800  0.558240  1.0  -0.7481
  O  O99  1  0.146620  0.352500  0.853380  1.0  -0.4858
  O  O100  1  0.058240  0.430200  0.941760  1.0  -0.7476
  O  O101  1  0.646620  0.852500  0.353380  1.0  -0.4858
  O  O102  1  0.558240  0.930200  0.441760  1.0  -0.7476
  O  O103  1  0.853380  0.647500  0.853380  1.0  -0.4875
  O  O104  1  0.941760  0.569800  0.941760  1.0  -0.7467
  O  O105  1  0.353380  0.147500  0.353380  1.0  -0.4875
  O  O106  1  0.441760  0.069800  0.441760  1.0  -0.7467
  O  O107  1  0.146620  0.853380  0.352500  1.0  -0.4908
  O  O108  1  0.058240  0.941760  0.430200  1.0  -0.7378
  O  O109  1  0.646620  0.353380  0.852500  1.0  -0.4908
  O  O110  1  0.558240  0.441760  0.930200  1.0  -0.7378
  O  O111  1  0.146620  0.146620  0.647500  1.0  -0.4904
  O  O112  1  0.058240  0.058240  0.569800  1.0  -0.7436
  O  O113  1  0.646620  0.646620  0.147500  1.0  -0.4904
  O  O114  1  0.558240  0.558240  0.069800  1.0  -0.7436
  O  O115  1  0.853380  0.146620  0.352500  1.0  -0.4899
  O  O116  1  0.941760  0.058240  0.430200  1.0  -0.7377
  O  O117  1  0.353380  0.646620  0.852500  1.0  -0.4899
  O  O118  1  0.441760  0.558240  0.930200  1.0  -0.7377
  O  O119  1  0.853380  0.853380  0.647500  1.0  -0.4911
  O  O120  1  0.941760  0.941760  0.569800  1.0  -0.743
  O  O121  1  0.353380  0.353380  0.147500  1.0  -0.4911
  O  O122  1  0.441760  0.441760  0.069800  1.0  -0.743
  O  O123  1  0.352500  0.146620  0.853380  1.0  -0.4777
  O  O124  1  0.430200  0.058240  0.941760  1.0  -0.7467
  O  O125  1  0.852500  0.646620  0.353380  1.0  -0.4777
  O  O126  1  0.930200  0.558240  0.441760  1.0  -0.7467
  O  O127  1  0.647500  0.146620  0.146620  1.0  -0.4855
  O  O128  1  0.569800  0.058240  0.058240  1.0  -0.7456
  O  O129  1  0.147500  0.646620  0.646620  1.0  -0.4855
  O  O130  1  0.069800  0.558240  0.558240  1.0  -0.7456
  O  O131  1  0.352500  0.853380  0.146620  1.0  -0.4794
  O  O132  1  0.430200  0.941760  0.058240  1.0  -0.7477
  O  O133  1  0.852500  0.353380  0.646620  1.0  -0.4794
  O  O134  1  0.930200  0.441760  0.558240  1.0  -0.7477
  O  O135  1  0.647500  0.853380  0.853380  1.0  -0.4849
  O  O136  1  0.569800  0.941760  0.941760  1.0  -0.7456
  O  O137  1  0.147500  0.353380  0.353380  1.0  -0.4849
  O  O138  1  0.069800  0.441760  0.441760  1.0  -0.7456
