# generated using pymatgen
data_Na2Al(PO4)4
_symmetry_space_group_name_H-M   'P 1'
_cell_length_a   16.74440000
_cell_length_b   16.74440000
_cell_length_c   16.74440000
_cell_angle_alpha   90.00000000
_cell_angle_beta   90.00000000
_cell_angle_gamma   90.00000000
_symmetry_Int_Tables_number   1
_chemical_formula_structural   Na2Al(PO4)4
_chemical_formula_sum   'Na12 Al6 P24 O96'
_cell_volume   4694.71000066
_cell_formula_units_Z   6
loop_
 _symmetry_equiv_pos_site_id
 _symmetry_equiv_pos_as_xyz
  1  'x, y, z'
loop_
 _atom_site_type_symbol
 _atom_site_label
 _atom_site_symmetry_multiplicity
 _atom_site_fract_x
 _atom_site_fract_y
 _atom_site_fract_z
 _atom_site_occupancy
 _atom_site_charge
  Na  Na1  1  0.000000  0.500000  0.750000  1.0  0.992
  Na  Na2  1  0.000000  0.500000  0.250000  1.0  0.992
  Na  Na3  1  0.750000  0.000000  0.500000  1.0  0.992
  Na  Na4  1  0.250000  0.000000  0.500000  1.0  0.992
  Na  Na5  1  0.500000  0.750000  0.000000  1.0  0.992
  Na  Na6  1  0.500000  0.250000  0.000000  1.0  0.992
  Na  Na7  1  0.500000  0.000000  0.750000  1.0  0.992
  Na  Na8  1  0.500000  0.000000  0.250000  1.0  0.992
  Na  Na9  1  0.000000  0.750000  0.500000  1.0  0.992
  Na  Na10  1  0.000000  0.250000  0.500000  1.0  0.992
  Na  Na11  1  0.750000  0.500000  0.000000  1.0  0.992
  Na  Na12  1  0.250000  0.500000  0.000000  1.0  0.992
  Al  Al13  1  0.000000  0.500000  0.000000  1.0  2.0462
  Al  Al14  1  0.500000  0.000000  0.500000  1.0  2.0462
  Al  Al15  1  0.000000  0.000000  0.500000  1.0  2.0462
  Al  Al16  1  0.500000  0.500000  0.000000  1.0  2.0462
  Al  Al17  1  0.500000  0.000000  0.000000  1.0  2.0462
  Al  Al18  1  0.000000  0.500000  0.500000  1.0  2.0462
  P  P19  1  0.121690  0.568720  0.878310  1.0  1.8263
  P  P20  1  0.621690  0.068720  0.378310  1.0  1.8263
  P  P21  1  0.878310  0.431280  0.878310  1.0  1.8233
  P  P22  1  0.378310  0.931280  0.378310  1.0  1.8233
  P  P23  1  0.878310  0.568720  0.121690  1.0  1.8224
  P  P24  1  0.378310  0.068720  0.621690  1.0  1.8224
  P  P25  1  0.121690  0.431280  0.121690  1.0  1.8267
  P  P26  1  0.621690  0.931280  0.621690  1.0  1.8267
  P  P27  1  0.878310  0.121690  0.568720  1.0  1.8214
  P  P28  1  0.378310  0.621690  0.068720  1.0  1.8214
  P  P29  1  0.878310  0.878310  0.431280  1.0  1.8213
  P  P30  1  0.378310  0.378310  0.931280  1.0  1.8213
  P  P31  1  0.121690  0.878310  0.568720  1.0  1.8254
  P  P32  1  0.621690  0.378310  0.068720  1.0  1.8254
  P  P33  1  0.121690  0.121690  0.431280  1.0  1.8238
  P  P34  1  0.621690  0.621690  0.931280  1.0  1.8238
  P  P35  1  0.568720  0.878310  0.121690  1.0  1.8265
  P  P36  1  0.068720  0.378310  0.621690  1.0  1.8265
  P  P37  1  0.431280  0.878310  0.878310  1.0  1.8223
  P  P38  1  0.931280  0.378310  0.378310  1.0  1.8223
  P  P39  1  0.568720  0.121690  0.878310  1.0  1.8261
  P  P40  1  0.068720  0.621690  0.378310  1.0  1.8261
  P  P41  1  0.431280  0.121690  0.121690  1.0  1.8209
  P  P42  1  0.931280  0.621690  0.621690  1.0  1.8209
  O  O43  1  0.091800  0.522610  0.805570  1.0  -0.7278
  O  O44  1  0.591800  0.022610  0.305570  1.0  -0.7278
  O  O45  1  0.908200  0.477390  0.805570  1.0  -0.7288
  O  O46  1  0.408200  0.977390  0.305570  1.0  -0.7288
  O  O47  1  0.908200  0.522610  0.194430  1.0  -0.7301
  O  O48  1  0.408200  0.022610  0.694430  1.0  -0.7301
  O  O49  1  0.091800  0.477390  0.194430  1.0  -0.7291
  O  O50  1  0.591800  0.977390  0.694430  1.0  -0.7291
  O  O51  1  0.805570  0.091800  0.522610  1.0  -0.7309
  O  O52  1  0.305570  0.591800  0.022610  1.0  -0.7309
  O  O53  1  0.805570  0.908200  0.477390  1.0  -0.7305
  O  O54  1  0.305570  0.408200  0.977390  1.0  -0.7305
  O  O55  1  0.194430  0.908200  0.522610  1.0  -0.7285
  O  O56  1  0.694430  0.408200  0.022610  1.0  -0.7285
  O  O57  1  0.194430  0.091800  0.477390  1.0  -0.7306
  O  O58  1  0.694430  0.591800  0.977390  1.0  -0.7306
  O  O59  1  0.522610  0.805570  0.091800  1.0  -0.728
  O  O60  1  0.022610  0.305570  0.591800  1.0  -0.728
  O  O61  1  0.477390  0.805570  0.908200  1.0  -0.7269
  O  O62  1  0.977390  0.305570  0.408200  1.0  -0.7269
  O  O63  1  0.522610  0.194430  0.908200  1.0  -0.7294
  O  O64  1  0.022610  0.694430  0.408200  1.0  -0.7294
  O  O65  1  0.477390  0.194430  0.091800  1.0  -0.7283
  O  O66  1  0.977390  0.694430  0.591800  1.0  -0.7283
  O  O67  1  0.522610  0.091800  0.805570  1.0  -0.7301
  O  O68  1  0.022610  0.591800  0.305570  1.0  -0.7301
  O  O69  1  0.477390  0.908200  0.805570  1.0  -0.7276
  O  O70  1  0.977390  0.408200  0.305570  1.0  -0.7276
  O  O71  1  0.522610  0.908200  0.194430  1.0  -0.7302
  O  O72  1  0.022610  0.408200  0.694430  1.0  -0.7302
  O  O73  1  0.477390  0.091800  0.194430  1.0  -0.7303
  O  O74  1  0.977390  0.591800  0.694430  1.0  -0.7303
  O  O75  1  0.091800  0.805570  0.522610  1.0  -0.7284
  O  O76  1  0.591800  0.305570  0.022610  1.0  -0.7284
  O  O77  1  0.908200  0.805570  0.477390  1.0  -0.7304
  O  O78  1  0.408200  0.305570  0.977390  1.0  -0.7304
  O  O79  1  0.908200  0.194430  0.522610  1.0  -0.7308
  O  O80  1  0.408200  0.694430  0.022610  1.0  -0.7308
  O  O81  1  0.091800  0.194430  0.477390  1.0  -0.7309
  O  O82  1  0.591800  0.694430  0.977390  1.0  -0.7309
  O  O83  1  0.805570  0.522610  0.091800  1.0  -0.7284
  O  O84  1  0.305570  0.022610  0.591800  1.0  -0.7284
  O  O85  1  0.805570  0.477390  0.908200  1.0  -0.7281
  O  O86  1  0.305570  0.977390  0.408200  1.0  -0.7281
  O  O87  1  0.194430  0.522610  0.908200  1.0  -0.7269
  O  O88  1  0.694430  0.022610  0.408200  1.0  -0.7269
  O  O89  1  0.194430  0.477390  0.091800  1.0  -0.7272
  O  O90  1  0.694430  0.977390  0.591800  1.0  -0.7272
  O  O91  1  0.139250  0.655200  0.860750  1.0  -0.4842
  O  O92  1  0.057280  0.563300  0.942720  1.0  -0.8949
  O  O93  1  0.639250  0.155200  0.360750  1.0  -0.4842
  O  O94  1  0.557280  0.063300  0.442720  1.0  -0.8949
  O  O95  1  0.860750  0.344800  0.860750  1.0  -0.485
  O  O96  1  0.942720  0.436700  0.942720  1.0  -0.8926
  O  O97  1  0.360750  0.844800  0.360750  1.0  -0.485
  O  O98  1  0.442720  0.936700  0.442720  1.0  -0.8926
  O  O99  1  0.860750  0.655200  0.139250  1.0  -0.4856
  O  O100  1  0.942720  0.563300  0.057280  1.0  -0.8928
  O  O101  1  0.360750  0.155200  0.639250  1.0  -0.4856
  O  O102  1  0.442720  0.063300  0.557280  1.0  -0.8928
  O  O103  1  0.139250  0.344800  0.139250  1.0  -0.4849
  O  O104  1  0.057280  0.436700  0.057280  1.0  -0.8922
  O  O105  1  0.639250  0.844800  0.639250  1.0  -0.4849
  O  O106  1  0.557280  0.936700  0.557280  1.0  -0.8922
  O  O107  1  0.860750  0.139250  0.655200  1.0  -0.4863
  O  O108  1  0.942720  0.057280  0.563300  1.0  -0.8865
  O  O109  1  0.360750  0.639250  0.155200  1.0  -0.4863
  O  O110  1  0.442720  0.557280  0.063300  1.0  -0.8865
  O  O111  1  0.860750  0.860750  0.344800  1.0  -0.4889
  O  O112  1  0.942720  0.942720  0.436700  1.0  -0.8868
  O  O113  1  0.360750  0.360750  0.844800  1.0  -0.4889
  O  O114  1  0.442720  0.442720  0.936700  1.0  -0.8868
  O  O115  1  0.139250  0.860750  0.655200  1.0  -0.4856
  O  O116  1  0.057280  0.942720  0.563300  1.0  -0.8878
  O  O117  1  0.639250  0.360750  0.155200  1.0  -0.4856
  O  O118  1  0.557280  0.442720  0.063300  1.0  -0.8878
  O  O119  1  0.139250  0.139250  0.344800  1.0  -0.487
  O  O120  1  0.057280  0.057280  0.436700  1.0  -0.8869
  O  O121  1  0.639250  0.639250  0.844800  1.0  -0.487
  O  O122  1  0.557280  0.557280  0.936700  1.0  -0.8869
  O  O123  1  0.655200  0.860750  0.139250  1.0  -0.4804
  O  O124  1  0.563300  0.942720  0.057280  1.0  -0.8912
  O  O125  1  0.155200  0.360750  0.639250  1.0  -0.4804
  O  O126  1  0.063300  0.442720  0.557280  1.0  -0.8912
  O  O127  1  0.344800  0.860750  0.860750  1.0  -0.473
  O  O128  1  0.436700  0.942720  0.942720  1.0  -0.8925
  O  O129  1  0.844800  0.360750  0.360750  1.0  -0.473
  O  O130  1  0.936700  0.442720  0.442720  1.0  -0.8925
  O  O131  1  0.655200  0.139250  0.860750  1.0  -0.4783
  O  O132  1  0.563300  0.057280  0.942720  1.0  -0.8924
  O  O133  1  0.155200  0.639250  0.360750  1.0  -0.4783
  O  O134  1  0.063300  0.557280  0.442720  1.0  -0.8924
  O  O135  1  0.344800  0.139250  0.139250  1.0  -0.4726
  O  O136  1  0.436700  0.057280  0.057280  1.0  -0.8908
  O  O137  1  0.844800  0.639250  0.639250  1.0  -0.4726
  O  O138  1  0.936700  0.557280  0.557280  1.0  -0.8908
