# generated using pymatgen
data_Ga2P3O11
_symmetry_space_group_name_H-M   'P 1'
_cell_length_a   25.15800000
_cell_length_b   9.05360000
_cell_length_c   10.16600000
_cell_angle_alpha   90.00000000
_cell_angle_beta   90.00000000
_cell_angle_gamma   90.00000000
_symmetry_Int_Tables_number   1
_chemical_formula_structural   Ga2P3O11
_chemical_formula_sum   'Ga16 P24 O88'
_cell_volume   2315.51458582
_cell_formula_units_Z   8
loop_
 _symmetry_equiv_pos_site_id
 _symmetry_equiv_pos_as_xyz
  1  'x, y, z'
loop_
 _atom_site_type_symbol
 _atom_site_label
 _atom_site_symmetry_multiplicity
 _atom_site_fract_x
 _atom_site_fract_y
 _atom_site_fract_z
 _atom_site_occupancy
 _atom_site_charge
  Ga  Ga1  1  0.883350  0.122310  0.311310  1.0  1.7278
  Ga  Ga2  1  0.767350  0.669770  0.510690  1.0  1.6121
  Ga  Ga3  1  0.616650  0.377690  0.811310  1.0  1.7289
  Ga  Ga4  1  0.732650  0.830230  0.010690  1.0  1.6137
  Ga  Ga5  1  0.116650  0.122310  0.188690  1.0  1.7291
  Ga  Ga6  1  0.232650  0.669770  0.989310  1.0  1.6107
  Ga  Ga7  1  0.383350  0.377690  0.688690  1.0  1.7281
  Ga  Ga8  1  0.267350  0.830230  0.489310  1.0  1.6141
  Ga  Ga9  1  0.116650  0.877690  0.688690  1.0  1.7291
  Ga  Ga10  1  0.232650  0.330230  0.489310  1.0  1.613
  Ga  Ga11  1  0.383350  0.622310  0.188690  1.0  1.7279
  Ga  Ga12  1  0.267350  0.169770  0.989310  1.0  1.6116
  Ga  Ga13  1  0.883350  0.877690  0.811310  1.0  1.728
  Ga  Ga14  1  0.767350  0.330230  0.010690  1.0  1.6148
  Ga  Ga15  1  0.616650  0.622310  0.311310  1.0  1.7286
  Ga  Ga16  1  0.732650  0.169770  0.510690  1.0  1.611
  P  P17  1  0.994700  0.113400  0.178400  1.0  1.6324
  P  P18  1  0.838750  0.045680  0.038390  1.0  1.9315
  P  P19  1  0.802160  0.388830  0.320080  1.0  1.7829
  P  P20  1  0.505300  0.386600  0.678400  1.0  1.6326
  P  P21  1  0.661250  0.454320  0.538390  1.0  1.9339
  P  P22  1  0.697840  0.111170  0.820080  1.0  1.7826
  P  P23  1  0.005300  0.113400  0.321600  1.0  1.6313
  P  P24  1  0.161250  0.045680  0.461610  1.0  1.934
  P  P25  1  0.197840  0.388830  0.179920  1.0  1.782
  P  P26  1  0.494700  0.386600  0.821600  1.0  1.6331
  P  P27  1  0.338750  0.454320  0.961610  1.0  1.9319
  P  P28  1  0.302160  0.111170  0.679920  1.0  1.7835
  P  P29  1  0.005300  0.886600  0.821600  1.0  1.6322
  P  P30  1  0.161250  0.954320  0.961610  1.0  1.9339
  P  P31  1  0.197840  0.611170  0.679920  1.0  1.7827
  P  P32  1  0.494700  0.613400  0.321600  1.0  1.6337
  P  P33  1  0.338750  0.545680  0.461610  1.0  1.9317
  P  P34  1  0.302160  0.888830  0.179920  1.0  1.7831
  P  P35  1  0.994700  0.886600  0.678400  1.0  1.6331
  P  P36  1  0.838750  0.954320  0.538390  1.0  1.9314
  P  P37  1  0.802160  0.611170  0.820080  1.0  1.7835
  P  P38  1  0.505300  0.613400  0.178400  1.0  1.633
  P  P39  1  0.661250  0.545680  0.038390  1.0  1.9337
  P  P40  1  0.697840  0.888830  0.320080  1.0  1.7819
  O  O41  1  0.856530  0.308100  0.331300  1.0  -0.9317
  O  O42  1  0.807560  0.526500  0.403700  1.0  -0.7823
  O  O43  1  0.951750  0.166600  0.268700  1.0  -0.5944
  O  O44  1  0.851350  0.012900  0.183500  1.0  -0.8844
  O  O45  1  0.792830  0.431100  0.174600  1.0  -0.7794
  O  O46  1  0.887290  0.993600  0.958000  1.0  -0.8669
  O  O47  1  0.831400  0.210900  0.020700  1.0  -0.7932
  O  O48  1  0.757230  0.284300  0.362400  1.0  -0.8027
  O  O49  1  0.987500  0.184300  0.041600  1.0  -0.6135
  O  O50  1  0.991000  0.943700  0.167700  1.0  -0.7424
  O  O51  1  0.791180  0.960900  0.993800  1.0  -0.898
  O  O52  1  0.643470  0.191900  0.831300  1.0  -0.9299
  O  O53  1  0.692440  0.973500  0.903700  1.0  -0.7848
  O  O54  1  0.548250  0.333400  0.768700  1.0  -0.5922
  O  O55  1  0.648650  0.487100  0.683500  1.0  -0.8843
  O  O56  1  0.707170  0.068900  0.674600  1.0  -0.7786
  O  O57  1  0.612710  0.506400  0.458000  1.0  -0.8672
  O  O58  1  0.668600  0.289100  0.520700  1.0  -0.794
  O  O59  1  0.742770  0.215700  0.862400  1.0  -0.8019
  O  O60  1  0.512500  0.315700  0.541600  1.0  -0.6131
  O  O61  1  0.509000  0.556300  0.667700  1.0  -0.7432
  O  O62  1  0.708820  0.539100  0.493800  1.0  -0.8967
  O  O63  1  0.143470  0.308100  0.168700  1.0  -0.9339
  O  O64  1  0.192440  0.526500  0.096300  1.0  -0.7846
  O  O65  1  0.048250  0.166600  0.231300  1.0  -0.5923
  O  O66  1  0.148650  0.012900  0.316500  1.0  -0.8852
  O  O67  1  0.207170  0.431100  0.325400  1.0  -0.7795
  O  O68  1  0.112710  0.993600  0.542000  1.0  -0.8681
  O  O69  1  0.168600  0.210900  0.479300  1.0  -0.7931
  O  O70  1  0.242770  0.284300  0.137600  1.0  -0.802
  O  O71  1  0.012500  0.184300  0.458400  1.0  -0.6144
  O  O72  1  0.009000  0.943700  0.332300  1.0  -0.7432
  O  O73  1  0.208820  0.960900  0.506200  1.0  -0.899
  O  O74  1  0.356530  0.191900  0.668700  1.0  -0.9309
  O  O75  1  0.307560  0.973500  0.596300  1.0  -0.7815
  O  O76  1  0.451750  0.333400  0.731300  1.0  -0.5939
  O  O77  1  0.351350  0.487100  0.816500  1.0  -0.8836
  O  O78  1  0.292830  0.068900  0.825400  1.0  -0.7785
  O  O79  1  0.387290  0.506400  0.042000  1.0  -0.8674
  O  O80  1  0.331400  0.289100  0.979300  1.0  -0.7924
  O  O81  1  0.257230  0.215700  0.637600  1.0  -0.8023
  O  O82  1  0.487500  0.315700  0.958400  1.0  -0.6143
  O  O83  1  0.491000  0.556300  0.832300  1.0  -0.742
  O  O84  1  0.291180  0.539100  0.006200  1.0  -0.8972
  O  O85  1  0.143470  0.691900  0.668700  1.0  -0.9308
  O  O86  1  0.192440  0.473500  0.596300  1.0  -0.7845
  O  O87  1  0.048250  0.833400  0.731300  1.0  -0.5918
  O  O88  1  0.148650  0.987100  0.816500  1.0  -0.8843
  O  O89  1  0.207170  0.568900  0.825400  1.0  -0.7802
  O  O90  1  0.112710  0.006400  0.042000  1.0  -0.868
  O  O91  1  0.168600  0.789100  0.979300  1.0  -0.7925
  O  O92  1  0.242770  0.715700  0.637600  1.0  -0.8017
  O  O93  1  0.012500  0.815700  0.958400  1.0  -0.6143
  O  O94  1  0.009000  0.056300  0.832300  1.0  -0.7428
  O  O95  1  0.208820  0.039100  0.006200  1.0  -0.8987
  O  O96  1  0.356530  0.808100  0.168700  1.0  -0.9322
  O  O97  1  0.307560  0.026500  0.096300  1.0  -0.7816
  O  O98  1  0.451750  0.666667  0.231300  1.0  -0.5935
  O  O99  1  0.351350  0.512900  0.316500  1.0  -0.8847
  O  O100  1  0.292830  0.931100  0.325400  1.0  -0.7802
  O  O101  1  0.387290  0.493600  0.542000  1.0  -0.8676
  O  O102  1  0.331400  0.710900  0.479300  1.0  -0.7927
  O  O103  1  0.257230  0.784300  0.137600  1.0  -0.8022
  O  O104  1  0.487500  0.684300  0.458400  1.0  -0.6143
  O  O105  1  0.491000  0.443700  0.332300  1.0  -0.7432
  O  O106  1  0.291180  0.460900  0.506200  1.0  -0.8988
  O  O107  1  0.856530  0.691900  0.831300  1.0  -0.9298
  O  O108  1  0.807560  0.473500  0.903700  1.0  -0.782
  O  O109  1  0.951750  0.833400  0.768700  1.0  -0.5944
  O  O110  1  0.851350  0.987100  0.683500  1.0  -0.8835
  O  O111  1  0.792830  0.568900  0.674600  1.0  -0.7803
  O  O112  1  0.887290  0.006400  0.458000  1.0  -0.8667
  O  O113  1  0.831400  0.789100  0.520700  1.0  -0.7934
  O  O114  1  0.757230  0.715700  0.862400  1.0  -0.8029
  O  O115  1  0.987500  0.815700  0.541600  1.0  -0.6132
  O  O116  1  0.991000  0.056300  0.667700  1.0  -0.7425
  O  O117  1  0.791180  0.039100  0.493800  1.0  -0.898
  O  O118  1  0.643470  0.808100  0.331300  1.0  -0.932
  O  O119  1  0.692440  0.026500  0.403700  1.0  -0.7848
  O  O120  1  0.548250  0.666667  0.268700  1.0  -0.5931
  O  O121  1  0.648650  0.512900  0.183500  1.0  -0.8851
  O  O122  1  0.707170  0.931100  0.174600  1.0  -0.7801
  O  O123  1  0.612710  0.493600  0.958000  1.0  -0.8673
  O  O124  1  0.668600  0.710900  0.020700  1.0  -0.794
  O  O125  1  0.742770  0.784300  0.362400  1.0  -0.8021
  O  O126  1  0.512500  0.684300  0.041600  1.0  -0.6136
  O  O127  1  0.509000  0.443700  0.167700  1.0  -0.7425
  O  O128  1  0.708820  0.460900  0.993800  1.0  -0.8984
