# generated using pymatgen
data_CoH5C5SNO4
_symmetry_space_group_name_H-M   'P 1'
_cell_length_a   12.26400000
_cell_length_b   12.26400000
_cell_length_c   5.25350000
_cell_angle_alpha   90.00000000
_cell_angle_beta   90.00000000
_cell_angle_gamma   90.00000000
_symmetry_Int_Tables_number   1
_chemical_formula_structural   CoH5C5SNO4
_chemical_formula_sum   'Co4 H20 C20 S4 N4 O16'
_cell_volume   790.15632394
_cell_formula_units_Z   4
loop_
 _symmetry_equiv_pos_site_id
 _symmetry_equiv_pos_as_xyz
  1  'x, y, z'
loop_
 _atom_site_type_symbol
 _atom_site_label
 _atom_site_symmetry_multiplicity
 _atom_site_fract_x
 _atom_site_fract_y
 _atom_site_fract_z
 _atom_site_occupancy
 _atom_site_charge
  Co  Co1  1  0.178710  0.515300  0.217530  1.0  0.9591
  Co  Co2  1  0.821290  0.484700  0.717530  1.0  0.9583
  Co  Co3  1  0.484700  0.178710  0.467530  1.0  0.9585
  Co  Co4  1  0.515300  0.821290  0.967530  1.0  0.9579
  H  H5  1  0.090900  0.395700  0.526700  1.0  0.2106
  H  H6  1  0.958500  0.327900  0.358500  1.0  0.1244
  H  H7  1  0.234100  0.302400  0.606100  1.0  0.0927
  H  H8  1  0.116600  0.161700  0.571100  1.0  0.1327
  H  H9  1  0.210200  0.127000  0.381100  1.0  0.1724
  H  H10  1  0.909100  0.604300  0.026700  1.0  0.2105
  H  H11  1  0.041500  0.672100  0.858500  1.0  0.1245
  H  H12  1  0.765900  0.697600  0.106100  1.0  0.0938
  H  H13  1  0.883400  0.838300  0.071100  1.0  0.1329
  H  H14  1  0.789800  0.873000  0.881100  1.0  0.1706
  H  H15  1  0.604300  0.090900  0.776700  1.0  0.2105
  H  H16  1  0.672100  0.958500  0.608500  1.0  0.1235
  H  H17  1  0.697600  0.234100  0.856100  1.0  0.0939
  H  H18  1  0.838300  0.116600  0.821100  1.0  0.1324
  H  H19  1  0.873000  0.210200  0.631100  1.0  0.1702
  H  H20  1  0.395700  0.909100  0.276700  1.0  0.2112
  H  H21  1  0.327900  0.041500  0.108500  1.0  0.1257
  H  H22  1  0.302400  0.765900  0.356100  1.0  0.0943
  H  H23  1  0.161700  0.883400  0.321100  1.0  0.1321
  H  H24  1  0.127000  0.789800  0.131100  1.0  0.1714
  C  C25  1  0.024400  0.330200  0.252900  1.0  -0.1359
  C  C26  1  0.003000  0.396200  0.016400  1.0  0.6611
  C  C27  1  0.203500  0.293600  0.435000  1.0  0.0254
  C  C28  1  0.293100  0.313900  0.242800  1.0  0.6991
  C  C29  1  0.154500  0.181200  0.415600  1.0  -0.2706
  C  C30  1  0.975600  0.669800  0.752900  1.0  -0.1367
  C  C31  1  0.997000  0.603800  0.516400  1.0  0.6613
  C  C32  1  0.796500  0.706400  0.935000  1.0  0.0212
  C  C33  1  0.706900  0.686100  0.742800  1.0  0.7005
  C  C34  1  0.845500  0.818800  0.915600  1.0  -0.2714
  C  C35  1  0.669800  0.024400  0.502900  1.0  -0.1357
  C  C36  1  0.603800  0.003000  0.266400  1.0  0.6595
  C  C37  1  0.706400  0.203500  0.685000  1.0  0.03
  C  C38  1  0.686100  0.293100  0.492800  1.0  0.7096
  C  C39  1  0.818800  0.154500  0.665600  1.0  -0.2744
  C  C40  1  0.330200  0.975600  0.002900  1.0  -0.1372
  C  C41  1  0.396200  0.997000  0.766400  1.0  0.6593
  C  C42  1  0.293600  0.796500  0.185000  1.0  0.0301
  C  C43  1  0.313900  0.706900  0.992800  1.0  0.7081
  C  C44  1  0.181200  0.845500  0.165600  1.0  -0.2717
  S  S45  1  0.060930  0.192720  0.152900  1.0  0.0455
  S  S46  1  0.939070  0.807280  0.652900  1.0  0.042
  S  S47  1  0.807280  0.060930  0.402900  1.0  0.043
  S  S48  1  0.192720  0.939070  0.902900  1.0  0.0463
  N  N49  1  0.115900  0.373600  0.401900  1.0  -0.3636
  N  N50  1  0.884100  0.626400  0.901900  1.0  -0.3646
  N  N51  1  0.626400  0.115900  0.651900  1.0  -0.3645
  N  N52  1  0.373600  0.884100  0.151900  1.0  -0.3648
  O  O53  1  0.918200  0.372100  0.897400  1.0  -0.5819
  O  O54  1  0.069800  0.467700  0.946000  1.0  -0.5656
  O  O55  1  0.292700  0.398800  0.114000  1.0  -0.5794
  O  O56  1  0.367400  0.243400  0.220800  1.0  -0.6246
  O  O57  1  0.081800  0.627900  0.397400  1.0  -0.5813
  O  O58  1  0.930200  0.532300  0.446000  1.0  -0.5671
  O  O59  1  0.707300  0.601200  0.614000  1.0  -0.5794
  O  O60  1  0.632600  0.756600  0.720800  1.0  -0.6263
  O  O61  1  0.627900  0.918200  0.147400  1.0  -0.5822
  O  O62  1  0.532300  0.069800  0.196000  1.0  -0.5668
  O  O63  1  0.601200  0.292700  0.364000  1.0  -0.5782
  O  O64  1  0.756600  0.367400  0.470800  1.0  -0.6273
  O  O65  1  0.372100  0.081800  0.647400  1.0  -0.5821
  O  O66  1  0.467700  0.930200  0.696000  1.0  -0.5673
  O  O67  1  0.398800  0.707300  0.864000  1.0  -0.5767
  O  O68  1  0.243400  0.632600  0.970800  1.0  -0.6287
