# generated using pymatgen
data_CoH5C5SNO4
_symmetry_space_group_name_H-M   'P 1'
_cell_length_a   12.36700000
_cell_length_b   12.36700000
_cell_length_c   5.29340000
_cell_angle_alpha   90.00000000
_cell_angle_beta   90.00000000
_cell_angle_gamma   90.00000000
_symmetry_Int_Tables_number   1
_chemical_formula_structural   CoH5C5SNO4
_chemical_formula_sum   'Co4 H20 C20 S4 N4 O16'
_cell_volume   809.58682995
_cell_formula_units_Z   4
loop_
 _symmetry_equiv_pos_site_id
 _symmetry_equiv_pos_as_xyz
  1  'x, y, z'
loop_
 _atom_site_type_symbol
 _atom_site_label
 _atom_site_symmetry_multiplicity
 _atom_site_fract_x
 _atom_site_fract_y
 _atom_site_fract_z
 _atom_site_occupancy
 _atom_site_charge
  Co  Co1  1  0.678800  0.015200  0.537300  1.0  0.9447
  Co  Co2  1  0.321200  0.984800  0.037300  1.0  0.9455
  Co  Co3  1  0.984800  0.678800  0.787300  1.0  0.9439
  Co  Co4  1  0.015200  0.321200  0.287300  1.0  0.9428
  H  H5  1  0.617700  0.660400  0.882400  1.0  0.1312
  H  H6  1  0.709700  0.628300  0.690100  1.0  0.1416
  H  H7  1  0.733900  0.800900  0.925100  1.0  0.1023
  H  H8  1  0.460600  0.829100  0.673400  1.0  0.1203
  H  H9  1  0.599800  0.877300  0.870000  1.0  0.2633
  H  H10  1  0.382300  0.339600  0.382400  1.0  0.1314
  H  H11  1  0.290300  0.371700  0.190100  1.0  0.1405
  H  H12  1  0.266100  0.199100  0.425100  1.0  0.1031
  H  H13  1  0.539400  0.170900  0.173400  1.0  0.1205
  H  H14  1  0.400200  0.122700  0.370000  1.0  0.2646
  H  H15  1  0.339600  0.617700  0.132400  1.0  0.1317
  H  H16  1  0.371700  0.709700  0.940100  1.0  0.1401
  H  H17  1  0.199100  0.733900  0.175100  1.0  0.1029
  H  H18  1  0.170900  0.460600  0.923400  1.0  0.119
  H  H19  1  0.122700  0.599800  0.120000  1.0  0.2641
  H  H20  1  0.660400  0.382300  0.632400  1.0  0.131
  H  H21  1  0.628300  0.290300  0.440100  1.0  0.1407
  H  H22  1  0.800900  0.266100  0.675100  1.0  0.1041
  H  H23  1  0.829100  0.539400  0.423400  1.0  0.1208
  H  H24  1  0.877300  0.400200  0.620000  1.0  0.2645
  C  C25  1  0.654400  0.681500  0.728200  1.0  -0.279
  C  C26  1  0.703700  0.793500  0.754900  1.0  -0.0185
  C  C27  1  0.793300  0.813400  0.560900  1.0  0.6761
  C  C28  1  0.526000  0.831100  0.568900  1.0  -0.0434
  C  C29  1  0.503400  0.895600  0.334400  1.0  0.6853
  C  C30  1  0.345600  0.318500  0.228200  1.0  -0.2789
  C  C31  1  0.296300  0.206500  0.254900  1.0  -0.0223
  C  C32  1  0.206700  0.186600  0.060900  1.0  0.6789
  C  C33  1  0.474000  0.168900  0.068900  1.0  -0.0425
  C  C34  1  0.496600  0.104400  0.834400  1.0  0.6845
  C  C35  1  0.318500  0.654400  0.978200  1.0  -0.2802
  C  C36  1  0.206500  0.703700  0.004900  1.0  -0.0137
  C  C37  1  0.186600  0.793300  0.810900  1.0  0.6894
  C  C38  1  0.168900  0.526000  0.818900  1.0  -0.0432
  C  C39  1  0.104400  0.503400  0.584400  1.0  0.6824
  C  C40  1  0.681500  0.345600  0.478200  1.0  -0.2811
  C  C41  1  0.793500  0.296300  0.504900  1.0  -0.0137
  C  C42  1  0.813400  0.206700  0.310900  1.0  0.6879
  C  C43  1  0.831100  0.474000  0.318900  1.0  -0.0435
  C  C44  1  0.895600  0.496600  0.084400  1.0  0.6822
  S  S45  1  0.560860  0.693050  0.473200  1.0  0.0494
  S  S46  1  0.439140  0.306950  0.973200  1.0  0.0456
  S  S47  1  0.306950  0.560860  0.723200  1.0  0.0465
  S  S48  1  0.693050  0.439140  0.223200  1.0  0.047
  N  N49  1  0.617000  0.873600  0.721800  1.0  -0.3541
  N  N50  1  0.383000  0.126400  0.221800  1.0  -0.3545
  N  N51  1  0.126400  0.617000  0.971800  1.0  -0.3546
  N  N52  1  0.873600  0.383000  0.471800  1.0  -0.356
  O  O53  1  0.867800  0.742900  0.536200  1.0  -0.6635
  O  O54  1  0.792900  0.899800  0.434000  1.0  -0.5895
  O  O55  1  0.570300  0.967800  0.268800  1.0  -0.5833
  O  O56  1  0.419500  0.872300  0.216600  1.0  -0.5866
  O  O57  1  0.132200  0.257100  0.036200  1.0  -0.6634
  O  O58  1  0.207100  0.100200  0.934000  1.0  -0.5871
  O  O59  1  0.429700  0.032200  0.768800  1.0  -0.5828
  O  O60  1  0.580500  0.127700  0.716600  1.0  -0.5858
  O  O61  1  0.257100  0.867800  0.786200  1.0  -0.6657
  O  O62  1  0.100200  0.792900  0.684000  1.0  -0.5881
  O  O63  1  0.032200  0.570300  0.518800  1.0  -0.584
  O  O64  1  0.127700  0.419500  0.466600  1.0  -0.5869
  O  O65  1  0.742900  0.132200  0.286200  1.0  -0.6655
  O  O66  1  0.899800  0.207100  0.184000  1.0  -0.5877
  O  O67  1  0.967800  0.429700  0.018800  1.0  -0.5837
  O  O68  1  0.872300  0.580500  0.966600  1.0  -0.5869
