# generated using pymatgen
data_Cu2H11C24(NO5)2
_symmetry_space_group_name_H-M   'P 1'
_cell_length_a   18.66800000
_cell_length_b   18.66800000
_cell_length_c   34.82500000
_cell_angle_alpha   90.00000000
_cell_angle_beta   90.00000000
_cell_angle_gamma   90.00000000
_symmetry_Int_Tables_number   1
_chemical_formula_structural   Cu2H11C24(NO5)2
_chemical_formula_sum   'Cu16 H88 C192 N16 O80'
_cell_volume   12136.31135080
_cell_formula_units_Z   8
loop_
 _symmetry_equiv_pos_site_id
 _symmetry_equiv_pos_as_xyz
  1  'x, y, z'
loop_
 _atom_site_type_symbol
 _atom_site_label
 _atom_site_symmetry_multiplicity
 _atom_site_fract_x
 _atom_site_fract_y
 _atom_site_fract_z
 _atom_site_occupancy
 _atom_site_charge
  Cu  Cu1  1  0.737900  0.296800  0.222300  1.0  0.8603
  Cu  Cu2  1  0.262100  0.703200  0.222300  1.0  0.8603
  Cu  Cu3  1  0.703200  0.737900  0.222300  1.0  0.8613
  Cu  Cu4  1  0.296800  0.262100  0.222300  1.0  0.8598
  Cu  Cu5  1  0.762100  0.796800  0.277700  1.0  0.8575
  Cu  Cu6  1  0.237900  0.203200  0.277700  1.0  0.8574
  Cu  Cu7  1  0.796800  0.237900  0.277700  1.0  0.8591
  Cu  Cu8  1  0.203200  0.762100  0.277700  1.0  0.8577
  Cu  Cu9  1  0.262100  0.703200  0.777700  1.0  0.8579
  Cu  Cu10  1  0.737900  0.296800  0.777700  1.0  0.8568
  Cu  Cu11  1  0.296800  0.262100  0.777700  1.0  0.8588
  Cu  Cu12  1  0.703200  0.737900  0.777700  1.0  0.8581
  Cu  Cu13  1  0.237900  0.203200  0.722300  1.0  0.8615
  Cu  Cu14  1  0.762100  0.796800  0.722300  1.0  0.8588
  Cu  Cu15  1  0.203200  0.762100  0.722300  1.0  0.8599
  Cu  Cu16  1  0.796800  0.237900  0.722300  1.0  0.8614
  H  H17  1  0.015000  0.455300  0.056700  1.0  0.1186
  H  H18  1  0.973000  0.357000  0.091000  1.0  0.2494
  H  H19  1  0.907400  0.320300  0.148500  1.0  0.1315
  H  H20  1  0.011200  0.247100  0.240200  1.0  0.1271
  H  H21  1  0.119300  0.298400  0.145700  1.0  0.1263
  H  H22  1  0.985000  0.544700  0.056700  1.0  0.1188
  H  H23  1  0.027000  0.643000  0.091000  1.0  0.2499
  H  H24  1  0.092600  0.679700  0.148500  1.0  0.1311
  H  H25  1  0.988800  0.752900  0.240200  1.0  0.1271
  H  H26  1  0.880700  0.701600  0.145700  1.0  0.1265
  H  H27  1  0.544700  0.015000  0.056700  1.0  0.1189
  H  H28  1  0.643000  0.973000  0.091000  1.0  0.2474
  H  H29  1  0.679700  0.907400  0.148500  1.0  0.1316
  H  H30  1  0.752900  0.011200  0.240200  1.0  0.127
  H  H31  1  0.701600  0.119300  0.145700  1.0  0.1254
  H  H32  1  0.455300  0.985000  0.056700  1.0  0.1195
  H  H33  1  0.357000  0.027000  0.091000  1.0  0.247
  H  H34  1  0.320300  0.092600  0.148500  1.0  0.1309
  H  H35  1  0.247100  0.988800  0.240200  1.0  0.1273
  H  H36  1  0.298400  0.880700  0.145700  1.0  0.1254
  H  H37  1  0.485000  0.955300  0.443300  1.0  0.1178
  H  H38  1  0.527000  0.857000  0.409000  1.0  0.2486
  H  H39  1  0.592600  0.820300  0.351500  1.0  0.1317
  H  H40  1  0.488800  0.747100  0.259800  1.0  0.1271
  H  H41  1  0.380700  0.798400  0.354300  1.0  0.1265
  H  H42  1  0.515000  0.044700  0.443300  1.0  0.1173
  H  H43  1  0.473000  0.143000  0.409000  1.0  0.2502
  H  H44  1  0.407400  0.179700  0.351500  1.0  0.1315
  H  H45  1  0.511200  0.252900  0.259800  1.0  0.1274
  H  H46  1  0.619300  0.201600  0.354300  1.0  0.1269
  H  H47  1  0.955300  0.515000  0.443300  1.0  0.1182
  H  H48  1  0.857000  0.473000  0.409000  1.0  0.2477
  H  H49  1  0.820300  0.407400  0.351500  1.0  0.1314
  H  H50  1  0.747100  0.511200  0.259800  1.0  0.1273
  H  H51  1  0.798400  0.619300  0.354300  1.0  0.1258
  H  H52  1  0.044700  0.485000  0.443300  1.0  0.1176
  H  H53  1  0.143000  0.527000  0.409000  1.0  0.2471
  H  H54  1  0.179700  0.592600  0.351500  1.0  0.1311
  H  H55  1  0.252900  0.488800  0.259800  1.0  0.1274
  H  H56  1  0.201600  0.380700  0.354300  1.0  0.1258
  H  H57  1  0.985000  0.544700  0.943300  1.0  0.1177
  H  H58  1  0.027000  0.643000  0.909000  1.0  0.2496
  H  H59  1  0.092600  0.679700  0.851500  1.0  0.1316
  H  H60  1  0.988800  0.752900  0.759800  1.0  0.1274
  H  H61  1  0.880700  0.701600  0.854300  1.0  0.127
  H  H62  1  0.015000  0.455300  0.943300  1.0  0.1173
  H  H63  1  0.973000  0.357000  0.909000  1.0  0.2493
  H  H64  1  0.907400  0.320300  0.851500  1.0  0.1314
  H  H65  1  0.011200  0.247100  0.759800  1.0  0.1271
  H  H66  1  0.119300  0.298400  0.854300  1.0  0.1264
  H  H67  1  0.455300  0.985000  0.943300  1.0  0.1181
  H  H68  1  0.357000  0.027000  0.909000  1.0  0.2471
  H  H69  1  0.320300  0.092600  0.851500  1.0  0.131
  H  H70  1  0.247100  0.988800  0.759800  1.0  0.1273
  H  H71  1  0.298400  0.880700  0.854300  1.0  0.1257
  H  H72  1  0.544700  0.015000  0.943300  1.0  0.1177
  H  H73  1  0.643000  0.973000  0.909000  1.0  0.2472
  H  H74  1  0.679700  0.907400  0.851500  1.0  0.1316
  H  H75  1  0.752900  0.011200  0.759800  1.0  0.1274
  H  H76  1  0.701600  0.119300  0.854300  1.0  0.1258
  H  H77  1  0.515000  0.044700  0.556700  1.0  0.1187
  H  H78  1  0.473000  0.143000  0.591000  1.0  0.2505
  H  H79  1  0.407400  0.179700  0.648500  1.0  0.1315
  H  H80  1  0.511200  0.252900  0.740200  1.0  0.1271
  H  H81  1  0.619300  0.201600  0.645700  1.0  0.1265
  H  H82  1  0.485000  0.955300  0.556700  1.0  0.1188
  H  H83  1  0.527000  0.857000  0.591000  1.0  0.2488
  H  H84  1  0.592600  0.820300  0.648500  1.0  0.1315
  H  H85  1  0.488800  0.747100  0.740200  1.0  0.127
  H  H86  1  0.380700  0.798400  0.645700  1.0  0.1264
  H  H87  1  0.044700  0.485000  0.556700  1.0  0.1192
  H  H88  1  0.143000  0.527000  0.591000  1.0  0.2471
  H  H89  1  0.179700  0.592600  0.648500  1.0  0.1311
  H  H90  1  0.252900  0.488800  0.740200  1.0  0.1271
  H  H91  1  0.201600  0.380700  0.645700  1.0  0.1254
  H  H92  1  0.955300  0.515000  0.556700  1.0  0.119
  H  H93  1  0.857000  0.473000  0.591000  1.0  0.2478
  H  H94  1  0.820300  0.407400  0.648500  1.0  0.1316
  H  H95  1  0.747100  0.511200  0.740200  1.0  0.1273
  H  H96  1  0.798400  0.619300  0.645700  1.0  0.1256
  H  H97  1  0.076000  0.282600  0.000000  1.0  0.1254
  H  H98  1  0.924000  0.717400  0.000000  1.0  0.1245
  H  H99  1  0.717400  0.076000  0.000000  1.0  0.1251
  H  H100  1  0.282600  0.924000  0.000000  1.0  0.1256
  H  H101  1  0.424000  0.782600  0.500000  1.0  0.1258
  H  H102  1  0.576000  0.217400  0.500000  1.0  0.1244
  H  H103  1  0.782600  0.576000  0.500000  1.0  0.1246
  H  H104  1  0.217400  0.424000  0.500000  1.0  0.1249
  C  C105  1  0.023300  0.431900  0.033600  1.0  -0.1948
  C  C106  1  0.047500  0.363700  0.033600  1.0  0.0877
  C  C107  1  0.060900  0.324900  0.072100  1.0  0.5367
  C  C108  1  0.013500  0.313300  0.141200  1.0  0.1061
  C  C109  1  0.950000  0.307500  0.160500  1.0  -0.03
  C  C110  1  0.949200  0.282800  0.197400  1.0  -0.0121
  C  C111  1  0.011800  0.263900  0.215100  1.0  0.0017
  C  C112  1  0.075300  0.269800  0.195800  1.0  -0.0037
  C  C113  1  0.076100  0.294500  0.158800  1.0  -0.0504
  C  C114  1  0.883400  0.276700  0.217400  1.0  0.6066
  C  C115  1  0.140100  0.250200  0.214100  1.0  0.6514
  C  C116  1  0.976700  0.568100  0.033600  1.0  -0.1962
  C  C117  1  0.952500  0.636300  0.033600  1.0  0.0889
  C  C118  1  0.939100  0.675100  0.072100  1.0  0.5355
  C  C119  1  0.986500  0.686700  0.141200  1.0  0.1054
  C  C120  1  0.050000  0.692500  0.160500  1.0  -0.0294
  C  C121  1  0.050800  0.717200  0.197400  1.0  -0.0121
  C  C122  1  0.988200  0.736100  0.215100  1.0  0.0012
  C  C123  1  0.924700  0.730200  0.195800  1.0  -0.0044
  C  C124  1  0.923900  0.705500  0.158800  1.0  -0.0505
  C  C125  1  0.116600  0.723300  0.217400  1.0  0.6062
  C  C126  1  0.859900  0.749800  0.214100  1.0  0.6535
  C  C127  1  0.568100  0.023300  0.033600  1.0  -0.1947
  C  C128  1  0.636300  0.047500  0.033600  1.0  0.0875
  C  C129  1  0.675100  0.060900  0.072100  1.0  0.5342
  C  C130  1  0.686700  0.013500  0.141200  1.0  0.1056
  C  C131  1  0.692500  0.950000  0.160500  1.0  -0.0296
  C  C132  1  0.717200  0.949200  0.197400  1.0  -0.0112
  C  C133  1  0.736100  0.011800  0.215100  1.0  0.0021
  C  C134  1  0.730200  0.075300  0.195800  1.0  -0.0038
  C  C135  1  0.705500  0.076100  0.158800  1.0  -0.0497
  C  C136  1  0.723300  0.883400  0.217400  1.0  0.6114
  C  C137  1  0.749800  0.140100  0.214100  1.0  0.6577
  C  C138  1  0.431900  0.976700  0.033600  1.0  -0.1948
  C  C139  1  0.363700  0.952500  0.033600  1.0  0.0886
  C  C140  1  0.324900  0.939100  0.072100  1.0  0.5335
  C  C141  1  0.313300  0.986500  0.141200  1.0  0.1053
  C  C142  1  0.307500  0.050000  0.160500  1.0  -0.0303
  C  C143  1  0.282800  0.050800  0.197400  1.0  -0.0117
  C  C144  1  0.263900  0.988200  0.215100  1.0  0.0011
  C  C145  1  0.269800  0.924700  0.195800  1.0  -0.0033
  C  C146  1  0.294500  0.923900  0.158800  1.0  -0.0481
  C  C147  1  0.276700  0.116600  0.217400  1.0  0.6117
  C  C148  1  0.250200  0.859900  0.214100  1.0  0.6567
  C  C149  1  0.476700  0.931900  0.466400  1.0  -0.1959
  C  C150  1  0.452500  0.863700  0.466400  1.0  0.0873
  C  C151  1  0.439100  0.824900  0.427900  1.0  0.5361
  C  C152  1  0.486500  0.813300  0.358800  1.0  0.1059
  C  C153  1  0.550000  0.807500  0.339500  1.0  -0.0301
  C  C154  1  0.550800  0.782800  0.302600  1.0  -0.012
  C  C155  1  0.488200  0.763900  0.284900  1.0  0.0025
  C  C156  1  0.424700  0.769800  0.304200  1.0  -0.0045
  C  C157  1  0.423900  0.794500  0.341200  1.0  -0.05
  C  C158  1  0.616600  0.776700  0.282600  1.0  0.6061
  C  C159  1  0.359900  0.750200  0.285900  1.0  0.6536
  C  C160  1  0.523300  0.068100  0.466400  1.0  -0.1946
  C  C161  1  0.547500  0.136300  0.466400  1.0  0.0874
  C  C162  1  0.560900  0.175100  0.427900  1.0  0.5362
  C  C163  1  0.513500  0.186700  0.358800  1.0  0.1059
  C  C164  1  0.450000  0.192500  0.339500  1.0  -0.0301
  C  C165  1  0.449200  0.217200  0.302600  1.0  -0.0121
  C  C166  1  0.511800  0.236100  0.284900  1.0  0.0018
  C  C167  1  0.575300  0.230200  0.304200  1.0  -0.0038
  C  C168  1  0.576100  0.205500  0.341200  1.0  -0.0502
  C  C169  1  0.383400  0.223300  0.282600  1.0  0.6064
  C  C170  1  0.640100  0.249800  0.285900  1.0  0.6516
  C  C171  1  0.931900  0.523300  0.466400  1.0  -0.1948
  C  C172  1  0.863700  0.547500  0.466400  1.0  0.0884
  C  C173  1  0.824900  0.560900  0.427900  1.0  0.5331
  C  C174  1  0.813300  0.513500  0.358800  1.0  0.1052
  C  C175  1  0.807500  0.450000  0.339500  1.0  -0.0293
  C  C176  1  0.782800  0.449200  0.302600  1.0  -0.0113
  C  C177  1  0.763900  0.511800  0.284900  1.0  0.0027
  C  C178  1  0.769800  0.575300  0.304200  1.0  -0.0039
  C  C179  1  0.794500  0.576100  0.341200  1.0  -0.05
  C  C180  1  0.776700  0.383400  0.282600  1.0  0.6117
  C  C181  1  0.750200  0.640100  0.285900  1.0  0.6579
  C  C182  1  0.068100  0.476700  0.466400  1.0  -0.1945
  C  C183  1  0.136300  0.452500  0.466400  1.0  0.0871
  C  C184  1  0.175100  0.439100  0.427900  1.0  0.5343
  C  C185  1  0.186700  0.486500  0.358800  1.0  0.1056
  C  C186  1  0.192500  0.550000  0.339500  1.0  -0.0311
  C  C187  1  0.217200  0.550800  0.302600  1.0  -0.0116
  C  C188  1  0.236100  0.488200  0.284900  1.0  0.001
  C  C189  1  0.230200  0.424700  0.304200  1.0  -0.0034
  C  C190  1  0.205500  0.423900  0.341200  1.0  -0.048
  C  C191  1  0.223300  0.616600  0.282600  1.0  0.611
  C  C192  1  0.249800  0.359900  0.285900  1.0  0.6569
  C  C193  1  0.976700  0.568100  0.966400  1.0  -0.1962
  C  C194  1  0.952500  0.636300  0.966400  1.0  0.0884
  C  C195  1  0.939100  0.675100  0.927900  1.0  0.5356
  C  C196  1  0.986500  0.686700  0.858800  1.0  0.1058
  C  C197  1  0.050000  0.692500  0.839500  1.0  -0.0294
  C  C198  1  0.050800  0.717200  0.802600  1.0  -0.0121
  C  C199  1  0.988200  0.736100  0.784900  1.0  0.0018
  C  C200  1  0.924700  0.730200  0.804200  1.0  -0.0045
  C  C201  1  0.923900  0.705500  0.841200  1.0  -0.05
  C  C202  1  0.116600  0.723300  0.782600  1.0  0.6062
  C  C203  1  0.859900  0.749800  0.785900  1.0  0.6537
  C  C204  1  0.023300  0.431900  0.966400  1.0  -0.1945
  C  C205  1  0.047500  0.363700  0.966400  1.0  0.0873
  C  C206  1  0.060900  0.324900  0.927900  1.0  0.5368
  C  C207  1  0.013500  0.313300  0.858800  1.0  0.106
  C  C208  1  0.950000  0.307500  0.839500  1.0  -0.0305
  C  C209  1  0.949200  0.282800  0.802600  1.0  -0.0121
  C  C210  1  0.011800  0.263900  0.784900  1.0  0.0026
  C  C211  1  0.075300  0.269800  0.804200  1.0  -0.0039
  C  C212  1  0.076100  0.294500  0.841200  1.0  -0.0502
  C  C213  1  0.883400  0.276700  0.782600  1.0  0.6064
  C  C214  1  0.140100  0.250200  0.785900  1.0  0.6516
  C  C215  1  0.431900  0.976700  0.966400  1.0  -0.1951
  C  C216  1  0.363700  0.952500  0.966400  1.0  0.0874
  C  C217  1  0.324900  0.939100  0.927900  1.0  0.5333
  C  C218  1  0.313300  0.986500  0.858800  1.0  0.1052
  C  C219  1  0.307500  0.050000  0.839500  1.0  -0.0308
  C  C220  1  0.282800  0.050800  0.802600  1.0  -0.0117
  C  C221  1  0.263900  0.988200  0.784900  1.0  0.0027
  C  C222  1  0.269800  0.924700  0.804200  1.0  -0.0035
  C  C223  1  0.294500  0.923900  0.841200  1.0  -0.048
  C  C224  1  0.276700  0.116600  0.782600  1.0  0.6116
  C  C225  1  0.250200  0.859900  0.785900  1.0  0.657
  C  C226  1  0.568100  0.023300  0.966400  1.0  -0.1941
  C  C227  1  0.636300  0.047500  0.966400  1.0  0.0874
  C  C228  1  0.675100  0.060900  0.927900  1.0  0.5343
  C  C229  1  0.686700  0.013500  0.858800  1.0  0.1056
  C  C230  1  0.692500  0.950000  0.839500  1.0  -0.0295
  C  C231  1  0.717200  0.949200  0.802600  1.0  -0.0112
  C  C232  1  0.736100  0.011800  0.784900  1.0  0.001
  C  C233  1  0.730200  0.075300  0.804200  1.0  -0.004
  C  C234  1  0.705500  0.076100  0.841200  1.0  -0.0499
  C  C235  1  0.723300  0.883400  0.782600  1.0  0.6112
  C  C236  1  0.749800  0.140100  0.785900  1.0  0.6579
  C  C237  1  0.523300  0.068100  0.533600  1.0  -0.1952
  C  C238  1  0.547500  0.136300  0.533600  1.0  0.0873
  C  C239  1  0.560900  0.175100  0.572100  1.0  0.5361
  C  C240  1  0.513500  0.186700  0.641200  1.0  0.1055
  C  C241  1  0.450000  0.192500  0.660500  1.0  -0.03
  C  C242  1  0.449200  0.217200  0.697400  1.0  -0.0121
  C  C243  1  0.511800  0.236100  0.715100  1.0  0.0012
  C  C244  1  0.575300  0.230200  0.695800  1.0  -0.0037
  C  C245  1  0.576100  0.205500  0.658800  1.0  -0.0505
  C  C246  1  0.383400  0.223300  0.717400  1.0  0.6066
  C  C247  1  0.640100  0.249800  0.714100  1.0  0.6513
  C  C248  1  0.476700  0.931900  0.533600  1.0  -0.196
  C  C249  1  0.452500  0.863700  0.533600  1.0  0.0883
  C  C250  1  0.439100  0.824900  0.572100  1.0  0.5362
  C  C251  1  0.486500  0.813300  0.641200  1.0  0.106
  C  C252  1  0.550000  0.807500  0.660500  1.0  -0.0294
  C  C253  1  0.550800  0.782800  0.697400  1.0  -0.0122
  C  C254  1  0.488200  0.763900  0.715100  1.0  0.0017
  C  C255  1  0.424700  0.769800  0.695800  1.0  -0.0044
  C  C256  1  0.423900  0.794500  0.658800  1.0  -0.0504
  C  C257  1  0.616600  0.776700  0.717400  1.0  0.6061
  C  C258  1  0.359900  0.750200  0.714100  1.0  0.6534
  C  C259  1  0.068100  0.476700  0.533600  1.0  -0.1951
  C  C260  1  0.136300  0.452500  0.533600  1.0  0.0877
  C  C261  1  0.175100  0.439100  0.572100  1.0  0.5343
  C  C262  1  0.186700  0.486500  0.641200  1.0  0.1054
  C  C263  1  0.192500  0.550000  0.660500  1.0  -0.0306
  C  C264  1  0.217200  0.550800  0.697400  1.0  -0.0116
  C  C265  1  0.236100  0.488200  0.715100  1.0  0.0021
  C  C266  1  0.230200  0.424700  0.695800  1.0  -0.0032
  C  C267  1  0.205500  0.423900  0.658800  1.0  -0.0478
  C  C268  1  0.223300  0.616600  0.717400  1.0  0.6111
  C  C269  1  0.249800  0.359900  0.714100  1.0  0.6566
  C  C270  1  0.931900  0.523300  0.533600  1.0  -0.1947
  C  C271  1  0.863700  0.547500  0.533600  1.0  0.0893
  C  C272  1  0.824900  0.560900  0.572100  1.0  0.5332
  C  C273  1  0.813300  0.513500  0.641200  1.0  0.1057
  C  C274  1  0.807500  0.450000  0.660500  1.0  -0.0295
  C  C275  1  0.782800  0.449200  0.697400  1.0  -0.0112
  C  C276  1  0.763900  0.511800  0.715100  1.0  0.0011
  C  C277  1  0.769800  0.575300  0.695800  1.0  -0.0038
  C  C278  1  0.794500  0.576100  0.658800  1.0  -0.05
  C  C279  1  0.776700  0.383400  0.717400  1.0  0.6119
  C  C280  1  0.750200  0.640100  0.714100  1.0  0.6576
  C  C281  1  0.011200  0.465900  0.000000  1.0  0.1408
  C  C282  1  0.059500  0.329600  0.000000  1.0  -0.0091
  C  C283  1  0.988800  0.534100  0.000000  1.0  0.1405
  C  C284  1  0.940500  0.670400  0.000000  1.0  -0.0094
  C  C285  1  0.534100  0.011200  0.000000  1.0  0.1408
  C  C286  1  0.670400  0.059500  0.000000  1.0  -0.0074
  C  C287  1  0.465900  0.988800  0.000000  1.0  0.1403
  C  C288  1  0.329600  0.940500  0.000000  1.0  -0.0074
  C  C289  1  0.488800  0.965900  0.500000  1.0  0.1405
  C  C290  1  0.440500  0.829600  0.500000  1.0  -0.0128
  C  C291  1  0.511200  0.034100  0.500000  1.0  0.1408
  C  C292  1  0.559500  0.170400  0.500000  1.0  -0.0129
  C  C293  1  0.965900  0.511200  0.500000  1.0  0.1405
  C  C294  1  0.829600  0.559500  0.500000  1.0  -0.0107
  C  C295  1  0.034100  0.488800  0.500000  1.0  0.1406
  C  C296  1  0.170400  0.440500  0.500000  1.0  -0.0106
  N  N297  1  0.008000  0.329000  0.097100  1.0  -0.4638
  N  N298  1  0.992000  0.671000  0.097100  1.0  -0.4653
  N  N299  1  0.671000  0.008000  0.097100  1.0  -0.4638
  N  N300  1  0.329000  0.992000  0.097100  1.0  -0.4654
  N  N301  1  0.492000  0.829000  0.402900  1.0  -0.4653
  N  N302  1  0.508000  0.171000  0.402900  1.0  -0.4644
  N  N303  1  0.829000  0.508000  0.402900  1.0  -0.4648
  N  N304  1  0.171000  0.492000  0.402900  1.0  -0.465
  N  N305  1  0.992000  0.671000  0.902900  1.0  -0.4655
  N  N306  1  0.008000  0.329000  0.902900  1.0  -0.4638
  N  N307  1  0.329000  0.992000  0.902900  1.0  -0.4654
  N  N308  1  0.671000  0.008000  0.902900  1.0  -0.4642
  N  N309  1  0.508000  0.171000  0.597100  1.0  -0.4643
  N  N310  1  0.492000  0.829000  0.597100  1.0  -0.4651
  N  N311  1  0.171000  0.492000  0.597100  1.0  -0.4644
  N  N312  1  0.829000  0.508000  0.597100  1.0  -0.4649
  O  O313  1  0.106000  0.274000  0.071500  1.0  -0.4941
  O  O314  1  0.822800  0.295000  0.204100  1.0  -0.6254
  O  O315  1  0.876500  0.252000  0.251200  1.0  -0.5957
  O  O316  1  0.202200  0.267000  0.202400  1.0  -0.6311
  O  O317  1  0.145000  0.213000  0.244500  1.0  -0.6354
  O  O318  1  0.894000  0.726000  0.071500  1.0  -0.4915
  O  O319  1  0.177200  0.705000  0.204100  1.0  -0.6271
  O  O320  1  0.123500  0.748000  0.251200  1.0  -0.595
  O  O321  1  0.797800  0.733000  0.202400  1.0  -0.6289
  O  O322  1  0.855000  0.787000  0.244500  1.0  -0.6359
  O  O323  1  0.726000  0.106000  0.071500  1.0  -0.4942
  O  O324  1  0.705000  0.822800  0.204100  1.0  -0.626
  O  O325  1  0.748000  0.876500  0.251200  1.0  -0.5944
  O  O326  1  0.733000  0.202200  0.202400  1.0  -0.6296
  O  O327  1  0.787000  0.145000  0.244500  1.0  -0.6346
  O  O328  1  0.274000  0.894000  0.071500  1.0  -0.4934
  O  O329  1  0.295000  0.177200  0.204100  1.0  -0.6268
  O  O330  1  0.252000  0.123500  0.251200  1.0  -0.5942
  O  O331  1  0.267000  0.797800  0.202400  1.0  -0.6289
  O  O332  1  0.213000  0.855000  0.244500  1.0  -0.6358
  O  O333  1  0.394000  0.774000  0.428500  1.0  -0.4932
  O  O334  1  0.677200  0.795000  0.295900  1.0  -0.626
  O  O335  1  0.623500  0.752000  0.248800  1.0  -0.5948
  O  O336  1  0.297800  0.767000  0.297600  1.0  -0.6288
  O  O337  1  0.355000  0.713000  0.255500  1.0  -0.6318
  O  O338  1  0.606000  0.226000  0.428500  1.0  -0.4954
  O  O339  1  0.322800  0.205000  0.295900  1.0  -0.6253
  O  O340  1  0.376500  0.248000  0.248800  1.0  -0.5958
  O  O341  1  0.702200  0.233000  0.297600  1.0  -0.6281
  O  O342  1  0.645000  0.287000  0.255500  1.0  -0.6342
  O  O343  1  0.774000  0.606000  0.428500  1.0  -0.4924
  O  O344  1  0.795000  0.322800  0.295900  1.0  -0.6256
  O  O345  1  0.752000  0.376500  0.248800  1.0  -0.5958
  O  O346  1  0.767000  0.702200  0.297600  1.0  -0.6282
  O  O347  1  0.713000  0.645000  0.255500  1.0  -0.6311
  O  O348  1  0.226000  0.394000  0.428500  1.0  -0.4943
  O  O349  1  0.205000  0.677200  0.295900  1.0  -0.6256
  O  O350  1  0.248000  0.623500  0.248800  1.0  -0.5936
  O  O351  1  0.233000  0.297800  0.297600  1.0  -0.6273
  O  O352  1  0.287000  0.355000  0.255500  1.0  -0.6345
  O  O353  1  0.894000  0.726000  0.928500  1.0  -0.4919
  O  O354  1  0.177200  0.705000  0.795900  1.0  -0.626
  O  O355  1  0.123500  0.748000  0.748800  1.0  -0.5955
  O  O356  1  0.797800  0.733000  0.797600  1.0  -0.6275
  O  O357  1  0.855000  0.787000  0.755500  1.0  -0.6339
  O  O358  1  0.106000  0.274000  0.928500  1.0  -0.4943
  O  O359  1  0.822800  0.295000  0.795900  1.0  -0.6253
  O  O360  1  0.876500  0.252000  0.748800  1.0  -0.5955
  O  O361  1  0.202200  0.267000  0.797600  1.0  -0.6293
  O  O362  1  0.145000  0.213000  0.755500  1.0  -0.6317
  O  O363  1  0.274000  0.894000  0.928500  1.0  -0.4934
  O  O364  1  0.295000  0.177200  0.795900  1.0  -0.626
  O  O365  1  0.252000  0.123500  0.748800  1.0  -0.5943
  O  O366  1  0.267000  0.797800  0.797600  1.0  -0.6272
  O  O367  1  0.213000  0.855000  0.755500  1.0  -0.6337
  O  O368  1  0.726000  0.106000  0.928500  1.0  -0.4949
  O  O369  1  0.705000  0.822800  0.795900  1.0  -0.6251
  O  O370  1  0.748000  0.876500  0.748800  1.0  -0.5946
  O  O371  1  0.733000  0.202200  0.797600  1.0  -0.6287
  O  O372  1  0.787000  0.145000  0.755500  1.0  -0.632
  O  O373  1  0.606000  0.226000  0.571500  1.0  -0.4948
  O  O374  1  0.322800  0.205000  0.704100  1.0  -0.6264
  O  O375  1  0.376500  0.248000  0.751200  1.0  -0.5962
  O  O376  1  0.702200  0.233000  0.702400  1.0  -0.6299
  O  O377  1  0.645000  0.287000  0.744500  1.0  -0.6365
  O  O378  1  0.394000  0.774000  0.571500  1.0  -0.4931
  O  O379  1  0.677200  0.795000  0.704100  1.0  -0.6264
  O  O380  1  0.623500  0.752000  0.751200  1.0  -0.5941
  O  O381  1  0.297800  0.767000  0.702400  1.0  -0.6298
  O  O382  1  0.355000  0.713000  0.744500  1.0  -0.6344
  O  O383  1  0.226000  0.394000  0.571500  1.0  -0.494
  O  O384  1  0.205000  0.677200  0.704100  1.0  -0.6252
  O  O385  1  0.248000  0.623500  0.751200  1.0  -0.5935
  O  O386  1  0.233000  0.297800  0.702400  1.0  -0.6283
  O  O387  1  0.287000  0.355000  0.744500  1.0  -0.6358
  O  O388  1  0.774000  0.606000  0.571500  1.0  -0.4921
  O  O389  1  0.795000  0.322800  0.704100  1.0  -0.6278
  O  O390  1  0.752000  0.376500  0.751200  1.0  -0.5954
  O  O391  1  0.767000  0.702200  0.702400  1.0  -0.6301
  O  O392  1  0.713000  0.645000  0.744500  1.0  -0.6351
