# generated using pymatgen
data_Cu2H11C24(NO5)2
_symmetry_space_group_name_H-M   'P 1'
_cell_length_a   18.74710000
_cell_length_b   18.74710000
_cell_length_c   34.83390000
_cell_angle_alpha   90.00000000
_cell_angle_beta   90.00000000
_cell_angle_gamma   90.00000000
_symmetry_Int_Tables_number   1
_chemical_formula_structural   Cu2H11C24(NO5)2
_chemical_formula_sum   'Cu16 H88 C192 N16 O80'
_cell_volume   12242.50507508
_cell_formula_units_Z   8
loop_
 _symmetry_equiv_pos_site_id
 _symmetry_equiv_pos_as_xyz
  1  'x, y, z'
loop_
 _atom_site_type_symbol
 _atom_site_label
 _atom_site_symmetry_multiplicity
 _atom_site_fract_x
 _atom_site_fract_y
 _atom_site_fract_z
 _atom_site_occupancy
 _atom_site_charge
  Cu  Cu1  1  0.794800  0.241900  0.274000  1.0  0.854
  Cu  Cu2  1  0.205200  0.758100  0.274000  1.0  0.8536
  Cu  Cu3  1  0.758100  0.794800  0.274000  1.0  0.8567
  Cu  Cu4  1  0.241900  0.205200  0.274000  1.0  0.8496
  Cu  Cu5  1  0.705200  0.741900  0.226000  1.0  0.8554
  Cu  Cu6  1  0.294800  0.258100  0.226000  1.0  0.8584
  Cu  Cu7  1  0.741900  0.294800  0.226000  1.0  0.8562
  Cu  Cu8  1  0.258100  0.705200  0.226000  1.0  0.8574
  Cu  Cu9  1  0.205200  0.758100  0.726000  1.0  0.858
  Cu  Cu10  1  0.794800  0.241900  0.726000  1.0  0.8564
  Cu  Cu11  1  0.241900  0.205200  0.726000  1.0  0.8552
  Cu  Cu12  1  0.758100  0.794800  0.726000  1.0  0.858
  Cu  Cu13  1  0.294800  0.258100  0.774000  1.0  0.8572
  Cu  Cu14  1  0.705200  0.741900  0.774000  1.0  0.8507
  Cu  Cu15  1  0.258100  0.705200  0.774000  1.0  0.8538
  Cu  Cu16  1  0.741900  0.294800  0.774000  1.0  0.8518
  H  H17  1  0.013600  0.454300  0.057200  1.0  0.1121
  H  H18  1  0.982000  0.367000  0.092200  1.0  0.3874
  H  H19  1  0.905600  0.308600  0.148600  1.0  0.1326
  H  H20  1  0.014900  0.250500  0.244800  1.0  0.1307
  H  H21  1  0.122400  0.292200  0.145500  1.0  0.1268
  H  H22  1  0.986400  0.545700  0.057200  1.0  0.1119
  H  H23  1  0.018000  0.633000  0.092200  1.0  0.3881
  H  H24  1  0.094400  0.691400  0.148600  1.0  0.1323
  H  H25  1  0.985100  0.749500  0.244800  1.0  0.1305
  H  H26  1  0.877600  0.707800  0.145500  1.0  0.125
  H  H27  1  0.545700  0.013600  0.057200  1.0  0.113
  H  H28  1  0.633000  0.982000  0.092200  1.0  0.3908
  H  H29  1  0.691400  0.905600  0.148600  1.0  0.1328
  H  H30  1  0.749500  0.014900  0.244800  1.0  0.1307
  H  H31  1  0.707800  0.122400  0.145500  1.0  0.1259
  H  H32  1  0.454300  0.986400  0.057200  1.0  0.1133
  H  H33  1  0.367000  0.018000  0.092200  1.0  0.3876
  H  H34  1  0.308600  0.094400  0.148600  1.0  0.1328
  H  H35  1  0.250500  0.985100  0.244800  1.0  0.131
  H  H36  1  0.292200  0.877600  0.145500  1.0  0.1265
  H  H37  1  0.486400  0.954300  0.442800  1.0  0.1116
  H  H38  1  0.518000  0.867000  0.407800  1.0  0.386
  H  H39  1  0.594400  0.808600  0.351400  1.0  0.1323
  H  H40  1  0.485100  0.750500  0.255200  1.0  0.131
  H  H41  1  0.377600  0.792200  0.354500  1.0  0.1264
  H  H42  1  0.513600  0.045700  0.442800  1.0  0.1121
  H  H43  1  0.482000  0.133000  0.407800  1.0  0.3881
  H  H44  1  0.405600  0.191400  0.351400  1.0  0.1326
  H  H45  1  0.514900  0.249500  0.255200  1.0  0.1309
  H  H46  1  0.622400  0.207800  0.354500  1.0  0.1266
  H  H47  1  0.954300  0.513600  0.442800  1.0  0.1116
  H  H48  1  0.867000  0.482000  0.407800  1.0  0.3897
  H  H49  1  0.808600  0.405600  0.351400  1.0  0.1325
  H  H50  1  0.750500  0.514900  0.255200  1.0  0.131
  H  H51  1  0.792200  0.622400  0.354500  1.0  0.126
  H  H52  1  0.045700  0.486400  0.442800  1.0  0.1112
  H  H53  1  0.133000  0.518000  0.407800  1.0  0.389
  H  H54  1  0.191400  0.594400  0.351400  1.0  0.133
  H  H55  1  0.249500  0.485100  0.255200  1.0  0.1308
  H  H56  1  0.207800  0.377600  0.354500  1.0  0.1262
  H  H57  1  0.986400  0.545700  0.942800  1.0  0.1114
  H  H58  1  0.018000  0.633000  0.907800  1.0  0.3881
  H  H59  1  0.094400  0.691400  0.851400  1.0  0.1323
  H  H60  1  0.985100  0.749500  0.755200  1.0  0.1311
  H  H61  1  0.877600  0.707800  0.854500  1.0  0.1262
  H  H62  1  0.013600  0.454300  0.942800  1.0  0.1109
  H  H63  1  0.982000  0.367000  0.907800  1.0  0.3883
  H  H64  1  0.905600  0.308600  0.851400  1.0  0.1326
  H  H65  1  0.014900  0.250500  0.755200  1.0  0.1308
  H  H66  1  0.122400  0.292200  0.854500  1.0  0.1268
  H  H67  1  0.454300  0.986400  0.942800  1.0  0.1121
  H  H68  1  0.367000  0.018000  0.907800  1.0  0.3871
  H  H69  1  0.308600  0.094400  0.851400  1.0  0.133
  H  H70  1  0.250500  0.985100  0.755200  1.0  0.131
  H  H71  1  0.292200  0.877600  0.854500  1.0  0.126
  H  H72  1  0.545700  0.013600  0.942800  1.0  0.1119
  H  H73  1  0.633000  0.982000  0.907800  1.0  0.3902
  H  H74  1  0.691400  0.905600  0.851400  1.0  0.1328
  H  H75  1  0.749500  0.014900  0.755200  1.0  0.1308
  H  H76  1  0.707800  0.122400  0.854500  1.0  0.1259
  H  H77  1  0.513600  0.045700  0.557200  1.0  0.1129
  H  H78  1  0.482000  0.133000  0.592200  1.0  0.3887
  H  H79  1  0.405600  0.191400  0.648600  1.0  0.1324
  H  H80  1  0.514900  0.249500  0.744800  1.0  0.1305
  H  H81  1  0.622400  0.207800  0.645500  1.0  0.127
  H  H82  1  0.486400  0.954300  0.557200  1.0  0.1129
  H  H83  1  0.518000  0.867000  0.592200  1.0  0.3864
  H  H84  1  0.594400  0.808600  0.648600  1.0  0.1324
  H  H85  1  0.485100  0.750500  0.744800  1.0  0.1308
  H  H86  1  0.377600  0.792200  0.645500  1.0  0.1271
  H  H87  1  0.045700  0.486400  0.557200  1.0  0.1126
  H  H88  1  0.133000  0.518000  0.592200  1.0  0.3888
  H  H89  1  0.191400  0.594400  0.648600  1.0  0.1328
  H  H90  1  0.249500  0.485100  0.744800  1.0  0.1306
  H  H91  1  0.207800  0.377600  0.645500  1.0  0.1259
  H  H92  1  0.954300  0.513600  0.557200  1.0  0.1124
  H  H93  1  0.867000  0.482000  0.592200  1.0  0.3888
  H  H94  1  0.808600  0.405600  0.648600  1.0  0.1325
  H  H95  1  0.750500  0.514900  0.744800  1.0  0.1311
  H  H96  1  0.792200  0.622400  0.645500  1.0  0.126
  H  H97  1  0.083500  0.284100  0.000000  1.0  0.1285
  H  H98  1  0.916500  0.715900  0.000000  1.0  0.1281
  H  H99  1  0.715900  0.083500  0.000000  1.0  0.1288
  H  H100  1  0.284100  0.916500  0.000000  1.0  0.1288
  H  H101  1  0.416500  0.784100  0.500000  1.0  0.1285
  H  H102  1  0.583500  0.215900  0.500000  1.0  0.1287
  H  H103  1  0.784100  0.583500  0.500000  1.0  0.1278
  H  H104  1  0.215900  0.416500  0.500000  1.0  0.1287
  C  C105  1  0.023000  0.431300  0.034000  1.0  -0.2104
  C  C106  1  0.050800  0.363700  0.034000  1.0  0.0602
  C  C107  1  0.056200  0.315100  0.070000  1.0  0.3606
  C  C108  1  0.013900  0.303800  0.140200  1.0  0.0193
  C  C109  1  0.948500  0.298800  0.160800  1.0  0.0016
  C  C110  1  0.948900  0.278700  0.200300  1.0  -0.0348
  C  C111  1  0.014700  0.263700  0.219100  1.0  -0.0406
  C  C112  1  0.080100  0.268700  0.198400  1.0  -0.0435
  C  C113  1  0.079700  0.288800  0.159000  1.0  -0.0427
  C  C114  1  0.885100  0.273700  0.220400  1.0  0.7036
  C  C115  1  0.144300  0.254100  0.216800  1.0  0.7346
  C  C116  1  0.977000  0.568700  0.034000  1.0  -0.2098
  C  C117  1  0.949200  0.636300  0.034000  1.0  0.0612
  C  C118  1  0.943800  0.684900  0.070000  1.0  0.3556
  C  C119  1  0.986100  0.696200  0.140200  1.0  0.0202
  C  C120  1  0.051500  0.701200  0.160800  1.0  0.003
  C  C121  1  0.051100  0.721300  0.200300  1.0  -0.0346
  C  C122  1  0.985300  0.736300  0.219100  1.0  -0.0414
  C  C123  1  0.919900  0.731300  0.198400  1.0  -0.0435
  C  C124  1  0.920300  0.711200  0.159000  1.0  -0.0401
  C  C125  1  0.114900  0.726300  0.220400  1.0  0.7066
  C  C126  1  0.855700  0.745900  0.216800  1.0  0.7337
  C  C127  1  0.568700  0.023000  0.034000  1.0  -0.2108
  C  C128  1  0.636300  0.050800  0.034000  1.0  0.0608
  C  C129  1  0.684900  0.056200  0.070000  1.0  0.3596
  C  C130  1  0.696200  0.013900  0.140200  1.0  0.0208
  C  C131  1  0.701200  0.948500  0.160800  1.0  0.0042
  C  C132  1  0.721300  0.948900  0.200300  1.0  -0.0342
  C  C133  1  0.736300  0.014700  0.219100  1.0  -0.0408
  C  C134  1  0.731300  0.080100  0.198400  1.0  -0.0432
  C  C135  1  0.711200  0.079700  0.159000  1.0  -0.0393
  C  C136  1  0.726300  0.885100  0.220400  1.0  0.707
  C  C137  1  0.745900  0.144300  0.216800  1.0  0.736
  C  C138  1  0.431300  0.977000  0.034000  1.0  -0.2099
  C  C139  1  0.363700  0.949200  0.034000  1.0  0.0591
  C  C140  1  0.315100  0.943800  0.070000  1.0  0.3587
  C  C141  1  0.303800  0.986100  0.140200  1.0  0.0197
  C  C142  1  0.298800  0.051500  0.160800  1.0  0.0017
  C  C143  1  0.278700  0.051100  0.200300  1.0  -0.0344
  C  C144  1  0.263700  0.985300  0.219100  1.0  -0.0417
  C  C145  1  0.268700  0.919900  0.198400  1.0  -0.0434
  C  C146  1  0.288800  0.920300  0.159000  1.0  -0.0382
  C  C147  1  0.273700  0.114900  0.220400  1.0  0.7049
  C  C148  1  0.254100  0.855700  0.216800  1.0  0.7352
  C  C149  1  0.477000  0.931300  0.466000  1.0  -0.2117
  C  C150  1  0.449200  0.863700  0.466000  1.0  0.06
  C  C151  1  0.443800  0.815100  0.430000  1.0  0.3588
  C  C152  1  0.486100  0.803800  0.359800  1.0  0.0194
  C  C153  1  0.551500  0.798800  0.339200  1.0  0.0034
  C  C154  1  0.551100  0.778700  0.299700  1.0  -0.0345
  C  C155  1  0.485300  0.763700  0.280900  1.0  -0.0403
  C  C156  1  0.419900  0.768700  0.301600  1.0  -0.0435
  C  C157  1  0.420300  0.788800  0.341000  1.0  -0.0425
  C  C158  1  0.614900  0.773700  0.279600  1.0  0.7102
  C  C159  1  0.355700  0.754100  0.283200  1.0  0.7337
  C  C160  1  0.523000  0.068700  0.466000  1.0  -0.2099
  C  C161  1  0.550800  0.136300  0.466000  1.0  0.0619
  C  C162  1  0.556200  0.184900  0.430000  1.0  0.3562
  C  C163  1  0.513900  0.196200  0.359800  1.0  0.0219
  C  C164  1  0.448500  0.201200  0.339200  1.0  0.0013
  C  C165  1  0.448900  0.221300  0.299700  1.0  -0.0347
  C  C166  1  0.514700  0.236300  0.280900  1.0  -0.0412
  C  C167  1  0.580100  0.231300  0.301600  1.0  -0.0432
  C  C168  1  0.579700  0.211200  0.341000  1.0  -0.0428
  C  C169  1  0.385100  0.226300  0.279600  1.0  0.7051
  C  C170  1  0.644300  0.245900  0.283200  1.0  0.7346
  C  C171  1  0.931300  0.523000  0.466000  1.0  -0.2118
  C  C172  1  0.863700  0.550800  0.466000  1.0  0.0614
  C  C173  1  0.815100  0.556200  0.430000  1.0  0.3573
  C  C174  1  0.803800  0.513900  0.359800  1.0  0.02
  C  C175  1  0.798800  0.448500  0.339200  1.0  0.0046
  C  C176  1  0.778700  0.448900  0.299700  1.0  -0.0342
  C  C177  1  0.763700  0.514700  0.280900  1.0  -0.0403
  C  C178  1  0.768700  0.580100  0.301600  1.0  -0.0432
  C  C179  1  0.788800  0.579700  0.341000  1.0  -0.0406
  C  C180  1  0.773700  0.385100  0.279600  1.0  0.7058
  C  C181  1  0.754100  0.644300  0.283200  1.0  0.7356
  C  C182  1  0.068700  0.477000  0.466000  1.0  -0.212
  C  C183  1  0.136300  0.449200  0.466000  1.0  0.06
  C  C184  1  0.184900  0.443800  0.430000  1.0  0.3593
  C  C185  1  0.196200  0.486100  0.359800  1.0  0.0204
  C  C186  1  0.201200  0.551500  0.339200  1.0  0.0018
  C  C187  1  0.221300  0.551100  0.299700  1.0  -0.0343
  C  C188  1  0.236300  0.485300  0.280900  1.0  -0.0413
  C  C189  1  0.231300  0.419900  0.301600  1.0  -0.0432
  C  C190  1  0.211200  0.420300  0.341000  1.0  -0.0382
  C  C191  1  0.226300  0.614900  0.279600  1.0  0.7053
  C  C192  1  0.245900  0.355700  0.283200  1.0  0.7355
  C  C193  1  0.977000  0.568700  0.966000  1.0  -0.2105
  C  C194  1  0.949200  0.636300  0.966000  1.0  0.0612
  C  C195  1  0.943800  0.684900  0.930000  1.0  0.3558
  C  C196  1  0.986100  0.696200  0.859800  1.0  0.0204
  C  C197  1  0.051500  0.701200  0.839200  1.0  0.0031
  C  C198  1  0.051100  0.721300  0.799700  1.0  -0.0345
  C  C199  1  0.985300  0.736300  0.780900  1.0  -0.0412
  C  C200  1  0.919900  0.731300  0.801600  1.0  -0.0434
  C  C201  1  0.920300  0.711200  0.841000  1.0  -0.0406
  C  C202  1  0.114900  0.726300  0.779600  1.0  0.7055
  C  C203  1  0.855700  0.745900  0.783200  1.0  0.7337
  C  C204  1  0.023000  0.431300  0.966000  1.0  -0.2115
  C  C205  1  0.050800  0.363700  0.966000  1.0  0.0613
  C  C206  1  0.056200  0.315100  0.930000  1.0  0.3595
  C  C207  1  0.013900  0.303800  0.859800  1.0  0.0192
  C  C208  1  0.948500  0.298800  0.839200  1.0  0.0015
  C  C209  1  0.948900  0.278700  0.799700  1.0  -0.0347
  C  C210  1  0.014700  0.263700  0.780900  1.0  -0.0403
  C  C211  1  0.080100  0.268700  0.801600  1.0  -0.0434
  C  C212  1  0.079700  0.288800  0.841000  1.0  -0.0429
  C  C213  1  0.885100  0.273700  0.779600  1.0  0.7039
  C  C214  1  0.144300  0.254100  0.783200  1.0  0.7347
  C  C215  1  0.431300  0.977000  0.966000  1.0  -0.2127
  C  C216  1  0.363700  0.949200  0.966000  1.0  0.0591
  C  C217  1  0.315100  0.943800  0.930000  1.0  0.3569
  C  C218  1  0.303800  0.986100  0.859800  1.0  0.0196
  C  C219  1  0.298800  0.051500  0.839200  1.0  0.0021
  C  C220  1  0.278700  0.051100  0.799700  1.0  -0.0343
  C  C221  1  0.263700  0.985300  0.780900  1.0  -0.0402
  C  C222  1  0.268700  0.919900  0.801600  1.0  -0.0433
  C  C223  1  0.288800  0.920300  0.841000  1.0  -0.0393
  C  C224  1  0.273700  0.114900  0.779600  1.0  0.7088
  C  C225  1  0.254100  0.855700  0.783200  1.0  0.7351
  C  C226  1  0.568700  0.023000  0.966000  1.0  -0.2095
  C  C227  1  0.636300  0.050800  0.966000  1.0  0.0616
  C  C228  1  0.684900  0.056200  0.930000  1.0  0.358
  C  C229  1  0.696200  0.013900  0.859800  1.0  0.0221
  C  C230  1  0.701200  0.948500  0.839200  1.0  0.0041
  C  C231  1  0.721300  0.948900  0.799700  1.0  -0.0342
  C  C232  1  0.736300  0.014700  0.780900  1.0  -0.0413
  C  C233  1  0.731300  0.080100  0.801600  1.0  -0.0431
  C  C234  1  0.711200  0.079700  0.841000  1.0  -0.04
  C  C235  1  0.726300  0.885100  0.779600  1.0  0.7071
  C  C236  1  0.745900  0.144300  0.783200  1.0  0.736
  C  C237  1  0.523000  0.068700  0.534000  1.0  -0.2111
  C  C238  1  0.550800  0.136300  0.534000  1.0  0.0608
  C  C239  1  0.556200  0.184900  0.570000  1.0  0.3569
  C  C240  1  0.513900  0.196200  0.640200  1.0  0.0206
  C  C241  1  0.448500  0.201200  0.660800  1.0  0.0012
  C  C242  1  0.448900  0.221300  0.700300  1.0  -0.0348
  C  C243  1  0.514700  0.236300  0.719100  1.0  -0.0412
  C  C244  1  0.580100  0.231300  0.698400  1.0  -0.0434
  C  C245  1  0.579700  0.211200  0.659000  1.0  -0.0418
  C  C246  1  0.385100  0.226300  0.720400  1.0  0.705
  C  C247  1  0.644300  0.245900  0.716800  1.0  0.7345
  C  C248  1  0.477000  0.931300  0.534000  1.0  -0.2089
  C  C249  1  0.449200  0.863700  0.534000  1.0  0.0601
  C  C250  1  0.443800  0.815100  0.570000  1.0  0.3592
  C  C251  1  0.486100  0.803800  0.640200  1.0  0.0195
  C  C252  1  0.551500  0.798800  0.660800  1.0  0.0034
  C  C253  1  0.551100  0.778700  0.700300  1.0  -0.0346
  C  C254  1  0.485300  0.763700  0.719100  1.0  -0.0408
  C  C255  1  0.419900  0.768700  0.698400  1.0  -0.0436
  C  C256  1  0.420300  0.788800  0.659000  1.0  -0.041
  C  C257  1  0.614900  0.773700  0.720400  1.0  0.7054
  C  C258  1  0.355700  0.754100  0.716800  1.0  0.7339
  C  C259  1  0.068700  0.477000  0.534000  1.0  -0.2096
  C  C260  1  0.136300  0.449200  0.534000  1.0  0.0598
  C  C261  1  0.184900  0.443800  0.570000  1.0  0.3601
  C  C262  1  0.196200  0.486100  0.640200  1.0  0.0202
  C  C263  1  0.201200  0.551500  0.660800  1.0  0.0017
  C  C264  1  0.221300  0.551100  0.700300  1.0  -0.0343
  C  C265  1  0.236300  0.485300  0.719100  1.0  -0.0408
  C  C266  1  0.231300  0.419900  0.698400  1.0  -0.0433
  C  C267  1  0.211200  0.420300  0.659000  1.0  -0.0361
  C  C268  1  0.226300  0.614900  0.720400  1.0  0.7065
  C  C269  1  0.245900  0.355700  0.716800  1.0  0.7356
  C  C270  1  0.931300  0.523000  0.534000  1.0  -0.2109
  C  C271  1  0.863700  0.550800  0.534000  1.0  0.0609
  C  C272  1  0.815100  0.556200  0.570000  1.0  0.3583
  C  C273  1  0.803800  0.513900  0.640200  1.0  0.0194
  C  C274  1  0.798800  0.448500  0.660800  1.0  0.0045
  C  C275  1  0.778700  0.448900  0.700300  1.0  -0.0342
  C  C276  1  0.763700  0.514700  0.719100  1.0  -0.0417
  C  C277  1  0.768700  0.580100  0.698400  1.0  -0.0433
  C  C278  1  0.788800  0.579700  0.659000  1.0  -0.0408
  C  C279  1  0.773700  0.385100  0.720400  1.0  0.7055
  C  C280  1  0.754100  0.644300  0.716800  1.0  0.7357
  C  C281  1  0.009200  0.465100  0.000000  1.0  0.0417
  C  C282  1  0.064600  0.330000  0.000000  1.0  -0.024
  C  C283  1  0.990800  0.534900  0.000000  1.0  0.0426
  C  C284  1  0.935400  0.670000  0.000000  1.0  -0.0239
  C  C285  1  0.534900  0.009200  0.000000  1.0  0.0422
  C  C286  1  0.670000  0.064600  0.000000  1.0  -0.0227
  C  C287  1  0.465100  0.990800  0.000000  1.0  0.0423
  C  C288  1  0.330000  0.935400  0.000000  1.0  -0.0236
  C  C289  1  0.490800  0.965100  0.500000  1.0  0.0422
  C  C290  1  0.435400  0.830000  0.500000  1.0  -0.0249
  C  C291  1  0.509200  0.034900  0.500000  1.0  0.0421
  C  C292  1  0.564600  0.170000  0.500000  1.0  -0.0237
  C  C293  1  0.965100  0.509200  0.500000  1.0  0.0419
  C  C294  1  0.830000  0.564600  0.500000  1.0  -0.0243
  C  C295  1  0.034900  0.490800  0.500000  1.0  0.0427
  C  C296  1  0.170000  0.435400  0.500000  1.0  -0.0242
  N  N297  1  0.009000  0.331000  0.096800  1.0  -0.4948
  N  N298  1  0.991000  0.669000  0.096800  1.0  -0.4951
  N  N299  1  0.669000  0.009000  0.096800  1.0  -0.4972
  N  N300  1  0.331000  0.991000  0.096800  1.0  -0.4946
  N  N301  1  0.491000  0.831000  0.403200  1.0  -0.4949
  N  N302  1  0.509000  0.169000  0.403200  1.0  -0.4959
  N  N303  1  0.831000  0.509000  0.403200  1.0  -0.4948
  N  N304  1  0.169000  0.491000  0.403200  1.0  -0.4974
  N  N305  1  0.991000  0.669000  0.903200  1.0  -0.4952
  N  N306  1  0.009000  0.331000  0.903200  1.0  -0.495
  N  N307  1  0.331000  0.991000  0.903200  1.0  -0.4946
  N  N308  1  0.669000  0.009000  0.903200  1.0  -0.4973
  N  N309  1  0.509000  0.169000  0.596800  1.0  -0.4958
  N  N310  1  0.491000  0.831000  0.596800  1.0  -0.4947
  N  N311  1  0.169000  0.491000  0.596800  1.0  -0.4969
  N  N312  1  0.831000  0.509000  0.596800  1.0  -0.4951
  O  O313  1  0.111000  0.279000  0.075800  1.0  -0.4702
  O  O314  1  0.828100  0.295000  0.205800  1.0  -0.6174
  O  O315  1  0.883600  0.247700  0.253400  1.0  -0.5872
  O  O316  1  0.202300  0.269300  0.201200  1.0  -0.5767
  O  O317  1  0.145000  0.225500  0.249200  1.0  -0.5834
  O  O318  1  0.889000  0.721000  0.075800  1.0  -0.4698
  O  O319  1  0.171900  0.705000  0.205800  1.0  -0.6164
  O  O320  1  0.116400  0.752300  0.253400  1.0  -0.5901
  O  O321  1  0.797700  0.730700  0.201200  1.0  -0.5763
  O  O322  1  0.855000  0.774500  0.249200  1.0  -0.5845
  O  O323  1  0.721000  0.111000  0.075800  1.0  -0.4694
  O  O324  1  0.705000  0.828100  0.205800  1.0  -0.6182
  O  O325  1  0.752300  0.883600  0.253400  1.0  -0.5887
  O  O326  1  0.730700  0.202300  0.201200  1.0  -0.5761
  O  O327  1  0.774500  0.145000  0.249200  1.0  -0.5845
  O  O328  1  0.279000  0.889000  0.075800  1.0  -0.4695
  O  O329  1  0.295000  0.171900  0.205800  1.0  -0.6175
  O  O330  1  0.247700  0.116400  0.253400  1.0  -0.5881
  O  O331  1  0.269300  0.797700  0.201200  1.0  -0.5764
  O  O332  1  0.225500  0.855000  0.249200  1.0  -0.5835
  O  O333  1  0.389000  0.779000  0.424200  1.0  -0.4699
  O  O334  1  0.671900  0.795000  0.294200  1.0  -0.6156
  O  O335  1  0.616400  0.747700  0.246600  1.0  -0.5888
  O  O336  1  0.297700  0.769300  0.298800  1.0  -0.5762
  O  O337  1  0.355000  0.725500  0.250800  1.0  -0.5848
  O  O338  1  0.611000  0.221000  0.424200  1.0  -0.4693
  O  O339  1  0.328100  0.205000  0.294200  1.0  -0.6152
  O  O340  1  0.383600  0.252300  0.246600  1.0  -0.5905
  O  O341  1  0.702300  0.230700  0.298800  1.0  -0.5764
  O  O342  1  0.645000  0.274500  0.250800  1.0  -0.5853
  O  O343  1  0.779000  0.611000  0.424200  1.0  -0.4679
  O  O344  1  0.795000  0.328100  0.294200  1.0  -0.616
  O  O345  1  0.747700  0.383600  0.246600  1.0  -0.5893
  O  O346  1  0.769300  0.702300  0.298800  1.0  -0.5764
  O  O347  1  0.725500  0.645000  0.250800  1.0  -0.5838
  O  O348  1  0.221000  0.389000  0.424200  1.0  -0.4698
  O  O349  1  0.205000  0.671900  0.294200  1.0  -0.6166
  O  O350  1  0.252300  0.616400  0.246600  1.0  -0.5894
  O  O351  1  0.230700  0.297700  0.298800  1.0  -0.5764
  O  O352  1  0.274500  0.355000  0.250800  1.0  -0.5857
  O  O353  1  0.889000  0.721000  0.924200  1.0  -0.4697
  O  O354  1  0.171900  0.705000  0.794200  1.0  -0.6148
  O  O355  1  0.116400  0.752300  0.746600  1.0  -0.5895
  O  O356  1  0.797700  0.730700  0.798800  1.0  -0.5755
  O  O357  1  0.855000  0.774500  0.750800  1.0  -0.585
  O  O358  1  0.111000  0.279000  0.924200  1.0  -0.4694
  O  O359  1  0.828100  0.295000  0.794200  1.0  -0.6158
  O  O360  1  0.883600  0.247700  0.746600  1.0  -0.5894
  O  O361  1  0.202300  0.269300  0.798800  1.0  -0.577
  O  O362  1  0.145000  0.225500  0.750800  1.0  -0.5845
  O  O363  1  0.279000  0.889000  0.924200  1.0  -0.4693
  O  O364  1  0.295000  0.171900  0.794200  1.0  -0.6155
  O  O365  1  0.247700  0.116400  0.746600  1.0  -0.5861
  O  O366  1  0.269300  0.797700  0.798800  1.0  -0.5766
  O  O367  1  0.225500  0.855000  0.750800  1.0  -0.5845
  O  O368  1  0.721000  0.111000  0.924200  1.0  -0.469
  O  O369  1  0.705000  0.828100  0.794200  1.0  -0.6167
  O  O370  1  0.752300  0.883600  0.746600  1.0  -0.5912
  O  O371  1  0.730700  0.202300  0.798800  1.0  -0.577
  O  O372  1  0.774500  0.145000  0.750800  1.0  -0.585
  O  O373  1  0.611000  0.221000  0.575800  1.0  -0.4698
  O  O374  1  0.328100  0.205000  0.705800  1.0  -0.6166
  O  O375  1  0.383600  0.252300  0.753400  1.0  -0.5887
  O  O376  1  0.702300  0.230700  0.701200  1.0  -0.5775
  O  O377  1  0.645000  0.274500  0.749200  1.0  -0.5844
  O  O378  1  0.389000  0.779000  0.575800  1.0  -0.4704
  O  O379  1  0.671900  0.795000  0.705800  1.0  -0.6175
  O  O380  1  0.616400  0.747700  0.753400  1.0  -0.5892
  O  O381  1  0.297700  0.769300  0.701200  1.0  -0.5761
  O  O382  1  0.355000  0.725500  0.749200  1.0  -0.5841
  O  O383  1  0.221000  0.389000  0.575800  1.0  -0.4697
  O  O384  1  0.205000  0.671900  0.705800  1.0  -0.6176
  O  O385  1  0.252300  0.616400  0.753400  1.0  -0.5886
  O  O386  1  0.230700  0.297700  0.701200  1.0  -0.5759
  O  O387  1  0.274500  0.355000  0.749200  1.0  -0.584
  O  O388  1  0.779000  0.611000  0.575800  1.0  -0.4678
  O  O389  1  0.795000  0.328100  0.705800  1.0  -0.6179
  O  O390  1  0.747700  0.383600  0.753400  1.0  -0.588
  O  O391  1  0.769300  0.702300  0.701200  1.0  -0.5764
  O  O392  1  0.725500  0.645000  0.749200  1.0  -0.5841
