# generated using pymatgen
data_Cu2H11C24(NO5)2
_symmetry_space_group_name_H-M   'P 1'
_cell_length_a   18.68410000
_cell_length_b   18.68410000
_cell_length_c   34.67960000
_cell_angle_alpha   90.00000000
_cell_angle_beta   90.00000000
_cell_angle_gamma   90.00000000
_symmetry_Int_Tables_number   1
_chemical_formula_structural   Cu2H11C24(NO5)2
_chemical_formula_sum   'Cu16 H88 C192 N16 O80'
_cell_volume   12106.49552041
_cell_formula_units_Z   8
loop_
 _symmetry_equiv_pos_site_id
 _symmetry_equiv_pos_as_xyz
  1  'x, y, z'
loop_
 _atom_site_type_symbol
 _atom_site_label
 _atom_site_symmetry_multiplicity
 _atom_site_fract_x
 _atom_site_fract_y
 _atom_site_fract_z
 _atom_site_occupancy
 _atom_site_charge
  Cu  Cu1  1  0.738010  0.304690  0.221160  1.0  0.9518
  Cu  Cu2  1  0.261990  0.695310  0.221160  1.0  0.9495
  Cu  Cu3  1  0.695310  0.738010  0.221160  1.0  0.9507
  Cu  Cu4  1  0.304690  0.261990  0.221160  1.0  0.9495
  Cu  Cu5  1  0.761990  0.804690  0.278840  1.0  0.9507
  Cu  Cu6  1  0.238010  0.195310  0.278840  1.0  0.9489
  Cu  Cu7  1  0.804690  0.238010  0.278840  1.0  0.9493
  Cu  Cu8  1  0.195310  0.761990  0.278840  1.0  0.9487
  Cu  Cu9  1  0.261990  0.695310  0.778840  1.0  0.9497
  Cu  Cu10  1  0.738010  0.304690  0.778840  1.0  0.9498
  Cu  Cu11  1  0.304690  0.261990  0.778840  1.0  0.9498
  Cu  Cu12  1  0.695310  0.738010  0.778840  1.0  0.9485
  Cu  Cu13  1  0.238010  0.195310  0.721160  1.0  0.9513
  Cu  Cu14  1  0.761990  0.804690  0.721160  1.0  0.9497
  Cu  Cu15  1  0.195310  0.761990  0.721160  1.0  0.951
  Cu  Cu16  1  0.804690  0.238010  0.721160  1.0  0.949
  H  H17  1  0.021400  0.247300  0.239600  1.0  0.1153
  H  H18  1  0.132400  0.293400  0.143300  1.0  0.1099
  H  H19  1  0.919800  0.323200  0.146200  1.0  0.1125
  H  H20  1  0.019800  0.448000  0.057700  1.0  0.1036
  H  H21  1  0.988300  0.361700  0.093500  1.0  0.267
  H  H22  1  0.978600  0.752700  0.239600  1.0  0.1155
  H  H23  1  0.867600  0.706600  0.143300  1.0  0.1104
  H  H24  1  0.080200  0.676800  0.146200  1.0  0.1135
  H  H25  1  0.980200  0.552000  0.057700  1.0  0.1034
  H  H26  1  0.011700  0.638300  0.093500  1.0  0.2678
  H  H27  1  0.752700  0.021400  0.239600  1.0  0.1156
  H  H28  1  0.706600  0.132400  0.143300  1.0  0.1094
  H  H29  1  0.676800  0.919800  0.146200  1.0  0.1136
  H  H30  1  0.552000  0.019800  0.057700  1.0  0.104
  H  H31  1  0.638300  0.988300  0.093500  1.0  0.2653
  H  H32  1  0.247300  0.978600  0.239600  1.0  0.1155
  H  H33  1  0.293400  0.867600  0.143300  1.0  0.1092
  H  H34  1  0.323200  0.080200  0.146200  1.0  0.1128
  H  H35  1  0.448000  0.980200  0.057700  1.0  0.1035
  H  H36  1  0.361700  0.011700  0.093500  1.0  0.2647
  H  H37  1  0.478600  0.747300  0.260400  1.0  0.1155
  H  H38  1  0.367600  0.793400  0.356700  1.0  0.1099
  H  H39  1  0.580200  0.823200  0.353800  1.0  0.1133
  H  H40  1  0.480200  0.948000  0.442300  1.0  0.1029
  H  H41  1  0.511700  0.861700  0.406500  1.0  0.2667
  H  H42  1  0.521400  0.252700  0.260400  1.0  0.1153
  H  H43  1  0.632400  0.206600  0.356700  1.0  0.1094
  H  H44  1  0.419800  0.176800  0.353800  1.0  0.1135
  H  H45  1  0.519800  0.052000  0.442300  1.0  0.103
  H  H46  1  0.488300  0.138300  0.406500  1.0  0.2679
  H  H47  1  0.747300  0.521400  0.260400  1.0  0.1154
  H  H48  1  0.793400  0.632400  0.356700  1.0  0.1088
  H  H49  1  0.823200  0.419800  0.353800  1.0  0.1135
  H  H50  1  0.948000  0.519800  0.442300  1.0  0.1032
  H  H51  1  0.861700  0.488300  0.406500  1.0  0.2659
  H  H52  1  0.252700  0.478600  0.260400  1.0  0.1156
  H  H53  1  0.206600  0.367600  0.356700  1.0  0.1093
  H  H54  1  0.176800  0.580200  0.353800  1.0  0.1135
  H  H55  1  0.052000  0.480200  0.442300  1.0  0.1034
  H  H56  1  0.138300  0.511700  0.406500  1.0  0.2649
  H  H57  1  0.978600  0.752700  0.760400  1.0  0.1156
  H  H58  1  0.867600  0.706600  0.856700  1.0  0.1101
  H  H59  1  0.080200  0.676800  0.853800  1.0  0.1136
  H  H60  1  0.980200  0.552000  0.942300  1.0  0.1028
  H  H61  1  0.011700  0.638300  0.906500  1.0  0.2678
  H  H62  1  0.021400  0.247300  0.760400  1.0  0.1153
  H  H63  1  0.132400  0.293400  0.856700  1.0  0.1092
  H  H64  1  0.919800  0.323200  0.853800  1.0  0.1128
  H  H65  1  0.019800  0.448000  0.942300  1.0  0.1031
  H  H66  1  0.988300  0.361700  0.906500  1.0  0.2669
  H  H67  1  0.247300  0.978600  0.760400  1.0  0.1154
  H  H68  1  0.293400  0.867600  0.856700  1.0  0.1089
  H  H69  1  0.323200  0.080200  0.853800  1.0  0.1132
  H  H70  1  0.448000  0.980200  0.942300  1.0  0.1031
  H  H71  1  0.361700  0.011700  0.906500  1.0  0.2649
  H  H72  1  0.752700  0.021400  0.760400  1.0  0.1156
  H  H73  1  0.706600  0.132400  0.856700  1.0  0.1092
  H  H74  1  0.676800  0.919800  0.853800  1.0  0.1137
  H  H75  1  0.552000  0.019800  0.942300  1.0  0.1034
  H  H76  1  0.638300  0.988300  0.906500  1.0  0.2653
  H  H77  1  0.521400  0.252700  0.739600  1.0  0.1155
  H  H78  1  0.632400  0.206600  0.643300  1.0  0.1099
  H  H79  1  0.419800  0.176800  0.646200  1.0  0.1132
  H  H80  1  0.519800  0.052000  0.557700  1.0  0.1034
  H  H81  1  0.488300  0.138300  0.593500  1.0  0.268
  H  H82  1  0.478600  0.747300  0.739600  1.0  0.1153
  H  H83  1  0.367600  0.793400  0.643300  1.0  0.1104
  H  H84  1  0.580200  0.823200  0.646200  1.0  0.1131
  H  H85  1  0.480200  0.948000  0.557700  1.0  0.1035
  H  H86  1  0.511700  0.861700  0.593500  1.0  0.2666
  H  H87  1  0.252700  0.478600  0.739600  1.0  0.1155
  H  H88  1  0.206600  0.367600  0.643300  1.0  0.1095
  H  H89  1  0.176800  0.580200  0.646200  1.0  0.1131
  H  H90  1  0.052000  0.480200  0.557700  1.0  0.1042
  H  H91  1  0.138300  0.511700  0.593500  1.0  0.265
  H  H92  1  0.747300  0.521400  0.739600  1.0  0.1156
  H  H93  1  0.793400  0.632400  0.643300  1.0  0.109
  H  H94  1  0.823200  0.419800  0.646200  1.0  0.1135
  H  H95  1  0.948000  0.519800  0.557700  1.0  0.1034
  H  H96  1  0.861700  0.488300  0.593500  1.0  0.2658
  H  H97  1  0.095400  0.280400  0.000000  1.0  0.1101
  H  H98  1  0.904600  0.719600  0.000000  1.0  0.1097
  H  H99  1  0.719600  0.095400  0.000000  1.0  0.1097
  H  H100  1  0.280400  0.904600  0.000000  1.0  0.1101
  H  H101  1  0.404600  0.780400  0.500000  1.0  0.1102
  H  H102  1  0.595400  0.219600  0.500000  1.0  0.1097
  H  H103  1  0.780400  0.595400  0.500000  1.0  0.1093
  H  H104  1  0.219600  0.404600  0.500000  1.0  0.1096
  C  C105  1  0.889400  0.282700  0.216850  1.0  0.6658
  C  C106  1  0.155600  0.250700  0.214430  1.0  0.6812
  C  C107  1  0.087600  0.267100  0.194590  1.0  -0.1621
  C  C108  1  0.960100  0.286900  0.195830  1.0  -0.1494
  C  C109  1  0.023000  0.264100  0.214420  1.0  0.0223
  C  C110  1  0.089100  0.291200  0.156500  1.0  -0.0996
  C  C111  1  0.026200  0.311800  0.138400  1.0  0.2471
  C  C112  1  0.962000  0.309400  0.158410  1.0  -0.1003
  C  C113  1  0.028400  0.425300  0.034320  1.0  -0.1252
  C  C114  1  0.055700  0.357500  0.034450  1.0  0.017
  C  C115  1  0.070400  0.320900  0.071520  1.0  0.5071
  C  C116  1  0.110600  0.717300  0.216850  1.0  0.6655
  C  C117  1  0.844400  0.749300  0.214430  1.0  0.6818
  C  C118  1  0.912400  0.732900  0.194590  1.0  -0.1621
  C  C119  1  0.039900  0.713100  0.195830  1.0  -0.1502
  C  C120  1  0.977000  0.735900  0.214420  1.0  0.0222
  C  C121  1  0.910900  0.708800  0.156500  1.0  -0.1031
  C  C122  1  0.973800  0.688200  0.138400  1.0  0.2467
  C  C123  1  0.038000  0.690600  0.158410  1.0  -0.0995
  C  C124  1  0.971600  0.574700  0.034320  1.0  -0.125
  C  C125  1  0.944300  0.642500  0.034450  1.0  0.0176
  C  C126  1  0.929600  0.679100  0.071520  1.0  0.5071
  C  C127  1  0.717300  0.889400  0.216850  1.0  0.6677
  C  C128  1  0.749300  0.155600  0.214430  1.0  0.6834
  C  C129  1  0.732900  0.087600  0.194590  1.0  -0.1633
  C  C130  1  0.713100  0.960100  0.195830  1.0  -0.149
  C  C131  1  0.735900  0.023000  0.214420  1.0  0.0221
  C  C132  1  0.708800  0.089100  0.156500  1.0  -0.0992
  C  C133  1  0.688200  0.026200  0.138400  1.0  0.2468
  C  C134  1  0.690600  0.962000  0.158410  1.0  -0.0969
  C  C135  1  0.574700  0.028400  0.034320  1.0  -0.1254
  C  C136  1  0.642500  0.055700  0.034450  1.0  0.0173
  C  C137  1  0.679100  0.070400  0.071520  1.0  0.5058
  C  C138  1  0.282700  0.110600  0.216850  1.0  0.6688
  C  C139  1  0.250700  0.844400  0.214430  1.0  0.6828
  C  C140  1  0.267100  0.912400  0.194590  1.0  -0.1632
  C  C141  1  0.286900  0.039900  0.195830  1.0  -0.1491
  C  C142  1  0.264100  0.977000  0.214420  1.0  0.0217
  C  C143  1  0.291200  0.910900  0.156500  1.0  -0.0987
  C  C144  1  0.311800  0.973800  0.138400  1.0  0.2469
  C  C145  1  0.309400  0.038000  0.158410  1.0  -0.0954
  C  C146  1  0.425300  0.971600  0.034320  1.0  -0.1252
  C  C147  1  0.357500  0.944300  0.034450  1.0  0.0162
  C  C148  1  0.320900  0.929600  0.071520  1.0  0.5072
  C  C149  1  0.610600  0.782700  0.283150  1.0  0.6654
  C  C150  1  0.344400  0.750700  0.285570  1.0  0.6814
  C  C151  1  0.412400  0.767100  0.305410  1.0  -0.1621
  C  C152  1  0.539900  0.786900  0.304170  1.0  -0.1501
  C  C153  1  0.477000  0.764100  0.285580  1.0  0.0217
  C  C154  1  0.410900  0.791200  0.343500  1.0  -0.1041
  C  C155  1  0.473800  0.811800  0.361600  1.0  0.2466
  C  C156  1  0.538000  0.809400  0.341590  1.0  -0.0999
  C  C157  1  0.471600  0.925300  0.465680  1.0  -0.1235
  C  C158  1  0.444300  0.857500  0.465550  1.0  0.0167
  C  C159  1  0.429600  0.820900  0.428480  1.0  0.5079
  C  C160  1  0.389400  0.217300  0.283150  1.0  0.6656
  C  C161  1  0.655600  0.249300  0.285570  1.0  0.6812
  C  C162  1  0.587600  0.232900  0.305410  1.0  -0.1616
  C  C163  1  0.460100  0.213100  0.304170  1.0  -0.1496
  C  C164  1  0.523000  0.235900  0.285580  1.0  0.0211
  C  C165  1  0.589100  0.208800  0.343500  1.0  -0.1007
  C  C166  1  0.526200  0.188200  0.361600  1.0  0.2468
  C  C167  1  0.462000  0.190600  0.341590  1.0  -0.1006
  C  C168  1  0.528400  0.074700  0.465680  1.0  -0.1246
  C  C169  1  0.555700  0.142500  0.465550  1.0  0.0173
  C  C170  1  0.570400  0.179100  0.428480  1.0  0.5063
  C  C171  1  0.782700  0.389400  0.283150  1.0  0.6681
  C  C172  1  0.750700  0.655600  0.285570  1.0  0.6829
  C  C173  1  0.767100  0.587600  0.305410  1.0  -0.1628
  C  C174  1  0.786900  0.460100  0.304170  1.0  -0.1491
  C  C175  1  0.764100  0.523000  0.285580  1.0  0.0219
  C  C176  1  0.791200  0.589100  0.343500  1.0  -0.1001
  C  C177  1  0.811800  0.526200  0.361600  1.0  0.2465
  C  C178  1  0.809400  0.462000  0.341590  1.0  -0.0965
  C  C179  1  0.925300  0.528400  0.465680  1.0  -0.1236
  C  C180  1  0.857500  0.555700  0.465550  1.0  0.016
  C  C181  1  0.820900  0.570400  0.428480  1.0  0.5069
  C  C182  1  0.217300  0.610600  0.283150  1.0  0.6681
  C  C183  1  0.249300  0.344400  0.285570  1.0  0.683
  C  C184  1  0.232900  0.412400  0.305410  1.0  -0.1628
  C  C185  1  0.213100  0.539900  0.304170  1.0  -0.1492
  C  C186  1  0.235900  0.477000  0.285580  1.0  0.0203
  C  C187  1  0.208800  0.410900  0.343500  1.0  -0.1
  C  C188  1  0.188200  0.473800  0.361600  1.0  0.2468
  C  C189  1  0.190600  0.538000  0.341590  1.0  -0.0964
  C  C190  1  0.074700  0.471600  0.465680  1.0  -0.1248
  C  C191  1  0.142500  0.444300  0.465550  1.0  0.0172
  C  C192  1  0.179100  0.429600  0.428480  1.0  0.5067
  C  C193  1  0.110600  0.717300  0.783150  1.0  0.6653
  C  C194  1  0.844400  0.749300  0.785570  1.0  0.6817
  C  C195  1  0.912400  0.732900  0.805410  1.0  -0.1619
  C  C196  1  0.039900  0.713100  0.804170  1.0  -0.1502
  C  C197  1  0.977000  0.735900  0.785580  1.0  0.0211
  C  C198  1  0.910900  0.708800  0.843500  1.0  -0.1042
  C  C199  1  0.973800  0.688200  0.861600  1.0  0.2465
  C  C200  1  0.038000  0.690600  0.841590  1.0  -0.0998
  C  C201  1  0.971600  0.574700  0.965680  1.0  -0.1243
  C  C202  1  0.944300  0.642500  0.965550  1.0  0.0173
  C  C203  1  0.929600  0.679100  0.928480  1.0  0.5078
  C  C204  1  0.889400  0.282700  0.783150  1.0  0.6656
  C  C205  1  0.155600  0.250700  0.785570  1.0  0.681
  C  C206  1  0.087600  0.267100  0.805410  1.0  -0.1617
  C  C207  1  0.960100  0.286900  0.804170  1.0  -0.1495
  C  C208  1  0.023000  0.264100  0.785580  1.0  0.0217
  C  C209  1  0.089100  0.291200  0.843500  1.0  -0.1005
  C  C210  1  0.026200  0.311800  0.861600  1.0  0.2469
  C  C211  1  0.962000  0.309400  0.841590  1.0  -0.1004
  C  C212  1  0.028400  0.425300  0.965680  1.0  -0.1247
  C  C213  1  0.055700  0.357500  0.965550  1.0  0.0168
  C  C214  1  0.070400  0.320900  0.928480  1.0  0.5066
  C  C215  1  0.282700  0.110600  0.783150  1.0  0.6686
  C  C216  1  0.250700  0.844400  0.785570  1.0  0.6826
  C  C217  1  0.267100  0.912400  0.805410  1.0  -0.163
  C  C218  1  0.286900  0.039900  0.804170  1.0  -0.1491
  C  C219  1  0.264100  0.977000  0.785580  1.0  0.0218
  C  C220  1  0.291200  0.910900  0.843500  1.0  -0.1
  C  C221  1  0.311800  0.973800  0.861600  1.0  0.2467
  C  C222  1  0.309400  0.038000  0.841590  1.0  -0.0959
  C  C223  1  0.425300  0.971600  0.965680  1.0  -0.1243
  C  C224  1  0.357500  0.944300  0.965550  1.0  0.0161
  C  C225  1  0.320900  0.929600  0.928480  1.0  0.5072
  C  C226  1  0.717300  0.889400  0.783150  1.0  0.6676
  C  C227  1  0.749300  0.155600  0.785570  1.0  0.6832
  C  C228  1  0.732900  0.087600  0.805410  1.0  -0.1628
  C  C229  1  0.713100  0.960100  0.804170  1.0  -0.1493
  C  C230  1  0.735900  0.023000  0.785580  1.0  0.0204
  C  C231  1  0.708800  0.089100  0.843500  1.0  -0.1002
  C  C232  1  0.688200  0.026200  0.861600  1.0  0.2466
  C  C233  1  0.690600  0.962000  0.841590  1.0  -0.0969
  C  C234  1  0.574700  0.028400  0.965680  1.0  -0.1246
  C  C235  1  0.642500  0.055700  0.965550  1.0  0.0172
  C  C236  1  0.679100  0.070400  0.928480  1.0  0.5066
  C  C237  1  0.389400  0.217300  0.716850  1.0  0.6658
  C  C238  1  0.655600  0.249300  0.714430  1.0  0.6814
  C  C239  1  0.587600  0.232900  0.694590  1.0  -0.1619
  C  C240  1  0.460100  0.213100  0.695830  1.0  -0.1495
  C  C241  1  0.523000  0.235900  0.714420  1.0  0.0221
  C  C242  1  0.589100  0.208800  0.656500  1.0  -0.0997
  C  C243  1  0.526200  0.188200  0.638400  1.0  0.2471
  C  C244  1  0.462000  0.190600  0.658410  1.0  -0.1005
  C  C245  1  0.528400  0.074700  0.534320  1.0  -0.1257
  C  C246  1  0.555700  0.142500  0.534450  1.0  0.0174
  C  C247  1  0.570400  0.179100  0.571520  1.0  0.506
  C  C248  1  0.610600  0.782700  0.716850  1.0  0.6655
  C  C249  1  0.344400  0.750700  0.714430  1.0  0.6815
  C  C250  1  0.412400  0.767100  0.694590  1.0  -0.1623
  C  C251  1  0.539900  0.786900  0.695830  1.0  -0.1502
  C  C252  1  0.477000  0.764100  0.714420  1.0  0.0224
  C  C253  1  0.410900  0.791200  0.656500  1.0  -0.103
  C  C254  1  0.473800  0.811800  0.638400  1.0  0.2468
  C  C255  1  0.538000  0.809400  0.658410  1.0  -0.0995
  C  C256  1  0.471600  0.925300  0.534320  1.0  -0.1247
  C  C257  1  0.444300  0.857500  0.534450  1.0  0.0171
  C  C258  1  0.429600  0.820900  0.571520  1.0  0.5078
  C  C259  1  0.217300  0.610600  0.716850  1.0  0.6683
  C  C260  1  0.249300  0.344400  0.714430  1.0  0.6831
  C  C261  1  0.232900  0.412400  0.694590  1.0  -0.1631
  C  C262  1  0.213100  0.539900  0.695830  1.0  -0.1492
  C  C263  1  0.235900  0.477000  0.714420  1.0  0.0218
  C  C264  1  0.208800  0.410900  0.656500  1.0  -0.0987
  C  C265  1  0.188200  0.473800  0.638400  1.0  0.247
  C  C266  1  0.190600  0.538000  0.658410  1.0  -0.096
  C  C267  1  0.074700  0.471600  0.534320  1.0  -0.1261
  C  C268  1  0.142500  0.444300  0.534450  1.0  0.0175
  C  C269  1  0.179100  0.429600  0.571520  1.0  0.5069
  C  C270  1  0.782700  0.389400  0.716850  1.0  0.6682
  C  C271  1  0.750700  0.655600  0.714430  1.0  0.6831
  C  C272  1  0.767100  0.587600  0.694590  1.0  -0.1631
  C  C273  1  0.786900  0.460100  0.695830  1.0  -0.1489
  C  C274  1  0.764100  0.523000  0.714420  1.0  0.0219
  C  C275  1  0.791200  0.589100  0.656500  1.0  -0.0991
  C  C276  1  0.811800  0.526200  0.638400  1.0  0.2467
  C  C277  1  0.809400  0.462000  0.658410  1.0  -0.0963
  C  C278  1  0.925300  0.528400  0.534320  1.0  -0.1248
  C  C279  1  0.857500  0.555700  0.534450  1.0  0.0165
  C  C280  1  0.820900  0.570400  0.571520  1.0  0.506
  C  C281  1  0.012800  0.461900  0.000000  1.0  -0.0055
  C  C282  1  0.072600  0.324600  0.000000  1.0  -0.0074
  C  C283  1  0.987200  0.538100  0.000000  1.0  -0.0053
  C  C284  1  0.927400  0.675400  0.000000  1.0  -0.0067
  C  C285  1  0.538100  0.012800  0.000000  1.0  -0.0062
  C  C286  1  0.675400  0.072600  0.000000  1.0  -0.0078
  C  C287  1  0.461900  0.987200  0.000000  1.0  -0.0059
  C  C288  1  0.324600  0.927400  0.000000  1.0  -0.0066
  C  C289  1  0.487200  0.961900  0.500000  1.0  -0.0054
  C  C290  1  0.427400  0.824600  0.500000  1.0  -0.0073
  C  C291  1  0.512800  0.038100  0.500000  1.0  -0.0051
  C  C292  1  0.572600  0.175400  0.500000  1.0  -0.0076
  C  C293  1  0.961900  0.512800  0.500000  1.0  -0.0068
  C  C294  1  0.824600  0.572600  0.500000  1.0  -0.0073
  C  C295  1  0.038100  0.487200  0.500000  1.0  -0.0057
  C  C296  1  0.175400  0.427400  0.500000  1.0  -0.008
  N  N297  1  0.024000  0.335100  0.099720  1.0  -0.4174
  N  N298  1  0.976000  0.664900  0.099720  1.0  -0.4153
  N  N299  1  0.664900  0.024000  0.099720  1.0  -0.4156
  N  N300  1  0.335100  0.976000  0.099720  1.0  -0.4147
  N  N301  1  0.476000  0.835100  0.400280  1.0  -0.4159
  N  N302  1  0.524000  0.164900  0.400280  1.0  -0.4172
  N  N303  1  0.835100  0.524000  0.400280  1.0  -0.4154
  N  N304  1  0.164900  0.476000  0.400280  1.0  -0.415
  N  N305  1  0.976000  0.664900  0.900280  1.0  -0.4151
  N  N306  1  0.024000  0.335100  0.900280  1.0  -0.4175
  N  N307  1  0.335100  0.976000  0.900280  1.0  -0.4147
  N  N308  1  0.664900  0.024000  0.900280  1.0  -0.4154
  N  N309  1  0.524000  0.164900  0.599720  1.0  -0.4174
  N  N310  1  0.476000  0.835100  0.599720  1.0  -0.4159
  N  N311  1  0.164900  0.476000  0.599720  1.0  -0.4151
  N  N312  1  0.835100  0.524000  0.599720  1.0  -0.4156
  O  O313  1  0.837000  0.312800  0.201990  1.0  -0.5798
  O  O314  1  0.212400  0.267200  0.196410  1.0  -0.5717
  O  O315  1  0.153800  0.222500  0.247580  1.0  -0.5788
  O  O316  1  0.890630  0.249300  0.249000  1.0  -0.5697
  O  O317  1  0.122100  0.280800  0.075060  1.0  -0.4965
  O  O318  1  0.163000  0.687200  0.201990  1.0  -0.5801
  O  O319  1  0.787600  0.732800  0.196410  1.0  -0.5725
  O  O320  1  0.846200  0.777500  0.247580  1.0  -0.5789
  O  O321  1  0.109370  0.750700  0.249000  1.0  -0.5699
  O  O322  1  0.877900  0.719200  0.075060  1.0  -0.4959
  O  O323  1  0.687200  0.837000  0.201990  1.0  -0.5786
  O  O324  1  0.732800  0.212400  0.196410  1.0  -0.5716
  O  O325  1  0.777500  0.153800  0.247580  1.0  -0.5793
  O  O326  1  0.750700  0.890630  0.249000  1.0  -0.57
  O  O327  1  0.719200  0.122100  0.075060  1.0  -0.4951
  O  O328  1  0.312800  0.163000  0.201990  1.0  -0.5792
  O  O329  1  0.267200  0.787600  0.196410  1.0  -0.5733
  O  O330  1  0.222500  0.846200  0.247580  1.0  -0.5788
  O  O331  1  0.249300  0.109370  0.249000  1.0  -0.5703
  O  O332  1  0.280800  0.877900  0.075060  1.0  -0.4966
  O  O333  1  0.663000  0.812800  0.298010  1.0  -0.5795
  O  O334  1  0.287600  0.767200  0.303590  1.0  -0.573
  O  O335  1  0.346200  0.722500  0.252420  1.0  -0.5785
  O  O336  1  0.609370  0.749300  0.251000  1.0  -0.5695
  O  O337  1  0.377900  0.780800  0.424940  1.0  -0.4961
  O  O338  1  0.337000  0.187200  0.298010  1.0  -0.5796
  O  O339  1  0.712400  0.232800  0.303590  1.0  -0.5734
  O  O340  1  0.653800  0.277500  0.252420  1.0  -0.5777
  O  O341  1  0.390630  0.250700  0.251000  1.0  -0.5684
  O  O342  1  0.622100  0.219200  0.424940  1.0  -0.4954
  O  O343  1  0.812800  0.337000  0.298010  1.0  -0.5796
  O  O344  1  0.767200  0.712400  0.303590  1.0  -0.5731
  O  O345  1  0.722500  0.653800  0.252420  1.0  -0.5783
  O  O346  1  0.749300  0.390630  0.251000  1.0  -0.5692
  O  O347  1  0.780800  0.622100  0.424940  1.0  -0.495
  O  O348  1  0.187200  0.663000  0.298010  1.0  -0.5785
  O  O349  1  0.232800  0.287600  0.303590  1.0  -0.573
  O  O350  1  0.277500  0.346200  0.252420  1.0  -0.5783
  O  O351  1  0.250700  0.609370  0.251000  1.0  -0.5702
  O  O352  1  0.219200  0.377900  0.424940  1.0  -0.4966
  O  O353  1  0.163000  0.687200  0.798010  1.0  -0.5801
  O  O354  1  0.787600  0.732800  0.803590  1.0  -0.5733
  O  O355  1  0.846200  0.777500  0.752420  1.0  -0.5783
  O  O356  1  0.109370  0.750700  0.751000  1.0  -0.569
  O  O357  1  0.877900  0.719200  0.924940  1.0  -0.4959
  O  O358  1  0.837000  0.312800  0.798010  1.0  -0.5799
  O  O359  1  0.212400  0.267200  0.803590  1.0  -0.5732
  O  O360  1  0.153800  0.222500  0.752420  1.0  -0.5788
  O  O361  1  0.890630  0.249300  0.751000  1.0  -0.569
  O  O362  1  0.122100  0.280800  0.924940  1.0  -0.4962
  O  O363  1  0.312800  0.163000  0.798010  1.0  -0.5794
  O  O364  1  0.267200  0.787600  0.803590  1.0  -0.5736
  O  O365  1  0.222500  0.846200  0.752420  1.0  -0.5785
  O  O366  1  0.249300  0.109370  0.751000  1.0  -0.5698
  O  O367  1  0.280800  0.877900  0.924940  1.0  -0.4963
  O  O368  1  0.687200  0.837000  0.798010  1.0  -0.5783
  O  O369  1  0.732800  0.212400  0.803590  1.0  -0.5735
  O  O370  1  0.777500  0.153800  0.752420  1.0  -0.5785
  O  O371  1  0.750700  0.890630  0.751000  1.0  -0.5697
  O  O372  1  0.719200  0.122100  0.924940  1.0  -0.4948
  O  O373  1  0.337000  0.187200  0.701990  1.0  -0.5793
  O  O374  1  0.712400  0.232800  0.696410  1.0  -0.5729
  O  O375  1  0.653800  0.277500  0.747580  1.0  -0.578
  O  O376  1  0.390630  0.250700  0.749000  1.0  -0.5692
  O  O377  1  0.622100  0.219200  0.575060  1.0  -0.4953
  O  O378  1  0.663000  0.812800  0.701990  1.0  -0.5796
  O  O379  1  0.287600  0.767200  0.696410  1.0  -0.5713
  O  O380  1  0.346200  0.722500  0.747580  1.0  -0.5788
  O  O381  1  0.609370  0.749300  0.749000  1.0  -0.5699
  O  O382  1  0.377900  0.780800  0.575060  1.0  -0.4965
  O  O383  1  0.187200  0.663000  0.701990  1.0  -0.5785
  O  O384  1  0.232800  0.287600  0.696410  1.0  -0.5727
  O  O385  1  0.277500  0.346200  0.747580  1.0  -0.5783
  O  O386  1  0.250700  0.609370  0.749000  1.0  -0.5706
  O  O387  1  0.219200  0.377900  0.575060  1.0  -0.4969
  O  O388  1  0.812800  0.337000  0.701990  1.0  -0.5793
  O  O389  1  0.767200  0.712400  0.696410  1.0  -0.5718
  O  O390  1  0.722500  0.653800  0.747580  1.0  -0.5786
  O  O391  1  0.749300  0.390630  0.749000  1.0  -0.5699
  O  O392  1  0.780800  0.622100  0.575060  1.0  -0.495
