# generated using pymatgen
data_YbH27C30(NO2)3
_symmetry_space_group_name_H-M   'P 1'
_cell_length_a   9.47550000
_cell_length_b   13.07290000
_cell_length_c   18.45820000
_cell_angle_alpha   107.50600000
_cell_angle_beta   96.57400000
_cell_angle_gamma   98.23100000
_symmetry_Int_Tables_number   1
_chemical_formula_structural   YbH27C30(NO2)3
_chemical_formula_sum   'Yb2 H54 C60 N6 O12'
_cell_volume   2127.82271034
_cell_formula_units_Z   2
loop_
 _symmetry_equiv_pos_site_id
 _symmetry_equiv_pos_as_xyz
  1  'x, y, z'
loop_
 _atom_site_type_symbol
 _atom_site_label
 _atom_site_symmetry_multiplicity
 _atom_site_fract_x
 _atom_site_fract_y
 _atom_site_fract_z
 _atom_site_occupancy
 _atom_site_charge
  Yb  Yb1  1  0.765720  0.494060  0.997200  1.0  1.5204
  Yb  Yb2  1  0.234280  0.505940  0.002800  1.0  1.5208
  H  H3  1  0.234500  0.397000  0.750500  1.0  0.0856
  H  H4  1  0.235100  0.332800  0.619400  1.0  0.0948
  H  H5  1  0.652500  0.337700  0.656100  1.0  0.1093
  H  H6  1  0.660000  0.399500  0.787900  1.0  0.093
  H  H7  1  0.497900  0.350400  0.527500  1.0  0.0823
  H  H8  1  0.507600  0.233100  0.531000  1.0  0.0829
  H  H9  1  0.898500  0.331000  0.410400  1.0  0.0822
  H  H10  1  0.033200  0.426200  0.441800  1.0  0.0971
  H  H11  1  0.791400  0.362800  0.304300  1.0  0.0932
  H  H12  1  0.790300  0.391100  0.187200  1.0  0.1038
  H  H13  1  0.217400  0.391900  0.210500  1.0  0.1059
  H  H14  1  0.206500  0.357700  0.325000  1.0  0.1069
  H  H15  1  0.077700  0.945600  0.440300  1.0  0.0859
  H  H16  1  0.933400  0.973500  0.407700  1.0  0.0803
  H  H17  1  0.256800  0.944100  0.334800  1.0  0.0755
  H  H18  1  0.279900  0.822100  0.220100  1.0  0.116
  H  H19  1  0.847900  0.735400  0.173000  1.0  0.0977
  H  H20  1  0.836800  0.853800  0.291800  1.0  0.0916
  H  H21  1  0.333400  0.074200  0.552800  1.0  0.1141
  H  H22  1  0.426700  0.070900  0.487600  1.0  0.1067
  H  H23  1  0.284300  0.984500  0.471800  1.0  0.1161
  H  H24  1  0.848200  0.049600  0.350200  1.0  0.1046
  H  H25  1  0.889900  0.122200  0.299300  1.0  0.1131
  H  H26  1  0.817600  0.168900  0.371500  1.0  0.1033
  H  H27  1  0.325600  0.457300  0.453900  1.0  0.0966
  H  H28  1  0.362900  0.456400  0.538700  1.0  0.0926
  H  H29  1  0.212500  0.479700  0.509800  1.0  0.0927
  H  H30  1  0.765500  0.603000  0.249500  1.0  0.0852
  H  H31  1  0.764900  0.667200  0.380600  1.0  0.0957
  H  H32  1  0.347500  0.662300  0.343900  1.0  0.1091
  H  H33  1  0.340000  0.600500  0.212100  1.0  0.0925
  H  H34  1  0.502100  0.649600  0.472500  1.0  0.0811
  H  H35  1  0.492400  0.766900  0.469000  1.0  0.0831
  H  H36  1  0.101500  0.669000  0.589600  1.0  0.0824
  H  H37  1  0.966800  0.573800  0.558200  1.0  0.0967
  H  H38  1  0.208600  0.637200  0.695700  1.0  0.0918
  H  H39  1  0.209700  0.608900  0.812800  1.0  0.1043
  H  H40  1  0.782600  0.608100  0.789500  1.0  0.1052
  H  H41  1  0.793500  0.642300  0.675000  1.0  0.1072
  H  H42  1  0.922300  0.054400  0.559700  1.0  0.0859
  H  H43  1  0.066600  0.026500  0.592300  1.0  0.0842
  H  H44  1  0.743200  0.055900  0.665200  1.0  0.0751
  H  H45  1  0.720100  0.177900  0.779900  1.0  0.1169
  H  H46  1  0.152100  0.264600  0.827000  1.0  0.0986
  H  H47  1  0.163200  0.146200  0.708200  1.0  0.0938
  H  H48  1  0.666667  0.925800  0.447200  1.0  0.1165
  H  H49  1  0.573300  0.929100  0.512400  1.0  0.1052
  H  H50  1  0.715700  0.015500  0.528200  1.0  0.1149
  H  H51  1  0.151800  0.950400  0.649800  1.0  0.1052
  H  H52  1  0.110100  0.877800  0.700700  1.0  0.1123
  H  H53  1  0.182400  0.831100  0.628500  1.0  0.1011
  H  H54  1  0.674400  0.542700  0.546100  1.0  0.0962
  H  H55  1  0.637100  0.543600  0.461300  1.0  0.0937
  H  H56  1  0.787500  0.520300  0.490200  1.0  0.0938
  C  C57  1  0.446000  0.440800  0.869400  1.0  0.7427
  C  C58  1  0.446300  0.403700  0.783500  1.0  -0.1195
  C  C59  1  0.320000  0.384400  0.732300  1.0  -0.0835
  C  C60  1  0.320500  0.346400  0.653900  1.0  0.0315
  C  C61  1  0.568000  0.349100  0.675900  1.0  0.0458
  C  C62  1  0.573000  0.386300  0.754600  1.0  -0.049
  C  C63  1  0.450200  0.290100  0.541600  1.0  -0.1072
  C  C64  1  0.301900  0.246700  0.493000  1.0  -0.1322
  C  C65  1  0.225000  0.318800  0.469300  1.0  0.0464
  C  C66  1  0.087900  0.275800  0.423600  1.0  -0.1083
  C  C67  1  0.997500  0.353900  0.404800  1.0  -0.0563
  C  C68  1  0.877100  0.368800  0.284500  1.0  0.0591
  C  C69  1  0.876000  0.386000  0.214800  1.0  -0.0778
  C  C70  1  0.004200  0.395700  0.185900  1.0  -0.1424
  C  C71  1  0.008900  0.423700  0.112100  1.0  0.7811
  C  C72  1  0.130000  0.385700  0.228600  1.0  -0.0437
  C  C73  1  0.123500  0.366500  0.297100  1.0  0.0309
  C  C74  1  0.029300  0.164400  0.399900  1.0  0.0644
  C  C75  1  0.107500  0.094200  0.424100  1.0  -0.0707
  C  C76  1  0.034900  0.976400  0.403300  1.0  -0.0576
  C  C77  1  0.174400  0.899200  0.302200  1.0  0.0351
  C  C78  1  0.189100  0.827600  0.233600  1.0  -0.131
  C  C79  1  0.064400  0.763000  0.184400  1.0  -0.1256
  C  C80  1  0.073800  0.676500  0.110000  1.0  0.7626
  C  C81  1  0.932600  0.775300  0.206000  1.0  -0.0964
  C  C82  1  0.926200  0.847000  0.276700  1.0  0.0274
  C  C83  1  0.244200  0.134600  0.471300  1.0  0.0453
  C  C84  1  0.330100  0.059100  0.498400  1.0  -0.3586
  C  C85  1  0.883200  0.122500  0.350800  1.0  -0.3899
  C  C86  1  0.287100  0.438900  0.495300  1.0  -0.3544
  C  C87  1  0.554000  0.559200  0.130600  1.0  0.7442
  C  C88  1  0.553700  0.596300  0.216500  1.0  -0.1212
  C  C89  1  0.680000  0.615600  0.267700  1.0  -0.0834
  C  C90  1  0.679500  0.653600  0.346100  1.0  0.0304
  C  C91  1  0.432000  0.650900  0.324100  1.0  0.0451
  C  C92  1  0.427000  0.613700  0.245400  1.0  -0.0496
  C  C93  1  0.549800  0.709900  0.458400  1.0  -0.1081
  C  C94  1  0.698100  0.753300  0.507000  1.0  -0.134
  C  C95  1  0.775000  0.681200  0.530700  1.0  0.0467
  C  C96  1  0.912100  0.724200  0.576400  1.0  -0.1075
  C  C97  1  0.002500  0.646100  0.595200  1.0  -0.0569
  C  C98  1  0.122900  0.631200  0.715500  1.0  0.0579
  C  C99  1  0.124000  0.614000  0.785200  1.0  -0.0784
  C  C100  1  0.995800  0.604300  0.814100  1.0  -0.1422
  C  C101  1  0.991100  0.576300  0.887900  1.0  0.7813
  C  C102  1  0.870000  0.614300  0.771400  1.0  -0.0431
  C  C103  1  0.876500  0.633500  0.702900  1.0  0.0299
  C  C104  1  0.970700  0.835600  0.600100  1.0  0.0638
  C  C105  1  0.892500  0.905800  0.575900  1.0  -0.0703
  C  C106  1  0.965100  0.023600  0.596700  1.0  -0.056
  C  C107  1  0.825600  0.100800  0.697800  1.0  0.0365
  C  C108  1  0.810900  0.172400  0.766400  1.0  -0.1305
  C  C109  1  0.935600  0.237000  0.815600  1.0  -0.1255
  C  C110  1  0.926200  0.323500  0.890000  1.0  0.7634
  C  C111  1  0.067400  0.224700  0.794000  1.0  -0.097
  C  C112  1  0.073800  0.153000  0.723300  1.0  0.027
  C  C113  1  0.755800  0.865400  0.528700  1.0  0.0464
  C  C114  1  0.669900  0.940900  0.501600  1.0  -0.3583
  C  C115  1  0.116800  0.877500  0.649200  1.0  -0.3907
  C  C116  1  0.712900  0.561100  0.504700  1.0  -0.3533
  N  N117  1  0.443400  0.329100  0.627600  1.0  -0.0004
  N  N118  1  0.998700  0.360400  0.324500  1.0  0.0448
  N  N119  1  0.046100  0.907000  0.323800  1.0  0.0103
  N  N120  1  0.556600  0.670900  0.372400  1.0  0.0003
  N  N121  1  0.001300  0.639600  0.675500  1.0  0.0426
  N  N122  1  0.953900  0.093000  0.676200  1.0  0.0129
  O  O123  1  0.564700  0.463200  0.911800  1.0  -0.7668
  O  O124  1  0.326000  0.445300  0.889910  1.0  -0.7377
  O  O125  1  0.131500  0.450900  0.097900  1.0  -0.7411
  O  O126  1  0.889400  0.416800  0.073600  1.0  -0.6962
  O  O127  1  0.196300  0.661100  0.096500  1.0  -0.6662
  O  O128  1  0.956800  0.624200  0.068900  1.0  -0.7606
  O  O129  1  0.435300  0.536800  0.088200  1.0  -0.7654
  O  O130  1  0.674000  0.554700  0.110090  1.0  -0.7378
  O  O131  1  0.868500  0.549100  0.902100  1.0  -0.7443
  O  O132  1  0.110600  0.583200  0.926400  1.0  -0.6955
  O  O133  1  0.803700  0.338900  0.903500  1.0  -0.6667
  O  O134  1  0.043200  0.375800  0.931100  1.0  -0.7594
