# generated using pymatgen
data_PrH27C30(NO2)3
_symmetry_space_group_name_H-M   'P 1'
_cell_length_a   9.52850000
_cell_length_b   12.76000000
_cell_length_c   18.89600000
_cell_angle_alpha   106.72000000
_cell_angle_beta   98.91000000
_cell_angle_gamma   98.59000000
_symmetry_Int_Tables_number   1
_chemical_formula_structural   PrH27C30(NO2)3
_chemical_formula_sum   'Pr2 H54 C60 N6 O12'
_cell_volume   2127.61607702
_cell_formula_units_Z   2
loop_
 _symmetry_equiv_pos_site_id
 _symmetry_equiv_pos_as_xyz
  1  'x, y, z'
loop_
 _atom_site_type_symbol
 _atom_site_label
 _atom_site_symmetry_multiplicity
 _atom_site_fract_x
 _atom_site_fract_y
 _atom_site_fract_z
 _atom_site_occupancy
 _atom_site_charge
  Pr  Pr1  1  0.767700  0.986110  0.497060  1.0  2.1974
  Pr  Pr2  1  0.232300  0.013890  0.502940  1.0  2.2052
  H  H3  1  0.642500  0.835600  0.166400  1.0  0.1133
  H  H4  1  0.647300  0.902700  0.292700  1.0  0.0835
  H  H5  1  0.222500  0.897500  0.244900  1.0  0.0855
  H  H6  1  0.225700  0.831700  0.118400  1.0  0.0761
  H  H7  1  0.806200  0.876400  0.803000  1.0  0.1011
  H  H8  1  0.806800  0.890600  0.684400  1.0  0.0855
  H  H9  1  0.228200  0.881200  0.714800  1.0  0.094
  H  H10  1  0.218700  0.859000  0.830800  1.0  0.0967
  H  H11  1  0.250200  0.447900  0.841600  1.0  0.0717
  H  H12  1  0.285100  0.336300  0.729100  1.0  0.0985
  H  H13  1  0.857700  0.229800  0.664800  1.0  0.0885
  H  H14  1  0.831700  0.343700  0.776400  1.0  0.0954
  H  H15  1  0.372200  0.522900  0.970500  1.0  0.0954
  H  H16  1  0.236600  0.486200  0.001900  1.0  0.1001
  H  H17  1  0.360200  0.587100  0.052900  1.0  0.0881
  H  H18  1  0.919700  0.463900  0.895100  1.0  0.0631
  H  H19  1  0.060100  0.434200  0.932900  1.0  0.0841
  H  H20  1  0.898700  0.572600  0.794000  1.0  0.0957
  H  H21  1  0.850000  0.684300  0.830600  1.0  0.0708
  H  H22  1  0.815800  0.582600  0.860400  1.0  0.0893
  H  H23  1  0.908000  0.841400  0.908200  1.0  0.0718
  H  H24  1  0.050500  0.934000  0.939200  1.0  0.0776
  H  H25  1  0.323600  0.962100  0.960200  1.0  0.0873
  H  H26  1  0.380500  0.952900  0.040200  1.0  0.0846
  H  H27  1  0.227700  0.981800  0.021300  1.0  0.084
  H  H28  1  0.489500  0.845400  0.035700  1.0  0.0667
  H  H29  1  0.493800  0.725500  0.040900  1.0  0.0621
  H  H30  1  0.357500  0.164400  0.833600  1.0  0.1127
  H  H31  1  0.352700  0.097300  0.707300  1.0  0.0825
  H  H32  1  0.777500  0.102500  0.755100  1.0  0.0855
  H  H33  1  0.774300  0.168300  0.881600  1.0  0.0782
  H  H34  1  0.193800  0.123600  0.197000  1.0  0.1009
  H  H35  1  0.193200  0.109400  0.315600  1.0  0.0856
  H  H36  1  0.771800  0.118800  0.285200  1.0  0.0942
  H  H37  1  0.781300  0.141000  0.169200  1.0  0.096
  H  H38  1  0.749800  0.552100  0.158400  1.0  0.0719
  H  H39  1  0.714900  0.663700  0.270900  1.0  0.0996
  H  H40  1  0.142300  0.770200  0.335200  1.0  0.0886
  H  H41  1  0.168300  0.656300  0.223600  1.0  0.0971
  H  H42  1  0.627800  0.477100  0.029500  1.0  0.0951
  H  H43  1  0.763400  0.513800  0.998100  1.0  0.0989
  H  H44  1  0.639800  0.412900  0.947100  1.0  0.0877
  H  H45  1  0.080300  0.536100  0.104900  1.0  0.0645
  H  H46  1  0.939900  0.565800  0.067100  1.0  0.0848
  H  H47  1  0.101300  0.427400  0.206000  1.0  0.0956
  H  H48  1  0.150000  0.315700  0.169400  1.0  0.0714
  H  H49  1  0.184200  0.417400  0.139600  1.0  0.0905
  H  H50  1  0.092000  0.158600  0.091800  1.0  0.0716
  H  H51  1  0.949500  0.066000  0.060800  1.0  0.0766
  H  H52  1  0.676400  0.037900  0.039800  1.0  0.0879
  H  H53  1  0.619500  0.047100  0.959800  1.0  0.0866
  H  H54  1  0.772300  0.018200  0.978700  1.0  0.0855
  H  H55  1  0.510500  0.154600  0.964300  1.0  0.065
  H  H56  1  0.506200  0.274500  0.959100  1.0  0.0616
  C  C57  1  0.431600  0.945600  0.364800  1.0  0.7335
  C  C58  1  0.557500  0.847600  0.182900  1.0  0.0335
  C  C59  1  0.560500  0.887400  0.257900  1.0  -0.1113
  C  C60  1  0.433700  0.905100  0.282600  1.0  -0.1359
  C  C61  1  0.308400  0.884600  0.229700  1.0  -0.1433
  C  C62  1  0.310500  0.845000  0.154300  1.0  0.038
  C  C63  1  0.024600  0.911000  0.613200  1.0  0.7781
  C  C64  1  0.890700  0.875400  0.784200  1.0  0.0397
  C  C65  1  0.891800  0.886500  0.714200  1.0  -0.0726
  C  C66  1  0.019400  0.891700  0.688100  1.0  -0.1313
  C  C67  1  0.141800  0.879900  0.731900  1.0  -0.0712
  C  C68  1  0.136000  0.866200  0.800800  1.0  0.026
  C  C69  1  0.095800  0.183500  0.615000  1.0  0.7535
  C  C70  1  0.170200  0.402100  0.805500  1.0  0.046
  C  C71  1  0.192000  0.334700  0.738500  1.0  -0.1431
  C  C72  1  0.075100  0.265500  0.685800  1.0  -0.0985
  C  C73  1  0.939600  0.272500  0.700800  1.0  -0.1042
  C  C74  1  0.924100  0.340300  0.766900  1.0  0.0391
  C  C75  1  0.294300  0.741100  0.997900  1.0  -0.0609
  C  C76  1  0.231200  0.626200  0.973500  1.0  0.06
  C  C77  1  0.095600  0.588000  0.922400  1.0  -0.0897
  C  C78  1  0.025800  0.663200  0.895800  1.0  0.0541
  C  C79  1  0.090000  0.776400  0.923600  1.0  -0.127
  C  C80  1  0.224300  0.816300  0.973000  1.0  0.0354
  C  C81  1  0.306700  0.548800  0.002300  1.0  -0.3781
  C  C82  1  0.022700  0.468700  0.896400  1.0  -0.046
  C  C83  1  0.885100  0.622000  0.840300  1.0  -0.4212
  C  C84  1  0.007800  0.860200  0.903500  1.0  -0.0642
  C  C85  1  0.296000  0.939500  0.001300  1.0  -0.3307
  C  C86  1  0.438400  0.784300  0.048900  1.0  -0.094
  C  C87  1  0.568400  0.054400  0.635200  1.0  0.7344
  C  C88  1  0.442500  0.152400  0.817100  1.0  0.0333
  C  C89  1  0.439500  0.112600  0.742100  1.0  -0.1109
  C  C90  1  0.566300  0.094900  0.717400  1.0  -0.1361
  C  C91  1  0.691600  0.115400  0.770300  1.0  -0.1432
  C  C92  1  0.689500  0.155000  0.845700  1.0  0.0368
  C  C93  1  0.975400  0.089000  0.386800  1.0  0.7754
  C  C94  1  0.109300  0.124600  0.215800  1.0  0.0393
  C  C95  1  0.108200  0.113500  0.285800  1.0  -0.0723
  C  C96  1  0.980600  0.108300  0.311900  1.0  -0.1319
  C  C97  1  0.858200  0.120100  0.268100  1.0  -0.0711
  C  C98  1  0.864000  0.133800  0.199200  1.0  0.0237
  C  C99  1  0.904200  0.816500  0.385000  1.0  0.7521
  C  C100  1  0.829800  0.597900  0.194500  1.0  0.0454
  C  C101  1  0.808000  0.665300  0.261500  1.0  -0.1424
  C  C102  1  0.924900  0.734500  0.314200  1.0  -0.097
  C  C103  1  0.060400  0.727500  0.299200  1.0  -0.1034
  C  C104  1  0.075900  0.659700  0.233100  1.0  0.0383
  C  C105  1  0.705700  0.258900  0.002100  1.0  -0.0616
  C  C106  1  0.768800  0.373800  0.026500  1.0  0.0611
  C  C107  1  0.904400  0.412000  0.077600  1.0  -0.0889
  C  C108  1  0.974200  0.336800  0.104200  1.0  0.0541
  C  C109  1  0.910000  0.223600  0.076400  1.0  -0.1262
  C  C110  1  0.775700  0.183700  0.027000  1.0  0.0344
  C  C111  1  0.693300  0.451200  0.997700  1.0  -0.3776
  C  C112  1  0.977300  0.531300  0.103600  1.0  -0.045
  C  C113  1  0.114900  0.378000  0.159700  1.0  -0.4201
  C  C114  1  0.992200  0.139800  0.096500  1.0  -0.0634
  C  C115  1  0.704000  0.060500  0.998700  1.0  -0.3313
  C  C116  1  0.561600  0.215700  0.951100  1.0  -0.0954
  N  N117  1  0.432500  0.825500  0.132000  1.0  0.0366
  N  N118  1  0.009600  0.863400  0.825000  1.0  0.0444
  N  N119  1  0.042500  0.403800  0.819800  1.0  0.0103
  N  N120  1  0.567500  0.174500  0.868000  1.0  0.0357
  N  N121  1  0.990400  0.136600  0.175000  1.0  0.0436
  N  N122  1  0.957500  0.596200  0.180200  1.0  0.0102
  O  O123  1  0.545300  0.961400  0.411390  1.0  -0.7955
  O  O124  1  0.312300  0.959200  0.382270  1.0  -0.7048
  O  O125  1  0.143700  0.942600  0.600990  1.0  -0.741
  O  O126  1  0.904000  0.894700  0.570770  1.0  -0.7845
  O  O127  1  0.988500  0.116500  0.571770  1.0  -0.8543
  O  O128  1  0.223300  0.181900  0.606300  1.0  -0.7383
  O  O129  1  0.454700  0.038600  0.588610  1.0  -0.7963
  O  O130  1  0.687700  0.040800  0.617730  1.0  -0.707
  O  O131  1  0.856300  0.057400  0.399010  1.0  -0.7394
  O  O132  1  0.096000  0.105300  0.429230  1.0  -0.7853
  O  O133  1  0.011500  0.883500  0.428230  1.0  -0.8534
  O  O134  1  0.776700  0.818100  0.393700  1.0  -0.7347
