# generated using pymatgen
data_GdH27C30(NO2)3
_symmetry_space_group_name_H-M   'P 1'
_cell_length_a   9.55220000
_cell_length_b   12.93300000
_cell_length_c   18.76370000
_cell_angle_alpha   106.97200000
_cell_angle_beta   98.24900000
_cell_angle_gamma   97.79400000
_symmetry_Int_Tables_number   1
_chemical_formula_structural   GdH27C30(NO2)3
_chemical_formula_sum   'Gd2 H54 C60 N6 O12'
_cell_volume   2155.22620206
_cell_formula_units_Z   2
loop_
 _symmetry_equiv_pos_site_id
 _symmetry_equiv_pos_as_xyz
  1  'x, y, z'
loop_
 _atom_site_type_symbol
 _atom_site_label
 _atom_site_symmetry_multiplicity
 _atom_site_fract_x
 _atom_site_fract_y
 _atom_site_fract_z
 _atom_site_occupancy
 _atom_site_charge
  Gd  Gd1  1  0.234070  0.010440  0.502500  1.0  2.1881
  Gd  Gd2  1  0.765930  0.989560  0.497500  1.0  2.1882
  H  H3  1  0.774100  0.105400  0.752500  1.0  0.0853
  H  H4  1  0.774100  0.178600  0.881100  1.0  0.0903
  H  H5  1  0.771700  0.111200  0.285900  1.0  0.0977
  H  H6  1  0.349400  0.097200  0.708600  1.0  0.0885
  H  H7  1  0.192600  0.101700  0.314900  1.0  0.092
  H  H8  1  0.719600  0.671200  0.275700  1.0  0.1035
  H  H9  1  0.148000  0.765100  0.333600  1.0  0.091
  H  H10  1  0.749800  0.556000  0.162000  1.0  0.0741
  H  H11  1  0.355500  0.166500  0.836900  1.0  0.1007
  H  H12  1  0.783800  0.141300  0.172000  1.0  0.0967
  H  H13  1  0.193000  0.119700  0.196000  1.0  0.0998
  H  H14  1  0.954000  0.068500  0.059900  1.0  0.0769
  H  H15  1  0.092100  0.160800  0.092300  1.0  0.0773
  H  H16  1  0.507200  0.159500  0.966300  1.0  0.0761
  H  H17  1  0.504900  0.277700  0.960600  1.0  0.0804
  H  H18  1  0.077500  0.529600  0.103900  1.0  0.0647
  H  H19  1  0.938700  0.560900  0.066700  1.0  0.0822
  H  H20  1  0.166600  0.647200  0.218600  1.0  0.1063
  H  H21  1  0.099900  0.360600  0.206600  1.0  0.1091
  H  H22  1  0.141400  0.452100  0.169900  1.0  0.0957
  H  H23  1  0.182600  0.336100  0.138900  1.0  0.0964
  H  H24  1  0.770600  0.023700  0.970500  1.0  0.0903
  H  H25  1  0.616300  0.052600  0.968700  1.0  0.1018
  H  H26  1  0.699700  0.037600  0.042200  1.0  0.0947
  H  H27  1  0.738800  0.524400  0.025600  1.0  0.1039
  H  H28  1  0.592300  0.442200  0.008400  1.0  0.1052
  H  H29  1  0.686300  0.434300  0.945800  1.0  0.1035
  H  H30  1  0.225900  0.894600  0.247500  1.0  0.0854
  H  H31  1  0.225900  0.821400  0.118900  1.0  0.09
  H  H32  1  0.228300  0.888800  0.714100  1.0  0.0983
  H  H33  1  0.650600  0.902800  0.291400  1.0  0.0893
  H  H34  1  0.807400  0.898300  0.685100  1.0  0.0922
  H  H35  1  0.280400  0.328800  0.724300  1.0  0.1024
  H  H36  1  0.852000  0.234900  0.666400  1.0  0.0904
  H  H37  1  0.250200  0.444000  0.838000  1.0  0.0737
  H  H38  1  0.644500  0.833500  0.163100  1.0  0.1002
  H  H39  1  0.216200  0.858700  0.828000  1.0  0.097
  H  H40  1  0.807000  0.880300  0.804000  1.0  0.0993
  H  H41  1  0.046000  0.931500  0.940100  1.0  0.0768
  H  H42  1  0.907900  0.839200  0.907700  1.0  0.0772
  H  H43  1  0.492800  0.840500  0.033700  1.0  0.0773
  H  H44  1  0.495100  0.722300  0.039400  1.0  0.0796
  H  H45  1  0.922500  0.470400  0.896100  1.0  0.0624
  H  H46  1  0.061300  0.439100  0.933300  1.0  0.0832
  H  H47  1  0.833400  0.352800  0.781400  1.0  0.1067
  H  H48  1  0.900100  0.639400  0.793400  1.0  0.109
  H  H49  1  0.858600  0.547900  0.830100  1.0  0.0951
  H  H50  1  0.817400  0.663900  0.861100  1.0  0.0982
  H  H51  1  0.229400  0.976300  0.029500  1.0  0.0895
  H  H52  1  0.383700  0.947400  0.031300  1.0  0.1032
  H  H53  1  0.300300  0.962400  0.957800  1.0  0.0946
  H  H54  1  0.261200  0.475600  0.974400  1.0  0.1048
  H  H55  1  0.407700  0.557800  0.991600  1.0  0.1033
  H  H56  1  0.313700  0.565700  0.054200  1.0  0.103
  C  C57  1  0.563300  0.056900  0.632300  1.0  0.7433
  C  C58  1  0.562800  0.097200  0.716900  1.0  -0.1162
  C  C59  1  0.930700  0.736000  0.315900  1.0  -0.1089
  C  C60  1  0.980200  0.101500  0.312100  1.0  -0.1451
  C  C61  1  0.908500  0.222600  0.077000  1.0  -0.1173
  C  C62  1  0.689000  0.118900  0.768900  1.0  -0.0838
  C  C63  1  0.917800  0.822100  0.388300  1.0  0.7526
  C  C64  1  0.977400  0.080700  0.387400  1.0  0.7234
  C  C65  1  0.774300  0.183500  0.028400  1.0  0.0165
  C  C66  1  0.688500  0.161100  0.845900  1.0  0.0169
  C  C67  1  0.900100  0.408900  0.079300  1.0  -0.0961
  C  C68  1  0.858400  0.114200  0.268900  1.0  -0.0706
  C  C69  1  0.436200  0.113600  0.742800  1.0  -0.0566
  C  C70  1  0.969300  0.334600  0.104300  1.0  0.0455
  C  C71  1  0.704100  0.259400  0.004100  1.0  -0.1447
  C  C72  1  0.108200  0.107000  0.285700  1.0  -0.0631
  C  C73  1  0.766100  0.371600  0.027500  1.0  0.0237
  C  C74  1  0.811300  0.669300  0.264700  1.0  -0.1572
  C  C75  1  0.065300  0.724700  0.298800  1.0  -0.0973
  C  C76  1  0.830400  0.599800  0.197000  1.0  0.0343
  C  C77  1  0.440000  0.154300  0.819400  1.0  0.0296
  C  C78  1  0.865600  0.131300  0.200700  1.0  0.0202
  C  C79  1  0.108800  0.120200  0.215400  1.0  0.0378
  C  C80  1  0.992800  0.140600  0.096600  1.0  -0.1039
  C  C81  1  0.559000  0.218400  0.952400  1.0  -0.1022
  C  C82  1  0.975500  0.527300  0.103700  1.0  -0.059
  C  C83  1  0.076300  0.653700  0.230400  1.0  0.0272
  C  C84  1  0.111300  0.374500  0.160000  1.0  -0.4052
  C  C85  1  0.709400  0.063600  0.999900  1.0  -0.3688
  C  C86  1  0.688900  0.450300  0.999300  1.0  -0.3674
  C  C87  1  0.436700  0.943100  0.367700  1.0  0.7402
  C  C88  1  0.437200  0.902800  0.283100  1.0  -0.1164
  C  C89  1  0.069300  0.264000  0.684100  1.0  -0.1082
  C  C90  1  0.019800  0.898500  0.687900  1.0  -0.1445
  C  C91  1  0.091500  0.777400  0.923000  1.0  -0.1181
  C  C92  1  0.311000  0.881100  0.231100  1.0  -0.0828
  C  C93  1  0.082200  0.177900  0.611700  1.0  0.7601
  C  C94  1  0.022600  0.919300  0.612600  1.0  0.7197
  C  C95  1  0.225700  0.816500  0.971600  1.0  0.016
  C  C96  1  0.311500  0.838900  0.154100  1.0  0.0152
  C  C97  1  0.099900  0.591100  0.920700  1.0  -0.0956
  C  C98  1  0.141600  0.885800  0.731100  1.0  -0.0726
  C  C99  1  0.563800  0.886400  0.257200  1.0  -0.0531
  C  C100  1  0.030700  0.665400  0.895700  1.0  0.0448
  C  C101  1  0.295900  0.740600  0.995900  1.0  -0.1436
  C  C102  1  0.891800  0.893000  0.714300  1.0  -0.0641
  C  C103  1  0.233900  0.628400  0.972500  1.0  0.0233
  C  C104  1  0.188700  0.330700  0.735300  1.0  -0.1544
  C  C105  1  0.934700  0.275300  0.701200  1.0  -0.1071
  C  C106  1  0.169600  0.400200  0.803000  1.0  0.0358
  C  C107  1  0.560000  0.845700  0.180600  1.0  0.0284
  C  C108  1  0.134400  0.868700  0.799300  1.0  0.0226
  C  C109  1  0.891200  0.879800  0.784600  1.0  0.0388
  C  C110  1  0.007200  0.859400  0.903400  1.0  -0.104
  C  C111  1  0.441000  0.781600  0.047600  1.0  -0.0994
  C  C112  1  0.024500  0.472700  0.896300  1.0  -0.0595
  C  C113  1  0.923700  0.346300  0.769600  1.0  0.0326
  C  C114  1  0.888700  0.625500  0.840000  1.0  -0.4035
  C  C115  1  0.290600  0.936400  0.000100  1.0  -0.3682
  C  C116  1  0.311100  0.549700  0.000700  1.0  -0.368
  N  N117  1  0.564400  0.176600  0.869570  1.0  0.0195
  N  N118  1  0.990000  0.133800  0.175000  1.0  0.0285
  N  N119  1  0.957100  0.593400  0.180200  1.0  0.0488
  N  N120  1  0.435600  0.823400  0.130430  1.0  0.0182
  N  N121  1  0.010000  0.866200  0.825000  1.0  0.0294
  N  N122  1  0.042900  0.406600  0.819800  1.0  0.0494
  O  O123  1  0.448000  0.038800  0.587990  1.0  -0.7706
  O  O124  1  0.682200  0.045200  0.614500  1.0  -0.7424
  O  O125  1  0.857200  0.051600  0.400780  1.0  -0.7519
  O  O126  1  0.792700  0.829600  0.398340  1.0  -0.7561
  O  O127  1  0.098000  0.095200  0.429500  1.0  -0.7598
  O  O128  1  0.029600  0.881000  0.429380  1.0  -0.797
  O  O129  1  0.552000  0.961200  0.412010  1.0  -0.769
  O  O130  1  0.317800  0.954800  0.385500  1.0  -0.7397
  O  O131  1  0.142800  0.948400  0.599220  1.0  -0.7534
  O  O132  1  0.207300  0.170400  0.601660  1.0  -0.7573
  O  O133  1  0.902000  0.904800  0.570500  1.0  -0.7616
  O  O134  1  0.970400  0.119000  0.570620  1.0  -0.7991
