# generated using pymatgen
data_Mn3H8W2(C6N5)4
_symmetry_space_group_name_H-M   'P 1'
_cell_length_a   7.24700000
_cell_length_b   14.98300000
_cell_length_c   22.48900000
_cell_angle_alpha   90.00000000
_cell_angle_beta   90.90500000
_cell_angle_gamma   90.00000000
_symmetry_Int_Tables_number   1
_chemical_formula_structural   Mn3H8W2(C6N5)4
_chemical_formula_sum   'Mn6 H16 W4 C48 N40'
_cell_volume   2441.59151557
_cell_formula_units_Z   2
loop_
 _symmetry_equiv_pos_site_id
 _symmetry_equiv_pos_as_xyz
  1  'x, y, z'
loop_
 _atom_site_type_symbol
 _atom_site_label
 _atom_site_symmetry_multiplicity
 _atom_site_fract_x
 _atom_site_fract_y
 _atom_site_fract_z
 _atom_site_occupancy
 _atom_site_charge
  Mn  Mn1  1  0.753350  0.526760  0.766770  1.0  1.0739
  Mn  Mn2  1  0.746650  0.026760  0.733230  1.0  1.0738
  Mn  Mn3  1  0.246650  0.473240  0.233230  1.0  1.0744
  Mn  Mn4  1  0.253350  0.973240  0.266770  1.0  1.0743
  Mn  Mn5  1  0.500000  0.500000  0.500000  1.0  1.0894
  Mn  Mn6  1  0.000000  0.000000  0.000000  1.0  1.0894
  H  H7  1  0.678600  0.489000  0.629700  1.0  0.0533
  H  H8  1  0.623100  0.702200  0.529900  1.0  0.1146
  H  H9  1  0.709700  0.791000  0.610300  1.0  0.1331
  H  H10  1  0.758300  0.722700  0.703500  1.0  0.0989
  H  H11  1  0.821400  0.989000  0.870300  1.0  0.0539
  H  H12  1  0.876900  0.202200  0.970100  1.0  0.1154
  H  H13  1  0.790300  0.291000  0.889700  1.0  0.1325
  H  H14  1  0.741700  0.222700  0.796500  1.0  0.0994
  H  H15  1  0.321400  0.511000  0.370300  1.0  0.0526
  H  H16  1  0.376900  0.297800  0.470100  1.0  0.115
  H  H17  1  0.290300  0.209000  0.389700  1.0  0.132
  H  H18  1  0.241700  0.277300  0.296500  1.0  0.0995
  H  H19  1  0.178600  0.011000  0.129700  1.0  0.0523
  H  H20  1  0.123100  0.797800  0.029900  1.0  0.115
  H  H21  1  0.209700  0.709000  0.110300  1.0  0.1323
  H  H22  1  0.258300  0.777300  0.203500  1.0  0.0992
  W  W23  1  0.237780  0.286230  0.678200  1.0  -0.0019
  W  W24  1  0.262220  0.786230  0.821800  1.0  0.0037
  W  W25  1  0.762220  0.713770  0.321800  1.0  0.003
  W  W26  1  0.737780  0.213770  0.178200  1.0  -0.0027
  C  C27  1  0.457200  0.369400  0.713100  1.0  0.1693
  C  C28  1  0.457700  0.191300  0.693400  1.0  0.1866
  C  C29  1  0.074600  0.169000  0.696500  1.0  0.196
  C  C30  1  0.086100  0.397200  0.714400  1.0  0.1885
  C  C31  1  0.316800  0.379200  0.609500  1.0  0.1789
  C  C32  1  0.271200  0.209500  0.597400  1.0  0.1657
  C  C33  1  0.983900  0.302500  0.627400  1.0  0.1519
  C  C34  1  0.242000  0.265900  0.773500  1.0  0.1539
  C  C35  1  0.679900  0.552200  0.626100  1.0  0.36
  C  C36  1  0.650400  0.675400  0.567300  1.0  0.1876
  C  C37  1  0.698200  0.728200  0.614700  1.0  -0.1173
  C  C38  1  0.729800  0.687200  0.669600  1.0  0.1913
  C  C39  1  0.042800  0.869400  0.786900  1.0  0.1694
  C  C40  1  0.042300  0.691300  0.806600  1.0  0.1852
  C  C41  1  0.425400  0.669000  0.803500  1.0  0.1969
  C  C42  1  0.413900  0.897200  0.785600  1.0  0.1898
  C  C43  1  0.183200  0.879200  0.890500  1.0  0.1792
  C  C44  1  0.228800  0.709500  0.902600  1.0  0.1672
  C  C45  1  0.516100  0.802500  0.872600  1.0  0.1517
  C  C46  1  0.258000  0.765900  0.726500  1.0  0.1539
  C  C47  1  0.820100  0.052200  0.873900  1.0  0.3594
  C  C48  1  0.849600  0.175400  0.932700  1.0  0.1891
  C  C49  1  0.801800  0.228200  0.885300  1.0  -0.1191
  C  C50  1  0.770200  0.187200  0.830400  1.0  0.1908
  C  C51  1  0.542800  0.630600  0.286900  1.0  0.1698
  C  C52  1  0.542300  0.808700  0.306600  1.0  0.1842
  C  C53  1  0.925400  0.831000  0.303500  1.0  0.1946
  C  C54  1  0.913900  0.602800  0.285600  1.0  0.1908
  C  C55  1  0.683200  0.620800  0.390500  1.0  0.1794
  C  C56  1  0.728800  0.790500  0.402600  1.0  0.1653
  C  C57  1  0.016100  0.697500  0.372600  1.0  0.1519
  C  C58  1  0.758000  0.734100  0.226500  1.0  0.154
  C  C59  1  0.320100  0.447800  0.373900  1.0  0.3586
  C  C60  1  0.349600  0.324600  0.432700  1.0  0.1898
  C  C61  1  0.301800  0.271800  0.385300  1.0  -0.121
  C  C62  1  0.270200  0.312800  0.330400  1.0  0.1898
  C  C63  1  0.957200  0.130600  0.213100  1.0  0.1699
  C  C64  1  0.957700  0.308700  0.193400  1.0  0.1857
  C  C65  1  0.574600  0.331000  0.196500  1.0  0.1943
  C  C66  1  0.586100  0.102800  0.214400  1.0  0.1894
  C  C67  1  0.816800  0.120800  0.109500  1.0  0.1789
  C  C68  1  0.771200  0.290500  0.097400  1.0  0.1641
  C  C69  1  0.483900  0.197500  0.127400  1.0  0.1523
  C  C70  1  0.742000  0.234100  0.273500  1.0  0.1539
  C  C71  1  0.179900  0.947800  0.126100  1.0  0.3588
  C  C72  1  0.150400  0.824600  0.067300  1.0  0.1873
  C  C73  1  0.198200  0.771800  0.114700  1.0  -0.1196
  C  C74  1  0.229800  0.812800  0.169600  1.0  0.191
  N  N75  1  0.568600  0.417600  0.732100  1.0  -0.4196
  N  N76  1  0.933100  0.639400  0.795800  1.0  -0.4235
  N  N77  1  0.513200  0.606900  0.793600  1.0  -0.4515
  N  N78  1  0.997200  0.454300  0.733900  1.0  -0.4392
  N  N79  1  0.362400  0.425700  0.572500  1.0  -0.3981
  N  N80  1  0.287200  0.169800  0.554700  1.0  -0.3917
  N  N81  1  0.850400  0.313300  0.601500  1.0  -0.4161
  N  N82  1  0.247400  0.252200  0.823900  1.0  -0.3997
  N  N83  1  0.720900  0.598600  0.674900  1.0  -0.3494
  N  N84  1  0.641300  0.586100  0.572900  1.0  -0.3396
  N  N85  1  0.931400  0.917600  0.767900  1.0  -0.4199
  N  N86  1  0.566900  0.139400  0.704200  1.0  -0.4234
  N  N87  1  0.986800  0.106900  0.706400  1.0  -0.4533
  N  N88  1  0.502800  0.954300  0.766100  1.0  -0.4387
  N  N89  1  0.137600  0.925700  0.927500  1.0  -0.3985
  N  N90  1  0.212800  0.669800  0.945300  1.0  -0.3919
  N  N91  1  0.649600  0.813300  0.898500  1.0  -0.4168
  N  N92  1  0.252600  0.752200  0.676100  1.0  -0.3988
  N  N93  1  0.779100  0.098600  0.825100  1.0  -0.3504
  N  N94  1  0.858700  0.086100  0.927100  1.0  -0.3335
  N  N95  1  0.431400  0.582400  0.267900  1.0  -0.4212
  N  N96  1  0.066900  0.360600  0.204200  1.0  -0.4247
  N  N97  1  0.486800  0.393100  0.206400  1.0  -0.4541
  N  N98  1  0.002800  0.545700  0.266100  1.0  -0.4376
  N  N99  1  0.637600  0.574300  0.427500  1.0  -0.3969
  N  N100  1  0.712800  0.830200  0.445300  1.0  -0.3943
  N  N101  1  0.149600  0.686700  0.398500  1.0  -0.4169
  N  N102  1  0.752600  0.747800  0.176100  1.0  -0.3997
  N  N103  1  0.279100  0.401400  0.325100  1.0  -0.349
  N  N104  1  0.358700  0.413900  0.427100  1.0  -0.3352
  N  N105  1  0.068600  0.082400  0.232100  1.0  -0.4204
  N  N106  1  0.433100  0.860600  0.295800  1.0  -0.4253
  N  N107  1  0.013200  0.893100  0.293600  1.0  -0.4539
  N  N108  1  0.497200  0.045700  0.233900  1.0  -0.4376
  N  N109  1  0.862400  0.074300  0.072500  1.0  -0.3975
  N  N110  1  0.787200  0.330200  0.054700  1.0  -0.3931
  N  N111  1  0.350400  0.186700  0.101500  1.0  -0.4158
  N  N112  1  0.747400  0.247800  0.323900  1.0  -0.3997
  N  N113  1  0.220900  0.901400  0.174900  1.0  -0.3493
  N  N114  1  0.141300  0.913900  0.072900  1.0  -0.3402
