# generated using pymatgen
data_VH3C8O5
_symmetry_space_group_name_H-M   'P 1'
_cell_length_a   15.04180000
_cell_length_b   15.04180000
_cell_length_c   11.96110000
_cell_angle_alpha   90.00000000
_cell_angle_beta   90.00000000
_cell_angle_gamma   90.00000000
_symmetry_Int_Tables_number   1
_chemical_formula_structural   VH3C8O5
_chemical_formula_sum   'V8 H24 C64 O40'
_cell_volume   2706.26761831
_cell_formula_units_Z   8
loop_
 _symmetry_equiv_pos_site_id
 _symmetry_equiv_pos_as_xyz
  1  'x, y, z'
loop_
 _atom_site_type_symbol
 _atom_site_label
 _atom_site_symmetry_multiplicity
 _atom_site_fract_x
 _atom_site_fract_y
 _atom_site_fract_z
 _atom_site_occupancy
 _atom_site_charge
  V  V1  1  0.936000  0.064000  0.125000  1.0  1.9291
  V  V2  1  0.064000  0.936000  0.625000  1.0  1.9278
  V  V3  1  0.936000  0.936000  0.375000  1.0  1.9291
  V  V4  1  0.064000  0.064000  0.875000  1.0  1.9279
  V  V5  1  0.556000  0.556000  0.375000  1.0  1.9411
  V  V6  1  0.444000  0.444000  0.875000  1.0  1.9414
  V  V7  1  0.444000  0.556000  0.625000  1.0  1.941
  V  V8  1  0.556000  0.444000  0.125000  1.0  1.9414
  H  H9  1  0.749400  0.252300  0.253100  1.0  0.1104
  H  H10  1  0.823400  0.144900  0.545300  1.0  0.1209
  H  H11  1  0.676000  0.366800  0.541300  1.0  0.1066
  H  H12  1  0.250600  0.747700  0.753100  1.0  0.1104
  H  H13  1  0.176600  0.855100  0.045300  1.0  0.1208
  H  H14  1  0.324000  0.633200  0.041300  1.0  0.1064
  H  H15  1  0.747700  0.749400  0.503100  1.0  0.1103
  H  H16  1  0.855100  0.823400  0.795300  1.0  0.12
  H  H17  1  0.633200  0.676000  0.791300  1.0  0.1062
  H  H18  1  0.252300  0.250600  0.003100  1.0  0.1104
  H  H19  1  0.144900  0.176600  0.295300  1.0  0.1207
  H  H20  1  0.366800  0.324000  0.291300  1.0  0.1062
  H  H21  1  0.250600  0.252300  0.746900  1.0  0.1105
  H  H22  1  0.176600  0.144900  0.454700  1.0  0.1221
  H  H23  1  0.324000  0.366800  0.458700  1.0  0.1069
  H  H24  1  0.749400  0.747700  0.246900  1.0  0.1104
  H  H25  1  0.823400  0.855100  0.954700  1.0  0.1215
  H  H26  1  0.676000  0.633200  0.958700  1.0  0.107
  H  H27  1  0.252300  0.749400  0.496900  1.0  0.1104
  H  H28  1  0.144900  0.823400  0.204700  1.0  0.1215
  H  H29  1  0.366800  0.676000  0.208700  1.0  0.107
  H  H30  1  0.747700  0.250600  0.996900  1.0  0.1104
  H  H31  1  0.855100  0.176600  0.704700  1.0  0.1214
  H  H32  1  0.633200  0.324000  0.708700  1.0  0.1068
  C  C33  1  0.838800  0.118800  0.331800  1.0  0.6905
  C  C34  1  0.793700  0.187600  0.389900  1.0  0.0093
  C  C35  1  0.749500  0.253300  0.330800  1.0  -0.0818
  C  C36  1  0.793800  0.189000  0.505600  1.0  -0.1438
  C  C37  1  0.705500  0.320400  0.387500  1.0  -0.0385
  C  C38  1  0.749700  0.256100  0.562260  1.0  -0.0431
  C  C39  1  0.705600  0.321800  0.503200  1.0  -0.1482
  C  C40  1  0.660200  0.387700  0.326900  1.0  0.6821
  C  C41  1  0.161200  0.881200  0.831800  1.0  0.6918
  C  C42  1  0.206300  0.812400  0.889900  1.0  0.0087
  C  C43  1  0.250500  0.746700  0.830800  1.0  -0.0817
  C  C44  1  0.206200  0.811000  0.005600  1.0  -0.1437
  C  C45  1  0.294500  0.679600  0.887500  1.0  -0.038
  C  C46  1  0.250300  0.743900  0.062260  1.0  -0.0432
  C  C47  1  0.294400  0.678200  0.003200  1.0  -0.1477
  C  C48  1  0.339800  0.612300  0.826900  1.0  0.6811
  C  C49  1  0.881200  0.838800  0.581800  1.0  0.6918
  C  C50  1  0.812400  0.793700  0.639900  1.0  0.0091
  C  C51  1  0.746700  0.749500  0.580800  1.0  -0.0813
  C  C52  1  0.811000  0.793800  0.755600  1.0  -0.1455
  C  C53  1  0.679600  0.705500  0.637500  1.0  -0.0383
  C  C54  1  0.743900  0.749700  0.812260  1.0  -0.0431
  C  C55  1  0.678200  0.705600  0.753200  1.0  -0.1485
  C  C56  1  0.612300  0.660200  0.576900  1.0  0.6815
  C  C57  1  0.118800  0.161200  0.081800  1.0  0.6917
  C  C58  1  0.187600  0.206300  0.139900  1.0  0.0093
  C  C59  1  0.253300  0.250500  0.080800  1.0  -0.0815
  C  C60  1  0.189000  0.206200  0.255600  1.0  -0.1453
  C  C61  1  0.320400  0.294500  0.137500  1.0  -0.0378
  C  C62  1  0.256100  0.250300  0.312260  1.0  -0.0432
  C  C63  1  0.321800  0.294400  0.253200  1.0  -0.1495
  C  C64  1  0.387700  0.339800  0.076900  1.0  0.6818
  C  C65  1  0.161200  0.118800  0.668200  1.0  0.692
  C  C66  1  0.206300  0.187600  0.610100  1.0  0.0086
  C  C67  1  0.250500  0.253300  0.669200  1.0  -0.0822
  C  C68  1  0.206200  0.189000  0.494400  1.0  -0.1434
  C  C69  1  0.294500  0.320400  0.612500  1.0  -0.0374
  C  C70  1  0.250300  0.256100  0.437740  1.0  -0.0426
  C  C71  1  0.294400  0.321800  0.496800  1.0  -0.1479
  C  C72  1  0.339800  0.387700  0.673100  1.0  0.6818
  C  C73  1  0.838800  0.881200  0.168200  1.0  0.6913
  C  C74  1  0.793700  0.812400  0.110100  1.0  0.0096
  C  C75  1  0.749500  0.746700  0.169200  1.0  -0.0822
  C  C76  1  0.793800  0.811000  0.994400  1.0  -0.1421
  C  C77  1  0.705500  0.679600  0.112500  1.0  -0.0383
  C  C78  1  0.749700  0.743900  0.937740  1.0  -0.043
  C  C79  1  0.705600  0.678200  0.996800  1.0  -0.1481
  C  C80  1  0.660200  0.612300  0.173100  1.0  0.6815
  C  C81  1  0.118800  0.838800  0.418200  1.0  0.6923
  C  C82  1  0.187600  0.793700  0.360100  1.0  0.0094
  C  C83  1  0.253300  0.749500  0.419200  1.0  -0.0819
  C  C84  1  0.189000  0.793800  0.244400  1.0  -0.1442
  C  C85  1  0.320400  0.705500  0.362500  1.0  -0.0375
  C  C86  1  0.256100  0.749700  0.187740  1.0  -0.0429
  C  C87  1  0.321800  0.705600  0.246800  1.0  -0.1493
  C  C88  1  0.387700  0.660200  0.423100  1.0  0.6816
  C  C89  1  0.881200  0.161200  0.918200  1.0  0.6925
  C  C90  1  0.812400  0.206300  0.860100  1.0  0.0091
  C  C91  1  0.746700  0.250500  0.919200  1.0  -0.0818
  C  C92  1  0.811000  0.206200  0.744400  1.0  -0.1447
  C  C93  1  0.679600  0.294500  0.862500  1.0  -0.0378
  C  C94  1  0.743900  0.250300  0.687740  1.0  -0.043
  C  C95  1  0.678200  0.294400  0.746800  1.0  -0.1497
  C  C96  1  0.612300  0.339800  0.923100  1.0  0.6819
  O  O97  1  0.876100  0.133600  0.236100  1.0  -0.6109
  O  O98  1  0.843900  0.039500  0.372900  1.0  -0.635
  O  O99  1  0.642700  0.463800  0.372300  1.0  -0.6522
  O  O100  1  0.635200  0.374900  0.224700  1.0  -0.611
  O  O101  1  0.123900  0.866400  0.736100  1.0  -0.6109
  O  O102  1  0.156100  0.960500  0.872900  1.0  -0.6337
  O  O103  1  0.357300  0.536200  0.872300  1.0  -0.652
  O  O104  1  0.364800  0.625100  0.724700  1.0  -0.6107
  O  O105  1  0.866400  0.876100  0.486100  1.0  -0.6105
  O  O106  1  0.960500  0.843900  0.622900  1.0  -0.6349
  O  O107  1  0.536200  0.642700  0.622300  1.0  -0.6543
  O  O108  1  0.625100  0.635200  0.474700  1.0  -0.6093
  O  O109  1  0.133600  0.123900  0.986100  1.0  -0.6097
  O  O110  1  0.039500  0.156100  0.122900  1.0  -0.6361
  O  O111  1  0.463800  0.357300  0.122300  1.0  -0.6528
  O  O112  1  0.374900  0.364800  0.974700  1.0  -0.61
  O  O113  1  0.123900  0.133600  0.763900  1.0  -0.6109
  O  O114  1  0.156100  0.039500  0.627100  1.0  -0.6342
  O  O115  1  0.357300  0.463800  0.627700  1.0  -0.6522
  O  O116  1  0.364800  0.374900  0.775300  1.0  -0.6115
  O  O117  1  0.876100  0.866400  0.263900  1.0  -0.6108
  O  O118  1  0.843900  0.960500  0.127100  1.0  -0.6326
  O  O119  1  0.642700  0.536200  0.127700  1.0  -0.6525
  O  O120  1  0.635200  0.625100  0.275300  1.0  -0.6116
  O  O121  1  0.133600  0.876100  0.513900  1.0  -0.6109
  O  O122  1  0.039500  0.843900  0.377100  1.0  -0.6353
  O  O123  1  0.463800  0.642700  0.377700  1.0  -0.653
  O  O124  1  0.374900  0.635200  0.525300  1.0  -0.61
  O  O125  1  0.866400  0.123900  0.013900  1.0  -0.6108
  O  O126  1  0.960500  0.156100  0.877100  1.0  -0.634
  O  O127  1  0.536200  0.357300  0.877700  1.0  -0.653
  O  O128  1  0.625100  0.364800  0.025300  1.0  -0.6103
  O  O129  1  0.976600  0.000000  0.250000  1.0  -0.7587
  O  O130  1  0.023400  0.000000  0.750000  1.0  -0.7594
  O  O131  1  0.000000  0.976600  0.500000  1.0  -0.7604
  O  O132  1  0.000000  0.023400  0.000000  1.0  -0.7586
  O  O133  1  0.487800  0.500000  0.250000  1.0  -0.6238
  O  O134  1  0.512200  0.500000  0.750000  1.0  -0.6231
  O  O135  1  0.500000  0.487800  0.500000  1.0  -0.6257
  O  O136  1  0.500000  0.512200  0.000000  1.0  -0.6236
