# generated using pymatgen
data_VH4C8O5
_symmetry_space_group_name_H-M   'P 1'
_cell_length_a   15.16060000
_cell_length_b   15.16060000
_cell_length_c   12.04740000
_cell_angle_alpha   90.00000000
_cell_angle_beta   90.00000000
_cell_angle_gamma   90.00000000
_symmetry_Int_Tables_number   1
_chemical_formula_structural   VH4C8O5
_chemical_formula_sum   'V8 H32 C64 O40'
_cell_volume   2769.02010408
_cell_formula_units_Z   8
loop_
 _symmetry_equiv_pos_site_id
 _symmetry_equiv_pos_as_xyz
  1  'x, y, z'
loop_
 _atom_site_type_symbol
 _atom_site_label
 _atom_site_symmetry_multiplicity
 _atom_site_fract_x
 _atom_site_fract_y
 _atom_site_fract_z
 _atom_site_occupancy
 _atom_site_charge
  V  V1  1  0.686710  0.313290  0.500000  1.0  1.7211
  V  V2  1  0.186710  0.813290  0.000000  1.0  1.7211
  V  V3  1  0.813290  0.186710  0.000000  1.0  1.7181
  V  V4  1  0.313290  0.686710  0.500000  1.0  1.7181
  V  V5  1  0.686710  0.186710  0.750000  1.0  1.7232
  V  V6  1  0.186710  0.686710  0.250000  1.0  1.7232
  V  V7  1  0.813290  0.313290  0.250000  1.0  1.7167
  V  V8  1  0.313290  0.813290  0.750000  1.0  1.7167
  H  H9  1  0.571300  0.380200  0.921900  1.0  0.0926
  H  H10  1  0.071300  0.880200  0.421900  1.0  0.0926
  H  H11  1  0.928700  0.119800  0.421900  1.0  0.0925
  H  H12  1  0.428700  0.619800  0.921900  1.0  0.0925
  H  H13  1  0.619800  0.071300  0.171900  1.0  0.0935
  H  H14  1  0.119800  0.571300  0.671900  1.0  0.0935
  H  H15  1  0.880200  0.428700  0.671900  1.0  0.0921
  H  H16  1  0.380200  0.928700  0.171900  1.0  0.0921
  H  H17  1  0.928700  0.380200  0.828100  1.0  0.0928
  H  H18  1  0.428700  0.880200  0.328100  1.0  0.0928
  H  H19  1  0.571300  0.119800  0.328100  1.0  0.0927
  H  H20  1  0.071300  0.619800  0.828100  1.0  0.0927
  H  H21  1  0.880200  0.071300  0.578100  1.0  0.0928
  H  H22  1  0.380200  0.571300  0.078100  1.0  0.0928
  H  H23  1  0.619800  0.428700  0.078100  1.0  0.0934
  H  H24  1  0.119800  0.928700  0.578100  1.0  0.0934
  H  H25  1  0.822600  0.250000  0.625000  1.0  0.3412
  H  H26  1  0.322600  0.750000  0.125000  1.0  0.3412
  H  H27  1  0.677400  0.250000  0.125000  1.0  0.3413
  H  H28  1  0.177400  0.750000  0.625000  1.0  0.3413
  H  H29  1  0.750000  0.322600  0.875000  1.0  0.3473
  H  H30  1  0.250000  0.822600  0.375000  1.0  0.3473
  H  H31  1  0.750000  0.177400  0.375000  1.0  0.3467
  H  H32  1  0.250000  0.677400  0.875000  1.0  0.3467
  H  H33  1  0.500000  0.500000  0.618100  1.0  0.1036
  H  H34  1  0.000000  0.000000  0.118100  1.0  0.1047
  H  H35  1  0.500000  0.000000  0.868100  1.0  0.1036
  H  H36  1  0.000000  0.500000  0.368100  1.0  0.1036
  H  H37  1  0.000000  0.500000  0.131900  1.0  0.104
  H  H38  1  0.500000  0.000000  0.631900  1.0  0.104
  H  H39  1  0.000000  0.000000  0.881900  1.0  0.1051
  H  H40  1  0.500000  0.500000  0.381900  1.0  0.104
  C  C41  1  0.588200  0.363200  0.702400  1.0  0.699
  C  C42  1  0.540920  0.431240  0.762500  1.0  -0.0883
  C  C43  1  0.540920  0.431240  0.878800  1.0  -0.0934
  C  C44  1  0.088200  0.863200  0.202400  1.0  0.699
  C  C45  1  0.040920  0.931240  0.262500  1.0  -0.0883
  C  C46  1  0.040920  0.931240  0.378800  1.0  -0.0934
  C  C47  1  0.911800  0.136800  0.202400  1.0  0.7001
  C  C48  1  0.959080  0.068760  0.262500  1.0  -0.0877
  C  C49  1  0.959080  0.068760  0.378800  1.0  -0.0933
  C  C50  1  0.411800  0.636800  0.702400  1.0  0.7001
  C  C51  1  0.459080  0.568760  0.762500  1.0  -0.0877
  C  C52  1  0.459080  0.568760  0.878800  1.0  -0.0933
  C  C53  1  0.636800  0.088200  0.952400  1.0  0.6997
  C  C54  1  0.568760  0.040920  0.012500  1.0  -0.0873
  C  C55  1  0.568760  0.040920  0.128800  1.0  -0.0909
  C  C56  1  0.136800  0.588200  0.452400  1.0  0.6997
  C  C57  1  0.068760  0.540920  0.512500  1.0  -0.0873
  C  C58  1  0.068760  0.540920  0.628800  1.0  -0.0909
  C  C59  1  0.863200  0.411800  0.452400  1.0  0.6996
  C  C60  1  0.931240  0.459080  0.512500  1.0  -0.087
  C  C61  1  0.931240  0.459080  0.628800  1.0  -0.092
  C  C62  1  0.363200  0.911800  0.952400  1.0  0.6996
  C  C63  1  0.431240  0.959080  0.012500  1.0  -0.087
  C  C64  1  0.431240  0.959080  0.128800  1.0  -0.092
  C  C65  1  0.911800  0.363200  0.047600  1.0  0.6997
  C  C66  1  0.959080  0.431240  0.987500  1.0  -0.0882
  C  C67  1  0.959080  0.431240  0.871200  1.0  -0.0944
  C  C68  1  0.411800  0.863200  0.547600  1.0  0.6997
  C  C69  1  0.459080  0.931240  0.487500  1.0  -0.0882
  C  C70  1  0.459080  0.931240  0.371200  1.0  -0.0944
  C  C71  1  0.588200  0.136800  0.547600  1.0  0.6996
  C  C72  1  0.540920  0.068760  0.487500  1.0  -0.0879
  C  C73  1  0.540920  0.068760  0.371200  1.0  -0.0925
  C  C74  1  0.088200  0.636800  0.047600  1.0  0.6996
  C  C75  1  0.040920  0.568760  0.987500  1.0  -0.0879
  C  C76  1  0.040920  0.568760  0.871200  1.0  -0.0925
  C  C77  1  0.863200  0.088200  0.797600  1.0  0.6992
  C  C78  1  0.931240  0.040920  0.737500  1.0  -0.0874
  C  C79  1  0.931240  0.040920  0.621200  1.0  -0.0925
  C  C80  1  0.363200  0.588200  0.297600  1.0  0.6992
  C  C81  1  0.431240  0.540920  0.237500  1.0  -0.0874
  C  C82  1  0.431240  0.540920  0.121200  1.0  -0.0925
  C  C83  1  0.636800  0.411800  0.297600  1.0  0.6995
  C  C84  1  0.568760  0.459080  0.237500  1.0  -0.0872
  C  C85  1  0.568760  0.459080  0.121200  1.0  -0.0912
  C  C86  1  0.136800  0.911800  0.797600  1.0  0.6995
  C  C87  1  0.068760  0.959080  0.737500  1.0  -0.0872
  C  C88  1  0.068760  0.959080  0.621200  1.0  -0.0912
  C  C89  1  0.500000  0.500000  0.704400  1.0  -0.0417
  C  C90  1  0.500000  0.500000  0.936900  1.0  0.0146
  C  C91  1  0.000000  0.000000  0.204400  1.0  -0.0417
  C  C92  1  0.000000  0.000000  0.436900  1.0  0.0146
  C  C93  1  0.500000  0.000000  0.954400  1.0  -0.0417
  C  C94  1  0.500000  0.000000  0.186900  1.0  0.0146
  C  C95  1  0.000000  0.500000  0.454400  1.0  -0.0417
  C  C96  1  0.000000  0.500000  0.686900  1.0  0.0146
  C  C97  1  0.000000  0.500000  0.045600  1.0  -0.0435
  C  C98  1  0.000000  0.500000  0.813100  1.0  0.0144
  C  C99  1  0.500000  0.000000  0.545600  1.0  -0.0435
  C  C100  1  0.500000  0.000000  0.313100  1.0  0.0144
  C  C101  1  0.000000  0.000000  0.795600  1.0  -0.0435
  C  C102  1  0.000000  0.000000  0.563100  1.0  0.0144
  C  C103  1  0.500000  0.500000  0.295600  1.0  -0.0435
  C  C104  1  0.500000  0.500000  0.063100  1.0  0.0144
  O  O105  1  0.619000  0.381300  0.607800  1.0  -0.6387
  O  O106  1  0.596800  0.288300  0.747000  1.0  -0.6481
  O  O107  1  0.119000  0.881300  0.107800  1.0  -0.6387
  O  O108  1  0.096800  0.788300  0.247000  1.0  -0.6481
  O  O109  1  0.881000  0.118700  0.107800  1.0  -0.6377
  O  O110  1  0.903200  0.211700  0.247000  1.0  -0.6491
  O  O111  1  0.381000  0.618700  0.607800  1.0  -0.6377
  O  O112  1  0.403200  0.711700  0.747000  1.0  -0.6491
  O  O113  1  0.618700  0.119000  0.857800  1.0  -0.6368
  O  O114  1  0.711700  0.096800  0.997000  1.0  -0.646
  O  O115  1  0.118700  0.619000  0.357800  1.0  -0.6368
  O  O116  1  0.211700  0.596800  0.497000  1.0  -0.646
  O  O117  1  0.881300  0.381000  0.357800  1.0  -0.6369
  O  O118  1  0.788300  0.403200  0.497000  1.0  -0.6472
  O  O119  1  0.381300  0.881000  0.857800  1.0  -0.6369
  O  O120  1  0.288300  0.903200  0.997000  1.0  -0.6472
  O  O121  1  0.881000  0.381300  0.142200  1.0  -0.6376
  O  O122  1  0.903200  0.288300  0.003000  1.0  -0.6477
  O  O123  1  0.381000  0.881300  0.642200  1.0  -0.6376
  O  O124  1  0.403200  0.788300  0.503000  1.0  -0.6477
  O  O125  1  0.619000  0.118700  0.642200  1.0  -0.6373
  O  O126  1  0.596800  0.211700  0.503000  1.0  -0.6508
  O  O127  1  0.119000  0.618700  0.142200  1.0  -0.6373
  O  O128  1  0.096800  0.711700  0.003000  1.0  -0.6508
  O  O129  1  0.881300  0.119000  0.892200  1.0  -0.6358
  O  O130  1  0.788300  0.096800  0.753000  1.0  -0.6466
  O  O131  1  0.381300  0.619000  0.392200  1.0  -0.6358
  O  O132  1  0.288300  0.596800  0.253000  1.0  -0.6466
  O  O133  1  0.618700  0.381000  0.392200  1.0  -0.6364
  O  O134  1  0.711700  0.403200  0.253000  1.0  -0.6481
  O  O135  1  0.118700  0.881000  0.892200  1.0  -0.6364
  O  O136  1  0.211700  0.903200  0.753000  1.0  -0.6481
  O  O137  1  0.751400  0.250000  0.625000  1.0  -0.7963
  O  O138  1  0.251400  0.750000  0.125000  1.0  -0.7963
  O  O139  1  0.748600  0.250000  0.125000  1.0  -0.7946
  O  O140  1  0.248600  0.750000  0.625000  1.0  -0.7946
  O  O141  1  0.750000  0.251400  0.875000  1.0  -0.7909
  O  O142  1  0.250000  0.751400  0.375000  1.0  -0.7909
  O  O143  1  0.750000  0.248600  0.375000  1.0  -0.7942
  O  O144  1  0.250000  0.748600  0.875000  1.0  -0.7942
