# generated using pymatgen
data_VH3C8O5
_symmetry_space_group_name_H-M   'P 1'
_cell_length_a   15.03930000
_cell_length_b   15.03930000
_cell_length_c   11.95870000
_cell_angle_alpha   90.00000000
_cell_angle_beta   90.00000000
_cell_angle_gamma   90.00000000
_symmetry_Int_Tables_number   1
_chemical_formula_structural   VH3C8O5
_chemical_formula_sum   'V8 H24 C64 O40'
_cell_volume   2704.82527739
_cell_formula_units_Z   8
loop_
 _symmetry_equiv_pos_site_id
 _symmetry_equiv_pos_as_xyz
  1  'x, y, z'
loop_
 _atom_site_type_symbol
 _atom_site_label
 _atom_site_symmetry_multiplicity
 _atom_site_fract_x
 _atom_site_fract_y
 _atom_site_fract_z
 _atom_site_occupancy
 _atom_site_charge
  V  V1  1  0.937000  0.063000  0.125000  1.0  1.9011
  V  V2  1  0.063000  0.937000  0.625000  1.0  1.9008
  V  V3  1  0.937000  0.937000  0.375000  1.0  1.9014
  V  V4  1  0.063000  0.063000  0.875000  1.0  1.9005
  V  V5  1  0.557000  0.557000  0.375000  1.0  1.8114
  V  V6  1  0.443000  0.443000  0.875000  1.0  1.8117
  V  V7  1  0.443000  0.557000  0.625000  1.0  1.8119
  V  V8  1  0.557000  0.443000  0.125000  1.0  1.811
  H  H9  1  0.677800  0.366000  0.541500  1.0  0.1146
  H  H10  1  0.754800  0.254700  0.253200  1.0  0.1213
  H  H11  1  0.824800  0.144000  0.544800  1.0  0.13
  H  H12  1  0.322200  0.634000  0.041500  1.0  0.1145
  H  H13  1  0.245200  0.745300  0.753200  1.0  0.1214
  H  H14  1  0.175200  0.856000  0.044800  1.0  0.1298
  H  H15  1  0.634000  0.677800  0.791500  1.0  0.1142
  H  H16  1  0.745300  0.754800  0.503200  1.0  0.1215
  H  H17  1  0.856000  0.824800  0.794800  1.0  0.1297
  H  H18  1  0.366000  0.322200  0.291500  1.0  0.1141
  H  H19  1  0.254700  0.245200  0.003200  1.0  0.1215
  H  H20  1  0.144000  0.175200  0.294800  1.0  0.1306
  H  H21  1  0.322200  0.366000  0.458500  1.0  0.1172
  H  H22  1  0.245200  0.254700  0.746800  1.0  0.1212
  H  H23  1  0.175200  0.144000  0.455200  1.0  0.1308
  H  H24  1  0.677800  0.634000  0.958500  1.0  0.117
  H  H25  1  0.754800  0.745300  0.246800  1.0  0.1211
  H  H26  1  0.824800  0.856000  0.955200  1.0  0.1307
  H  H27  1  0.366000  0.677800  0.208500  1.0  0.117
  H  H28  1  0.254700  0.754800  0.496800  1.0  0.1213
  H  H29  1  0.144000  0.824800  0.205200  1.0  0.131
  H  H30  1  0.634000  0.322200  0.708500  1.0  0.1168
  H  H31  1  0.745300  0.245200  0.996800  1.0  0.1212
  H  H32  1  0.856000  0.175200  0.705200  1.0  0.1308
  C  C33  1  0.751100  0.255100  0.562010  1.0  -0.0219
  C  C34  1  0.707900  0.321300  0.503300  1.0  -0.142
  C  C35  1  0.709300  0.321200  0.387800  1.0  -0.0338
  C  C36  1  0.753900  0.254800  0.331000  1.0  -0.0834
  C  C37  1  0.797100  0.188500  0.389700  1.0  -0.0005
  C  C38  1  0.795700  0.188700  0.505200  1.0  -0.1216
  C  C39  1  0.665400  0.388400  0.328200  1.0  0.6936
  C  C40  1  0.842300  0.121100  0.332100  1.0  0.6589
  C  C41  1  0.248900  0.744900  0.062010  1.0  -0.0222
  C  C42  1  0.292100  0.678700  0.003300  1.0  -0.1411
  C  C43  1  0.290700  0.678800  0.887800  1.0  -0.0339
  C  C44  1  0.246100  0.745200  0.831000  1.0  -0.0834
  C  C45  1  0.202900  0.811500  0.889700  1.0  -0.0005
  C  C46  1  0.204300  0.811300  0.005200  1.0  -0.1229
  C  C47  1  0.334600  0.611600  0.828200  1.0  0.6927
  C  C48  1  0.157700  0.878900  0.832100  1.0  0.661
  C  C49  1  0.744900  0.751100  0.812010  1.0  -0.0223
  C  C50  1  0.678700  0.707900  0.753300  1.0  -0.1429
  C  C51  1  0.678800  0.709300  0.637800  1.0  -0.0334
  C  C52  1  0.745200  0.753900  0.581000  1.0  -0.0838
  C  C53  1  0.811500  0.797100  0.639700  1.0  -1e-04
  C  C54  1  0.811300  0.795700  0.755200  1.0  -0.1227
  C  C55  1  0.611600  0.665400  0.578200  1.0  0.6934
  C  C56  1  0.878900  0.842300  0.582100  1.0  0.6599
  C  C57  1  0.255100  0.248900  0.312010  1.0  -0.022
  C  C58  1  0.321300  0.292100  0.253300  1.0  -0.1439
  C  C59  1  0.321200  0.290700  0.137800  1.0  -0.0329
  C  C60  1  0.254800  0.246100  0.081000  1.0  -0.0837
  C  C61  1  0.188500  0.202900  0.139700  1.0  1e-04
  C  C62  1  0.188700  0.204300  0.255200  1.0  -0.1234
  C  C63  1  0.388400  0.334600  0.078200  1.0  0.6931
  C  C64  1  0.121100  0.157700  0.082100  1.0  0.6603
  C  C65  1  0.248900  0.255100  0.437990  1.0  -0.0215
  C  C66  1  0.292100  0.321300  0.496700  1.0  -0.142
  C  C67  1  0.290700  0.321200  0.612200  1.0  -0.0335
  C  C68  1  0.246100  0.254800  0.669000  1.0  -0.0851
  C  C69  1  0.202900  0.188500  0.610300  1.0  -0.0004
  C  C70  1  0.204300  0.188700  0.494800  1.0  -0.124
  C  C71  1  0.334600  0.388400  0.671800  1.0  0.6937
  C  C72  1  0.157700  0.121100  0.667900  1.0  0.6611
  C  C73  1  0.751100  0.744900  0.937990  1.0  -0.0216
  C  C74  1  0.707900  0.678700  0.996700  1.0  -0.1418
  C  C75  1  0.709300  0.678800  0.112200  1.0  -0.0337
  C  C76  1  0.753900  0.745200  0.169000  1.0  -0.0848
  C  C77  1  0.797100  0.811500  0.110300  1.0  -1e-04
  C  C78  1  0.795700  0.811300  0.994800  1.0  -0.1223
  C  C79  1  0.665400  0.611600  0.171800  1.0  0.6934
  C  C80  1  0.842300  0.878900  0.167900  1.0  0.6597
  C  C81  1  0.255100  0.751100  0.187990  1.0  -0.0214
  C  C82  1  0.321300  0.707900  0.246700  1.0  -0.1437
  C  C83  1  0.321200  0.709300  0.362200  1.0  -0.0328
  C  C84  1  0.254800  0.753900  0.419000  1.0  -0.0849
  C  C85  1  0.188500  0.797100  0.360300  1.0  0.0002
  C  C86  1  0.188700  0.795700  0.244800  1.0  -0.1237
  C  C87  1  0.388400  0.665400  0.421800  1.0  0.6928
  C  C88  1  0.121100  0.842300  0.417900  1.0  0.6608
  C  C89  1  0.744900  0.248900  0.687990  1.0  -0.0219
  C  C90  1  0.678700  0.292100  0.746700  1.0  -0.144
  C  C91  1  0.678800  0.290700  0.862200  1.0  -0.0331
  C  C92  1  0.745200  0.246100  0.919000  1.0  -0.0851
  C  C93  1  0.811500  0.202900  0.860300  1.0  1e-04
  C  C94  1  0.811300  0.204300  0.744800  1.0  -0.1238
  C  C95  1  0.611600  0.334600  0.921800  1.0  0.6942
  C  C96  1  0.878900  0.157700  0.917900  1.0  0.6601
  O  O97  1  0.650000  0.466200  0.371600  1.0  -0.6385
  O  O98  1  0.637900  0.377000  0.226100  1.0  -0.6104
  O  O99  1  0.877000  0.134000  0.233800  1.0  -0.5949
  O  O100  1  0.852300  0.041800  0.373600  1.0  -0.6527
  O  O101  1  0.350000  0.533800  0.871600  1.0  -0.6393
  O  O102  1  0.362100  0.623000  0.726100  1.0  -0.6103
  O  O103  1  0.123000  0.866000  0.733800  1.0  -0.5939
  O  O104  1  0.147700  0.958200  0.873600  1.0  -0.6526
  O  O105  1  0.533800  0.650000  0.621600  1.0  -0.6402
  O  O106  1  0.623000  0.637900  0.476100  1.0  -0.6083
  O  O107  1  0.866000  0.877000  0.483800  1.0  -0.5933
  O  O108  1  0.958200  0.852300  0.623600  1.0  -0.651
  O  O109  1  0.466200  0.350000  0.121600  1.0  -0.6388
  O  O110  1  0.377000  0.362100  0.976100  1.0  -0.6085
  O  O111  1  0.134000  0.123000  0.983800  1.0  -0.593
  O  O112  1  0.041800  0.147700  0.123600  1.0  -0.6531
  O  O113  1  0.350000  0.466200  0.628400  1.0  -0.6398
  O  O114  1  0.362100  0.377000  0.773900  1.0  -0.6107
  O  O115  1  0.123000  0.134000  0.766200  1.0  -0.5947
  O  O116  1  0.147700  0.041800  0.626400  1.0  -0.6518
  O  O117  1  0.650000  0.533800  0.128400  1.0  -0.638
  O  O118  1  0.637900  0.623000  0.273900  1.0  -0.6111
  O  O119  1  0.877000  0.866000  0.266200  1.0  -0.5943
  O  O120  1  0.852300  0.958200  0.126400  1.0  -0.6536
  O  O121  1  0.466200  0.650000  0.378400  1.0  -0.6389
  O  O122  1  0.377000  0.637900  0.523900  1.0  -0.6096
  O  O123  1  0.134000  0.877000  0.516200  1.0  -0.5932
  O  O124  1  0.041800  0.852300  0.376400  1.0  -0.6514
  O  O125  1  0.533800  0.350000  0.878400  1.0  -0.6386
  O  O126  1  0.623000  0.362100  0.023900  1.0  -0.6089
  O  O127  1  0.866000  0.123000  0.016200  1.0  -0.5938
  O  O128  1  0.958200  0.147700  0.876400  1.0  -0.6533
  O  O129  1  0.981800  0.000000  0.250000  1.0  -0.7448
  O  O130  1  0.018200  0.000000  0.750000  1.0  -0.7457
  O  O131  1  0.000000  0.981800  0.500000  1.0  -0.7485
  O  O132  1  0.000000  0.018200  0.000000  1.0  -0.746
  O  O133  1  0.490100  0.500000  0.250000  1.0  -0.6066
  O  O134  1  0.509900  0.500000  0.750000  1.0  -0.6066
  O  O135  1  0.500000  0.490100  0.500000  1.0  -0.6089
  O  O136  1  0.500000  0.509900  0.000000  1.0  -0.6072
