# generated using pymatgen
data_ScPHO4F3
_symmetry_space_group_name_H-M   'P 1'
_cell_length_a   20.29960000
_cell_length_b   9.40010000
_cell_length_c   9.69410000
_cell_angle_alpha   90.00000000
_cell_angle_beta   111.31000000
_cell_angle_gamma   90.00000000
_symmetry_Int_Tables_number   1
_chemical_formula_structural   ScPHO4F3
_chemical_formula_sum   'Sc8 P8 H8 O32 F24'
_cell_volume   1723.33574252
_cell_formula_units_Z   8
loop_
 _symmetry_equiv_pos_site_id
 _symmetry_equiv_pos_as_xyz
  1  'x, y, z'
loop_
 _atom_site_type_symbol
 _atom_site_label
 _atom_site_symmetry_multiplicity
 _atom_site_fract_x
 _atom_site_fract_y
 _atom_site_fract_z
 _atom_site_occupancy
 _atom_site_charge
  Sc  Sc1  1  0.500000  0.626670  0.250000  1.0  2.0128
  Sc  Sc2  1  0.000000  0.126670  0.250000  1.0  2.0128
  Sc  Sc3  1  0.500000  0.373330  0.750000  1.0  2.0147
  Sc  Sc4  1  0.000000  0.873330  0.750000  1.0  2.0147
  Sc  Sc5  1  0.250000  0.250000  0.000000  1.0  2.0079
  Sc  Sc6  1  0.750000  0.250000  0.500000  1.0  2.0079
  Sc  Sc7  1  0.750000  0.750000  0.000000  1.0  2.0079
  Sc  Sc8  1  0.250000  0.750000  0.500000  1.0  2.0079
  P  P9  1  0.394660  0.419900  0.964260  1.0  1.9919
  P  P10  1  0.894660  0.919900  0.964260  1.0  1.9919
  P  P11  1  0.605340  0.419900  0.535740  1.0  1.9923
  P  P12  1  0.105340  0.919900  0.535740  1.0  1.9923
  P  P13  1  0.605340  0.580100  0.035740  1.0  1.9905
  P  P14  1  0.105340  0.080100  0.035740  1.0  1.9905
  P  P15  1  0.394660  0.580100  0.464260  1.0  1.99
  P  P16  1  0.894660  0.080100  0.464260  1.0  1.99
  H  H17  1  0.331500  0.564000  0.823000  1.0  0.4186
  H  H18  1  0.831500  0.064000  0.823000  1.0  0.4186
  H  H19  1  0.668500  0.564000  0.677000  1.0  0.4197
  H  H20  1  0.168500  0.064000  0.677000  1.0  0.4197
  H  H21  1  0.668500  0.436000  0.177000  1.0  0.4203
  H  H22  1  0.168500  0.936000  0.177000  1.0  0.4203
  H  H23  1  0.331500  0.436000  0.323000  1.0  0.4186
  H  H24  1  0.831500  0.936000  0.323000  1.0  0.4186
  O  O25  1  0.440000  0.455860  0.123120  1.0  -0.784
  O  O26  1  0.438450  0.366200  0.878250  1.0  -0.8171
  O  O27  1  0.339530  0.307800  0.955480  1.0  -0.8006
  O  O28  1  0.357620  0.562600  0.896100  1.0  -0.6849
  O  O29  1  0.940000  0.955860  0.123120  1.0  -0.784
  O  O30  1  0.938450  0.866200  0.878250  1.0  -0.8171
  O  O31  1  0.839530  0.807800  0.955480  1.0  -0.8006
  O  O32  1  0.857620  0.062600  0.896100  1.0  -0.6849
  O  O33  1  0.560000  0.455860  0.376880  1.0  -0.7841
  O  O34  1  0.561550  0.366200  0.621750  1.0  -0.8187
  O  O35  1  0.660470  0.307800  0.544520  1.0  -0.7999
  O  O36  1  0.642380  0.562600  0.603900  1.0  -0.686
  O  O37  1  0.060000  0.955860  0.376880  1.0  -0.7841
  O  O38  1  0.061550  0.866200  0.621750  1.0  -0.8187
  O  O39  1  0.160470  0.807800  0.544520  1.0  -0.7999
  O  O40  1  0.142380  0.062600  0.603900  1.0  -0.686
  O  O41  1  0.560000  0.544140  0.876880  1.0  -0.784
  O  O42  1  0.561550  0.633800  0.121750  1.0  -0.8211
  O  O43  1  0.660470  0.692200  0.044520  1.0  -0.8014
  O  O44  1  0.642380  0.437400  0.103900  1.0  -0.6839
  O  O45  1  0.060000  0.044140  0.876880  1.0  -0.784
  O  O46  1  0.061550  0.133800  0.121750  1.0  -0.8211
  O  O47  1  0.160470  0.192200  0.044520  1.0  -0.8014
  O  O48  1  0.142380  0.937400  0.103900  1.0  -0.6839
  O  O49  1  0.440000  0.544140  0.623120  1.0  -0.7838
  O  O50  1  0.438450  0.633800  0.378250  1.0  -0.8185
  O  O51  1  0.339530  0.692200  0.455480  1.0  -0.8022
  O  O52  1  0.357620  0.437400  0.396100  1.0  -0.6813
  O  O53  1  0.940000  0.044140  0.623120  1.0  -0.7838
  O  O54  1  0.938450  0.133800  0.378250  1.0  -0.8185
  O  O55  1  0.839530  0.192200  0.455480  1.0  -0.8022
  O  O56  1  0.857620  0.937400  0.396100  1.0  -0.6813
  F  F57  1  0.312920  0.122740  0.163090  1.0  -0.4689
  F  F58  1  0.559970  0.780840  0.383000  1.0  -0.442
  F  F59  1  0.264050  0.407220  0.146050  1.0  -0.4215
  F  F60  1  0.812920  0.622740  0.163090  1.0  -0.4689
  F  F61  1  0.059970  0.280840  0.383000  1.0  -0.442
  F  F62  1  0.764050  0.907220  0.146050  1.0  -0.4215
  F  F63  1  0.687080  0.122740  0.336910  1.0  -0.4676
  F  F64  1  0.440030  0.780840  0.117000  1.0  -0.4421
  F  F65  1  0.735950  0.407220  0.353950  1.0  -0.4232
  F  F66  1  0.187080  0.622740  0.336910  1.0  -0.4676
  F  F67  1  0.940030  0.280840  0.117000  1.0  -0.4421
  F  F68  1  0.235950  0.907220  0.353950  1.0  -0.4232
  F  F69  1  0.687080  0.877260  0.836910  1.0  -0.469
  F  F70  1  0.440030  0.219160  0.617000  1.0  -0.4423
  F  F71  1  0.735950  0.592780  0.853950  1.0  -0.4236
  F  F72  1  0.187080  0.377260  0.836910  1.0  -0.469
  F  F73  1  0.940030  0.719160  0.617000  1.0  -0.4423
  F  F74  1  0.235950  0.092780  0.853950  1.0  -0.4236
  F  F75  1  0.312920  0.877260  0.663090  1.0  -0.4695
  F  F76  1  0.559970  0.219160  0.883000  1.0  -0.442
  F  F77  1  0.264050  0.592780  0.646050  1.0  -0.4221
  F  F78  1  0.812920  0.377260  0.663090  1.0  -0.4695
  F  F79  1  0.059970  0.719160  0.883000  1.0  -0.442
  F  F80  1  0.764050  0.092780  0.646050  1.0  -0.4221
