# generated using pymatgen
data_Cd6H36C48S6N8O27
_symmetry_space_group_name_H-M   'P 1'
_cell_length_a   16.36800000
_cell_length_b   16.36800000
_cell_length_c   22.20610000
_cell_angle_alpha   68.37400000
_cell_angle_beta   68.37400000
_cell_angle_gamma   60.00000000
_symmetry_Int_Tables_number   1
_chemical_formula_structural   Cd6H36C48S6N8O27
_chemical_formula_sum   'Cd12 H72 C96 S12 N16 O54'
_cell_volume   4662.39506149
_cell_formula_units_Z   2
loop_
 _symmetry_equiv_pos_site_id
 _symmetry_equiv_pos_as_xyz
  1  'x, y, z'
loop_
 _atom_site_type_symbol
 _atom_site_label
 _atom_site_symmetry_multiplicity
 _atom_site_fract_x
 _atom_site_fract_y
 _atom_site_fract_z
 _atom_site_occupancy
 _atom_site_charge
  Cd  Cd1  1  0.045140  0.309380  0.781340  1.0  0.9451
  Cd  Cd2  1  0.309380  0.864140  0.781340  1.0  0.9489
  Cd  Cd3  1  0.864140  0.045140  0.781340  1.0  0.9467
  Cd  Cd4  1  0.454860  0.635860  0.718660  1.0  0.9451
  Cd  Cd5  1  0.190620  0.454860  0.718660  1.0  0.9451
  Cd  Cd6  1  0.635860  0.190620  0.718660  1.0  0.9419
  Cd  Cd7  1  0.954860  0.690620  0.218660  1.0  0.94
  Cd  Cd8  1  0.690620  0.135860  0.218660  1.0  0.9464
  Cd  Cd9  1  0.135860  0.954860  0.218660  1.0  0.9447
  Cd  Cd10  1  0.545140  0.364140  0.281340  1.0  0.9471
  Cd  Cd11  1  0.809380  0.545140  0.281340  1.0  0.9464
  Cd  Cd12  1  0.364140  0.809380  0.281340  1.0  0.9448
  H  H13  1  0.333000  0.290000  0.904000  1.0  0.1166
  H  H14  1  0.329500  0.213500  0.031500  1.0  0.1372
  H  H15  1  0.967200  0.163200  0.909400  1.0  0.2453
  H  H16  1  0.070800  0.126800  0.907600  1.0  0.0875
  H  H17  1  0.916000  0.187000  0.811000  1.0  0.2089
  H  H18  1  0.992900  0.155900  0.748300  1.0  0.1024
  H  H19  1  0.290000  0.473000  0.904000  1.0  0.1153
  H  H20  1  0.213500  0.425500  0.031500  1.0  0.1369
  H  H21  1  0.163200  0.960200  0.909400  1.0  0.2438
  H  H22  1  0.126800  0.894800  0.907600  1.0  0.0897
  H  H23  1  0.187000  0.086000  0.811000  1.0  0.2053
  H  H24  1  0.155900  0.102900  0.748300  1.0  0.1034
  H  H25  1  0.473000  0.333000  0.904000  1.0  0.1167
  H  H26  1  0.425500  0.329500  0.031500  1.0  0.1384
  H  H27  1  0.960200  0.967200  0.909400  1.0  0.2425
  H  H28  1  0.894800  0.070800  0.907600  1.0  0.0893
  H  H29  1  0.086000  0.916000  0.811000  1.0  0.2078
  H  H30  1  0.102900  0.992900  0.748300  1.0  0.102
  H  H31  1  0.167000  0.027000  0.596000  1.0  0.1167
  H  H32  1  0.170500  0.074500  0.468500  1.0  0.1384
  H  H33  1  0.532800  0.539800  0.590600  1.0  0.2491
  H  H34  1  0.429200  0.605200  0.592400  1.0  0.0903
  H  H35  1  0.584000  0.414000  0.689000  1.0  0.2075
  H  H36  1  0.507100  0.397100  0.751700  1.0  0.1032
  H  H37  1  0.210000  0.167000  0.596000  1.0  0.1176
  H  H38  1  0.286500  0.170500  0.468500  1.0  0.1367
  H  H39  1  0.336800  0.532800  0.590600  1.0  0.2446
  H  H40  1  0.373200  0.429200  0.592400  1.0  0.0897
  H  H41  1  0.313000  0.584000  0.689000  1.0  0.2076
  H  H42  1  0.344100  0.507100  0.751700  1.0  0.1045
  H  H43  1  0.027000  0.210000  0.596000  1.0  0.1158
  H  H44  1  0.074500  0.286500  0.468500  1.0  0.1353
  H  H45  1  0.539800  0.336800  0.590600  1.0  0.2439
  H  H46  1  0.605200  0.373200  0.592400  1.0  0.0926
  H  H47  1  0.414000  0.313000  0.689000  1.0  0.2078
  H  H48  1  0.397100  0.344100  0.751700  1.0  0.1043
  H  H49  1  0.667000  0.710000  0.096000  1.0  0.1159
  H  H50  1  0.670500  0.786500  0.968500  1.0  0.1377
  H  H51  1  0.032800  0.836800  0.090600  1.0  0.245
  H  H52  1  0.929200  0.873200  0.092400  1.0  0.0884
  H  H53  1  0.084000  0.813000  0.189000  1.0  0.2067
  H  H54  1  0.007100  0.844100  0.251700  1.0  0.1031
  H  H55  1  0.710000  0.527000  0.096000  1.0  0.115
  H  H56  1  0.786500  0.574500  0.968500  1.0  0.1355
  H  H57  1  0.836800  0.039800  0.090600  1.0  0.2419
  H  H58  1  0.873200  0.105200  0.092400  1.0  0.0906
  H  H59  1  0.813000  0.914000  0.189000  1.0  0.2079
  H  H60  1  0.844100  0.897100  0.251700  1.0  0.1035
  H  H61  1  0.527000  0.667000  0.096000  1.0  0.1164
  H  H62  1  0.574500  0.670500  0.968500  1.0  0.1373
  H  H63  1  0.039800  0.032800  0.090600  1.0  0.2429
  H  H64  1  0.105200  0.929200  0.092400  1.0  0.0896
  H  H65  1  0.914000  0.084000  0.189000  1.0  0.2065
  H  H66  1  0.897100  0.007100  0.251700  1.0  0.1022
  H  H67  1  0.833000  0.973000  0.404000  1.0  0.1167
  H  H68  1  0.829500  0.925500  0.531500  1.0  0.1381
  H  H69  1  0.467200  0.460200  0.409400  1.0  0.2478
  H  H70  1  0.570800  0.394800  0.407600  1.0  0.0896
  H  H71  1  0.416000  0.586000  0.311000  1.0  0.2133
  H  H72  1  0.492900  0.602900  0.248300  1.0  0.1042
  H  H73  1  0.790000  0.833000  0.404000  1.0  0.1162
  H  H74  1  0.713500  0.829500  0.531500  1.0  0.1364
  H  H75  1  0.663200  0.467200  0.409400  1.0  0.2439
  H  H76  1  0.626800  0.570800  0.407600  1.0  0.0877
  H  H77  1  0.687000  0.416000  0.311000  1.0  0.2072
  H  H78  1  0.655900  0.492900  0.248300  1.0  0.104
  H  H79  1  0.973000  0.790000  0.404000  1.0  0.1171
  H  H80  1  0.925500  0.713500  0.531500  1.0  0.1357
  H  H81  1  0.460200  0.663200  0.409400  1.0  0.2404
  H  H82  1  0.394800  0.626800  0.407600  1.0  0.0929
  H  H83  1  0.586000  0.687000  0.311000  1.0  0.2081
  H  H84  1  0.602900  0.655900  0.248300  1.0  0.1034
  C  C85  1  0.224980  0.094080  0.104460  1.0  0.7217
  C  C86  1  0.235120  0.156120  0.035640  1.0  -0.1836
  C  C87  1  0.287970  0.209670  0.008190  1.0  -0.0457
  C  C88  1  0.280580  0.260880  0.941560  1.0  -0.0332
  C  C89  1  0.222790  0.245490  0.920530  1.0  -0.2063
  C  C90  1  0.199100  0.285900  0.853300  1.0  0.7429
  C  C91  1  0.023110  0.124510  0.893170  1.0  0.0222
  C  C92  1  0.978100  0.146120  0.794620  1.0  -0.0007
  C  C93  1  0.094080  0.576480  0.104460  1.0  0.722
  C  C94  1  0.156120  0.573120  0.035640  1.0  -0.1839
  C  C95  1  0.209670  0.494170  0.008190  1.0  -0.0498
  C  C96  1  0.260880  0.516980  0.941560  1.0  -0.032
  C  C97  1  0.245490  0.611190  0.920530  1.0  -0.2067
  C  C98  1  0.285900  0.661700  0.853300  1.0  0.7415
  C  C99  1  0.124510  0.959210  0.893170  1.0  0.0221
  C  C100  1  0.146120  0.081160  0.794620  1.0  0.0031
  C  C101  1  0.576480  0.224980  0.104460  1.0  0.7218
  C  C102  1  0.573120  0.235120  0.035640  1.0  -0.1826
  C  C103  1  0.494170  0.287970  0.008190  1.0  -0.0483
  C  C104  1  0.516980  0.280580  0.941560  1.0  -0.0319
  C  C105  1  0.611190  0.222790  0.920530  1.0  -0.2056
  C  C106  1  0.661700  0.199100  0.853300  1.0  0.7413
  C  C107  1  0.959210  0.023110  0.893170  1.0  0.0225
  C  C108  1  0.081160  0.978100  0.794620  1.0  0.0087
  C  C109  1  0.275020  0.923520  0.395540  1.0  0.7209
  C  C110  1  0.264880  0.926880  0.464360  1.0  -0.1849
  C  C111  1  0.212030  0.005830  0.491810  1.0  -0.0474
  C  C112  1  0.219420  0.983020  0.558440  1.0  -0.0335
  C  C113  1  0.277210  0.888810  0.579470  1.0  -0.2065
  C  C114  1  0.300900  0.838300  0.646700  1.0  0.7408
  C  C115  1  0.476890  0.540790  0.606830  1.0  0.0229
  C  C116  1  0.521900  0.418840  0.705380  1.0  0.0089
  C  C117  1  0.405920  0.275020  0.395540  1.0  0.7221
  C  C118  1  0.343880  0.264880  0.464360  1.0  -0.1818
  C  C119  1  0.290330  0.212030  0.491810  1.0  -0.0461
  C  C120  1  0.239120  0.219420  0.558440  1.0  -0.0322
  C  C121  1  0.254510  0.277210  0.579470  1.0  -0.2055
  C  C122  1  0.214100  0.300900  0.646700  1.0  0.7422
  C  C123  1  0.375490  0.476890  0.606830  1.0  0.0204
  C  C124  1  0.353880  0.521900  0.705380  1.0  -0.0031
  C  C125  1  0.923520  0.405920  0.395540  1.0  0.7211
  C  C126  1  0.926880  0.343880  0.464360  1.0  -0.1828
  C  C127  1  0.005830  0.290330  0.491810  1.0  -0.0457
  C  C128  1  0.983020  0.239120  0.558440  1.0  -0.0311
  C  C129  1  0.888810  0.254510  0.579470  1.0  -0.2069
  C  C130  1  0.838300  0.214100  0.646700  1.0  0.7393
  C  C131  1  0.540790  0.375490  0.606830  1.0  0.022
  C  C132  1  0.418840  0.353880  0.705380  1.0  0.0061
  C  C133  1  0.775020  0.905920  0.895540  1.0  0.7216
  C  C134  1  0.764880  0.843880  0.964360  1.0  -0.1816
  C  C135  1  0.712030  0.790330  0.991810  1.0  -0.0463
  C  C136  1  0.719420  0.739120  0.058440  1.0  -0.0339
  C  C137  1  0.777210  0.754510  0.079470  1.0  -0.2056
  C  C138  1  0.800900  0.714100  0.146700  1.0  0.7425
  C  C139  1  0.976890  0.875490  0.106830  1.0  0.0235
  C  C140  1  0.021900  0.853880  0.205380  1.0  -0.0025
  C  C141  1  0.905920  0.423520  0.895540  1.0  0.7211
  C  C142  1  0.843880  0.426880  0.964360  1.0  -0.1834
  C  C143  1  0.790330  0.505830  0.991810  1.0  -0.047
  C  C144  1  0.739120  0.483020  0.058440  1.0  -0.0307
  C  C145  1  0.754510  0.388810  0.079470  1.0  -0.2058
  C  C146  1  0.714100  0.338300  0.146700  1.0  0.7404
  C  C147  1  0.875490  0.040790  0.106830  1.0  0.0233
  C  C148  1  0.853880  0.918840  0.205380  1.0  0.0049
  C  C149  1  0.423520  0.775020  0.895540  1.0  0.7211
  C  C150  1  0.426880  0.764880  0.964360  1.0  -0.1825
  C  C151  1  0.505830  0.712030  0.991810  1.0  -0.0463
  C  C152  1  0.483020  0.719420  0.058440  1.0  -0.0328
  C  C153  1  0.388810  0.777210  0.079470  1.0  -0.2062
  C  C154  1  0.338300  0.800900  0.146700  1.0  0.7408
  C  C155  1  0.040790  0.976890  0.106830  1.0  0.0231
  C  C156  1  0.918840  0.021900  0.205380  1.0  0.0071
  C  C157  1  0.724980  0.076480  0.604460  1.0  0.7215
  C  C158  1  0.735120  0.073120  0.535640  1.0  -0.1842
  C  C159  1  0.787970  0.994170  0.508190  1.0  -0.0485
  C  C160  1  0.780580  0.016980  0.441560  1.0  -0.0327
  C  C161  1  0.722790  0.111190  0.420530  1.0  -0.2069
  C  C162  1  0.699100  0.161700  0.353300  1.0  0.7412
  C  C163  1  0.523110  0.459210  0.393170  1.0  0.0241
  C  C164  1  0.478100  0.581160  0.294620  1.0  0.01
  C  C165  1  0.594080  0.724980  0.604460  1.0  0.722
  C  C166  1  0.656120  0.735120  0.535640  1.0  -0.1833
  C  C167  1  0.709670  0.787970  0.508190  1.0  -0.0471
  C  C168  1  0.760880  0.780580  0.441560  1.0  -0.0314
  C  C169  1  0.745490  0.722790  0.420530  1.0  -0.2057
  C  C170  1  0.785900  0.699100  0.353300  1.0  0.7414
  C  C171  1  0.624510  0.523110  0.393170  1.0  0.0215
  C  C172  1  0.646120  0.478100  0.294620  1.0  -0.0045
  C  C173  1  0.076480  0.594080  0.604460  1.0  0.7221
  C  C174  1  0.073120  0.656120  0.535640  1.0  -0.1824
  C  C175  1  0.994170  0.709670  0.508190  1.0  -0.0457
  C  C176  1  0.016980  0.760880  0.441560  1.0  -0.031
  C  C177  1  0.111190  0.745490  0.420530  1.0  -0.2045
  C  C178  1  0.161700  0.785900  0.353300  1.0  0.7382
  C  C179  1  0.459210  0.624510  0.393170  1.0  0.0211
  C  C180  1  0.581160  0.646120  0.294620  1.0  0.0055
  S  S181  1  0.175890  0.168190  0.981100  1.0  0.1535
  S  S182  1  0.168190  0.674820  0.981100  1.0  0.1562
  S  S183  1  0.674820  0.175890  0.981100  1.0  0.1526
  S  S184  1  0.324110  0.825180  0.518900  1.0  0.1556
  S  S185  1  0.331810  0.324110  0.518900  1.0  0.1521
  S  S186  1  0.825180  0.331810  0.518900  1.0  0.1536
  S  S187  1  0.824110  0.831810  0.018900  1.0  0.1513
  S  S188  1  0.831810  0.325180  0.018900  1.0  0.1571
  S  S189  1  0.325180  0.824110  0.018900  1.0  0.1526
  S  S190  1  0.675890  0.174820  0.481100  1.0  0.156
  S  S191  1  0.668190  0.675890  0.481100  1.0  0.1549
  S  S192  1  0.174820  0.668190  0.481100  1.0  0.1512
  N  N193  1  0.047500  0.152780  0.818650  1.0  -0.2593
  N  N194  1  0.152780  0.981070  0.818650  1.0  -0.2513
  N  N195  1  0.981070  0.047500  0.818650  1.0  -0.2526
  N  N196  1  0.452500  0.518930  0.681350  1.0  -0.2538
  N  N197  1  0.347220  0.452500  0.681350  1.0  -0.2517
  N  N198  1  0.518930  0.347220  0.681350  1.0  -0.2505
  N  N199  1  0.952500  0.847220  0.181350  1.0  -0.2539
  N  N200  1  0.847220  0.018930  0.181350  1.0  -0.2528
  N  N201  1  0.018930  0.952500  0.181350  1.0  -0.2514
  N  N202  1  0.547500  0.481070  0.318650  1.0  -0.2526
  N  N203  1  0.652780  0.547500  0.318650  1.0  -0.2507
  N  N204  1  0.481070  0.652780  0.318650  1.0  -0.2543
  N  N205  1  0.027540  0.027540  0.917380  1.0  -0.2903
  N  N206  1  0.472460  0.472460  0.582620  1.0  -0.2863
  N  N207  1  0.972460  0.972460  0.082620  1.0  -0.2863
  N  N208  1  0.527540  0.527540  0.417380  1.0  -0.2903
  O  O209  1  0.158250  0.066970  0.123750  1.0  -0.606
  O  O210  1  0.282360  0.075960  0.136320  1.0  -0.4904
  O  O211  1  0.155650  0.250730  0.841750  1.0  -0.6379
  O  O212  1  0.226260  0.350890  0.815650  1.0  -0.635
  O  O213  1  0.066970  0.651030  0.123750  1.0  -0.6041
  O  O214  1  0.075960  0.505360  0.136320  1.0  -0.4832
  O  O215  1  0.250730  0.751870  0.841750  1.0  -0.636
  O  O216  1  0.350890  0.607200  0.815650  1.0  -0.6347
  O  O217  1  0.651030  0.158250  0.123750  1.0  -0.6118
  O  O218  1  0.505360  0.282360  0.136320  1.0  -0.4948
  O  O219  1  0.751870  0.155650  0.841750  1.0  -0.6361
  O  O220  1  0.607200  0.226260  0.815650  1.0  -0.6344
  O  O221  1  0.341750  0.848970  0.376250  1.0  -0.607
  O  O222  1  0.217640  0.994640  0.363680  1.0  -0.4881
  O  O223  1  0.344350  0.748130  0.658250  1.0  -0.6375
  O  O224  1  0.273740  0.892800  0.684350  1.0  -0.6347
  O  O225  1  0.433030  0.341750  0.376250  1.0  -0.611
  O  O226  1  0.424040  0.217640  0.363680  1.0  -0.4891
  O  O227  1  0.249270  0.344350  0.658250  1.0  -0.6362
  O  O228  1  0.149110  0.273740  0.684350  1.0  -0.6321
  O  O229  1  0.848970  0.433030  0.376250  1.0  -0.6068
  O  O230  1  0.994640  0.424040  0.363680  1.0  -0.4901
  O  O231  1  0.748130  0.249270  0.658250  1.0  -0.6382
  O  O232  1  0.892800  0.149110  0.684350  1.0  -0.6341
  O  O233  1  0.841750  0.933030  0.876250  1.0  -0.6064
  O  O234  1  0.717640  0.924040  0.863680  1.0  -0.4892
  O  O235  1  0.844350  0.749270  0.158250  1.0  -0.6375
  O  O236  1  0.773740  0.649110  0.184350  1.0  -0.6354
  O  O237  1  0.933030  0.348970  0.876250  1.0  -0.6079
  O  O238  1  0.924040  0.494640  0.863680  1.0  -0.4851
  O  O239  1  0.749270  0.248130  0.158250  1.0  -0.6371
  O  O240  1  0.649110  0.392800  0.184350  1.0  -0.6353
  O  O241  1  0.348970  0.841750  0.876250  1.0  -0.6113
  O  O242  1  0.494640  0.717640  0.863680  1.0  -0.4927
  O  O243  1  0.248130  0.844350  0.158250  1.0  -0.6373
  O  O244  1  0.392800  0.773740  0.184350  1.0  -0.633
  O  O245  1  0.658250  0.151030  0.623750  1.0  -0.6043
  O  O246  1  0.782360  0.005360  0.636320  1.0  -0.4845
  O  O247  1  0.655650  0.251870  0.341750  1.0  -0.6355
  O  O248  1  0.726260  0.107200  0.315650  1.0  -0.6361
  O  O249  1  0.566970  0.658250  0.623750  1.0  -0.6103
  O  O250  1  0.575960  0.782360  0.636320  1.0  -0.4904
  O  O251  1  0.750730  0.655650  0.341750  1.0  -0.6372
  O  O252  1  0.850890  0.726260  0.315650  1.0  -0.6325
  O  O253  1  0.151030  0.566970  0.623750  1.0  -0.6089
  O  O254  1  0.005360  0.575960  0.636320  1.0  -0.4901
  O  O255  1  0.251870  0.750730  0.341750  1.0  -0.6376
  O  O256  1  0.107200  0.850890  0.315650  1.0  -0.6341
  O  O257  1  0.034180  0.465820  0.750000  1.0  -0.6022
  O  O258  1  0.465820  0.750000  0.750000  1.0  -0.6015
  O  O259  1  0.750000  0.034180  0.750000  1.0  -0.6014
  O  O260  1  0.965820  0.534180  0.250000  1.0  -0.6019
  O  O261  1  0.534180  0.250000  0.250000  1.0  -0.5999
  O  O262  1  0.250000  0.965820  0.250000  1.0  -0.6022
