# generated using pymatgen
data_Mn6H36C48S6N8O27
_symmetry_space_group_name_H-M   'P 1'
_cell_length_a   16.34550000
_cell_length_b   16.34550000
_cell_length_c   21.86090000
_cell_angle_alpha   68.04660000
_cell_angle_beta   68.04660000
_cell_angle_gamma   60.00000000
_symmetry_Int_Tables_number   1
_chemical_formula_structural   Mn6H36C48S6N8O27
_chemical_formula_sum   'Mn12 H72 C96 S12 N16 O54'
_cell_volume   4562.60427058
_cell_formula_units_Z   2
loop_
 _symmetry_equiv_pos_site_id
 _symmetry_equiv_pos_as_xyz
  1  'x, y, z'
loop_
 _atom_site_type_symbol
 _atom_site_label
 _atom_site_symmetry_multiplicity
 _atom_site_fract_x
 _atom_site_fract_y
 _atom_site_fract_z
 _atom_site_occupancy
 _atom_site_charge
  Mn  Mn1  1  0.045300  0.309240  0.782110  1.0  1.0692
  Mn  Mn2  1  0.309240  0.863350  0.782110  1.0  1.0654
  Mn  Mn3  1  0.863350  0.045300  0.782110  1.0  1.0691
  Mn  Mn4  1  0.454700  0.636650  0.717890  1.0  1.0667
  Mn  Mn5  1  0.190760  0.454700  0.717890  1.0  1.0678
  Mn  Mn6  1  0.636650  0.190760  0.717890  1.0  1.0643
  Mn  Mn7  1  0.954700  0.690760  0.217890  1.0  1.0646
  Mn  Mn8  1  0.690760  0.136650  0.217890  1.0  1.0634
  Mn  Mn9  1  0.136650  0.954700  0.217890  1.0  1.0683
  Mn  Mn10  1  0.545300  0.363350  0.282110  1.0  1.0686
  Mn  Mn11  1  0.809240  0.545300  0.282110  1.0  1.0671
  Mn  Mn12  1  0.363350  0.809240  0.282110  1.0  1.0687
  H  H13  1  0.306100  0.305800  0.914500  1.0  0.1124
  H  H14  1  0.320100  0.215300  0.030600  1.0  0.1185
  H  H15  1  0.163200  0.097800  0.744700  1.0  0.0956
  H  H16  1  0.193000  0.085000  0.809200  1.0  0.0808
  H  H17  1  0.067700  0.127700  0.910900  1.0  0.088
  H  H18  1  0.957800  0.169900  0.911200  1.0  0.086
  H  H19  1  0.305800  0.473600  0.914500  1.0  0.1135
  H  H20  1  0.215300  0.434000  0.030600  1.0  0.1149
  H  H21  1  0.097800  0.994300  0.744700  1.0  0.0914
  H  H22  1  0.085000  0.912800  0.809200  1.0  0.0798
  H  H23  1  0.127700  0.893700  0.910900  1.0  0.088
  H  H24  1  0.169900  0.961100  0.911200  1.0  0.0865
  H  H25  1  0.473600  0.306100  0.914500  1.0  0.1111
  H  H26  1  0.434000  0.320100  0.030600  1.0  0.1182
  H  H27  1  0.994300  0.163200  0.744700  1.0  0.095
  H  H28  1  0.912800  0.193000  0.809200  1.0  0.0816
  H  H29  1  0.893700  0.067700  0.910900  1.0  0.0871
  H  H30  1  0.961100  0.957800  0.911200  1.0  0.0898
  H  H31  1  0.193900  0.026400  0.585500  1.0  0.1106
  H  H32  1  0.179900  0.066000  0.469400  1.0  0.1178
  H  H33  1  0.336800  0.505700  0.755300  1.0  0.096
  H  H34  1  0.307000  0.587200  0.690800  1.0  0.0822
  H  H35  1  0.432300  0.606300  0.589100  1.0  0.088
  H  H36  1  0.542200  0.538900  0.588800  1.0  0.0885
  H  H37  1  0.194200  0.193900  0.585500  1.0  0.1123
  H  H38  1  0.284700  0.179900  0.469400  1.0  0.1179
  H  H39  1  0.402200  0.336800  0.755300  1.0  0.0957
  H  H40  1  0.415000  0.307000  0.690800  1.0  0.0822
  H  H41  1  0.372300  0.432300  0.589100  1.0  0.0884
  H  H42  1  0.330100  0.542200  0.588800  1.0  0.0894
  H  H43  1  0.026400  0.194200  0.585500  1.0  0.1142
  H  H44  1  0.066000  0.284700  0.469400  1.0  0.115
  H  H45  1  0.505700  0.402200  0.755300  1.0  0.091
  H  H46  1  0.587200  0.415000  0.690800  1.0  0.0804
  H  H47  1  0.606300  0.372300  0.589100  1.0  0.0888
  H  H48  1  0.538900  0.330100  0.588800  1.0  0.0853
  H  H49  1  0.693900  0.694200  0.085500  1.0  0.1126
  H  H50  1  0.679900  0.784700  0.969400  1.0  0.1179
  H  H51  1  0.836800  0.902200  0.255300  1.0  0.0971
  H  H52  1  0.807000  0.915000  0.190800  1.0  0.0815
  H  H53  1  0.932300  0.872300  0.089100  1.0  0.0868
  H  H54  1  0.042200  0.830100  0.088800  1.0  0.0863
  H  H55  1  0.694200  0.526400  0.085500  1.0  0.1136
  H  H56  1  0.784700  0.566000  0.969400  1.0  0.1148
  H  H57  1  0.902200  0.005700  0.255300  1.0  0.0899
  H  H58  1  0.915000  0.087200  0.190800  1.0  0.0792
  H  H59  1  0.872300  0.106300  0.089100  1.0  0.0896
  H  H60  1  0.830100  0.038900  0.088800  1.0  0.0862
  H  H61  1  0.526400  0.693900  0.085500  1.0  0.1116
  H  H62  1  0.566000  0.679900  0.969400  1.0  0.1179
  H  H63  1  0.005700  0.836800  0.255300  1.0  0.0952
  H  H64  1  0.087200  0.807000  0.190800  1.0  0.0812
  H  H65  1  0.106300  0.932300  0.089100  1.0  0.0872
  H  H66  1  0.038900  0.042200  0.088800  1.0  0.0902
  H  H67  1  0.806100  0.973600  0.414500  1.0  0.111
  H  H68  1  0.820100  0.934000  0.530600  1.0  0.1184
  H  H69  1  0.663200  0.494300  0.244700  1.0  0.0942
  H  H70  1  0.693000  0.412800  0.309200  1.0  0.0822
  H  H71  1  0.567700  0.393700  0.410900  1.0  0.0882
  H  H72  1  0.457800  0.461100  0.411200  1.0  0.0899
  H  H73  1  0.805800  0.806100  0.414500  1.0  0.1121
  H  H74  1  0.715300  0.820100  0.530600  1.0  0.1176
  H  H75  1  0.597800  0.663200  0.244700  1.0  0.0949
  H  H76  1  0.585000  0.693000  0.309200  1.0  0.082
  H  H77  1  0.627700  0.567700  0.410900  1.0  0.089
  H  H78  1  0.669900  0.457800  0.411200  1.0  0.089
  H  H79  1  0.973600  0.805800  0.414500  1.0  0.1135
  H  H80  1  0.934000  0.715300  0.530600  1.0  0.1173
  H  H81  1  0.494300  0.597800  0.244700  1.0  0.0934
  H  H82  1  0.412800  0.585000  0.309200  1.0  0.0831
  H  H83  1  0.393700  0.627700  0.410900  1.0  0.0899
  H  H84  1  0.461100  0.669900  0.411200  1.0  0.0865
  C  C85  1  0.195920  0.288470  0.850600  1.0  0.7358
  C  C86  1  0.219010  0.248160  0.918880  1.0  -0.2074
  C  C87  1  0.275700  0.264450  0.940960  1.0  -0.0506
  C  C88  1  0.283790  0.212260  0.008130  1.0  -0.062
  C  C89  1  0.232390  0.157320  0.035760  1.0  -0.1877
  C  C90  1  0.223940  0.093160  0.105780  1.0  0.7474
  C  C91  1  0.146460  0.081440  0.793960  1.0  0.0743
  C  C92  1  0.022690  0.124660  0.893770  1.0  0.1234
  C  C93  1  0.288470  0.665010  0.850600  1.0  0.736
  C  C94  1  0.248160  0.613950  0.918880  1.0  -0.208
  C  C95  1  0.264450  0.518890  0.940960  1.0  -0.0492
  C  C96  1  0.212260  0.495820  0.008130  1.0  -0.0617
  C  C97  1  0.157320  0.574530  0.035760  1.0  -0.1889
  C  C98  1  0.093160  0.577120  0.105780  1.0  0.7479
  C  C99  1  0.081440  0.978140  0.793960  1.0  0.0725
  C  C100  1  0.124660  0.958880  0.893770  1.0  0.1212
  C  C101  1  0.665010  0.195920  0.850600  1.0  0.7331
  C  C102  1  0.613950  0.219010  0.918880  1.0  -0.2073
  C  C103  1  0.518890  0.275700  0.940960  1.0  -0.0499
  C  C104  1  0.495820  0.283790  0.008130  1.0  -0.0625
  C  C105  1  0.574530  0.232390  0.035760  1.0  -0.1871
  C  C106  1  0.577120  0.223940  0.105780  1.0  0.7497
  C  C107  1  0.978140  0.146460  0.793960  1.0  0.0749
  C  C108  1  0.958880  0.022690  0.893770  1.0  0.1225
  C  C109  1  0.304080  0.834990  0.649400  1.0  0.7363
  C  C110  1  0.280990  0.886050  0.581120  1.0  -0.2083
  C  C111  1  0.224300  0.981110  0.559040  1.0  -0.0505
  C  C112  1  0.216210  0.004180  0.491870  1.0  -0.0619
  C  C113  1  0.267610  0.925470  0.464240  1.0  -0.1903
  C  C114  1  0.276060  0.922880  0.394220  1.0  0.7469
  C  C115  1  0.353540  0.521860  0.706040  1.0  0.0743
  C  C116  1  0.477310  0.541120  0.606230  1.0  0.1239
  C  C117  1  0.211530  0.304080  0.649400  1.0  0.7365
  C  C118  1  0.251840  0.280990  0.581120  1.0  -0.2058
  C  C119  1  0.235550  0.224300  0.559040  1.0  -0.0498
  C  C120  1  0.287740  0.216210  0.491870  1.0  -0.0626
  C  C121  1  0.342680  0.267610  0.464240  1.0  -0.1872
  C  C122  1  0.406840  0.276060  0.394220  1.0  0.748
  C  C123  1  0.418560  0.353540  0.706040  1.0  0.0753
  C  C124  1  0.375340  0.477310  0.606230  1.0  0.1224
  C  C125  1  0.834990  0.211530  0.649400  1.0  0.734
  C  C126  1  0.886050  0.251840  0.581120  1.0  -0.2069
  C  C127  1  0.981110  0.235550  0.559040  1.0  -0.0498
  C  C128  1  0.004180  0.287740  0.491870  1.0  -0.0627
  C  C129  1  0.925470  0.342680  0.464240  1.0  -0.187
  C  C130  1  0.922880  0.406840  0.394220  1.0  0.7476
  C  C131  1  0.521860  0.418560  0.706040  1.0  0.0721
  C  C132  1  0.541120  0.375340  0.606230  1.0  0.1212
  C  C133  1  0.804080  0.711530  0.149400  1.0  0.7362
  C  C134  1  0.780990  0.751840  0.081120  1.0  -0.2066
  C  C135  1  0.724300  0.735550  0.059040  1.0  -0.0506
  C  C136  1  0.716210  0.787740  0.991870  1.0  -0.0617
  C  C137  1  0.767610  0.842680  0.964240  1.0  -0.1876
  C  C138  1  0.776060  0.906840  0.894220  1.0  0.7476
  C  C139  1  0.853540  0.918560  0.206040  1.0  0.0747
  C  C140  1  0.977310  0.875340  0.106230  1.0  0.1229
  C  C141  1  0.711530  0.334990  0.149400  1.0  0.7349
  C  C142  1  0.751840  0.386050  0.081120  1.0  -0.2077
  C  C143  1  0.735550  0.481110  0.059040  1.0  -0.0505
  C  C144  1  0.787740  0.504180  0.991870  1.0  -0.062
  C  C145  1  0.842680  0.425470  0.964240  1.0  -0.1893
  C  C146  1  0.906840  0.422880  0.894220  1.0  0.7472
  C  C147  1  0.918560  0.021860  0.206040  1.0  0.0727
  C  C148  1  0.875340  0.041120  0.106230  1.0  0.1236
  C  C149  1  0.334990  0.804080  0.149400  1.0  0.7344
  C  C150  1  0.386050  0.780990  0.081120  1.0  -0.2072
  C  C151  1  0.481110  0.724300  0.059040  1.0  -0.0504
  C  C152  1  0.504180  0.716210  0.991870  1.0  -0.0629
  C  C153  1  0.425470  0.767610  0.964240  1.0  -0.1877
  C  C154  1  0.422880  0.776060  0.894220  1.0  0.7485
  C  C155  1  0.021860  0.853540  0.206040  1.0  0.075
  C  C156  1  0.041120  0.977310  0.106230  1.0  0.125
  C  C157  1  0.695920  0.165010  0.350600  1.0  0.737
  C  C158  1  0.719010  0.113950  0.418880  1.0  -0.2087
  C  C159  1  0.775700  0.018890  0.440960  1.0  -0.0492
  C  C160  1  0.783790  0.995820  0.508130  1.0  -0.0614
  C  C161  1  0.732390  0.074530  0.535760  1.0  -0.1894
  C  C162  1  0.723940  0.077120  0.605780  1.0  0.7474
  C  C163  1  0.646460  0.478140  0.293960  1.0  0.0747
  C  C164  1  0.522690  0.458880  0.393770  1.0  0.1217
  C  C165  1  0.788470  0.695920  0.350600  1.0  0.7356
  C  C166  1  0.748160  0.719010  0.418880  1.0  -0.2068
  C  C167  1  0.764450  0.775700  0.440960  1.0  -0.0495
  C  C168  1  0.712260  0.783790  0.508130  1.0  -0.0623
  C  C169  1  0.657320  0.732390  0.535760  1.0  -0.1875
  C  C170  1  0.593160  0.723940  0.605780  1.0  0.749
  C  C171  1  0.581440  0.646460  0.293960  1.0  0.075
  C  C172  1  0.624660  0.522690  0.393770  1.0  0.1205
  C  C173  1  0.165010  0.788470  0.350600  1.0  0.733
  C  C174  1  0.113950  0.748160  0.418880  1.0  -0.2059
  C  C175  1  0.018890  0.764450  0.440960  1.0  -0.0499
  C  C176  1  0.995820  0.712260  0.508130  1.0  -0.0624
  C  C177  1  0.074530  0.657320  0.535760  1.0  -0.1874
  C  C178  1  0.077120  0.593160  0.605780  1.0  0.7483
  C  C179  1  0.478140  0.581440  0.293960  1.0  0.0725
  C  C180  1  0.458880  0.624660  0.393770  1.0  0.1217
  S  S181  1  0.172650  0.169820  0.980890  1.0  0.1524
  S  S182  1  0.169820  0.676640  0.980890  1.0  0.1553
  S  S183  1  0.676640  0.172650  0.980890  1.0  0.1528
  S  S184  1  0.327350  0.823360  0.519110  1.0  0.1543
  S  S185  1  0.330180  0.327350  0.519110  1.0  0.1513
  S  S186  1  0.823360  0.330180  0.519110  1.0  0.1538
  S  S187  1  0.827350  0.830180  0.019110  1.0  0.1509
  S  S188  1  0.830180  0.323360  0.019110  1.0  0.1562
  S  S189  1  0.323360  0.827350  0.019110  1.0  0.1512
  S  S190  1  0.672650  0.176640  0.480890  1.0  0.1553
  S  S191  1  0.669820  0.672650  0.480890  1.0  0.1532
  S  S192  1  0.176640  0.669820  0.480890  1.0  0.1513
  N  N193  1  0.046950  0.154400  0.818470  1.0  -0.2771
  N  N194  1  0.154400  0.980180  0.818470  1.0  -0.2735
  N  N195  1  0.980180  0.046950  0.818470  1.0  -0.2666
  N  N196  1  0.453050  0.519820  0.681530  1.0  -0.2644
  N  N197  1  0.345600  0.453050  0.681530  1.0  -0.2701
  N  N198  1  0.519820  0.345600  0.681530  1.0  -0.2738
  N  N199  1  0.953050  0.845600  0.181530  1.0  -0.2737
  N  N200  1  0.845600  0.019820  0.181530  1.0  -0.2709
  N  N201  1  0.019820  0.953050  0.181530  1.0  -0.2646
  N  N202  1  0.546950  0.480180  0.318470  1.0  -0.2689
  N  N203  1  0.654400  0.546950  0.318470  1.0  -0.2689
  N  N204  1  0.480180  0.654400  0.318470  1.0  -0.2765
  N  N205  1  0.027130  0.027130  0.918610  1.0  -0.3164
  N  N206  1  0.472870  0.472870  0.581390  1.0  -0.3146
  N  N207  1  0.972870  0.972870  0.081390  1.0  -0.3146
  N  N208  1  0.527130  0.527130  0.418610  1.0  -0.3164
  O  O209  1  0.224250  0.352320  0.811270  1.0  -0.608
  O  O210  1  0.149820  0.254950  0.839890  1.0  -0.5929
  O  O211  1  0.283500  0.074300  0.136830  1.0  -0.4921
  O  O212  1  0.157430  0.064980  0.127440  1.0  -0.6067
  O  O213  1  0.352320  0.612160  0.811270  1.0  -0.6076
  O  O214  1  0.254950  0.755340  0.839890  1.0  -0.5943
  O  O215  1  0.074300  0.505370  0.136830  1.0  -0.4985
  O  O216  1  0.064980  0.650150  0.127440  1.0  -0.6089
  O  O217  1  0.612160  0.224250  0.811270  1.0  -0.6065
  O  O218  1  0.755340  0.149820  0.839890  1.0  -0.5926
  O  O219  1  0.505370  0.283500  0.136830  1.0  -0.4957
  O  O220  1  0.650150  0.157430  0.127440  1.0  -0.6171
  O  O221  1  0.275750  0.887840  0.688730  1.0  -0.609
  O  O222  1  0.350180  0.744660  0.660110  1.0  -0.5939
  O  O223  1  0.216500  0.994630  0.363170  1.0  -0.4892
  O  O224  1  0.342570  0.849850  0.372560  1.0  -0.6107
  O  O225  1  0.147680  0.275750  0.688730  1.0  -0.6054
  O  O226  1  0.245050  0.350180  0.660110  1.0  -0.5925
  O  O227  1  0.425700  0.216500  0.363170  1.0  -0.4917
  O  O228  1  0.435020  0.342570  0.372560  1.0  -0.6145
  O  O229  1  0.887840  0.147680  0.688730  1.0  -0.6066
  O  O230  1  0.744660  0.245050  0.660110  1.0  -0.5932
  O  O231  1  0.994630  0.425700  0.363170  1.0  -0.5064
  O  O232  1  0.849850  0.435020  0.372560  1.0  -0.6091
  O  O233  1  0.775750  0.647680  0.188730  1.0  -0.6081
  O  O234  1  0.850180  0.745050  0.160110  1.0  -0.5934
  O  O235  1  0.716500  0.925700  0.863170  1.0  -0.491
  O  O236  1  0.842570  0.935020  0.872560  1.0  -0.6109
  O  O237  1  0.647680  0.387840  0.188730  1.0  -0.6068
  O  O238  1  0.745050  0.244660  0.160110  1.0  -0.5941
  O  O239  1  0.925700  0.494630  0.863170  1.0  -0.5019
  O  O240  1  0.935020  0.349850  0.872560  1.0  -0.6114
  O  O241  1  0.387840  0.775750  0.188730  1.0  -0.6072
  O  O242  1  0.244660  0.850180  0.160110  1.0  -0.5932
  O  O243  1  0.494630  0.716500  0.863170  1.0  -0.4964
  O  O244  1  0.349850  0.842570  0.872560  1.0  -0.6144
  O  O245  1  0.724250  0.112160  0.311270  1.0  -0.6082
  O  O246  1  0.649820  0.255340  0.339890  1.0  -0.5939
  O  O247  1  0.783500  0.005370  0.636830  1.0  -0.4865
  O  O248  1  0.657430  0.150150  0.627440  1.0  -0.6092
  O  O249  1  0.852320  0.724250  0.311270  1.0  -0.6055
  O  O250  1  0.754950  0.649820  0.339890  1.0  -0.5932
  O  O251  1  0.574300  0.783500  0.636830  1.0  -0.4916
  O  O252  1  0.564980  0.657430  0.627440  1.0  -0.6127
  O  O253  1  0.112160  0.852320  0.311270  1.0  -0.6059
  O  O254  1  0.255340  0.754950  0.339890  1.0  -0.5935
  O  O255  1  0.005370  0.574300  0.636830  1.0  -0.5043
  O  O256  1  0.150150  0.564980  0.627440  1.0  -0.6109
  O  O257  1  0.042570  0.457430  0.750000  1.0  -0.5811
  O  O258  1  0.457430  0.750000  0.750000  1.0  -0.58
  O  O259  1  0.750000  0.042570  0.750000  1.0  -0.5809
  O  O260  1  0.957430  0.542570  0.250000  1.0  -0.5795
  O  O261  1  0.542570  0.250000  0.250000  1.0  -0.5798
  O  O262  1  0.250000  0.957430  0.250000  1.0  -0.5817
