# generated using pymatgen
data_VH4C8O5
_symmetry_space_group_name_H-M   'P 1'
_cell_length_a   15.16580000
_cell_length_b   15.16580000
_cell_length_c   12.05680000
_cell_angle_alpha   90.00000000
_cell_angle_beta   90.00000000
_cell_angle_gamma   90.00000000
_symmetry_Int_Tables_number   1
_chemical_formula_structural   VH4C8O5
_chemical_formula_sum   'V8 H32 C64 O40'
_cell_volume   2773.08196029
_cell_formula_units_Z   8
loop_
 _symmetry_equiv_pos_site_id
 _symmetry_equiv_pos_as_xyz
  1  'x, y, z'
loop_
 _atom_site_type_symbol
 _atom_site_label
 _atom_site_symmetry_multiplicity
 _atom_site_fract_x
 _atom_site_fract_y
 _atom_site_fract_z
 _atom_site_occupancy
 _atom_site_charge
  V  V1  1  0.698000  0.302000  0.500000  1.0  1.6801
  V  V2  1  0.198000  0.802000  0.000000  1.0  1.6801
  V  V3  1  0.802000  0.198000  0.000000  1.0  1.6799
  V  V4  1  0.302000  0.698000  0.500000  1.0  1.6799
  V  V5  1  0.698000  0.198000  0.750000  1.0  1.6813
  V  V6  1  0.198000  0.698000  0.250000  1.0  1.6813
  V  V7  1  0.802000  0.302000  0.250000  1.0  1.6793
  V  V8  1  0.302000  0.802000  0.750000  1.0  1.6793
  H  H9  1  0.572400  0.380400  0.922400  1.0  0.0953
  H  H10  1  0.072400  0.880400  0.422400  1.0  0.0953
  H  H11  1  0.927600  0.119600  0.422400  1.0  0.0958
  H  H12  1  0.427600  0.619600  0.922400  1.0  0.0958
  H  H13  1  0.619600  0.072400  0.172400  1.0  0.0962
  H  H14  1  0.119600  0.572400  0.672400  1.0  0.0962
  H  H15  1  0.880400  0.427600  0.672400  1.0  0.0955
  H  H16  1  0.380400  0.927600  0.172400  1.0  0.0955
  H  H17  1  0.927600  0.380400  0.827600  1.0  0.0959
  H  H18  1  0.427600  0.880400  0.327600  1.0  0.0959
  H  H19  1  0.572400  0.119600  0.327600  1.0  0.0956
  H  H20  1  0.072400  0.619600  0.827600  1.0  0.0956
  H  H21  1  0.880400  0.072400  0.577600  1.0  0.0961
  H  H22  1  0.380400  0.572400  0.077600  1.0  0.0961
  H  H23  1  0.619600  0.427600  0.077600  1.0  0.0959
  H  H24  1  0.119600  0.927600  0.577600  1.0  0.0959
  H  H25  1  0.821800  0.250000  0.625000  1.0  0.2797
  H  H26  1  0.321800  0.750000  0.125000  1.0  0.2797
  H  H27  1  0.678200  0.250000  0.125000  1.0  0.2805
  H  H28  1  0.178200  0.750000  0.625000  1.0  0.2805
  H  H29  1  0.750000  0.321800  0.875000  1.0  0.2872
  H  H30  1  0.250000  0.821800  0.375000  1.0  0.2872
  H  H31  1  0.750000  0.178200  0.375000  1.0  0.2885
  H  H32  1  0.250000  0.678200  0.875000  1.0  0.2885
  H  H33  1  0.500000  0.500000  0.617700  1.0  0.1057
  H  H34  1  0.000000  0.000000  0.117700  1.0  0.1075
  H  H35  1  0.500000  0.000000  0.867700  1.0  0.1057
  H  H36  1  0.000000  0.500000  0.367700  1.0  0.1057
  H  H37  1  0.000000  0.500000  0.132300  1.0  0.1055
  H  H38  1  0.500000  0.000000  0.632300  1.0  0.1055
  H  H39  1  0.000000  0.000000  0.882300  1.0  0.1072
  H  H40  1  0.500000  0.500000  0.382300  1.0  0.1055
  C  C41  1  0.588700  0.363100  0.702400  1.0  0.7146
  C  C42  1  0.541380  0.431650  0.762800  1.0  -0.0958
  C  C43  1  0.541380  0.431650  0.878900  1.0  -0.0987
  C  C44  1  0.088700  0.863100  0.202400  1.0  0.7146
  C  C45  1  0.041380  0.931650  0.262800  1.0  -0.0958
  C  C46  1  0.041380  0.931650  0.378900  1.0  -0.0987
  C  C47  1  0.911300  0.136900  0.202400  1.0  0.7161
  C  C48  1  0.958620  0.068350  0.262800  1.0  -0.0956
  C  C49  1  0.958620  0.068350  0.378900  1.0  -0.0997
  C  C50  1  0.411300  0.636900  0.702400  1.0  0.7161
  C  C51  1  0.458620  0.568350  0.762800  1.0  -0.0956
  C  C52  1  0.458620  0.568350  0.878900  1.0  -0.0997
  C  C53  1  0.636900  0.088700  0.952400  1.0  0.7147
  C  C54  1  0.568350  0.041380  0.012800  1.0  -0.0948
  C  C55  1  0.568350  0.041380  0.128900  1.0  -0.0969
  C  C56  1  0.136900  0.588700  0.452400  1.0  0.7147
  C  C57  1  0.068350  0.541380  0.512800  1.0  -0.0948
  C  C58  1  0.068350  0.541380  0.628900  1.0  -0.0969
  C  C59  1  0.863100  0.411300  0.452400  1.0  0.7155
  C  C60  1  0.931650  0.458620  0.512800  1.0  -0.0946
  C  C61  1  0.931650  0.458620  0.628900  1.0  -0.0992
  C  C62  1  0.363100  0.911300  0.952400  1.0  0.7155
  C  C63  1  0.431650  0.958620  0.012800  1.0  -0.0946
  C  C64  1  0.431650  0.958620  0.128900  1.0  -0.0992
  C  C65  1  0.911300  0.363100  0.047600  1.0  0.7151
  C  C66  1  0.958620  0.431650  0.987200  1.0  -0.0959
  C  C67  1  0.958620  0.431650  0.871100  1.0  -0.1003
  C  C68  1  0.411300  0.863100  0.547600  1.0  0.7151
  C  C69  1  0.458620  0.931650  0.487200  1.0  -0.0959
  C  C70  1  0.458620  0.931650  0.371100  1.0  -0.1003
  C  C71  1  0.588700  0.136900  0.547600  1.0  0.7149
  C  C72  1  0.541380  0.068350  0.487200  1.0  -0.0957
  C  C73  1  0.541380  0.068350  0.371100  1.0  -0.0984
  C  C74  1  0.088700  0.636900  0.047600  1.0  0.7149
  C  C75  1  0.041380  0.568350  0.987200  1.0  -0.0957
  C  C76  1  0.041380  0.568350  0.871100  1.0  -0.0983
  C  C77  1  0.863100  0.088700  0.797600  1.0  0.715
  C  C78  1  0.931650  0.041380  0.737200  1.0  -0.0949
  C  C79  1  0.931650  0.041380  0.621100  1.0  -0.0991
  C  C80  1  0.363100  0.588700  0.297600  1.0  0.715
  C  C81  1  0.431650  0.541380  0.237200  1.0  -0.0949
  C  C82  1  0.431650  0.541380  0.121100  1.0  -0.0991
  C  C83  1  0.636900  0.411300  0.297600  1.0  0.7139
  C  C84  1  0.568350  0.458620  0.237200  1.0  -0.095
  C  C85  1  0.568350  0.458620  0.121100  1.0  -0.0973
  C  C86  1  0.136900  0.911300  0.797600  1.0  0.7139
  C  C87  1  0.068350  0.958620  0.737200  1.0  -0.095
  C  C88  1  0.068350  0.958620  0.621100  1.0  -0.0973
  C  C89  1  0.500000  0.500000  0.704800  1.0  -0.0638
  C  C90  1  0.500000  0.500000  0.936900  1.0  0.0143
  C  C91  1  0.000000  0.000000  0.204800  1.0  -0.0638
  C  C92  1  0.000000  0.000000  0.436900  1.0  0.0143
  C  C93  1  0.500000  0.000000  0.954800  1.0  -0.0638
  C  C94  1  0.500000  0.000000  0.186900  1.0  0.0143
  C  C95  1  0.000000  0.500000  0.454800  1.0  -0.0638
  C  C96  1  0.000000  0.500000  0.686900  1.0  0.0143
  C  C97  1  0.000000  0.500000  0.045200  1.0  -0.0664
  C  C98  1  0.000000  0.500000  0.813100  1.0  0.0142
  C  C99  1  0.500000  0.000000  0.545200  1.0  -0.0664
  C  C100  1  0.500000  0.000000  0.313100  1.0  0.0142
  C  C101  1  0.000000  0.000000  0.795200  1.0  -0.0664
  C  C102  1  0.000000  0.000000  0.563100  1.0  0.0142
  C  C103  1  0.500000  0.500000  0.295200  1.0  -0.0664
  C  C104  1  0.500000  0.500000  0.063100  1.0  0.0142
  O  O105  1  0.619500  0.381400  0.608200  1.0  -0.6137
  O  O106  1  0.596900  0.288500  0.746900  1.0  -0.6268
  O  O107  1  0.119500  0.881400  0.108200  1.0  -0.6137
  O  O108  1  0.096900  0.788500  0.246900  1.0  -0.6268
  O  O109  1  0.880500  0.118600  0.108200  1.0  -0.6134
  O  O110  1  0.903100  0.211500  0.246900  1.0  -0.6256
  O  O111  1  0.380500  0.618600  0.608200  1.0  -0.6134
  O  O112  1  0.403100  0.711500  0.746900  1.0  -0.6256
  O  O113  1  0.618600  0.119500  0.858200  1.0  -0.6121
  O  O114  1  0.711500  0.096900  0.996900  1.0  -0.6247
  O  O115  1  0.118600  0.619500  0.358200  1.0  -0.6121
  O  O116  1  0.211500  0.596900  0.496900  1.0  -0.6247
  O  O117  1  0.881400  0.380500  0.358200  1.0  -0.6121
  O  O118  1  0.788500  0.403100  0.496900  1.0  -0.6254
  O  O119  1  0.381400  0.880500  0.858200  1.0  -0.6121
  O  O120  1  0.288500  0.903100  0.996900  1.0  -0.6254
  O  O121  1  0.880500  0.381400  0.141800  1.0  -0.6125
  O  O122  1  0.903100  0.288500  0.003100  1.0  -0.627
  O  O123  1  0.380500  0.881400  0.641800  1.0  -0.6125
  O  O124  1  0.403100  0.788500  0.503100  1.0  -0.627
  O  O125  1  0.619500  0.118600  0.641800  1.0  -0.6138
  O  O126  1  0.596900  0.211500  0.503100  1.0  -0.6269
  O  O127  1  0.119500  0.618600  0.141800  1.0  -0.6138
  O  O128  1  0.096900  0.711500  0.003100  1.0  -0.6269
  O  O129  1  0.881400  0.119500  0.891800  1.0  -0.6119
  O  O130  1  0.788500  0.096900  0.753100  1.0  -0.6249
  O  O131  1  0.381400  0.619500  0.391800  1.0  -0.6119
  O  O132  1  0.288500  0.596900  0.253100  1.0  -0.6249
  O  O133  1  0.618600  0.380500  0.391800  1.0  -0.6116
  O  O134  1  0.711500  0.403100  0.253100  1.0  -0.6253
  O  O135  1  0.118600  0.880500  0.891800  1.0  -0.6116
  O  O136  1  0.211500  0.903100  0.753100  1.0  -0.6253
  O  O137  1  0.750900  0.250000  0.625000  1.0  -0.7775
  O  O138  1  0.250900  0.750000  0.125000  1.0  -0.7775
  O  O139  1  0.749100  0.250000  0.125000  1.0  -0.7757
  O  O140  1  0.249100  0.750000  0.625000  1.0  -0.7757
  O  O141  1  0.750000  0.250900  0.875000  1.0  -0.7731
  O  O142  1  0.250000  0.750900  0.375000  1.0  -0.7731
  O  O143  1  0.750000  0.249100  0.375000  1.0  -0.7775
  O  O144  1  0.250000  0.749100  0.875000  1.0  -0.7775
