# generated using pymatgen
data_ZnH7C8N5O2
_symmetry_space_group_name_H-M   'P 1'
_cell_length_a   9.77480000
_cell_length_b   11.97950000
_cell_length_c   11.97950000
_cell_angle_alpha   90.30780000
_cell_angle_beta   110.04900000
_cell_angle_gamma   110.04900000
_symmetry_Int_Tables_number   1
_chemical_formula_structural   ZnH7C8N5O2
_chemical_formula_sum   'Zn4 H28 C32 N20 O8'
_cell_volume   1225.83802955
_cell_formula_units_Z   4
loop_
 _symmetry_equiv_pos_site_id
 _symmetry_equiv_pos_as_xyz
  1  'x, y, z'
loop_
 _atom_site_type_symbol
 _atom_site_label
 _atom_site_symmetry_multiplicity
 _atom_site_fract_x
 _atom_site_fract_y
 _atom_site_fract_z
 _atom_site_occupancy
 _atom_site_charge
  Zn  Zn1  1  0.846530  0.159220  0.374060  1.0  0.8109
  Zn  Zn2  1  0.346530  0.374060  0.159220  1.0  0.811
  Zn  Zn3  1  0.653470  0.625940  0.840780  1.0  0.8121
  Zn  Zn4  1  0.153470  0.840780  0.625940  1.0  0.8118
  H  H5  1  0.199400  0.473400  0.744600  1.0  0.114
  H  H6  1  0.993100  0.126100  0.760900  1.0  0.1254
  H  H7  1  0.322600  0.503800  0.949000  1.0  0.0776
  H  H8  1  0.124700  0.164600  0.964800  1.0  0.083
  H  H9  1  0.202900  0.477700  0.344300  1.0  0.152
  H  H10  1  0.055400  0.448100  0.225900  1.0  0.147
  H  H11  1  0.034600  0.418800  0.347800  1.0  0.1577
  H  H12  1  0.699400  0.744600  0.473400  1.0  0.1145
  H  H13  1  0.493100  0.760900  0.126100  1.0  0.1238
  H  H14  1  0.822600  0.949000  0.503800  1.0  0.078
  H  H15  1  0.624700  0.964800  0.164600  1.0  0.0841
  H  H16  1  0.702900  0.344300  0.477700  1.0  0.1537
  H  H17  1  0.555400  0.225900  0.448100  1.0  0.1472
  H  H18  1  0.534600  0.347800  0.418800  1.0  0.157
  H  H19  1  0.300600  0.255400  0.526600  1.0  0.1141
  H  H20  1  0.506900  0.239100  0.873900  1.0  0.1239
  H  H21  1  0.177400  0.051000  0.496200  1.0  0.0778
  H  H22  1  0.375300  0.035200  0.835400  1.0  0.0841
  H  H23  1  0.297100  0.655700  0.522300  1.0  0.1527
  H  H24  1  0.444600  0.774100  0.551900  1.0  0.1478
  H  H25  1  0.465400  0.652200  0.581200  1.0  0.1574
  H  H26  1  0.800600  0.526600  0.255400  1.0  0.1145
  H  H27  1  0.006900  0.873900  0.239100  1.0  0.1252
  H  H28  1  0.677400  0.496200  0.051000  1.0  0.0783
  H  H29  1  0.875300  0.835400  0.035200  1.0  0.083
  H  H30  1  0.797100  0.522300  0.655700  1.0  0.1518
  H  H31  1  0.944600  0.551900  0.774100  1.0  0.1479
  H  H32  1  0.965400  0.581200  0.652200  1.0  0.1566
  C  C33  1  0.000100  0.277100  0.596100  1.0  0.6276
  C  C34  1  0.101700  0.302400  0.279800  1.0  0.4372
  C  C35  1  0.081400  0.296500  0.730300  1.0  -0.0254
  C  C36  1  0.181800  0.409300  0.788100  1.0  -0.151
  C  C37  1  0.059900  0.203600  0.797400  1.0  -0.1423
  C  C38  1  0.255900  0.426800  0.910600  1.0  0.1763
  C  C39  1  0.139100  0.227800  0.919800  1.0  0.1567
  C  C40  1  0.098300  0.422100  0.301300  1.0  -0.464
  C  C41  1  0.500100  0.596100  0.277100  1.0  0.6311
  C  C42  1  0.601700  0.279800  0.302400  1.0  0.4369
  C  C43  1  0.581400  0.730300  0.296500  1.0  -0.0203
  C  C44  1  0.681800  0.788100  0.409300  1.0  -0.1533
  C  C45  1  0.559900  0.797400  0.203600  1.0  -0.1395
  C  C46  1  0.755900  0.910600  0.426800  1.0  0.178
  C  C47  1  0.639100  0.919800  0.227800  1.0  0.1591
  C  C48  1  0.598300  0.301300  0.422100  1.0  -0.4651
  C  C49  1  0.499900  0.403900  0.722900  1.0  0.6312
  C  C50  1  0.398300  0.720200  0.697600  1.0  0.4376
  C  C51  1  0.418600  0.269700  0.703500  1.0  -0.0212
  C  C52  1  0.318200  0.211900  0.590700  1.0  -0.1424
  C  C53  1  0.440100  0.202600  0.796400  1.0  -0.1395
  C  C54  1  0.244100  0.089400  0.573200  1.0  0.1757
  C  C55  1  0.360900  0.080200  0.772200  1.0  0.1537
  C  C56  1  0.401700  0.698700  0.577900  1.0  -0.4669
  C  C57  1  0.999900  0.722900  0.403900  1.0  0.6291
  C  C58  1  0.898300  0.697600  0.720200  1.0  0.4387
  C  C59  1  0.918600  0.703500  0.269700  1.0  -0.026
  C  C60  1  0.818200  0.590700  0.211900  1.0  -0.142
  C  C61  1  0.940100  0.796400  0.202600  1.0  -0.1358
  C  C62  1  0.744100  0.573200  0.089400  1.0  0.1775
  C  C63  1  0.860900  0.772200  0.080200  1.0  0.1521
  C  C64  1  0.901700  0.577900  0.698700  1.0  -0.4619
  N  N65  1  0.015100  0.200380  0.305820  1.0  -0.3081
  N  N66  1  0.235700  0.337190  0.976890  1.0  -0.3174
  N  N67  1  0.054600  0.113000  0.270600  1.0  -0.0888
  N  N68  1  0.193000  0.278650  0.229150  1.0  -0.324
  N  N69  1  0.160600  0.159200  0.225200  1.0  -0.1106
  N  N70  1  0.515100  0.305820  0.200380  1.0  -0.3089
  N  N71  1  0.735700  0.976890  0.337190  1.0  -0.3154
  N  N72  1  0.554600  0.270600  0.113000  1.0  -0.0799
  N  N73  1  0.693000  0.229150  0.278650  1.0  -0.3286
  N  N74  1  0.660600  0.225200  0.159200  1.0  -0.11
  N  N75  1  0.484900  0.694180  0.799620  1.0  -0.3072
  N  N76  1  0.264300  0.023110  0.662810  1.0  -0.3159
  N  N77  1  0.445400  0.729400  0.887000  1.0  -0.0816
  N  N78  1  0.307000  0.770850  0.721350  1.0  -0.3312
  N  N79  1  0.339400  0.774800  0.840800  1.0  -0.1179
  N  N80  1  0.984900  0.799620  0.694180  1.0  -0.3074
  N  N81  1  0.764300  0.662810  0.023110  1.0  -0.3185
  N  N82  1  0.945400  0.887000  0.729400  1.0  -0.0831
  N  N83  1  0.807000  0.721350  0.770850  1.0  -0.326
  N  N84  1  0.839400  0.840800  0.774800  1.0  -0.1166
  O  O85  1  0.910400  0.169930  0.548170  1.0  -0.5956
  O  O86  1  0.020400  0.360890  0.538910  1.0  -0.5499
  O  O87  1  0.410400  0.548170  0.169930  1.0  -0.5952
  O  O88  1  0.520400  0.538910  0.360890  1.0  -0.5493
  O  O89  1  0.589600  0.451830  0.830070  1.0  -0.5953
  O  O90  1  0.479600  0.461090  0.639110  1.0  -0.5505
  O  O91  1  0.089600  0.830070  0.451830  1.0  -0.5954
  O  O92  1  0.979600  0.639110  0.461090  1.0  -0.5493
