# generated using pymatgen
data_Nd2H18(C5O4)3
_symmetry_space_group_name_H-M   'P 1'
_cell_length_a   8.11730000
_cell_length_b   8.60880000
_cell_length_c   19.88030000
_cell_angle_alpha   88.22740000
_cell_angle_beta   86.23810000
_cell_angle_gamma   61.87110000
_symmetry_Int_Tables_number   1
_chemical_formula_structural   Nd2H18(C5O4)3
_chemical_formula_sum   'Nd4 H36 C30 O24'
_cell_volume   1222.51553022
_cell_formula_units_Z   2
loop_
 _symmetry_equiv_pos_site_id
 _symmetry_equiv_pos_as_xyz
  1  'x, y, z'
loop_
 _atom_site_type_symbol
 _atom_site_label
 _atom_site_symmetry_multiplicity
 _atom_site_fract_x
 _atom_site_fract_y
 _atom_site_fract_z
 _atom_site_occupancy
 _atom_site_charge
  Nd  Nd1  1  0.283300  0.924600  0.511900  1.0  2.2889
  Nd  Nd2  1  0.792100  0.924600  0.988100  1.0  2.29
  Nd  Nd3  1  0.716700  0.075400  0.488100  1.0  2.2902
  Nd  Nd4  1  0.207900  0.075400  0.011900  1.0  2.2893
  H  H5  1  0.262800  0.245600  0.302300  1.0  0.1167
  H  H6  1  0.403800  0.287600  0.338200  1.0  0.1136
  H  H7  1  0.098900  0.543200  0.325400  1.0  0.0776
  H  H8  1  0.014600  0.456200  0.377900  1.0  0.0817
  H  H9  1  0.202700  0.470600  0.460400  1.0  0.1381
  H  H10  1  0.285300  0.558800  0.408000  1.0  0.1272
  H  H11  1  0.390300  0.553800  0.707700  1.0  0.1181
  H  H12  1  0.225200  0.534800  0.679400  1.0  0.1171
  H  H13  1  0.181500  0.807200  0.766500  1.0  0.0833
  H  H14  1  0.491600  0.245600  0.197700  1.0  0.1142
  H  H15  1  0.308600  0.287600  0.161800  1.0  0.1165
  H  H16  1  0.357900  0.543200  0.174600  1.0  0.0776
  H  H17  1  0.529200  0.456200  0.122100  1.0  0.0833
  H  H18  1  0.326700  0.470600  0.039600  1.0  0.1378
  H  H19  1  0.155900  0.558800  0.092000  1.0  0.128
  H  H20  1  0.055900  0.553800  0.792300  1.0  0.1178
  H  H21  1  0.240000  0.534800  0.820600  1.0  0.1175
  H  H22  1  0.011300  0.807200  0.733500  1.0  0.0826
  H  H23  1  0.737200  0.754400  0.697700  1.0  0.1137
  H  H24  1  0.596200  0.712400  0.661800  1.0  0.1165
  H  H25  1  0.901100  0.456800  0.674600  1.0  0.079
  H  H26  1  0.985400  0.543800  0.622100  1.0  0.0833
  H  H27  1  0.797300  0.529400  0.539600  1.0  0.1372
  H  H28  1  0.714700  0.441200  0.592000  1.0  0.1281
  H  H29  1  0.609700  0.446200  0.292300  1.0  0.1175
  H  H30  1  0.774800  0.465200  0.320600  1.0  0.1161
  H  H31  1  0.818500  0.192800  0.233500  1.0  0.0834
  H  H32  1  0.508400  0.754400  0.802300  1.0  0.1152
  H  H33  1  0.691400  0.712400  0.838200  1.0  0.1131
  H  H34  1  0.642100  0.456800  0.825400  1.0  0.0778
  H  H35  1  0.470800  0.543800  0.877900  1.0  0.0816
  H  H36  1  0.673300  0.529400  0.960400  1.0  0.138
  H  H37  1  0.844100  0.441200  0.908000  1.0  0.1272
  H  H38  1  0.944100  0.446200  0.207700  1.0  0.1177
  H  H39  1  0.760000  0.465200  0.179400  1.0  0.1165
  H  H40  1  0.988700  0.192800  0.266500  1.0  0.084
  C  C41  1  0.305600  0.148400  0.398500  1.0  0.8012
  C  C42  1  0.287300  0.282000  0.344600  1.0  -0.3432
  C  C43  1  0.126200  0.466400  0.364400  1.0  -0.0261
  C  C44  1  0.173800  0.548800  0.421800  1.0  -0.3637
  C  C45  1  0.979800  0.271800  0.556800  1.0  0.8082
  C  C46  1  0.271300  0.724200  0.629900  1.0  0.7208
  C  C47  1  0.264900  0.619400  0.692000  1.0  -0.3358
  C  C48  1  0.546000  0.148400  0.101500  1.0  0.8008
  C  C49  1  0.430700  0.282000  0.155400  1.0  -0.3393
  C  C50  1  0.407400  0.466400  0.135600  1.0  -0.0254
  C  C51  1  0.277400  0.548800  0.078200  1.0  -0.3641
  C  C52  1  0.748400  0.271800  0.943200  1.0  0.8075
  C  C53  1  0.004500  0.724200  0.870100  1.0  0.7213
  C  C54  1  0.115700  0.619400  0.808000  1.0  -0.3373
  C  C55  1  0.694400  0.851600  0.601500  1.0  0.7992
  C  C56  1  0.712700  0.718000  0.655400  1.0  -0.3413
  C  C57  1  0.873800  0.533600  0.635600  1.0  -0.0265
  C  C58  1  0.826200  0.451200  0.578200  1.0  -0.3635
  C  C59  1  0.020200  0.728200  0.443200  1.0  0.8079
  C  C60  1  0.728700  0.275800  0.370100  1.0  0.726
  C  C61  1  0.735100  0.380600  0.308000  1.0  -0.3365
  C  C62  1  0.454000  0.851600  0.898500  1.0  0.7996
  C  C63  1  0.569300  0.718000  0.844600  1.0  -0.3436
  C  C64  1  0.592600  0.533600  0.864400  1.0  -0.0271
  C  C65  1  0.722600  0.451200  0.921800  1.0  -0.3625
  C  C66  1  0.251600  0.728200  0.056800  1.0  0.8087
  C  C67  1  0.995500  0.275800  0.129900  1.0  0.7299
  C  C68  1  0.884300  0.380600  0.192000  1.0  -0.3373
  C  C69  1  0.134000  0.732000  0.750000  1.0  -0.0323
  C  C70  1  0.866000  0.268000  0.250000  1.0  -0.0318
  O  O71  1  0.441000  0.089600  0.438400  1.0  -0.8967
  O  O72  1  0.182300  0.099200  0.405700  1.0  -0.6706
  O  O73  1  0.935300  0.159400  0.534400  1.0  -0.867
  O  O74  1  0.150300  0.231600  0.559900  1.0  -0.6685
  O  O75  1  0.208500  0.889800  0.633500  1.0  -0.6769
  O  O76  1  0.345700  0.644400  0.574200  1.0  -0.7321
  O  O77  1  0.469400  0.089600  0.061600  1.0  -0.8971
  O  O78  1  0.718500  0.099200  0.094300  1.0  -0.6708
  O  O79  1  0.905300  0.159400  0.965600  1.0  -0.8675
  O  O80  1  0.618100  0.231600  0.940100  1.0  -0.669
  O  O81  1  0.901700  0.889800  0.866500  1.0  -0.6771
  O  O82  1  0.009900  0.644400  0.925800  1.0  -0.7315
  O  O83  1  0.559000  0.910400  0.561600  1.0  -0.8965
  O  O84  1  0.817700  0.900800  0.594300  1.0  -0.6728
  O  O85  1  0.064700  0.840600  0.465600  1.0  -0.8663
  O  O86  1  0.849700  0.768400  0.440100  1.0  -0.6665
  O  O87  1  0.791500  0.110200  0.366500  1.0  -0.6771
  O  O88  1  0.654300  0.355600  0.425800  1.0  -0.7328
  O  O89  1  0.530600  0.910400  0.938400  1.0  -0.8974
  O  O90  1  0.281500  0.900800  0.905700  1.0  -0.6711
  O  O91  1  0.094700  0.840600  0.034400  1.0  -0.8665
  O  O92  1  0.381900  0.768400  0.059900  1.0  -0.6673
  O  O93  1  0.098300  0.110200  0.133500  1.0  -0.6768
  O  O94  1  0.990100  0.355600  0.074200  1.0  -0.7312
