# generated using pymatgen
data_VH8(C2O)5
_symmetry_space_group_name_H-M   'P 1'
_cell_length_a   6.75070000
_cell_length_b   16.97980000
_cell_length_c   12.92320000
_cell_angle_alpha   90.00000000
_cell_angle_beta   90.00000000
_cell_angle_gamma   90.00000000
_symmetry_Int_Tables_number   1
_chemical_formula_structural   VH8(C2O)5
_chemical_formula_sum   'V4 H32 C40 O20'
_cell_volume   1481.32872503
_cell_formula_units_Z   4
loop_
 _symmetry_equiv_pos_site_id
 _symmetry_equiv_pos_as_xyz
  1  'x, y, z'
loop_
 _atom_site_type_symbol
 _atom_site_label
 _atom_site_symmetry_multiplicity
 _atom_site_fract_x
 _atom_site_fract_y
 _atom_site_fract_z
 _atom_site_occupancy
 _atom_site_charge
  V  V1  1  0.704700  0.250000  0.266550  1.0  1.7959
  V  V2  1  0.795300  0.750000  0.766550  1.0  1.7962
  V  V3  1  0.295300  0.750000  0.733450  1.0  1.7967
  V  V4  1  0.204700  0.250000  0.233450  1.0  1.7966
  H  H5  1  0.244400  0.087900  0.994100  1.0  0.105
  H  H6  1  0.816100  0.065800  0.186400  1.0  0.1267
  H  H7  1  0.953500  0.020500  0.108900  1.0  0.1428
  H  H8  1  0.831500  0.973800  0.191900  1.0  0.1328
  H  H9  1  0.255600  0.912100  0.494100  1.0  0.1047
  H  H10  1  0.683900  0.934200  0.686400  1.0  0.1266
  H  H11  1  0.546500  0.979500  0.608900  1.0  0.143
  H  H12  1  0.668500  0.026200  0.691900  1.0  0.1308
  H  H13  1  0.755600  0.587900  0.005900  1.0  0.1042
  H  H14  1  0.183900  0.565800  0.813600  1.0  0.1265
  H  H15  1  0.046500  0.520500  0.891100  1.0  0.1428
  H  H16  1  0.168500  0.473800  0.808100  1.0  0.1307
  H  H17  1  0.744400  0.412100  0.505900  1.0  0.105
  H  H18  1  0.316100  0.434200  0.313600  1.0  0.1261
  H  H19  1  0.453500  0.479500  0.391100  1.0  0.1428
  H  H20  1  0.331500  0.526200  0.308100  1.0  0.131
  H  H21  1  0.755600  0.912100  0.005900  1.0  0.1047
  H  H22  1  0.183900  0.934200  0.813600  1.0  0.1261
  H  H23  1  0.046500  0.979500  0.891100  1.0  0.1428
  H  H24  1  0.168500  0.026200  0.808100  1.0  0.1309
  H  H25  1  0.744400  0.087900  0.505900  1.0  0.1049
  H  H26  1  0.316100  0.065800  0.313600  1.0  0.1267
  H  H27  1  0.453500  0.020500  0.391100  1.0  0.1434
  H  H28  1  0.331500  0.973800  0.308100  1.0  0.131
  H  H29  1  0.244400  0.412100  0.994100  1.0  0.1047
  H  H30  1  0.816100  0.434200  0.186400  1.0  0.1266
  H  H31  1  0.953500  0.479500  0.108900  1.0  0.1427
  H  H32  1  0.831500  0.526200  0.191900  1.0  0.131
  H  H33  1  0.255600  0.587900  0.494100  1.0  0.1046
  H  H34  1  0.683900  0.565800  0.686400  1.0  0.1267
  H  H35  1  0.546500  0.520500  0.608900  1.0  0.1426
  H  H36  1  0.668500  0.473800  0.691900  1.0  0.1324
  C  C37  1  0.502000  0.066000  0.063700  1.0  -0.1134
  C  C38  1  0.659800  0.011400  0.070900  1.0  0.1008
  C  C39  1  0.348700  0.052200  0.995500  1.0  -0.1104
  C  C40  1  0.492500  0.139200  0.128900  1.0  0.7107
  C  C41  1  0.831000  0.018500  0.146500  1.0  -0.3677
  C  C42  1  0.998000  0.934000  0.563700  1.0  -0.1132
  C  C43  1  0.840200  0.988600  0.570900  1.0  0.1009
  C  C44  1  0.151300  0.947800  0.495500  1.0  -0.1093
  C  C45  1  0.007500  0.860800  0.628900  1.0  0.7107
  C  C46  1  0.669000  0.981500  0.646500  1.0  -0.3676
  C  C47  1  0.498000  0.566000  0.936300  1.0  -0.1137
  C  C48  1  0.340200  0.511400  0.929100  1.0  0.1014
  C  C49  1  0.651300  0.552200  0.004500  1.0  -0.1107
  C  C50  1  0.507500  0.639200  0.871100  1.0  0.7096
  C  C51  1  0.169000  0.518500  0.853500  1.0  -0.3668
  C  C52  1  0.002000  0.434000  0.436300  1.0  -0.1139
  C  C53  1  0.159800  0.488600  0.429100  1.0  0.1006
  C  C54  1  0.848700  0.447800  0.504500  1.0  -0.1088
  C  C55  1  0.992500  0.360800  0.371100  1.0  0.7104
  C  C56  1  0.331000  0.481500  0.353500  1.0  -0.3679
  C  C57  1  0.498000  0.934000  0.936300  1.0  -0.1125
  C  C58  1  0.340200  0.988600  0.929100  1.0  0.101
  C  C59  1  0.651300  0.947800  0.004500  1.0  -0.1096
  C  C60  1  0.507500  0.860800  0.871100  1.0  0.7104
  C  C61  1  0.169000  0.981500  0.853500  1.0  -0.3675
  C  C62  1  0.002000  0.066000  0.436300  1.0  -0.1126
  C  C63  1  0.159800  0.011400  0.429100  1.0  0.1008
  C  C64  1  0.848700  0.052200  0.504500  1.0  -0.1109
  C  C65  1  0.992500  0.139200  0.371100  1.0  0.7095
  C  C66  1  0.331000  0.018500  0.353500  1.0  -0.368
  C  C67  1  0.502000  0.434000  0.063700  1.0  -0.1124
  C  C68  1  0.659800  0.488600  0.070900  1.0  0.1005
  C  C69  1  0.348700  0.447800  0.995500  1.0  -0.1087
  C  C70  1  0.492500  0.360800  0.128900  1.0  0.7107
  C  C71  1  0.831000  0.481500  0.146500  1.0  -0.3685
  C  C72  1  0.998000  0.566000  0.563700  1.0  -0.1121
  C  C73  1  0.840200  0.511400  0.570900  1.0  0.1014
  C  C74  1  0.151300  0.552200  0.495500  1.0  -0.1105
  C  C75  1  0.007500  0.639200  0.628900  1.0  0.7107
  C  C76  1  0.669000  0.518500  0.646500  1.0  -0.3678
  O  O77  1  0.652900  0.166400  0.164300  1.0  -0.6245
  O  O78  1  0.322200  0.167400  0.146500  1.0  -0.5972
  O  O79  1  0.847100  0.833600  0.664300  1.0  -0.6234
  O  O80  1  0.177800  0.832600  0.646500  1.0  -0.5972
  O  O81  1  0.347100  0.666400  0.835700  1.0  -0.6228
  O  O82  1  0.677800  0.667400  0.853500  1.0  -0.5976
  O  O83  1  0.152900  0.333600  0.335700  1.0  -0.6233
  O  O84  1  0.822200  0.332600  0.353500  1.0  -0.5976
  O  O85  1  0.347100  0.833600  0.835700  1.0  -0.6224
  O  O86  1  0.677800  0.832600  0.853500  1.0  -0.5975
  O  O87  1  0.152900  0.166400  0.335700  1.0  -0.6238
  O  O88  1  0.822200  0.167400  0.353500  1.0  -0.5979
  O  O89  1  0.652900  0.333600  0.164300  1.0  -0.624
  O  O90  1  0.322200  0.332600  0.146500  1.0  -0.5973
  O  O91  1  0.847100  0.666400  0.664300  1.0  -0.6235
  O  O92  1  0.177800  0.667400  0.646500  1.0  -0.5971
  O  O93  1  0.482500  0.250000  0.313400  1.0  -0.8074
  O  O94  1  0.017500  0.750000  0.813400  1.0  -0.8082
  O  O95  1  0.517500  0.750000  0.686600  1.0  -0.8061
  O  O96  1  0.982500  0.250000  0.186600  1.0  -0.8055
