# generated using pymatgen
data_ZnH8C12(IN2)2
_symmetry_space_group_name_H-M   'P 1'
_cell_length_a   14.82090000
_cell_length_b   19.15080000
_cell_length_c   31.35400000
_cell_angle_alpha   101.86500000
_cell_angle_beta   90.00000000
_cell_angle_gamma   112.76500000
_symmetry_Int_Tables_number   1
_chemical_formula_structural   ZnH8C12(IN2)2
_chemical_formula_sum   'Zn12 H96 C144 I24 N48'
_cell_volume   7999.41967788
_cell_formula_units_Z   12
loop_
 _symmetry_equiv_pos_site_id
 _symmetry_equiv_pos_as_xyz
  1  'x, y, z'
loop_
 _atom_site_type_symbol
 _atom_site_label
 _atom_site_symmetry_multiplicity
 _atom_site_fract_x
 _atom_site_fract_y
 _atom_site_fract_z
 _atom_site_occupancy
 _atom_site_charge
  Zn  Zn1  1  0.717040  0.245520  0.560340  1.0  0.8287
  Zn  Zn2  1  0.187370  0.658440  0.731210  1.0  0.8663
  Zn  Zn3  1  0.036530  0.828200  0.910200  1.0  0.8908
  Zn  Zn4  1  0.528480  0.245520  0.060340  1.0  0.8271
  Zn  Zn5  1  0.471070  0.658440  0.231210  1.0  0.8683
  Zn  Zn6  1  0.791670  0.828200  0.410200  1.0  0.8864
  Zn  Zn7  1  0.471520  0.754480  0.939660  1.0  0.8284
  Zn  Zn8  1  0.528930  0.341560  0.768790  1.0  0.8652
  Zn  Zn9  1  0.208330  0.171800  0.589800  1.0  0.8904
  Zn  Zn10  1  0.282960  0.754480  0.439660  1.0  0.8265
  Zn  Zn11  1  0.812630  0.341560  0.268790  1.0  0.8677
  Zn  Zn12  1  0.963470  0.171800  0.089800  1.0  0.8865
  H  H13  1  0.610800  0.141600  0.617400  1.0  0.0775
  H  H14  1  0.478800  0.032400  0.617500  1.0  0.1182
  H  H15  1  0.383200  0.042800  0.500000  1.0  0.1149
  H  H16  1  0.530400  0.148000  0.501100  1.0  0.0834
  H  H17  1  0.572900  0.317800  0.576000  1.0  0.0885
  H  H18  1  0.546200  0.418200  0.623200  1.0  0.1231
  H  H19  1  0.797400  0.462000  0.694100  1.0  0.1068
  H  H20  1  0.817300  0.362200  0.644300  1.0  0.0839
  H  H21  1  0.396300  0.511200  0.672100  1.0  0.1088
  H  H22  1  0.254900  0.535200  0.679900  1.0  0.082
  H  H23  1  0.390400  0.724600  0.769100  1.0  0.0809
  H  H24  1  0.536800  0.705200  0.765800  1.0  0.1258
  H  H25  1  0.080600  0.651400  0.646300  1.0  0.1076
  H  H26  1  0.096800  0.727800  0.595400  1.0  0.1094
  H  H27  1  0.343700  0.887800  0.663900  1.0  0.1234
  H  H28  1  0.321200  0.806000  0.712800  1.0  0.0737
  H  H29  1  0.724200  0.731800  0.816000  1.0  0.126
  H  H30  1  0.841900  0.802600  0.874600  1.0  0.0788
  H  H31  1  0.996100  0.677600  0.839300  1.0  0.0839
  H  H32  1  0.881900  0.601200  0.780800  1.0  0.1108
  H  H33  1  0.848900  0.759400  0.476100  1.0  0.0886
  H  H34  1  0.981800  0.776200  0.523100  1.0  0.1246
  H  H35  1  0.134100  0.975800  0.484900  1.0  0.1241
  H  H36  1  0.995800  0.954400  0.440800  1.0  0.0912
  H  H37  1  0.530800  0.141600  0.117400  1.0  0.078
  H  H38  1  0.553600  0.032400  0.117500  1.0  0.1185
  H  H39  1  0.659600  0.042800  0.000000  1.0  0.1151
  H  H40  1  0.617600  0.148000  0.001100  1.0  0.0834
  H  H41  1  0.744900  0.317800  0.076000  1.0  0.0886
  H  H42  1  0.872000  0.418200  0.123200  1.0  0.1231
  H  H43  1  0.664600  0.462000  0.194100  1.0  0.1073
  H  H44  1  0.544900  0.362200  0.144300  1.0  0.0839
  H  H45  1  0.114900  0.511200  0.172100  1.0  0.1086
  H  H46  1  0.280300  0.535200  0.179900  1.0  0.0819
  H  H47  1  0.334200  0.724600  0.269100  1.0  0.0805
  H  H48  1  0.168400  0.705200  0.265800  1.0  0.1263
  H  H49  1  0.570800  0.651400  0.146300  1.0  0.1077
  H  H50  1  0.631000  0.727800  0.095400  1.0  0.1095
  H  H51  1  0.544100  0.887800  0.163900  1.0  0.1234
  H  H52  1  0.484800  0.806000  0.212800  1.0  0.0736
  H  H53  1  0.007600  0.731800  0.316000  1.0  0.1259
  H  H54  1  0.960700  0.802600  0.374600  1.0  0.0792
  H  H55  1  0.681500  0.677600  0.339300  1.0  0.0845
  H  H56  1  0.719300  0.601200  0.280800  1.0  0.1108
  H  H57  1  0.910500  0.759400  0.976100  1.0  0.0903
  H  H58  1  0.794400  0.776200  0.023100  1.0  0.1247
  H  H59  1  0.841700  0.975800  0.984900  1.0  0.1243
  H  H60  1  0.958600  0.954400  0.940800  1.0  0.0934
  H  H61  1  0.469200  0.858400  0.882600  1.0  0.0782
  H  H62  1  0.446400  0.967600  0.882500  1.0  0.1185
  H  H63  1  0.340400  0.957200  0.000000  1.0  0.1149
  H  H64  1  0.382400  0.852000  0.998900  1.0  0.0835
  H  H65  1  0.255100  0.682200  0.924000  1.0  0.0895
  H  H66  1  0.128000  0.581800  0.876800  1.0  0.1236
  H  H67  1  0.335400  0.538000  0.805900  1.0  0.108
  H  H68  1  0.455100  0.637800  0.855700  1.0  0.084
  H  H69  1  0.885100  0.488800  0.827900  1.0  0.1097
  H  H70  1  0.719700  0.464800  0.820100  1.0  0.0827
  H  H71  1  0.665800  0.275400  0.730900  1.0  0.0807
  H  H72  1  0.831600  0.294800  0.734200  1.0  0.1261
  H  H73  1  0.429200  0.348600  0.853700  1.0  0.1076
  H  H74  1  0.369000  0.272200  0.904600  1.0  0.1092
  H  H75  1  0.455900  0.112200  0.836100  1.0  0.124
  H  H76  1  0.515200  0.194000  0.787200  1.0  0.0735
  H  H77  1  0.992400  0.268200  0.684000  1.0  0.1265
  H  H78  1  0.039300  0.197400  0.625400  1.0  0.0794
  H  H79  1  0.318500  0.322400  0.660700  1.0  0.0843
  H  H80  1  0.280700  0.398800  0.719200  1.0  0.1109
  H  H81  1  0.089500  0.240600  0.023900  1.0  0.0897
  H  H82  1  0.205600  0.223800  0.976900  1.0  0.1246
  H  H83  1  0.158300  0.024200  0.015100  1.0  0.1241
  H  H84  1  0.041400  0.045600  0.059200  1.0  0.0937
  H  H85  1  0.389200  0.858400  0.382600  1.0  0.0778
  H  H86  1  0.521200  0.967600  0.382500  1.0  0.1184
  H  H87  1  0.616800  0.957200  0.500000  1.0  0.1146
  H  H88  1  0.469600  0.852000  0.498900  1.0  0.0828
  H  H89  1  0.427100  0.682200  0.424000  1.0  0.0893
  H  H90  1  0.453800  0.581800  0.376800  1.0  0.1228
  H  H91  1  0.202600  0.538000  0.305900  1.0  0.1079
  H  H92  1  0.182700  0.637800  0.355700  1.0  0.0843
  H  H93  1  0.603700  0.488800  0.327900  1.0  0.1097
  H  H94  1  0.745100  0.464800  0.320100  1.0  0.0825
  H  H95  1  0.609600  0.275400  0.230900  1.0  0.0806
  H  H96  1  0.463200  0.294800  0.234200  1.0  0.1256
  H  H97  1  0.919400  0.348600  0.353700  1.0  0.1073
  H  H98  1  0.903200  0.272200  0.404600  1.0  0.1092
  H  H99  1  0.656300  0.112200  0.336100  1.0  0.1237
  H  H100  1  0.678800  0.194000  0.287200  1.0  0.0735
  H  H101  1  0.275800  0.268200  0.184000  1.0  0.1258
  H  H102  1  0.158100  0.197400  0.125400  1.0  0.0796
  H  H103  1  0.003900  0.322400  0.160700  1.0  0.0845
  H  H104  1  0.118100  0.398800  0.219200  1.0  0.1113
  H  H105  1  0.151100  0.240600  0.523900  1.0  0.0885
  H  H106  1  0.018200  0.223800  0.476900  1.0  0.1246
  H  H107  1  0.865900  0.024200  0.515100  1.0  0.1239
  H  H108  1  0.004200  0.045600  0.559200  1.0  0.0911
  C  C109  1  0.565500  0.118400  0.592100  1.0  0.1451
  C  C110  1  0.486100  0.055800  0.593100  1.0  -0.1749
  C  C111  1  0.412600  0.024200  0.558200  1.0  -0.0489
  C  C112  1  0.430800  0.060600  0.524400  1.0  -0.1713
  C  C113  1  0.519200  0.124000  0.525400  1.0  0.1373
  C  C114  1  0.619100  0.348000  0.600400  1.0  0.1447
  C  C115  1  0.602300  0.407600  0.628400  1.0  -0.1482
  C  C116  1  0.669700  0.450800  0.664000  1.0  -0.1322
  C  C117  1  0.750100  0.433200  0.669800  1.0  -0.138
  C  C118  1  0.761300  0.373400  0.640100  1.0  0.1422
  C  C119  1  0.657100  0.514400  0.695800  1.0  0.365
  C  C120  1  0.571200  0.587000  0.719800  1.0  0.2948
  C  C121  1  0.717100  0.613600  0.754700  1.0  0.4085
  C  C122  1  0.481300  0.602600  0.718600  1.0  -0.0929
  C  C123  1  0.397500  0.555200  0.693000  1.0  -0.1085
  C  C124  1  0.313600  0.570800  0.697200  1.0  0.1447
  C  C125  1  0.391900  0.680400  0.749100  1.0  0.1497
  C  C126  1  0.479600  0.669000  0.747600  1.0  -0.1627
  C  C127  1  0.135300  0.699800  0.649900  1.0  0.1135
  C  C128  1  0.144400  0.745600  0.619700  1.0  -0.0741
  C  C129  1  0.289000  0.839400  0.659500  1.0  -0.146
  C  C130  1  0.274400  0.789400  0.688300  1.0  0.1587
  C  C131  1  0.791800  0.658200  0.792000  1.0  -0.0895
  C  C132  1  0.779100  0.719200  0.820200  1.0  -0.1148
  C  C133  1  0.850400  0.761200  0.854900  1.0  0.1561
  C  C134  1  0.940100  0.688600  0.834700  1.0  0.14
  C  C135  1  0.872400  0.643000  0.799600  1.0  -0.1325
  C  C136  1  0.908000  0.804400  0.478400  1.0  0.1436
  C  C137  1  0.986600  0.813200  0.506400  1.0  -0.1459
  C  C138  1  0.071000  0.877800  0.508600  1.0  -0.0973
  C  C139  1  0.075600  0.931000  0.483800  1.0  -0.1584
  C  C140  1  0.993100  0.917600  0.457500  1.0  0.1371
  C  C141  1  0.160400  0.890400  0.537800  1.0  0.3724
  C  C142  1  0.229900  0.863800  0.592100  1.0  0.4148
  C  C143  1  0.319700  0.957800  0.559900  1.0  0.3555
  C  C144  1  0.219000  0.814000  0.624400  1.0  -0.1033
  C  C145  1  0.552900  0.118400  0.092100  1.0  0.144
  C  C146  1  0.569700  0.055800  0.093100  1.0  -0.1758
  C  C147  1  0.611600  0.024200  0.058200  1.0  -0.0499
  C  C148  1  0.629800  0.060600  0.024400  1.0  -0.1718
  C  C149  1  0.604800  0.124000  0.025400  1.0  0.1365
  C  C150  1  0.728900  0.348000  0.100400  1.0  0.1434
  C  C151  1  0.805300  0.407600  0.128400  1.0  -0.146
  C  C152  1  0.781100  0.450800  0.164000  1.0  -0.1321
  C  C153  1  0.683100  0.433200  0.169800  1.0  -0.137
  C  C154  1  0.612100  0.373400  0.140100  1.0  0.1425
  C  C155  1  0.857300  0.514400  0.195800  1.0  0.3655
  C  C156  1  0.015800  0.587000  0.219800  1.0  0.2945
  C  C157  1  0.896500  0.613600  0.254700  1.0  0.4086
  C  C158  1  0.121300  0.602600  0.218600  1.0  -0.0937
  C  C159  1  0.157700  0.555200  0.193000  1.0  -0.1083
  C  C160  1  0.257200  0.570800  0.197200  1.0  0.1449
  C  C161  1  0.288500  0.680400  0.249100  1.0  0.1502
  C  C162  1  0.189400  0.669000  0.247600  1.0  -0.1624
  C  C163  1  0.564500  0.699800  0.149900  1.0  0.1143
  C  C164  1  0.601200  0.745600  0.119700  1.0  -0.0743
  C  C165  1  0.550400  0.839400  0.159500  1.0  -0.1467
  C  C166  1  0.515000  0.789400  0.188300  1.0  0.1593
  C  C167  1  0.866400  0.658200  0.292000  1.0  -0.0893
  C  C168  1  0.940100  0.719200  0.320200  1.0  -0.1131
  C  C169  1  0.910800  0.761200  0.354900  1.0  0.1563
  C  C170  1  0.748500  0.688600  0.334700  1.0  0.14
  C  C171  1  0.770600  0.643000  0.299600  1.0  -0.1326
  C  C172  1  0.896400  0.804400  0.978400  1.0  0.1434
  C  C173  1  0.826600  0.813200  0.006400  1.0  -0.1472
  C  C174  1  0.806800  0.877800  0.008600  1.0  -0.099
  C  C175  1  0.855400  0.931000  0.983800  1.0  -0.158
  C  C176  1  0.924500  0.917600  0.957500  1.0  0.1386
  C  C177  1  0.730000  0.890400  0.037800  1.0  0.3719
  C  C178  1  0.633900  0.863800  0.092100  1.0  0.4146
  C  C179  1  0.638100  0.957800  0.059900  1.0  0.356
  C  C180  1  0.595000  0.814000  0.124400  1.0  -0.1035
  C  C181  1  0.447100  0.881600  0.907900  1.0  0.1449
  C  C182  1  0.430300  0.944200  0.906900  1.0  -0.1753
  C  C183  1  0.388400  0.975800  0.941800  1.0  -0.0485
  C  C184  1  0.370200  0.939400  0.975600  1.0  -0.1717
  C  C185  1  0.395200  0.876000  0.974600  1.0  0.1371
  C  C186  1  0.271100  0.652000  0.899600  1.0  0.1454
  C  C187  1  0.194700  0.592400  0.871600  1.0  -0.147
  C  C188  1  0.218900  0.549200  0.836000  1.0  -0.1332
  C  C189  1  0.316900  0.566800  0.830200  1.0  -0.1383
  C  C190  1  0.387900  0.626600  0.859900  1.0  0.142
  C  C191  1  0.142700  0.485600  0.804200  1.0  0.3662
  C  C192  1  0.984200  0.413000  0.780200  1.0  0.2959
  C  C193  1  0.103500  0.386400  0.745300  1.0  0.408
  C  C194  1  0.878700  0.397400  0.781400  1.0  -0.0931
  C  C195  1  0.842300  0.444800  0.807000  1.0  -0.1098
  C  C196  1  0.742800  0.429200  0.802800  1.0  0.1444
  C  C197  1  0.711500  0.319600  0.750900  1.0  0.1485
  C  C198  1  0.810600  0.331000  0.752400  1.0  -0.1639
  C  C199  1  0.435500  0.300200  0.850100  1.0  0.1131
  C  C200  1  0.398800  0.254400  0.880300  1.0  -0.0746
  C  C201  1  0.449600  0.160600  0.840500  1.0  -0.1454
  C  C202  1  0.485000  0.210600  0.811700  1.0  0.1586
  C  C203  1  0.133600  0.341800  0.708000  1.0  -0.0898
  C  C204  1  0.059900  0.280800  0.679800  1.0  -0.1148
  C  C205  1  0.089200  0.238800  0.645100  1.0  0.1553
  C  C206  1  0.251500  0.311400  0.665300  1.0  0.1407
  C  C207  1  0.229400  0.357000  0.700400  1.0  -0.1315
  C  C208  1  0.103600  0.195600  0.021600  1.0  0.1429
  C  C209  1  0.173400  0.186800  0.993600  1.0  -0.1476
  C  C210  1  0.193200  0.122200  0.991400  1.0  -0.0975
  C  C211  1  0.144600  0.069000  0.016200  1.0  -0.1579
  C  C212  1  0.075500  0.082400  0.042500  1.0  0.1371
  C  C213  1  0.270000  0.109600  0.962200  1.0  0.3718
  C  C214  1  0.366100  0.136200  0.907900  1.0  0.4155
  C  C215  1  0.361900  0.042200  0.940100  1.0  0.3552
  C  C216  1  0.405000  0.186000  0.875600  1.0  -0.1028
  C  C217  1  0.434500  0.881600  0.407900  1.0  0.1449
  C  C218  1  0.513900  0.944200  0.406900  1.0  -0.1751
  C  C219  1  0.587400  0.975800  0.441800  1.0  -0.0492
  C  C220  1  0.569200  0.939400  0.475600  1.0  -0.1716
  C  C221  1  0.480800  0.876000  0.474600  1.0  0.137
  C  C222  1  0.380900  0.652000  0.399600  1.0  0.1453
  C  C223  1  0.397700  0.592400  0.371600  1.0  -0.1452
  C  C224  1  0.330300  0.549200  0.336000  1.0  -0.1329
  C  C225  1  0.249900  0.566800  0.330200  1.0  -0.1384
  C  C226  1  0.238700  0.626600  0.359900  1.0  0.142
  C  C227  1  0.342900  0.485600  0.304200  1.0  0.366
  C  C228  1  0.428800  0.413000  0.280200  1.0  0.2957
  C  C229  1  0.282900  0.386400  0.245300  1.0  0.4081
  C  C230  1  0.518700  0.397400  0.281400  1.0  -0.0944
  C  C231  1  0.602500  0.444800  0.307000  1.0  -0.1104
  C  C232  1  0.686400  0.429200  0.302800  1.0  0.1456
  C  C233  1  0.608100  0.319600  0.250900  1.0  0.1491
  C  C234  1  0.520400  0.331000  0.252400  1.0  -0.1623
  C  C235  1  0.864700  0.300200  0.350100  1.0  0.1138
  C  C236  1  0.855600  0.254400  0.380300  1.0  -0.0746
  C  C237  1  0.711000  0.160600  0.340500  1.0  -0.1456
  C  C238  1  0.725600  0.210600  0.311700  1.0  0.1595
  C  C239  1  0.208200  0.341800  0.208000  1.0  -0.0896
  C  C240  1  0.220900  0.280800  0.179800  1.0  -0.1143
  C  C241  1  0.149600  0.238800  0.145100  1.0  0.1553
  C  C242  1  0.059900  0.311400  0.165300  1.0  0.141
  C  C243  1  0.127600  0.357000  0.200400  1.0  -0.1313
  C  C244  1  0.092000  0.195600  0.521600  1.0  0.1427
  C  C245  1  0.013400  0.186800  0.493600  1.0  -0.1482
  C  C246  1  0.929000  0.122200  0.491400  1.0  -0.099
  C  C247  1  0.924400  0.069000  0.516200  1.0  -0.1583
  C  C248  1  0.006900  0.082400  0.542500  1.0  0.139
  C  C249  1  0.839600  0.109600  0.462200  1.0  0.3713
  C  C250  1  0.770100  0.136200  0.407900  1.0  0.4152
  C  C251  1  0.680300  0.042200  0.440100  1.0  0.3556
  C  C252  1  0.781000  0.186000  0.375600  1.0  -0.1032
  I  I253  1  0.726890  0.285300  0.487820  1.0  -0.3514
  I  I254  1  0.846110  0.213240  0.595720  1.0  -0.4538
  I  I255  1  0.210590  0.746620  0.806740  1.0  -0.4433
  I  I256  1  0.033040  0.536040  0.706340  1.0  -0.4024
  I  I257  1  0.117990  0.944440  0.874790  1.0  -0.3505
  I  I258  1  0.113950  0.756740  0.946260  1.0  -0.4328
  I  I259  1  0.558410  0.285300  0.987820  1.0  -0.3515
  I  I260  1  0.367130  0.213240  0.095720  1.0  -0.4543
  I  I261  1  0.536030  0.746620  0.306740  1.0  -0.4442
  I  I262  1  0.503000  0.536040  0.206340  1.0  -0.4027
  I  I263  1  0.826450  0.944440  0.374790  1.0  -0.3514
  I  I264  1  0.642790  0.756740  0.446260  1.0  -0.4337
  I  I265  1  0.441590  0.714700  0.012180  1.0  -0.3506
  I  I266  1  0.632870  0.786760  0.904280  1.0  -0.4536
  I  I267  1  0.463970  0.253380  0.693260  1.0  -0.4439
  I  I268  1  0.497000  0.463960  0.793660  1.0  -0.4025
  I  I269  1  0.173550  0.055560  0.625210  1.0  -0.3499
  I  I270  1  0.357210  0.243260  0.553740  1.0  -0.4362
  I  I271  1  0.273110  0.714700  0.512180  1.0  -0.3509
  I  I272  1  0.153890  0.786760  0.404280  1.0  -0.4541
  I  I273  1  0.789410  0.253380  0.193260  1.0  -0.4448
  I  I274  1  0.966960  0.463960  0.293660  1.0  -0.4025
  I  I275  1  0.882010  0.055560  0.125210  1.0  -0.3504
  I  I276  1  0.886050  0.243260  0.053740  1.0  -0.4372
  N  N277  1  0.586200  0.151400  0.557500  1.0  -0.3099
  N  N278  1  0.697300  0.331800  0.606400  1.0  -0.293
  N  N279  1  0.727600  0.553600  0.728200  1.0  -0.4491
  N  N280  1  0.641600  0.634200  0.751200  1.0  -0.3928
  N  N281  1  0.575000  0.527400  0.689900  1.0  -0.3358
  N  N282  1  0.929700  0.748000  0.862600  1.0  -0.3224
  N  N283  1  0.311700  0.633200  0.724200  1.0  -0.2886
  N  N284  1  0.202500  0.722800  0.684000  1.0  -0.3301
  N  N285  1  0.911300  0.856000  0.454500  1.0  -0.2913
  N  N286  1  0.148100  0.846800  0.565600  1.0  -0.3755
  N  N287  1  0.313400  0.918800  0.590900  1.0  -0.4272
  N  N288  1  0.245400  0.945800  0.531200  1.0  -0.4523
  N  N289  1  0.565200  0.151400  0.057500  1.0  -0.3112
  N  N290  1  0.634500  0.331800  0.106400  1.0  -0.2919
  N  N291  1  0.826000  0.553600  0.228200  1.0  -0.4484
  N  N292  1  0.992600  0.634200  0.251200  1.0  -0.393
  N  N293  1  0.952400  0.527400  0.189900  1.0  -0.3355
  N  N294  1  0.818300  0.748000  0.362600  1.0  -0.323
  N  N295  1  0.321500  0.633200  0.224200  1.0  -0.2876
  N  N296  1  0.520300  0.722800  0.184000  1.0  -0.331
  N  N297  1  0.944700  0.856000  0.954500  1.0  -0.2914
  N  N298  1  0.698700  0.846800  0.065600  1.0  -0.3755
  N  N299  1  0.605400  0.918800  0.090900  1.0  -0.4301
  N  N300  1  0.700400  0.945800  0.031200  1.0  -0.4527
  N  N301  1  0.434800  0.848600  0.942500  1.0  -0.3091
  N  N302  1  0.365500  0.668200  0.893600  1.0  -0.2935
  N  N303  1  0.174000  0.446400  0.771800  1.0  -0.4475
  N  N304  1  0.007400  0.365800  0.748800  1.0  -0.3947
  N  N305  1  0.047600  0.472600  0.810100  1.0  -0.3342
  N  N306  1  0.181700  0.252000  0.637400  1.0  -0.3205
  N  N307  1  0.678500  0.366800  0.775800  1.0  -0.289
  N  N308  1  0.479700  0.277200  0.816000  1.0  -0.3313
  N  N309  1  0.055300  0.144000  0.045500  1.0  -0.2908
  N  N310  1  0.301300  0.153200  0.934400  1.0  -0.3747
  N  N311  1  0.394600  0.081200  0.909100  1.0  -0.4271
  N  N312  1  0.299600  0.054200  0.968800  1.0  -0.455
  N  N313  1  0.413800  0.848600  0.442500  1.0  -0.3121
  N  N314  1  0.302700  0.668200  0.393600  1.0  -0.2929
  N  N315  1  0.272400  0.446400  0.271800  1.0  -0.4472
  N  N316  1  0.358400  0.365800  0.248800  1.0  -0.3941
  N  N317  1  0.425000  0.472600  0.310100  1.0  -0.3335
  N  N318  1  0.070300  0.252000  0.137400  1.0  -0.3231
  N  N319  1  0.688300  0.366800  0.275800  1.0  -0.2878
  N  N320  1  0.797500  0.277200  0.316000  1.0  -0.3321
  N  N321  1  0.088700  0.144000  0.545500  1.0  -0.2908
  N  N322  1  0.851900  0.153200  0.434400  1.0  -0.3749
  N  N323  1  0.686600  0.081200  0.409100  1.0  -0.4287
  N  N324  1  0.754600  0.054200  0.468800  1.0  -0.4552
