# generated using pymatgen
data_ZnH8C12(IN2)2
_symmetry_space_group_name_H-M   'P 1'
_cell_length_a   14.92020000
_cell_length_b   19.19770000
_cell_length_c   31.23330000
_cell_angle_alpha   102.45200000
_cell_angle_beta   90.00000000
_cell_angle_gamma   112.86700000
_symmetry_Int_Tables_number   1
_chemical_formula_structural   ZnH8C12(IN2)2
_chemical_formula_sum   'Zn12 H96 C144 I24 N48'
_cell_volume   8014.28764720
_cell_formula_units_Z   12
loop_
 _symmetry_equiv_pos_site_id
 _symmetry_equiv_pos_as_xyz
  1  'x, y, z'
loop_
 _atom_site_type_symbol
 _atom_site_label
 _atom_site_symmetry_multiplicity
 _atom_site_fract_x
 _atom_site_fract_y
 _atom_site_fract_z
 _atom_site_occupancy
 _atom_site_charge
  Zn  Zn1  1  0.800650  0.837880  0.906420  1.0  0.8557
  Zn  Zn2  1  0.469810  0.648560  0.719860  1.0  0.8428
  Zn  Zn3  1  0.525890  0.248400  0.558030  1.0  0.8448
  Zn  Zn4  1  0.037230  0.837880  0.406420  1.0  0.8583
  Zn  Zn5  1  0.178750  0.648560  0.219860  1.0  0.8411
  Zn  Zn6  1  0.722510  0.248400  0.058030  1.0  0.8463
  Zn  Zn7  1  0.962770  0.162120  0.593580  1.0  0.8561
  Zn  Zn8  1  0.821250  0.351440  0.780140  1.0  0.8417
  Zn  Zn9  1  0.277490  0.751600  0.941970  1.0  0.8447
  Zn  Zn10  1  0.199350  0.162120  0.093580  1.0  0.8581
  Zn  Zn11  1  0.530190  0.351440  0.280140  1.0  0.8393
  Zn  Zn12  1  0.474110  0.751600  0.441970  1.0  0.8463
  H  H13  1  0.849200  0.781000  0.980300  1.0  0.0828
  H  H14  1  0.980500  0.796800  0.027000  1.0  0.1291
  H  H15  1  0.144300  0.982400  0.979700  1.0  0.1172
  H  H16  1  0.007500  0.962800  0.935900  1.0  0.0979
  H  H17  1  0.974600  0.816200  0.869000  1.0  0.0955
  H  H18  1  0.015400  0.736200  0.813400  1.0  0.1164
  H  H19  1  0.728000  0.605400  0.779900  1.0  0.1201
  H  H20  1  0.694900  0.687000  0.837400  1.0  0.0689
  H  H21  1  0.866400  0.397200  0.628700  1.0  0.1223
  H  H22  1  0.739500  0.303800  0.579400  1.0  0.0864
  H  H23  1  0.544900  0.362000  0.645300  1.0  0.0805
  H  H24  1  0.665800  0.458600  0.696500  1.0  0.1165
  H  H25  1  0.173100  0.694200  0.764600  1.0  0.1202
  H  H26  1  0.336900  0.716000  0.762700  1.0  0.0804
  H  H27  1  0.275200  0.523000  0.672900  1.0  0.0761
  H  H28  1  0.109800  0.496600  0.670700  1.0  0.1121
  H  H29  1  0.086800  0.644400  0.132300  1.0  0.0945
  H  H30  1  0.099200  0.724600  0.084900  1.0  0.1188
  H  H31  1  0.341900  0.885800  0.160400  1.0  0.1213
  H  H32  1  0.316500  0.804000  0.208000  1.0  0.0933
  H  H33  1  0.378800  0.061800  0.004300  1.0  0.1125
  H  H34  1  0.503600  0.004200  0.097400  1.0  0.1155
  H  H35  1  0.525900  0.163000  0.004200  1.0  0.0878
  H  H36  1  0.648000  0.106800  0.094200  1.0  0.0857
  H  H37  1  0.931800  0.781000  0.480300  1.0  0.0827
  H  H38  1  0.816300  0.796800  0.527000  1.0  0.1289
  H  H39  1  0.838100  0.982400  0.479700  1.0  0.1175
  H  H40  1  0.955300  0.962800  0.435900  1.0  0.0962
  H  H41  1  0.841600  0.816200  0.369000  1.0  0.0958
  H  H42  1  0.720800  0.736200  0.313400  1.0  0.1168
  H  H43  1  0.877400  0.605400  0.279900  1.0  0.12
  H  H44  1  0.992100  0.687000  0.337400  1.0  0.0679
  H  H45  1  0.530800  0.397200  0.128700  1.0  0.1237
  H  H46  1  0.564300  0.303800  0.079400  1.0  0.0861
  H  H47  1  0.817100  0.362000  0.145300  1.0  0.0803
  H  H48  1  0.792800  0.458600  0.196500  1.0  0.1165
  H  H49  1  0.521100  0.694200  0.264600  1.0  0.1198
  H  H50  1  0.379100  0.716000  0.262700  1.0  0.0815
  H  H51  1  0.247800  0.523000  0.172900  1.0  0.0761
  H  H52  1  0.386800  0.496600  0.170700  1.0  0.1123
  H  H53  1  0.557600  0.644400  0.632300  1.0  0.0951
  H  H54  1  0.625400  0.724600  0.584900  1.0  0.1189
  H  H55  1  0.543900  0.885800  0.660400  1.0  0.1214
  H  H56  1  0.487500  0.804000  0.708000  1.0  0.0936
  H  H57  1  0.683000  0.061800  0.504300  1.0  0.1127
  H  H58  1  0.500600  0.004200  0.597400  1.0  0.1159
  H  H59  1  0.637100  0.163000  0.504200  1.0  0.088
  H  H60  1  0.458800  0.106800  0.594200  1.0  0.0862
  H  H61  1  0.068200  0.219000  0.519700  1.0  0.0821
  H  H62  1  0.183700  0.203200  0.473000  1.0  0.1282
  H  H63  1  0.161900  0.017600  0.520300  1.0  0.1174
  H  H64  1  0.044700  0.037200  0.564100  1.0  0.0964
  H  H65  1  0.158400  0.183800  0.631000  1.0  0.0955
  H  H66  1  0.279200  0.263800  0.686600  1.0  0.116
  H  H67  1  0.122600  0.394600  0.720100  1.0  0.1204
  H  H68  1  0.007900  0.313000  0.662600  1.0  0.069
  H  H69  1  0.469200  0.602800  0.871300  1.0  0.1226
  H  H70  1  0.435700  0.696200  0.920600  1.0  0.0863
  H  H71  1  0.182900  0.638000  0.854700  1.0  0.0807
  H  H72  1  0.207200  0.541400  0.803500  1.0  0.1172
  H  H73  1  0.478900  0.305800  0.735400  1.0  0.1192
  H  H74  1  0.620900  0.284000  0.737300  1.0  0.081
  H  H75  1  0.752200  0.477000  0.827100  1.0  0.0769
  H  H76  1  0.613200  0.503400  0.829300  1.0  0.113
  H  H77  1  0.442400  0.355600  0.367700  1.0  0.0939
  H  H78  1  0.374600  0.275400  0.415100  1.0  0.1188
  H  H79  1  0.456100  0.114200  0.339600  1.0  0.1214
  H  H80  1  0.512500  0.196000  0.292000  1.0  0.093
  H  H81  1  0.317000  0.938200  0.495700  1.0  0.1132
  H  H82  1  0.499400  0.995800  0.402600  1.0  0.1153
  H  H83  1  0.362900  0.837000  0.495800  1.0  0.0878
  H  H84  1  0.541200  0.893200  0.405800  1.0  0.0856
  H  H85  1  0.150800  0.219000  0.019700  1.0  0.0819
  H  H86  1  0.019500  0.203200  0.973000  1.0  0.1285
  H  H87  1  0.855700  0.017600  0.020300  1.0  0.1174
  H  H88  1  0.992500  0.037200  0.064100  1.0  0.098
  H  H89  1  0.025400  0.183800  0.131000  1.0  0.095
  H  H90  1  0.984600  0.263800  0.186600  1.0  0.1168
  H  H91  1  0.272000  0.394600  0.220100  1.0  0.1198
  H  H92  1  0.305100  0.313000  0.162600  1.0  0.0684
  H  H93  1  0.133600  0.602800  0.371300  1.0  0.1239
  H  H94  1  0.260500  0.696200  0.420600  1.0  0.0865
  H  H95  1  0.455100  0.638000  0.354700  1.0  0.0804
  H  H96  1  0.334200  0.541400  0.303500  1.0  0.1174
  H  H97  1  0.826900  0.305800  0.235400  1.0  0.1196
  H  H98  1  0.663100  0.284000  0.237300  1.0  0.0814
  H  H99  1  0.724800  0.477000  0.327100  1.0  0.0779
  H  H100  1  0.890200  0.503400  0.329300  1.0  0.1132
  H  H101  1  0.913200  0.355600  0.867700  1.0  0.0947
  H  H102  1  0.900800  0.275400  0.915100  1.0  0.1187
  H  H103  1  0.658100  0.114200  0.839600  1.0  0.1212
  H  H104  1  0.683500  0.196000  0.792000  1.0  0.0931
  H  H105  1  0.621200  0.938200  0.995700  1.0  0.1134
  H  H106  1  0.496400  0.995800  0.902600  1.0  0.1153
  H  H107  1  0.474100  0.837000  0.995800  1.0  0.0868
  H  H108  1  0.352000  0.893200  0.905800  1.0  0.0859
  C  C109  1  0.910600  0.822200  0.980000  1.0  0.1414
  C  C110  1  0.988500  0.830800  0.007900  1.0  -0.1609
  C  C111  1  0.078100  0.890000  0.007000  1.0  -0.0869
  C  C112  1  0.084310  0.940020  0.980100  1.0  -0.1654
  C  C113  1  0.002700  0.927800  0.954000  1.0  0.1312
  C  C114  1  0.924000  0.772200  0.850800  1.0  0.146
  C  C115  1  0.948700  0.725000  0.817700  1.0  -0.1087
  C  C116  1  0.876290  0.661580  0.790600  1.0  -0.111
  C  C117  1  0.780000  0.648000  0.798100  1.0  -0.1512
  C  C118  1  0.761100  0.697200  0.832300  1.0  0.158
  C  C119  1  0.902740  0.609680  0.754900  1.0  0.3913
  C  C120  1  0.017480  0.577760  0.719900  1.0  0.3353
  C  C121  1  0.858290  0.504380  0.698500  1.0  0.3891
  C  C122  1  0.780200  0.440000  0.667600  1.0  -0.1172
  C  C123  1  0.801100  0.391800  0.632600  1.0  -0.1468
  C  C124  1  0.725000  0.336000  0.603600  1.0  0.1475
  C  C125  1  0.611220  0.370040  0.642000  1.0  0.1508
  C  C126  1  0.682670  0.427740  0.672500  1.0  -0.1345
  C  C127  1  0.122990  0.592780  0.718100  1.0  -0.0727
  C  C128  1  0.192200  0.658000  0.745200  1.0  -0.1357
  C  C129  1  0.289700  0.670400  0.744000  1.0  0.14
  C  C130  1  0.253900  0.558400  0.691600  1.0  0.1557
  C  C131  1  0.155200  0.542000  0.690300  1.0  -0.1364
  C  C132  1  0.138200  0.694600  0.138300  1.0  0.139
  C  C133  1  0.146000  0.741800  0.109700  1.0  -0.1069
  C  C134  1  0.222230  0.813860  0.117200  1.0  -0.0888
  C  C135  1  0.287900  0.836800  0.154300  1.0  -0.1415
  C  C136  1  0.273000  0.787200  0.182100  1.0  0.14
  C  C137  1  0.232760  0.864320  0.086300  1.0  0.4061
  C  C138  1  0.166010  0.898620  0.033950  1.0  0.4025
  C  C139  1  0.326400  0.961000  0.055500  1.0  0.3781
  C  C140  1  0.421400  0.024600  0.053300  1.0  -0.0383
  C  C141  1  0.432300  0.071200  0.024400  1.0  -0.1728
  C  C142  1  0.505400  0.037600  0.078700  1.0  -0.1572
  C  C143  1  0.520500  0.131600  0.024500  1.0  0.1457
  C  C144  1  0.591200  0.099000  0.076700  1.0  0.1116
  C  C145  1  0.911600  0.822200  0.480000  1.0  0.1409
  C  C146  1  0.842300  0.830800  0.507900  1.0  -0.161
  C  C147  1  0.811900  0.890000  0.507000  1.0  -0.0874
  C  C148  1  0.855710  0.940020  0.480100  1.0  -0.1653
  C  C149  1  0.925100  0.927800  0.454000  1.0  0.1324
  C  C150  1  0.848200  0.772200  0.350800  1.0  0.1463
  C  C151  1  0.776300  0.725000  0.317700  1.0  -0.1095
  C  C152  1  0.785290  0.661580  0.290600  1.0  -0.1112
  C  C153  1  0.868000  0.648000  0.298100  1.0  -0.1511
  C  C154  1  0.936100  0.697200  0.332300  1.0  0.1572
  C  C155  1  0.706940  0.609680  0.254900  1.0  0.3909
  C  C156  1  0.560280  0.577760  0.219900  1.0  0.3351
  C  C157  1  0.646090  0.504380  0.198500  1.0  0.3888
  C  C158  1  0.659800  0.440000  0.167600  1.0  -0.1176
  C  C159  1  0.590700  0.391800  0.132600  1.0  -0.149
  C  C160  1  0.611000  0.336000  0.103600  1.0  0.1486
  C  C161  1  0.758820  0.370040  0.142000  1.0  0.1504
  C  C162  1  0.745070  0.427740  0.172500  1.0  -0.1337
  C  C163  1  0.469790  0.592780  0.218100  1.0  -0.0718
  C  C164  1  0.465800  0.658000  0.245200  1.0  -0.1362
  C  C165  1  0.380700  0.670400  0.244000  1.0  0.1395
  C  C166  1  0.304500  0.558400  0.191600  1.0  0.1561
  C  C167  1  0.386800  0.542000  0.190300  1.0  -0.1368
  C  C168  1  0.556400  0.694600  0.638300  1.0  0.1387
  C  C169  1  0.595800  0.741800  0.609700  1.0  -0.1061
  C  C170  1  0.591630  0.813860  0.617200  1.0  -0.0888
  C  C171  1  0.548900  0.836800  0.654300  1.0  -0.1415
  C  C172  1  0.514200  0.787200  0.682100  1.0  0.14
  C  C173  1  0.631560  0.864320  0.586300  1.0  0.4066
  C  C174  1  0.732610  0.898620  0.533950  1.0  0.4026
  C  C175  1  0.634600  0.961000  0.555500  1.0  0.379
  C  C176  1  0.603200  0.024600  0.553300  1.0  -0.0378
  C  C177  1  0.638900  0.071200  0.524400  1.0  -0.1729
  C  C178  1  0.532200  0.037600  0.578700  1.0  -0.158
  C  C179  1  0.611100  0.131600  0.524500  1.0  0.1454
  C  C180  1  0.507800  0.099000  0.576700  1.0  0.1109
  C  C181  1  0.088400  0.177800  0.520000  1.0  0.1387
  C  C182  1  0.157700  0.169200  0.492100  1.0  -0.1612
  C  C183  1  0.188100  0.110000  0.493000  1.0  -0.0872
  C  C184  1  0.144290  0.059980  0.519900  1.0  -0.1651
  C  C185  1  0.074900  0.072200  0.546000  1.0  0.1304
  C  C186  1  0.151800  0.227800  0.649200  1.0  0.1468
  C  C187  1  0.223700  0.275000  0.682300  1.0  -0.1088
  C  C188  1  0.214710  0.338420  0.709400  1.0  -0.1128
  C  C189  1  0.132000  0.352000  0.701900  1.0  -0.1506
  C  C190  1  0.063900  0.302800  0.667700  1.0  0.1583
  C  C191  1  0.293060  0.390320  0.745100  1.0  0.3917
  C  C192  1  0.439720  0.422240  0.780100  1.0  0.3359
  C  C193  1  0.353910  0.495620  0.801500  1.0  0.3906
  C  C194  1  0.340200  0.560000  0.832400  1.0  -0.1181
  C  C195  1  0.409300  0.608200  0.867400  1.0  -0.1472
  C  C196  1  0.389000  0.664000  0.896400  1.0  0.1485
  C  C197  1  0.241180  0.629960  0.858000  1.0  0.1513
  C  C198  1  0.254930  0.572260  0.827500  1.0  -0.1356
  C  C199  1  0.530210  0.407220  0.781900  1.0  -0.0732
  C  C200  1  0.534200  0.342000  0.754800  1.0  -0.1338
  C  C201  1  0.619300  0.329600  0.756000  1.0  0.1395
  C  C202  1  0.695500  0.441600  0.808400  1.0  0.1563
  C  C203  1  0.613200  0.458000  0.809700  1.0  -0.1387
  C  C204  1  0.443600  0.305400  0.361700  1.0  0.1383
  C  C205  1  0.404200  0.258200  0.390300  1.0  -0.1071
  C  C206  1  0.408370  0.186140  0.382800  1.0  -0.0891
  C  C207  1  0.451100  0.163200  0.345700  1.0  -0.1406
  C  C208  1  0.485800  0.212800  0.317900  1.0  0.1406
  C  C209  1  0.368440  0.135680  0.413700  1.0  0.406
  C  C210  1  0.267390  0.101380  0.466050  1.0  0.402
  C  C211  1  0.365400  0.039000  0.444500  1.0  0.3781
  C  C212  1  0.396800  0.975400  0.446700  1.0  -0.0395
  C  C213  1  0.361100  0.928800  0.475600  1.0  -0.1723
  C  C214  1  0.467800  0.962400  0.421300  1.0  -0.1572
  C  C215  1  0.388900  0.868400  0.475500  1.0  0.1452
  C  C216  1  0.492200  0.901000  0.423300  1.0  0.1121
  C  C217  1  0.089400  0.177800  0.020000  1.0  0.1395
  C  C218  1  0.011500  0.169200  0.992100  1.0  -0.1611
  C  C219  1  0.921900  0.110000  0.993000  1.0  -0.087
  C  C220  1  0.915690  0.059980  0.019900  1.0  -0.1653
  C  C221  1  0.997300  0.072200  0.046000  1.0  0.1321
  C  C222  1  0.076000  0.227800  0.149200  1.0  0.1474
  C  C223  1  0.051300  0.275000  0.182300  1.0  -0.109
  C  C224  1  0.123710  0.338420  0.209400  1.0  -0.1132
  C  C225  1  0.220000  0.352000  0.201900  1.0  -0.1506
  C  C226  1  0.238900  0.302800  0.167700  1.0  0.1572
  C  C227  1  0.097260  0.390320  0.245100  1.0  0.3917
  C  C228  1  0.982520  0.422240  0.280100  1.0  0.3357
  C  C229  1  0.141710  0.495620  0.301500  1.0  0.3902
  C  C230  1  0.219800  0.560000  0.332400  1.0  -0.1186
  C  C231  1  0.198900  0.608200  0.367400  1.0  -0.1492
  C  C232  1  0.275000  0.664000  0.396400  1.0  0.1485
  C  C233  1  0.388780  0.629960  0.358000  1.0  0.1504
  C  C234  1  0.317330  0.572260  0.327500  1.0  -0.1353
  C  C235  1  0.877010  0.407220  0.281900  1.0  -0.0717
  C  C236  1  0.807800  0.342000  0.254800  1.0  -0.1348
  C  C237  1  0.710300  0.329600  0.256000  1.0  0.1391
  C  C238  1  0.746100  0.441600  0.308400  1.0  0.1551
  C  C239  1  0.844800  0.458000  0.309700  1.0  -0.137
  C  C240  1  0.861800  0.305400  0.861700  1.0  0.1388
  C  C241  1  0.854000  0.258200  0.890300  1.0  -0.1061
  C  C242  1  0.777770  0.186140  0.882800  1.0  -0.089
  C  C243  1  0.712100  0.163200  0.845700  1.0  -0.1397
  C  C244  1  0.727000  0.212800  0.817900  1.0  0.1414
  C  C245  1  0.767240  0.135680  0.913700  1.0  0.4065
  C  C246  1  0.833990  0.101380  0.966050  1.0  0.4021
  C  C247  1  0.673600  0.039000  0.944500  1.0  0.3788
  C  C248  1  0.578600  0.975400  0.946700  1.0  -0.039
  C  C249  1  0.567700  0.928800  0.975600  1.0  -0.173
  C  C250  1  0.494600  0.962400  0.921300  1.0  -0.1564
  C  C251  1  0.479500  0.868400  0.975500  1.0  0.145
  C  C252  1  0.408800  0.901000  0.923300  1.0  0.1127
  I  I253  1  0.824680  0.950720  0.872310  1.0  -0.369
  I  I254  1  0.650540  0.760680  0.939320  1.0  -0.3738
  I  I255  1  0.546640  0.738240  0.794760  1.0  -0.4269
  I  I256  1  0.497780  0.524820  0.691990  1.0  -0.4352
  I  I257  1  0.362960  0.225140  0.590080  1.0  -0.4637
  I  I258  1  0.574790  0.298660  0.488980  1.0  -0.3322
  I  I259  1  0.126040  0.950720  0.372310  1.0  -0.3679
  I  I260  1  0.110140  0.760680  0.439320  1.0  -0.3739
  I  I261  1  0.191600  0.738240  0.294760  1.0  -0.4268
  I  I262  1  0.027040  0.524820  0.191990  1.0  -0.4348
  I  I263  1  0.862180  0.225140  0.090080  1.0  -0.464
  I  I264  1  0.723870  0.298660  0.988980  1.0  -0.3324
  I  I265  1  0.873960  0.049280  0.627690  1.0  -0.3672
  I  I266  1  0.889860  0.239320  0.560680  1.0  -0.374
  I  I267  1  0.808400  0.261760  0.705240  1.0  -0.4271
  I  I268  1  0.972960  0.475180  0.808010  1.0  -0.4317
  I  I269  1  0.137820  0.774860  0.909920  1.0  -0.4631
  I  I270  1  0.276130  0.701340  0.011020  1.0  -0.3326
  I  I271  1  0.175320  0.049280  0.127690  1.0  -0.3664
  I  I272  1  0.349460  0.239320  0.060680  1.0  -0.374
  I  I273  1  0.453360  0.261760  0.205240  1.0  -0.427
  I  I274  1  0.502220  0.475180  0.308010  1.0  -0.4317
  I  I275  1  0.637040  0.774860  0.409920  1.0  -0.4632
  I  I276  1  0.425210  0.701340  0.511020  1.0  -0.3325
  N  N277  1  0.916890  0.868380  0.953040  1.0  -0.31
  N  N278  1  0.830740  0.758080  0.858500  1.0  -0.2938
  N  N279  1  0.997480  0.628760  0.750450  1.0  -0.423
  N  N280  1  0.951960  0.515320  0.692320  1.0  -0.3107
  N  N281  1  0.830020  0.548440  0.730250  1.0  -0.4453
  N  N282  1  0.320640  0.621680  0.717670  1.0  -0.3022
  N  N283  1  0.631610  0.325020  0.607850  1.0  -0.3008
  N  N284  1  0.200280  0.716960  0.174200  1.0  -0.3174
  N  N285  1  0.152240  0.851680  0.061420  1.0  -0.4896
  N  N286  1  0.251690  0.952380  0.028430  1.0  -0.4677
  N  N287  1  0.321170  0.919740  0.085640  1.0  -0.4226
  N  N288  1  0.598100  0.148000  0.051410  1.0  -0.289
  N  N289  1  0.951490  0.868380  0.453040  1.0  -0.3115
  N  N290  1  0.927340  0.758080  0.358500  1.0  -0.293
  N  N291  1  0.631280  0.628760  0.250450  1.0  -0.4224
  N  N292  1  0.563360  0.515320  0.192320  1.0  -0.311
  N  N293  1  0.718420  0.548440  0.230250  1.0  -0.4459
  N  N294  1  0.301040  0.621680  0.217670  1.0  -0.3024
  N  N295  1  0.693410  0.325020  0.107850  1.0  -0.2998
  N  N296  1  0.516680  0.716960  0.674200  1.0  -0.3167
  N  N297  1  0.699440  0.851680  0.561420  1.0  -0.4892
  N  N298  1  0.700690  0.952380  0.528430  1.0  -0.4676
  N  N299  1  0.598570  0.919740  0.585640  1.0  -0.4236
  N  N300  1  0.549900  0.148000  0.551410  1.0  -0.2873
  N  N301  1  0.048510  0.131620  0.546960  1.0  -0.3095
  N  N302  1  0.072660  0.241920  0.641500  1.0  -0.2945
  N  N303  1  0.368720  0.371240  0.749550  1.0  -0.4243
  N  N304  1  0.436640  0.484680  0.807680  1.0  -0.31
  N  N305  1  0.281580  0.451560  0.769750  1.0  -0.4444
  N  N306  1  0.698960  0.378320  0.782330  1.0  -0.301
  N  N307  1  0.306590  0.674980  0.892150  1.0  -0.302
  N  N308  1  0.483320  0.283040  0.325800  1.0  -0.3192
  N  N309  1  0.300560  0.148320  0.438580  1.0  -0.4884
  N  N310  1  0.299310  0.047620  0.471570  1.0  -0.4697
  N  N311  1  0.401430  0.080260  0.414360  1.0  -0.4237
  N  N312  1  0.450100  0.852000  0.448590  1.0  -0.2885
  N  N313  1  0.083110  0.131620  0.046960  1.0  -0.3118
  N  N314  1  0.169260  0.241920  0.141500  1.0  -0.2931
  N  N315  1  0.002520  0.371240  0.249550  1.0  -0.4247
  N  N316  1  0.048040  0.484680  0.307680  1.0  -0.31
  N  N317  1  0.169980  0.451560  0.269750  1.0  -0.4447
  N  N318  1  0.679360  0.378320  0.282330  1.0  -0.302
  N  N319  1  0.368390  0.674980  0.392150  1.0  -0.2994
  N  N320  1  0.799720  0.283040  0.825800  1.0  -0.3188
  N  N321  1  0.847760  0.148320  0.938580  1.0  -0.4886
  N  N322  1  0.748310  0.047620  0.971570  1.0  -0.4695
  N  N323  1  0.678830  0.080260  0.914360  1.0  -0.4243
  N  N324  1  0.401900  0.852000  0.948590  1.0  -0.2896
