# generated using pymatgen
data_ZnH8C12(IN2)2
_symmetry_space_group_name_H-M   'P 1'
_cell_length_a   15.10100000
_cell_length_b   18.65280000
_cell_length_c   30.23970000
_cell_angle_alpha   100.15500000
_cell_angle_beta   90.00000000
_cell_angle_gamma   113.87800000
_symmetry_Int_Tables_number   1
_chemical_formula_structural   ZnH8C12(IN2)2
_chemical_formula_sum   'Zn12 H96 C144 I24 N48'
_cell_volume   7642.59820541
_cell_formula_units_Z   12
loop_
 _symmetry_equiv_pos_site_id
 _symmetry_equiv_pos_as_xyz
  1  'x, y, z'
loop_
 _atom_site_type_symbol
 _atom_site_label
 _atom_site_symmetry_multiplicity
 _atom_site_fract_x
 _atom_site_fract_y
 _atom_site_fract_z
 _atom_site_occupancy
 _atom_site_charge
  Zn  Zn1  1  0.269070  0.739400  0.448000  1.0  0.8924
  Zn  Zn2  1  0.198230  0.150880  0.599480  1.0  0.8641
  Zn  Zn3  1  0.823680  0.359460  0.281920  1.0  0.8565
  Zn  Zn4  1  0.470330  0.739400  0.948000  1.0  0.8943
  Zn  Zn5  1  0.952650  0.150880  0.099480  1.0  0.8623
  Zn  Zn6  1  0.535780  0.359460  0.781920  1.0  0.853
  Zn  Zn7  1  0.529670  0.260600  0.052000  1.0  0.8907
  Zn  Zn8  1  0.047350  0.849120  0.900520  1.0  0.8636
  Zn  Zn9  1  0.464220  0.640540  0.218080  1.0  0.8559
  Zn  Zn10  1  0.730930  0.260600  0.552000  1.0  0.8925
  Zn  Zn11  1  0.801770  0.849120  0.400520  1.0  0.8609
  Zn  Zn12  1  0.176320  0.640540  0.718080  1.0  0.8533
  H  H13  1  0.990800  0.020000  0.573700  1.0  0.0915
  H  H14  1  0.852000  0.000600  0.531100  1.0  0.1269
  H  H15  1  0.018100  0.187800  0.473900  1.0  0.1218
  H  H16  1  0.150600  0.203600  0.520000  1.0  0.081
  H  H17  1  0.519800  0.967000  0.391600  1.0  0.1235
  H  H18  1  0.912100  0.272400  0.417700  1.0  0.1171
  H  H19  1  0.924100  0.360400  0.368700  1.0  0.1007
  H  H20  1  0.663700  0.115600  0.346200  1.0  0.1064
  H  H21  1  0.012400  0.310000  0.162100  1.0  0.0718
  H  H22  1  0.126800  0.392400  0.219700  1.0  0.1175
  H  H23  1  0.272900  0.252000  0.189200  1.0  0.1204
  H  H24  1  0.153200  0.174600  0.132800  1.0  0.0807
  H  H25  1  0.204700  0.531800  0.307000  1.0  0.1145
  H  H26  1  0.180300  0.627800  0.359000  1.0  0.0705
  H  H27  1  0.425400  0.680400  0.429200  1.0  0.0916
  H  H28  1  0.457000  0.586600  0.379200  1.0  0.1189
  H  H29  1  0.603400  0.496000  0.334600  1.0  0.1075
  H  H30  1  0.743200  0.472800  0.335700  1.0  0.0937
  H  H31  1  0.625100  0.285800  0.237100  1.0  0.0765
  H  H32  1  0.480900  0.300000  0.235500  1.0  0.1275
  H  H33  1  0.452000  0.837600  0.514000  1.0  0.1095
  H  H34  1  0.605300  0.940200  0.511200  1.0  0.1048
  H  H35  1  0.371600  0.859000  0.393900  1.0  0.0851
  H  H36  1  0.686900  0.203400  0.297300  1.0  0.0952
  H  H37  1  0.029200  0.020000  0.073700  1.0  0.0914
  H  H38  1  0.148600  0.000600  0.031100  1.0  0.1265
  H  H39  1  0.169700  0.187800  0.973900  1.0  0.1221
  H  H40  1  0.053000  0.203600  0.020000  1.0  0.0815
  H  H41  1  0.447200  0.967000  0.891600  1.0  0.1237
  H  H42  1  0.360300  0.272400  0.917700  1.0  0.1174
  H  H43  1  0.436300  0.360400  0.868700  1.0  0.1003
  H  H44  1  0.451900  0.115600  0.846200  1.0  0.107
  H  H45  1  0.297600  0.310000  0.662100  1.0  0.0712
  H  H46  1  0.265600  0.392400  0.719700  1.0  0.1171
  H  H47  1  0.979100  0.252000  0.689200  1.0  0.1211
  H  H48  1  0.021400  0.174600  0.632800  1.0  0.0788
  H  H49  1  0.327100  0.531800  0.807000  1.0  0.1146
  H  H50  1  0.447500  0.627800  0.859000  1.0  0.07
  H  H51  1  0.255000  0.680400  0.929200  1.0  0.0914
  H  H52  1  0.129600  0.586600  0.879200  1.0  0.1192
  H  H53  1  0.892600  0.496000  0.834600  1.0  0.1073
  H  H54  1  0.729600  0.472800  0.835700  1.0  0.0941
  H  H55  1  0.660700  0.285800  0.737100  1.0  0.0762
  H  H56  1  0.819100  0.300000  0.735500  1.0  0.1276
  H  H57  1  0.385600  0.837600  0.014000  1.0  0.1105
  H  H58  1  0.334900  0.940200  0.011200  1.0  0.1051
  H  H59  1  0.487400  0.859000  0.893900  1.0  0.0854
  H  H60  1  0.516500  0.203400  0.797300  1.0  0.0953
  H  H61  1  0.970800  0.980000  0.926300  1.0  0.0901
  H  H62  1  0.851400  0.999400  0.968900  1.0  0.1269
  H  H63  1  0.830300  0.812200  0.026100  1.0  0.1221
  H  H64  1  0.947000  0.796400  0.980000  1.0  0.0817
  H  H65  1  0.552800  0.033000  0.108400  1.0  0.1239
  H  H66  1  0.639700  0.727600  0.082300  1.0  0.1173
  H  H67  1  0.563700  0.639600  0.131300  1.0  0.101
  H  H68  1  0.548100  0.884400  0.153800  1.0  0.107
  H  H69  1  0.702400  0.690000  0.337900  1.0  0.0718
  H  H70  1  0.734400  0.607600  0.280300  1.0  0.1181
  H  H71  1  0.020900  0.748000  0.310800  1.0  0.1206
  H  H72  1  0.978600  0.825400  0.367200  1.0  0.078
  H  H73  1  0.672900  0.468200  0.193000  1.0  0.1142
  H  H74  1  0.552500  0.372200  0.141000  1.0  0.0707
  H  H75  1  0.745000  0.319600  0.070800  1.0  0.0917
  H  H76  1  0.870400  0.413400  0.120800  1.0  0.1191
  H  H77  1  0.107400  0.504000  0.165400  1.0  0.107
  H  H78  1  0.270400  0.527200  0.164300  1.0  0.0926
  H  H79  1  0.339300  0.714200  0.262900  1.0  0.0753
  H  H80  1  0.180900  0.700000  0.264500  1.0  0.1282
  H  H81  1  0.614400  0.162400  0.986000  1.0  0.1111
  H  H82  1  0.665100  0.059800  0.988800  1.0  0.1046
  H  H83  1  0.512600  0.141000  0.106100  1.0  0.0862
  H  H84  1  0.483500  0.796600  0.202700  1.0  0.0953
  H  H85  1  0.009200  0.980000  0.426300  1.0  0.0904
  H  H86  1  0.148000  0.999400  0.468900  1.0  0.1266
  H  H87  1  0.981900  0.812200  0.526100  1.0  0.1224
  H  H88  1  0.849400  0.796400  0.480000  1.0  0.0816
  H  H89  1  0.480200  0.033000  0.608400  1.0  0.1237
  H  H90  1  0.087900  0.727600  0.582300  1.0  0.1176
  H  H91  1  0.075900  0.639600  0.631300  1.0  0.1004
  H  H92  1  0.336300  0.884400  0.653800  1.0  0.1069
  H  H93  1  0.987600  0.690000  0.837900  1.0  0.071
  H  H94  1  0.873200  0.607600  0.780300  1.0  0.1179
  H  H95  1  0.727100  0.748000  0.810800  1.0  0.1209
  H  H96  1  0.846800  0.825400  0.867200  1.0  0.0806
  H  H97  1  0.795300  0.468200  0.693000  1.0  0.1141
  H  H98  1  0.819700  0.372200  0.641000  1.0  0.0699
  H  H99  1  0.574600  0.319600  0.570800  1.0  0.0914
  H  H100  1  0.543000  0.413400  0.620800  1.0  0.1195
  H  H101  1  0.396600  0.504000  0.665400  1.0  0.107
  H  H102  1  0.256800  0.527200  0.664300  1.0  0.0924
  H  H103  1  0.374900  0.714200  0.762900  1.0  0.0754
  H  H104  1  0.519100  0.700000  0.764500  1.0  0.1278
  H  H105  1  0.548000  0.162400  0.486000  1.0  0.1108
  H  H106  1  0.394700  0.059800  0.488800  1.0  0.1045
  H  H107  1  0.628400  0.141000  0.606100  1.0  0.0861
  H  H108  1  0.313100  0.796600  0.702700  1.0  0.0953
  C  C109  1  0.995100  0.055400  0.553900  1.0  0.1305
  C  C110  1  0.912600  0.043000  0.528700  1.0  -0.1621
  C  C111  1  0.921400  0.095600  0.499200  1.0  -0.0806
  C  C112  1  0.010400  0.154000  0.495000  1.0  -0.1636
  C  C113  1  0.089000  0.162400  0.522400  1.0  0.1469
  C  C114  1  0.834300  0.088200  0.471600  1.0  0.3741
  C  C115  1  0.674900  0.025800  0.449600  1.0  0.3451
  C  C116  1  0.772200  0.129400  0.418800  1.0  0.388
  C  C117  1  0.577400  0.963200  0.452800  1.0  -0.0573
  C  C118  1  0.507500  0.940400  0.416400  1.0  -0.1397
  C  C119  1  0.783600  0.182800  0.386900  1.0  -0.0607
  C  C120  1  0.864000  0.257400  0.393600  1.0  -0.1015
  C  C121  1  0.871500  0.309200  0.363900  1.0  0.1278
  C  C122  1  0.719200  0.165200  0.351500  1.0  -0.0758
  C  C123  1  0.065400  0.297400  0.168600  1.0  0.149
  C  C124  1  0.133400  0.347200  0.202600  1.0  -0.1467
  C  C125  1  0.213800  0.330200  0.211800  1.0  -0.0942
  C  C126  1  0.219300  0.265000  0.184900  1.0  -0.1266
  C  C127  1  0.146800  0.218600  0.151500  1.0  0.1623
  C  C128  1  0.289000  0.380000  0.248100  1.0  0.3556
  C  C129  1  0.348500  0.484600  0.306500  1.0  0.3856
  C  C130  1  0.435500  0.412600  0.284000  1.0  0.2896
  C  C131  1  0.332500  0.547800  0.337900  1.0  -0.0954
  C  C132  1  0.250800  0.561400  0.332000  1.0  -0.1517
  C  C133  1  0.237200  0.619000  0.363100  1.0  0.1437
  C  C134  1  0.380300  0.649800  0.404000  1.0  0.1425
  C  C135  1  0.399200  0.594000  0.374700  1.0  -0.1269
  C  C136  1  0.525300  0.399200  0.286200  1.0  -0.1159
  C  C137  1  0.605900  0.451400  0.314800  1.0  -0.0828
  C  C138  1  0.690000  0.438800  0.314400  1.0  0.1252
  C  C139  1  0.620300  0.329200  0.257100  1.0  0.147
  C  C140  1  0.533700  0.336400  0.256100  1.0  -0.148
  C  C141  1  0.466000  0.862800  0.488600  1.0  0.1108
  C  C142  1  0.557000  0.925000  0.487100  1.0  -0.0865
  C  C143  1  0.419400  0.876800  0.418500  1.0  0.1225
  C  C144  1  0.732400  0.218000  0.322500  1.0  0.1203
  C  C145  1  0.060300  0.055400  0.053900  1.0  0.1288
  C  C146  1  0.130400  0.043000  0.028700  1.0  -0.1612
  C  C147  1  0.174200  0.095600  0.999200  1.0  -0.0802
  C  C148  1  0.143600  0.154000  0.995000  1.0  -0.1638
  C  C149  1  0.073400  0.162400  0.022400  1.0  0.1459
  C  C150  1  0.253900  0.088200  0.971600  1.0  0.3736
  C  C151  1  0.350900  0.025800  0.949600  1.0  0.345
  C  C152  1  0.357200  0.129400  0.918800  1.0  0.3875
  C  C153  1  0.385800  0.963200  0.952800  1.0  -0.0571
  C  C154  1  0.432900  0.940400  0.916400  1.0  -0.1402
  C  C155  1  0.399200  0.182800  0.886900  1.0  -0.0606
  C  C156  1  0.393400  0.257400  0.893600  1.0  -0.1009
  C  C157  1  0.437700  0.309200  0.863900  1.0  0.128
  C  C158  1  0.446000  0.165200  0.851500  1.0  -0.0764
  C  C159  1  0.232000  0.297400  0.668600  1.0  0.1471
  C  C160  1  0.213800  0.347200  0.702600  1.0  -0.1468
  C  C161  1  0.116400  0.330200  0.711800  1.0  -0.0943
  C  C162  1  0.045700  0.265000  0.684900  1.0  -0.1252
  C  C163  1  0.071800  0.218600  0.651500  1.0  0.1632
  C  C164  1  0.091000  0.380000  0.748100  1.0  0.3558
  C  C165  1  0.136100  0.484600  0.806500  1.0  0.385
  C  C166  1  0.977100  0.412600  0.784000  1.0  0.2898
  C  C167  1  0.215300  0.547800  0.837900  1.0  -0.0959
  C  C168  1  0.310600  0.561400  0.832000  1.0  -0.1505
  C  C169  1  0.381800  0.619000  0.863100  1.0  0.1434
  C  C170  1  0.269500  0.649800  0.904000  1.0  0.1429
  C  C171  1  0.194800  0.594000  0.874700  1.0  -0.1284
  C  C172  1  0.873900  0.399200  0.786200  1.0  -0.1145
  C  C173  1  0.845500  0.451400  0.814800  1.0  -0.0821
  C  C174  1  0.748800  0.438800  0.814400  1.0  0.1246
  C  C175  1  0.708900  0.329200  0.757100  1.0  0.1471
  C  C176  1  0.802700  0.336400  0.756100  1.0  -0.1492
  C  C177  1  0.396800  0.862800  0.988600  1.0  0.1109
  C  C178  1  0.368000  0.925000  0.987100  1.0  -0.0864
  C  C179  1  0.457400  0.876800  0.918500  1.0  0.1215
  C  C180  1  0.485600  0.218000  0.822500  1.0  0.1198
  C  C181  1  0.939700  0.944600  0.946100  1.0  0.1309
  C  C182  1  0.869600  0.957000  0.971300  1.0  -0.1623
  C  C183  1  0.825800  0.904400  0.000800  1.0  -0.0812
  C  C184  1  0.856400  0.846000  0.005000  1.0  -0.1648
  C  C185  1  0.926600  0.837600  0.977600  1.0  0.1464
  C  C186  1  0.746100  0.911800  0.028400  1.0  0.3738
  C  C187  1  0.649100  0.974200  0.050400  1.0  0.3452
  C  C188  1  0.642800  0.870600  0.081200  1.0  0.3882
  C  C189  1  0.614200  0.036800  0.047200  1.0  -0.0571
  C  C190  1  0.567100  0.059600  0.083600  1.0  -0.1418
  C  C191  1  0.600800  0.817200  0.113100  1.0  -0.0619
  C  C192  1  0.606600  0.742600  0.106400  1.0  -0.1017
  C  C193  1  0.562300  0.690800  0.136100  1.0  0.1277
  C  C194  1  0.554000  0.834800  0.148500  1.0  -0.0759
  C  C195  1  0.768000  0.702600  0.331400  1.0  0.149
  C  C196  1  0.786200  0.652800  0.297400  1.0  -0.1477
  C  C197  1  0.883600  0.669800  0.288200  1.0  -0.0949
  C  C198  1  0.954300  0.735000  0.315100  1.0  -0.1254
  C  C199  1  0.928200  0.781400  0.348500  1.0  0.1605
  C  C200  1  0.909000  0.620000  0.251900  1.0  0.3558
  C  C201  1  0.863900  0.515400  0.193500  1.0  0.3854
  C  C202  1  0.022900  0.587400  0.216000  1.0  0.2889
  C  C203  1  0.784700  0.452200  0.162100  1.0  -0.0944
  C  C204  1  0.689400  0.438600  0.168000  1.0  -0.1509
  C  C205  1  0.618200  0.381000  0.136900  1.0  0.1447
  C  C206  1  0.730500  0.350200  0.096000  1.0  0.141
  C  C207  1  0.805200  0.406000  0.125300  1.0  -0.1272
  C  C208  1  0.126100  0.600800  0.213800  1.0  -0.1158
  C  C209  1  0.154500  0.548600  0.185200  1.0  -0.0794
  C  C210  1  0.251200  0.561200  0.185600  1.0  0.1246
  C  C211  1  0.291100  0.670800  0.242900  1.0  0.1476
  C  C212  1  0.197300  0.663600  0.243900  1.0  -0.149
  C  C213  1  0.603200  0.137200  0.011400  1.0  0.1097
  C  C214  1  0.632000  0.075000  0.012900  1.0  -0.0877
  C  C215  1  0.542600  0.123200  0.081500  1.0  0.1218
  C  C216  1  0.514400  0.782000  0.177500  1.0  0.1191
  C  C217  1  0.004900  0.944600  0.446100  1.0  0.1293
  C  C218  1  0.087400  0.957000  0.471300  1.0  -0.1628
  C  C219  1  0.078600  0.904400  0.500800  1.0  -0.0801
  C  C220  1  0.989600  0.846000  0.505000  1.0  -0.1639
  C  C221  1  0.911000  0.837600  0.477600  1.0  0.1471
  C  C222  1  0.165700  0.911800  0.528400  1.0  0.3734
  C  C223  1  0.325100  0.974200  0.550400  1.0  0.3449
  C  C224  1  0.227800  0.870600  0.581200  1.0  0.3878
  C  C225  1  0.422600  0.036800  0.547200  1.0  -0.0565
  C  C226  1  0.492500  0.059600  0.583600  1.0  -0.1422
  C  C227  1  0.216400  0.817200  0.613100  1.0  -0.0618
  C  C228  1  0.136000  0.742600  0.606400  1.0  -0.1008
  C  C229  1  0.128500  0.690800  0.636100  1.0  0.1276
  C  C230  1  0.280800  0.834800  0.648500  1.0  -0.0758
  C  C231  1  0.934600  0.702600  0.831400  1.0  0.1477
  C  C232  1  0.866600  0.652800  0.797400  1.0  -0.1478
  C  C233  1  0.786200  0.669800  0.788200  1.0  -0.0946
  C  C234  1  0.780700  0.735000  0.815100  1.0  -0.1256
  C  C235  1  0.853200  0.781400  0.848500  1.0  0.1612
  C  C236  1  0.711000  0.620000  0.751900  1.0  0.3558
  C  C237  1  0.651500  0.515400  0.693500  1.0  0.385
  C  C238  1  0.564500  0.587400  0.716000  1.0  0.2893
  C  C239  1  0.667500  0.452200  0.662100  1.0  -0.0946
  C  C240  1  0.749200  0.438600  0.668000  1.0  -0.1503
  C  C241  1  0.762800  0.381000  0.636900  1.0  0.1452
  C  C242  1  0.619700  0.350200  0.596000  1.0  0.1426
  C  C243  1  0.600800  0.406000  0.625300  1.0  -0.1281
  C  C244  1  0.474700  0.600800  0.713800  1.0  -0.1156
  C  C245  1  0.394100  0.548600  0.685200  1.0  -0.0801
  C  C246  1  0.310000  0.561200  0.685600  1.0  0.1254
  C  C247  1  0.379700  0.670800  0.742900  1.0  0.1471
  C  C248  1  0.466300  0.663600  0.743900  1.0  -0.15
  C  C249  1  0.534000  0.137200  0.511400  1.0  0.1101
  C  C250  1  0.443000  0.075000  0.512900  1.0  -0.0868
  C  C251  1  0.580600  0.123200  0.581500  1.0  0.1226
  C  C252  1  0.267600  0.782000  0.677500  1.0  0.12
  I  I253  1  0.170870  0.038100  0.641230  1.0  -0.3401
  I  I254  1  0.350470  0.228580  0.563140  1.0  -0.367
  I  I255  1  0.812050  0.270920  0.205090  1.0  -0.4655
  I  I256  1  0.969100  0.488680  0.312230  1.0  -0.4168
  I  I257  1  0.139610  0.771360  0.413540  1.0  -0.4307
  I  I258  1  0.261140  0.682300  0.517930  1.0  -0.3303
  I  I259  1  0.867230  0.038100  0.141230  1.0  -0.3404
  I  I260  1  0.878110  0.228580  0.063140  1.0  -0.367
  I  I261  1  0.458870  0.270920  0.705090  1.0  -0.466
  I  I262  1  0.519580  0.488680  0.812230  1.0  -0.4162
  I  I263  1  0.631750  0.771360  0.913540  1.0  -0.4313
  I  I264  1  0.421160  0.682300  0.017930  1.0  -0.3308
  I  I265  1  0.132770  0.961900  0.858770  1.0  -0.3392
  I  I266  1  0.121890  0.771420  0.936860  1.0  -0.3688
  I  I267  1  0.541130  0.729080  0.294910  1.0  -0.4658
  I  I268  1  0.480420  0.511320  0.187770  1.0  -0.416
  I  I269  1  0.368250  0.228640  0.086460  1.0  -0.4303
  I  I270  1  0.578840  0.317700  0.982070  1.0  -0.3319
  I  I271  1  0.829130  0.961900  0.358770  1.0  -0.3394
  I  I272  1  0.649530  0.771420  0.436860  1.0  -0.3688
  I  I273  1  0.187950  0.729080  0.794910  1.0  -0.4663
  I  I274  1  0.030900  0.511320  0.687770  1.0  -0.4149
  I  I275  1  0.860390  0.228640  0.586460  1.0  -0.4311
  I  I276  1  0.738860  0.317700  0.482070  1.0  -0.333
  N  N277  1  0.082300  0.115800  0.551800  1.0  -0.3209
  N  N278  1  0.748000  0.031400  0.476700  1.0  -0.5054
  N  N279  1  0.683400  0.072200  0.420100  1.0  -0.4053
  N  N280  1  0.849200  0.139200  0.443700  1.0  -0.4535
  N  N281  1  0.069100  0.231400  0.143800  1.0  -0.3183
  N  N282  1  0.366200  0.362800  0.252400  1.0  -0.3987
  N  N283  1  0.430300  0.473800  0.312400  1.0  -0.3289
  N  N284  1  0.278400  0.441400  0.273300  1.0  -0.4783
  N  N285  1  0.299600  0.662800  0.398400  1.0  -0.3177
  N  N286  1  0.698500  0.379000  0.284400  1.0  -0.321
  N  N287  1  0.806800  0.288000  0.329300  1.0  -0.2825
  N  N288  1  0.399100  0.839600  0.453900  1.0  -0.3294
  N  N289  1  0.033500  0.115800  0.051800  1.0  -0.3201
  N  N290  1  0.283400  0.031400  0.976700  1.0  -0.5051
  N  N291  1  0.388800  0.072200  0.920100  1.0  -0.4045
  N  N292  1  0.290000  0.139200  0.943700  1.0  -0.4536
  N  N293  1  0.162300  0.231400  0.643800  1.0  -0.3185
  N  N294  1  0.996600  0.362800  0.752400  1.0  -0.3995
  N  N295  1  0.043500  0.473800  0.812400  1.0  -0.3283
  N  N296  1  0.163000  0.441400  0.773300  1.0  -0.4784
  N  N297  1  0.363200  0.662800  0.898400  1.0  -0.3178
  N  N298  1  0.680500  0.379000  0.784400  1.0  -0.3208
  N  N299  1  0.481200  0.288000  0.829300  1.0  -0.2826
  N  N300  1  0.440500  0.839600  0.953900  1.0  -0.3282
  N  N301  1  0.966500  0.884200  0.948200  1.0  -0.3205
  N  N302  1  0.716600  0.968600  0.023300  1.0  -0.5032
  N  N303  1  0.611200  0.927800  0.079900  1.0  -0.4069
  N  N304  1  0.710000  0.860800  0.056300  1.0  -0.4531
  N  N305  1  0.837700  0.768600  0.356200  1.0  -0.3181
  N  N306  1  0.003400  0.637200  0.247600  1.0  -0.3972
  N  N307  1  0.956500  0.526200  0.187600  1.0  -0.3281
  N  N308  1  0.837000  0.558600  0.226700  1.0  -0.4772
  N  N309  1  0.636800  0.337200  0.101600  1.0  -0.3185
  N  N310  1  0.319500  0.621000  0.215600  1.0  -0.3215
  N  N311  1  0.518800  0.712000  0.170700  1.0  -0.2835
  N  N312  1  0.559500  0.160400  0.046100  1.0  -0.3294
  N  N313  1  0.917700  0.884200  0.448200  1.0  -0.3208
  N  N314  1  0.252000  0.968600  0.523300  1.0  -0.5028
  N  N315  1  0.316600  0.927800  0.579900  1.0  -0.405
  N  N316  1  0.150800  0.860800  0.556300  1.0  -0.4542
  N  N317  1  0.930900  0.768600  0.856200  1.0  -0.3187
  N  N318  1  0.633800  0.637200  0.747600  1.0  -0.3975
  N  N319  1  0.569700  0.526200  0.687600  1.0  -0.3275
  N  N320  1  0.721600  0.558600  0.726700  1.0  -0.4779
  N  N321  1  0.700400  0.337200  0.601600  1.0  -0.3187
  N  N322  1  0.301500  0.621000  0.715600  1.0  -0.3209
  N  N323  1  0.193200  0.712000  0.670700  1.0  -0.2843
  N  N324  1  0.600900  0.160400  0.546100  1.0  -0.3294
