# generated using pymatgen
data_K2H16PbC28S2O13
_symmetry_space_group_name_H-M   'P 1'
_cell_length_a   13.51070000
_cell_length_b   23.38000000
_cell_length_c   5.87270000
_cell_angle_alpha   90.00000000
_cell_angle_beta   90.00000000
_cell_angle_gamma   90.00000000
_symmetry_Int_Tables_number   1
_chemical_formula_structural   K2H16PbC28S2O13
_chemical_formula_sum   'K4 H32 Pb2 C56 S4 O26'
_cell_volume   1855.06945087
_cell_formula_units_Z   2
loop_
 _symmetry_equiv_pos_site_id
 _symmetry_equiv_pos_as_xyz
  1  'x, y, z'
loop_
 _atom_site_type_symbol
 _atom_site_label
 _atom_site_symmetry_multiplicity
 _atom_site_fract_x
 _atom_site_fract_y
 _atom_site_fract_z
 _atom_site_occupancy
 _atom_site_charge
  K  K1  1  0.250000  0.373120  0.908200  1.0  0.9717
  K  K2  1  0.250000  0.126880  0.908200  1.0  0.9712
  K  K3  1  0.750000  0.873120  0.091800  1.0  0.9716
  K  K4  1  0.750000  0.626880  0.091800  1.0  0.9712
  H  H5  1  0.509600  0.572100  0.832300  1.0  0.1161
  H  H6  1  0.376500  0.512300  0.761000  1.0  0.1316
  H  H7  1  0.353000  0.576500  0.128800  1.0  0.144
  H  H8  1  0.488900  0.634700  0.199800  1.0  0.1203
  H  H9  1  0.990400  0.927900  0.832300  1.0  0.1161
  H  H10  1  0.123500  0.987700  0.761000  1.0  0.131
  H  H11  1  0.147000  0.923500  0.128800  1.0  0.1434
  H  H12  1  0.011100  0.865300  0.199800  1.0  0.1197
  H  H13  1  0.490400  0.072100  0.167700  1.0  0.1161
  H  H14  1  0.623500  0.012300  0.239000  1.0  0.131
  H  H15  1  0.647000  0.076500  0.871200  1.0  0.1438
  H  H16  1  0.511100  0.134700  0.800200  1.0  0.1204
  H  H17  1  0.009600  0.427900  0.167700  1.0  0.116
  H  H18  1  0.876500  0.487700  0.239000  1.0  0.1311
  H  H19  1  0.853000  0.423500  0.871200  1.0  0.1444
  H  H20  1  0.988900  0.365300  0.800200  1.0  0.1204
  H  H21  1  0.490400  0.427900  0.167700  1.0  0.1158
  H  H22  1  0.623500  0.487700  0.239000  1.0  0.131
  H  H23  1  0.647000  0.423500  0.871200  1.0  0.144
  H  H24  1  0.511100  0.365300  0.800200  1.0  0.12
  H  H25  1  0.009600  0.072100  0.167700  1.0  0.116
  H  H26  1  0.876500  0.012300  0.239000  1.0  0.131
  H  H27  1  0.853000  0.076500  0.871200  1.0  0.1442
  H  H28  1  0.988900  0.134700  0.800200  1.0  0.1206
  H  H29  1  0.509600  0.927900  0.832300  1.0  0.1163
  H  H30  1  0.376500  0.987700  0.761000  1.0  0.1312
  H  H31  1  0.353000  0.923500  0.128800  1.0  0.1438
  H  H32  1  0.488900  0.865300  0.199800  1.0  0.1197
  H  H33  1  0.990400  0.572100  0.832300  1.0  0.1161
  H  H34  1  0.123500  0.512300  0.761000  1.0  0.1314
  H  H35  1  0.147000  0.576500  0.128800  1.0  0.1435
  H  H36  1  0.011100  0.634700  0.199800  1.0  0.1203
  Pb  Pb37  1  0.750000  0.750000  0.669870  1.0  0.6916
  Pb  Pb38  1  0.250000  0.250000  0.330130  1.0  0.6923
  C  C39  1  0.593500  0.652600  0.576600  1.0  0.7454
  C  C40  1  0.510600  0.611100  0.527800  1.0  -0.1095
  C  C41  1  0.478100  0.573400  0.691600  1.0  -0.0028
  C  C42  1  0.398600  0.537200  0.648800  1.0  -0.008
  C  C43  1  0.353500  0.538500  0.442000  1.0  -0.1901
  C  C44  1  0.384900  0.575600  0.269100  1.0  -0.0539
  C  C45  1  0.465000  0.610800  0.313800  1.0  -0.0055
  C  C46  1  0.906500  0.847400  0.576600  1.0  0.745
  C  C47  1  0.989400  0.888900  0.527800  1.0  -0.1093
  C  C48  1  0.021900  0.926600  0.691600  1.0  -0.0012
  C  C49  1  0.101400  0.962800  0.648800  1.0  -0.0081
  C  C50  1  0.146500  0.961500  0.442000  1.0  -0.1857
  C  C51  1  0.115100  0.924400  0.269100  1.0  -0.0542
  C  C52  1  0.035000  0.889200  0.313800  1.0  -0.0066
  C  C53  1  0.406500  0.152600  0.423400  1.0  0.7452
  C  C54  1  0.489400  0.111100  0.472200  1.0  -0.1093
  C  C55  1  0.521900  0.073400  0.308400  1.0  -0.0013
  C  C56  1  0.601400  0.037200  0.351200  1.0  -0.008
  C  C57  1  0.646500  0.038500  0.558000  1.0  -0.1866
  C  C58  1  0.615100  0.075600  0.730900  1.0  -0.0551
  C  C59  1  0.535000  0.110800  0.686200  1.0  -0.0056
  C  C60  1  0.093500  0.347400  0.423400  1.0  0.7444
  C  C61  1  0.010600  0.388900  0.472200  1.0  -0.1083
  C  C62  1  0.978100  0.426600  0.308400  1.0  -0.0011
  C  C63  1  0.898600  0.462800  0.351200  1.0  -0.007
  C  C64  1  0.853500  0.461500  0.558000  1.0  -0.1903
  C  C65  1  0.884900  0.424400  0.730900  1.0  -0.0527
  C  C66  1  0.965000  0.389200  0.686200  1.0  -0.0051
  C  C67  1  0.406500  0.347400  0.423400  1.0  0.7448
  C  C68  1  0.489400  0.388900  0.472200  1.0  -0.1088
  C  C69  1  0.521900  0.426600  0.308400  1.0  -0.0005
  C  C70  1  0.601400  0.462800  0.351200  1.0  -0.0078
  C  C71  1  0.646500  0.461500  0.558000  1.0  -0.1859
  C  C72  1  0.615100  0.424400  0.730900  1.0  -0.0539
  C  C73  1  0.535000  0.389200  0.686200  1.0  -0.0061
  C  C74  1  0.093500  0.152600  0.423400  1.0  0.7456
  C  C75  1  0.010600  0.111100  0.472200  1.0  -0.1091
  C  C76  1  0.978100  0.073400  0.308400  1.0  -0.0021
  C  C77  1  0.898600  0.037200  0.351200  1.0  -0.0076
  C  C78  1  0.853500  0.038500  0.558000  1.0  -0.1901
  C  C79  1  0.884900  0.075600  0.730900  1.0  -0.0537
  C  C80  1  0.965000  0.110800  0.686200  1.0  -0.005
  C  C81  1  0.593500  0.847400  0.576600  1.0  0.7448
  C  C82  1  0.510600  0.888900  0.527800  1.0  -0.1086
  C  C83  1  0.478100  0.926600  0.691600  1.0  -0.0022
  C  C84  1  0.398600  0.962800  0.648800  1.0  -0.0073
  C  C85  1  0.353500  0.961500  0.442000  1.0  -0.1901
  C  C86  1  0.384900  0.924400  0.269100  1.0  -0.0528
  C  C87  1  0.465000  0.889200  0.313800  1.0  -0.0059
  C  C88  1  0.906500  0.652600  0.576600  1.0  0.7451
  C  C89  1  0.989400  0.611100  0.527800  1.0  -0.1096
  C  C90  1  0.021900  0.573400  0.691600  1.0  -0.0015
  C  C91  1  0.101400  0.537200  0.648800  1.0  -0.0088
  C  C92  1  0.146500  0.538500  0.442000  1.0  -0.1865
  C  C93  1  0.115100  0.575600  0.269100  1.0  -0.0557
  C  C94  1  0.035000  0.610800  0.313800  1.0  -0.006
  S  S95  1  0.250000  0.494110  0.387300  1.0  1.1063
  S  S96  1  0.250000  0.005890  0.387300  1.0  1.1067
  S  S97  1  0.750000  0.994110  0.612700  1.0  1.1072
  S  S98  1  0.750000  0.505890  0.612700  1.0  1.1074
  O  O99  1  0.628000  0.679100  0.409000  1.0  -0.6752
  O  O100  1  0.618900  0.659200  0.774800  1.0  -0.6154
  O  O101  1  0.872000  0.820900  0.409000  1.0  -0.6773
  O  O102  1  0.881100  0.840800  0.774800  1.0  -0.6171
  O  O103  1  0.372000  0.179100  0.591000  1.0  -0.6785
  O  O104  1  0.381100  0.159200  0.225200  1.0  -0.6153
  O  O105  1  0.128000  0.320900  0.591000  1.0  -0.6765
  O  O106  1  0.118900  0.340800  0.225200  1.0  -0.6156
  O  O107  1  0.372000  0.320900  0.591000  1.0  -0.6784
  O  O108  1  0.381100  0.340800  0.225200  1.0  -0.6173
  O  O109  1  0.128000  0.179100  0.591000  1.0  -0.6774
  O  O110  1  0.118900  0.159200  0.225200  1.0  -0.6144
  O  O111  1  0.628000  0.820900  0.409000  1.0  -0.676
  O  O112  1  0.618900  0.840800  0.774800  1.0  -0.6149
  O  O113  1  0.872000  0.679100  0.409000  1.0  -0.6756
  O  O114  1  0.881100  0.659200  0.774800  1.0  -0.6168
  O  O115  1  0.750000  0.750000  0.090700  1.0  -0.5732
  O  O116  1  0.250000  0.250000  0.909300  1.0  -0.5731
  O  O117  1  0.250000  0.480700  0.146400  1.0  -0.7063
  O  O118  1  0.250000  0.449100  0.553700  1.0  -0.6266
  O  O119  1  0.250000  0.019300  0.146400  1.0  -0.7054
  O  O120  1  0.250000  0.050900  0.553700  1.0  -0.626
  O  O121  1  0.750000  0.980700  0.853600  1.0  -0.7064
  O  O122  1  0.750000  0.949100  0.446300  1.0  -0.6267
  O  O123  1  0.750000  0.519300  0.853600  1.0  -0.706
  O  O124  1  0.750000  0.550900  0.446300  1.0  -0.6253
