# generated using pymatgen
data_Cs8H92Pb8C168S12O71
_symmetry_space_group_name_H-M   'P 1'
_cell_length_a   11.34010000
_cell_length_b   25.09350000
_cell_length_c   22.87400000
_cell_angle_alpha   90.00000000
_cell_angle_beta   96.89500000
_cell_angle_gamma   90.00000000
_symmetry_Int_Tables_number   1
_chemical_formula_structural   Cs8H92Pb8C168S12O71
_chemical_formula_sum   'Cs8 H92 Pb8 C168 S12 O71'
_cell_volume   6462.01457908
_cell_formula_units_Z   1
loop_
 _symmetry_equiv_pos_site_id
 _symmetry_equiv_pos_as_xyz
  1  'x, y, z'
loop_
 _atom_site_type_symbol
 _atom_site_label
 _atom_site_symmetry_multiplicity
 _atom_site_fract_x
 _atom_site_fract_y
 _atom_site_fract_z
 _atom_site_occupancy
 _atom_site_charge
  Cs  Cs1  1  0.268470  0.038190  0.113610  1.0  0.9522
  Cs  Cs2  1  0.848710  0.120560  0.349580  1.0  0.9393
  Cs  Cs3  1  0.231530  0.538190  0.386390  1.0  0.9506
  Cs  Cs4  1  0.651290  0.620560  0.150420  1.0  0.9387
  Cs  Cs5  1  0.731530  0.961810  0.886390  1.0  0.9507
  Cs  Cs6  1  0.151290  0.879440  0.650420  1.0  0.9388
  Cs  Cs7  1  0.768470  0.461810  0.613610  1.0  0.9398
  Cs  Cs8  1  0.348710  0.379440  0.849580  1.0  0.9394
  H  H9  1  0.597200  0.231800  0.169100  1.0  0.134
  H  H10  1  0.577900  0.302000  0.099800  1.0  0.1291
  H  H11  1  0.234900  0.266400  0.053100  1.0  0.1272
  H  H12  1  0.256700  0.192500  0.119600  1.0  0.1037
  H  H13  1  0.550200  0.410100  0.086700  1.0  0.1312
  H  H14  1  0.531100  0.486800  0.148500  1.0  0.1161
  H  H15  1  0.179500  0.476400  0.108700  1.0  0.1107
  H  H16  1  0.201600  0.400900  0.046500  1.0  0.1163
  H  H17  1  0.353700  0.273200  0.332100  1.0  0.1143
  H  H18  1  0.373200  0.363800  0.362100  1.0  0.1234
  H  H19  1  0.683800  0.328600  0.457200  1.0  0.1196
  H  H20  1  0.669700  0.240800  0.421700  1.0  0.1127
  H  H21  1  0.627300  0.511600  0.260100  1.0  0.1117
  H  H22  1  0.908200  0.479700  0.377300  1.0  0.1091
  H  H23  1  0.789200  0.435900  0.437300  1.0  0.1229
  H  H24  1  0.134800  0.336200  0.318200  1.0  0.1235
  H  H25  1  0.122400  0.405200  0.383800  1.0  0.0974
  H  H26  1  0.978900  0.308500  0.494400  1.0  0.1089
  H  H27  1  0.994600  0.236600  0.429100  1.0  0.1158
  H  H28  1  0.290200  0.431900  0.497200  1.0  0.1046
  H  H29  1  0.458300  0.418500  0.568200  1.0  0.1259
  H  H30  1  0.243300  0.357900  0.678500  1.0  0.1087
  H  H31  1  0.076500  0.372600  0.609100  1.0  0.1304
  H  H32  1  0.902800  0.731800  0.330900  1.0  0.1339
  H  H33  1  0.922100  0.802000  0.400200  1.0  0.1281
  H  H34  1  0.265100  0.766400  0.446900  1.0  0.1268
  H  H35  1  0.243300  0.692500  0.380400  1.0  0.1035
  H  H36  1  0.949800  0.910100  0.413300  1.0  0.132
  H  H37  1  0.968900  0.986800  0.351500  1.0  0.1165
  H  H38  1  0.320500  0.976400  0.391300  1.0  0.1102
  H  H39  1  0.298400  0.900900  0.453500  1.0  0.1156
  H  H40  1  0.146300  0.773200  0.167900  1.0  0.1144
  H  H41  1  0.126800  0.863800  0.137900  1.0  0.1229
  H  H42  1  0.816200  0.828600  0.042800  1.0  0.1195
  H  H43  1  0.830300  0.740800  0.078300  1.0  0.1128
  H  H44  1  0.872700  0.011600  0.239900  1.0  0.1122
  H  H45  1  0.591800  0.979700  0.122700  1.0  0.1101
  H  H46  1  0.710800  0.935900  0.062700  1.0  0.1234
  H  H47  1  0.365200  0.836200  0.181800  1.0  0.1243
  H  H48  1  0.377600  0.905200  0.116200  1.0  0.0983
  H  H49  1  0.521100  0.808500  0.005600  1.0  0.1079
  H  H50  1  0.505400  0.736600  0.070900  1.0  0.1155
  H  H51  1  0.209800  0.931900  0.002800  1.0  0.1062
  H  H52  1  0.041700  0.918500  0.931800  1.0  0.1257
  H  H53  1  0.256700  0.857900  0.821500  1.0  0.1096
  H  H54  1  0.423500  0.872600  0.890900  1.0  0.1353
  H  H55  1  0.402800  0.768200  0.830900  1.0  0.1337
  H  H56  1  0.422100  0.698000  0.900200  1.0  0.1279
  H  H57  1  0.765100  0.733600  0.946900  1.0  0.1268
  H  H58  1  0.743300  0.807500  0.880400  1.0  0.1035
  H  H59  1  0.449800  0.589900  0.913300  1.0  0.132
  H  H60  1  0.468900  0.513200  0.851500  1.0  0.1167
  H  H61  1  0.820500  0.523600  0.891300  1.0  0.1099
  H  H62  1  0.798400  0.599100  0.953500  1.0  0.1155
  H  H63  1  0.646300  0.726800  0.667900  1.0  0.1143
  H  H64  1  0.626800  0.636200  0.637900  1.0  0.1235
  H  H65  1  0.316200  0.671400  0.542800  1.0  0.1195
  H  H66  1  0.330300  0.759200  0.578300  1.0  0.1131
  H  H67  1  0.372700  0.488400  0.739900  1.0  0.112
  H  H68  1  0.091800  0.520300  0.622700  1.0  0.1095
  H  H69  1  0.210800  0.564100  0.562700  1.0  0.123
  H  H70  1  0.865200  0.663800  0.681800  1.0  0.1246
  H  H71  1  0.877600  0.594800  0.616200  1.0  0.0973
  H  H72  1  0.021100  0.691500  0.505600  1.0  0.1079
  H  H73  1  0.005400  0.763400  0.570900  1.0  0.1159
  H  H74  1  0.709800  0.568100  0.502800  1.0  0.1055
  H  H75  1  0.541700  0.581500  0.431800  1.0  0.1256
  H  H76  1  0.756700  0.642100  0.321500  1.0  0.1095
  H  H77  1  0.923500  0.627400  0.390900  1.0  0.1352
  H  H78  1  0.097200  0.268200  0.669100  1.0  0.1327
  H  H79  1  0.077900  0.198000  0.599800  1.0  0.1292
  H  H80  1  0.734900  0.233600  0.553100  1.0  0.1266
  H  H81  1  0.756700  0.307500  0.619600  1.0  0.1029
  H  H82  1  0.050200  0.089900  0.586700  1.0  0.1312
  H  H83  1  0.031100  0.013200  0.648500  1.0  0.1163
  H  H84  1  0.679500  0.023600  0.608700  1.0  0.1105
  H  H85  1  0.701600  0.099100  0.546500  1.0  0.1163
  H  H86  1  0.853700  0.226800  0.832100  1.0  0.1144
  H  H87  1  0.873200  0.136200  0.862100  1.0  0.1233
  H  H88  1  0.183800  0.171400  0.957200  1.0  0.119
  H  H89  1  0.169700  0.259200  0.921700  1.0  0.1125
  H  H90  1  0.127300  0.988400  0.760100  1.0  0.1119
  H  H91  1  0.408200  0.020300  0.877300  1.0  0.1095
  H  H92  1  0.289200  0.064100  0.937300  1.0  0.1238
  H  H93  1  0.634800  0.163800  0.818200  1.0  0.1238
  H  H94  1  0.622400  0.094800  0.883800  1.0  0.0969
  H  H95  1  0.478900  0.191500  0.994400  1.0  0.1077
  H  H96  1  0.494600  0.263400  0.929100  1.0  0.1157
  H  H97  1  0.790200  0.068100  0.997200  1.0  0.1067
  H  H98  1  0.958300  0.081500  0.068200  1.0  0.1262
  H  H99  1  0.743300  0.142100  0.178500  1.0  0.1096
  H  H100  1  0.576500  0.127400  0.109100  1.0  0.1348
  Pb  Pb101  1  0.488400  0.088190  0.295030  1.0  0.8685
  Pb  Pb102  1  0.161050  0.141450  0.266670  1.0  1.0338
  Pb  Pb103  1  0.011600  0.588190  0.204970  1.0  0.8668
  Pb  Pb104  1  0.338950  0.641450  0.233330  1.0  1.034
  Pb  Pb105  1  0.511600  0.911810  0.704970  1.0  0.8663
  Pb  Pb106  1  0.838950  0.858550  0.733330  1.0  1.034
  Pb  Pb107  1  0.988400  0.411810  0.795030  1.0  0.8685
  Pb  Pb108  1  0.661050  0.358550  0.766670  1.0  1.0336
  C  C109  1  0.437400  0.160600  0.193200  1.0  0.693
  C  C110  1  0.423700  0.205800  0.150400  1.0  -0.1546
  C  C111  1  0.525600  0.238200  0.145900  1.0  -0.0546
  C  C112  1  0.513600  0.280200  0.104900  1.0  -0.0673
  C  C113  1  0.403900  0.288500  0.072400  1.0  -0.0979
  C  C114  1  0.306800  0.259000  0.075700  1.0  -0.0515
  C  C115  1  0.320800  0.215000  0.116600  1.0  0.0009
  C  C116  1  0.375000  0.399800  0.067900  1.0  0.0074
  C  C117  1  0.476000  0.423200  0.092900  1.0  -0.0849
  C  C118  1  0.464600  0.469500  0.129500  1.0  -0.0482
  C  C119  1  0.349100  0.487400  0.135200  1.0  -0.148
  C  C120  1  0.255000  0.463100  0.105400  1.0  -0.0337
  C  C121  1  0.266000  0.417000  0.068300  1.0  -0.0515
  C  C122  1  0.332700  0.536400  0.173100  1.0  0.6943
  C  C123  1  0.501600  0.192600  0.350500  1.0  0.7224
  C  C124  1  0.511600  0.249400  0.374000  1.0  -0.1089
  C  C125  1  0.421000  0.284700  0.356100  1.0  -0.0206
  C  C126  1  0.431700  0.339000  0.374900  1.0  -0.0582
  C  C127  1  0.529400  0.353700  0.411800  1.0  -0.1693
  C  C128  1  0.618800  0.317900  0.431100  1.0  -0.0378
  C  C129  1  0.609300  0.265100  0.410500  1.0  -0.022
  C  C130  1  0.634800  0.450400  0.386200  1.0  -0.1379
  C  C131  1  0.578800  0.471800  0.332100  1.0  0.0475
  C  C132  1  0.657900  0.496600  0.295900  1.0  -0.0199
  C  C133  1  0.779400  0.498500  0.313200  1.0  -0.1292
  C  C134  1  0.826800  0.477100  0.365900  1.0  -0.0027
  C  C135  1  0.755900  0.451800  0.402400  1.0  -0.0622
  C  C136  1  0.859700  0.527200  0.274600  1.0  0.735
  C  C137  1  0.085900  0.234700  0.326800  1.0  0.7352
  C  C138  1  0.068700  0.279200  0.368300  1.0  -0.1186
  C  C139  1  0.105200  0.330200  0.353800  1.0  -0.0349
  C  C140  1  0.096900  0.371300  0.392700  1.0  -0.0227
  C  C141  1  0.050300  0.362300  0.445500  1.0  -0.1392
  C  C142  1  0.011400  0.313700  0.459400  1.0  -0.0219
  C  C143  1  0.020700  0.270400  0.420000  1.0  -0.0251
  C  C144  1  0.171700  0.403800  0.547800  1.0  -0.081
  C  C145  1  0.281600  0.417400  0.533900  1.0  -0.0691
  C  C146  1  0.382500  0.409300  0.576200  1.0  -0.047
  C  C147  1  0.363500  0.386800  0.630400  1.0  -0.1003
  C  C148  1  0.252800  0.373100  0.642300  1.0  -0.013
  C  C149  1  0.152400  0.381600  0.600900  1.0  -0.0907
  C  C150  1  0.470000  0.378500  0.674700  1.0  0.7049
  C  C151  1  0.062600  0.660600  0.306800  1.0  0.6942
  C  C152  1  0.076300  0.705800  0.349600  1.0  -0.1551
  C  C153  1  0.974400  0.738200  0.354100  1.0  -0.0551
  C  C154  1  0.986400  0.780200  0.395100  1.0  -0.0676
  C  C155  1  0.096100  0.788500  0.427600  1.0  -0.0987
  C  C156  1  0.193200  0.759000  0.424300  1.0  -0.0512
  C  C157  1  0.179200  0.715000  0.383400  1.0  0.0008
  C  C158  1  0.125000  0.899800  0.432100  1.0  0.0083
  C  C159  1  0.024000  0.923200  0.407100  1.0  -0.0834
  C  C160  1  0.035400  0.969500  0.370500  1.0  -0.0497
  C  C161  1  0.150900  0.987400  0.364800  1.0  -0.1485
  C  C162  1  0.245000  0.963100  0.394600  1.0  -0.0314
  C  C163  1  0.234000  0.917000  0.431700  1.0  -0.0499
  C  C164  1  0.167300  0.036400  0.326900  1.0  0.6931
  C  C165  1  0.998400  0.692600  0.149500  1.0  0.7229
  C  C166  1  0.988400  0.749400  0.126000  1.0  -0.109
  C  C167  1  0.079000  0.784700  0.143900  1.0  -0.0221
  C  C168  1  0.068300  0.839000  0.125100  1.0  -0.0575
  C  C169  1  0.970600  0.853700  0.088200  1.0  -0.1708
  C  C170  1  0.881200  0.817900  0.068900  1.0  -0.0368
  C  C171  1  0.890700  0.765100  0.089500  1.0  -0.0213
  C  C172  1  0.865200  0.950400  0.113800  1.0  -0.1314
  C  C173  1  0.921200  0.971800  0.167900  1.0  0.0518
  C  C174  1  0.842100  0.996600  0.204100  1.0  -0.0179
  C  C175  1  0.720600  0.998500  0.186800  1.0  -0.1278
  C  C176  1  0.673200  0.977100  0.134100  1.0  0.0036
  C  C177  1  0.744100  0.951800  0.097600  1.0  -0.0487
  C  C178  1  0.640300  0.027200  0.225400  1.0  0.7316
  C  C179  1  0.414100  0.734700  0.173200  1.0  0.736
  C  C180  1  0.431300  0.779200  0.131700  1.0  -0.1169
  C  C181  1  0.394800  0.830200  0.146200  1.0  -0.0309
  C  C182  1  0.403100  0.871300  0.107300  1.0  -0.0252
  C  C183  1  0.449700  0.862300  0.054500  1.0  -0.1356
  C  C184  1  0.488600  0.813700  0.040600  1.0  -0.0241
  C  C185  1  0.479300  0.770400  0.080000  1.0  -0.0235
  C  C186  1  0.328300  0.903800  0.952200  1.0  -0.0879
  C  C187  1  0.218400  0.917400  0.966100  1.0  -0.0701
  C  C188  1  0.117500  0.909300  0.923800  1.0  -0.0443
  C  C189  1  0.136500  0.886800  0.869600  1.0  -0.1001
  C  C190  1  0.247200  0.873100  0.857700  1.0  -0.0172
  C  C191  1  0.347600  0.881600  0.899100  1.0  -0.0657
  C  C192  1  0.030000  0.878500  0.825300  1.0  0.7058
  C  C193  1  0.562600  0.839400  0.806800  1.0  0.6947
  C  C194  1  0.576300  0.794200  0.849600  1.0  -0.1556
  C  C195  1  0.474400  0.761800  0.854100  1.0  -0.0548
  C  C196  1  0.486400  0.719800  0.895100  1.0  -0.0675
  C  C197  1  0.596100  0.711500  0.927600  1.0  -0.0978
  C  C198  1  0.693200  0.741000  0.924300  1.0  -0.0511
  C  C199  1  0.679200  0.785000  0.883400  1.0  0.0011
  C  C200  1  0.625000  0.600200  0.932100  1.0  0.0079
  C  C201  1  0.524000  0.576800  0.907100  1.0  -0.084
  C  C202  1  0.535400  0.530500  0.870500  1.0  -0.0502
  C  C203  1  0.650900  0.512600  0.864800  1.0  -0.1488
  C  C204  1  0.745000  0.536900  0.894600  1.0  -0.0316
  C  C205  1  0.734000  0.583000  0.931700  1.0  -0.0501
  C  C206  1  0.667300  0.463600  0.826900  1.0  0.6936
  C  C207  1  0.498400  0.807400  0.649500  1.0  0.724
  C  C208  1  0.488400  0.750600  0.626000  1.0  -0.1088
  C  C209  1  0.579000  0.715300  0.643900  1.0  -0.0223
  C  C210  1  0.568300  0.661000  0.625100  1.0  -0.058
  C  C211  1  0.470600  0.646300  0.588200  1.0  -0.1707
  C  C212  1  0.381200  0.682100  0.568900  1.0  -0.0371
  C  C213  1  0.390700  0.734900  0.589500  1.0  -0.0215
  C  C214  1  0.365200  0.549600  0.613800  1.0  -0.1319
  C  C215  1  0.421200  0.528200  0.667900  1.0  0.0524
  C  C216  1  0.342100  0.503400  0.704100  1.0  -0.0177
  C  C217  1  0.220600  0.501500  0.686800  1.0  -0.126
  C  C218  1  0.173200  0.522900  0.634100  1.0  -0.0016
  C  C219  1  0.244100  0.548200  0.597600  1.0  -0.0507
  C  C220  1  0.140300  0.472800  0.725400  1.0  0.7318
  C  C221  1  0.914100  0.765300  0.673200  1.0  0.736
  C  C222  1  0.931300  0.720800  0.631700  1.0  -0.1169
  C  C223  1  0.894800  0.669800  0.646200  1.0  -0.0305
  C  C224  1  0.903100  0.628700  0.607300  1.0  -0.0244
  C  C225  1  0.949700  0.637700  0.554500  1.0  -0.1355
  C  C226  1  0.988600  0.686300  0.540600  1.0  -0.0242
  C  C227  1  0.979300  0.729600  0.580000  1.0  -0.0244
  C  C228  1  0.828300  0.596200  0.452200  1.0  -0.0883
  C  C229  1  0.718400  0.582600  0.466100  1.0  -0.0685
  C  C230  1  0.617500  0.590700  0.423800  1.0  -0.0444
  C  C231  1  0.636500  0.613200  0.369600  1.0  -0.1007
  C  C232  1  0.747200  0.626900  0.357700  1.0  -0.016
  C  C233  1  0.847600  0.618400  0.399100  1.0  -0.0645
  C  C234  1  0.530000  0.621500  0.325300  1.0  0.7054
  C  C235  1  0.937400  0.339400  0.693200  1.0  0.6938
  C  C236  1  0.923700  0.294200  0.650400  1.0  -0.1463
  C  C237  1  0.025600  0.261800  0.645900  1.0  -0.0572
  C  C238  1  0.013600  0.219800  0.604900  1.0  -0.068
  C  C239  1  0.903900  0.211500  0.572400  1.0  -0.0978
  C  C240  1  0.806800  0.241000  0.575700  1.0  -0.0558
  C  C241  1  0.820800  0.285000  0.616600  1.0  -0.017
  C  C242  1  0.875000  0.100200  0.567900  1.0  0.0076
  C  C243  1  0.976000  0.076800  0.592900  1.0  -0.0852
  C  C244  1  0.964600  0.030500  0.629500  1.0  -0.0481
  C  C245  1  0.849100  0.012600  0.635200  1.0  -0.1483
  C  C246  1  0.755000  0.036900  0.605400  1.0  -0.0333
  C  C247  1  0.766000  0.083000  0.568300  1.0  -0.0515
  C  C248  1  0.832700  0.963600  0.673100  1.0  0.6955
  C  C249  1  0.001600  0.307400  0.850500  1.0  0.7234
  C  C250  1  0.011600  0.250600  0.874000  1.0  -0.1086
  C  C251  1  0.921000  0.215300  0.856100  1.0  -0.021
  C  C252  1  0.931700  0.161000  0.874900  1.0  -0.0584
  C  C253  1  0.029400  0.146300  0.911800  1.0  -0.17
  C  C254  1  0.118800  0.182100  0.931100  1.0  -0.0371
  C  C255  1  0.109300  0.234900  0.910500  1.0  -0.0219
  C  C256  1  0.134800  0.049600  0.886200  1.0  -0.1336
  C  C257  1  0.078800  0.028200  0.832100  1.0  0.0482
  C  C258  1  0.157900  0.003400  0.795900  1.0  -0.0202
  C  C259  1  0.279400  0.001500  0.813200  1.0  -0.1322
  C  C260  1  0.326800  0.022900  0.865900  1.0  0.0021
  C  C261  1  0.255900  0.048200  0.902400  1.0  -0.0489
  C  C262  1  0.359700  0.972800  0.774600  1.0  0.7363
  C  C263  1  0.585900  0.265300  0.826800  1.0  0.736
  C  C264  1  0.568700  0.220800  0.868300  1.0  -0.117
  C  C265  1  0.605200  0.169800  0.853800  1.0  -0.0305
  C  C266  1  0.596900  0.128700  0.892700  1.0  -0.0262
  C  C267  1  0.550300  0.137700  0.945500  1.0  -0.1359
  C  C268  1  0.511400  0.186300  0.959400  1.0  -0.0233
  C  C269  1  0.520700  0.229600  0.920000  1.0  -0.0247
  C  C270  1  0.671700  0.096200  0.047800  1.0  -0.0898
  C  C271  1  0.781600  0.082600  0.033900  1.0  -0.071
  C  C272  1  0.882500  0.090700  0.076200  1.0  -0.0455
  C  C273  1  0.863500  0.113200  0.130400  1.0  -0.0992
  C  C274  1  0.752800  0.126900  0.142300  1.0  -0.0163
  C  C275  1  0.652400  0.118400  0.100900  1.0  -0.0636
  C  C276  1  0.970000  0.121500  0.174700  1.0  0.7041
  S  S277  1  0.394000  0.343430  0.021710  1.0  0.9491
  S  S278  1  0.544300  0.421350  0.434470  1.0  1.0993
  S  S279  1  0.047800  0.415710  0.495440  1.0  0.184
  S  S280  1  0.106000  0.843430  0.478290  1.0  0.9516
  S  S281  1  0.955700  0.921350  0.065530  1.0  1.0988
  S  S282  1  0.452200  0.915710  0.004560  1.0  1.0986
  S  S283  1  0.606000  0.656570  0.978290  1.0  0.9515
  S  S284  1  0.455700  0.578650  0.565530  1.0  1.099
  S  S285  1  0.952200  0.584290  0.504560  1.0  1.0997
  S  S286  1  0.894000  0.156570  0.521710  1.0  0.948
  S  S287  1  0.044300  0.078650  0.934470  1.0  1.1007
  S  S288  1  0.547800  0.084290  0.995440  1.0  1.0997
  O  O289  1  0.538600  0.155700  0.226500  1.0  -0.6432
  O  O290  1  0.352800  0.129300  0.197800  1.0  -0.6754
  O  O291  1  0.424100  0.565300  0.187500  1.0  -0.6716
  O  O292  1  0.227400  0.547800  0.182400  1.0  -0.659
  O  O293  1  0.511000  0.349200  0.000700  1.0  -0.6222
  O  O294  1  0.285000  0.336700  0.982500  1.0  -0.6052
  O  O295  1  0.398100  0.177500  0.330000  1.0  -0.654
  O  O296  1  0.592800  0.164900  0.353500  1.0  -0.6542
  O  O297  1  0.813300  0.551300  0.230000  1.0  -0.6408
  O  O298  1  0.969400  0.526400  0.293500  1.0  -0.6956
  O  O299  1  0.428500  0.444900  0.424400  1.0  -0.5869
  O  O300  1  0.608500  0.421900  0.492400  1.0  -0.6125
  O  O301  1  0.068900  0.187200  0.344700  1.0  -0.7144
  O  O302  1  0.121900  0.244700  0.279200  1.0  -0.5992
  O  O303  1  0.454100  0.356300  0.722200  1.0  -0.7086
  O  O304  1  0.572800  0.393700  0.664100  1.0  -0.7092
  O  O305  1  0.070400  0.463400  0.464200  1.0  -0.5779
  O  O306  1  0.961400  0.655700  0.273500  1.0  -0.6458
  O  O307  1  0.147200  0.629300  0.302200  1.0  -0.6748
  O  O308  1  0.075900  0.065300  0.312500  1.0  -0.6703
  O  O309  1  0.272600  0.047800  0.317600  1.0  -0.6579
  O  O310  1  0.989000  0.849200  0.499300  1.0  -0.6199
  O  O311  1  0.215000  0.836700  0.517500  1.0  -0.6062
  O  O312  1  0.101900  0.677500  0.170000  1.0  -0.6565
  O  O313  1  0.907200  0.664900  0.146500  1.0  -0.6558
  O  O314  1  0.686700  0.051300  0.270000  1.0  -0.6394
  O  O315  1  0.530600  0.026400  0.206500  1.0  -0.6907
  O  O316  1  0.071500  0.944900  0.075600  1.0  -0.5874
  O  O317  1  0.891500  0.921900  0.007600  1.0  -0.6074
  O  O318  1  0.431100  0.687200  0.155300  1.0  -0.715
  O  O319  1  0.378100  0.744700  0.220800  1.0  -0.5998
  O  O320  1  0.045900  0.856300  0.777800  1.0  -0.7103
  O  O321  1  0.927200  0.893700  0.835900  1.0  -0.7076
  O  O322  1  0.557100  0.910600  0.976000  1.0  -0.5809
  O  O323  1  0.429600  0.963400  0.035800  1.0  -0.5752
  O  O324  1  0.461400  0.844300  0.773500  1.0  -0.6457
  O  O325  1  0.647200  0.870700  0.802200  1.0  -0.6745
  O  O326  1  0.575900  0.434700  0.812500  1.0  -0.67
  O  O327  1  0.772600  0.452200  0.817600  1.0  -0.6569
  O  O328  1  0.489000  0.650800  0.999300  1.0  -0.6194
  O  O329  1  0.715000  0.663300  0.017500  1.0  -0.6055
  O  O330  1  0.601900  0.822500  0.670000  1.0  -0.6571
  O  O331  1  0.407200  0.835100  0.646500  1.0  -0.6549
  O  O332  1  0.186700  0.448700  0.770000  1.0  -0.6382
  O  O333  1  0.030600  0.473600  0.706500  1.0  -0.6955
  O  O334  1  0.571500  0.555100  0.575600  1.0  -0.5877
  O  O335  1  0.391500  0.578100  0.507600  1.0  -0.6077
  O  O336  1  0.931100  0.812800  0.655300  1.0  -0.7134
  O  O337  1  0.878100  0.755300  0.720800  1.0  -0.5992
  O  O338  1  0.545900  0.643700  0.277800  1.0  -0.7109
  O  O339  1  0.427200  0.606300  0.335900  1.0  -0.7082
  O  O340  1  0.057100  0.589400  0.476000  1.0  -0.5804
  O  O341  1  0.929600  0.536600  0.535800  1.0  -0.5896
  O  O342  1  0.038600  0.344300  0.726500  1.0  -0.6439
  O  O343  1  0.852800  0.370700  0.697800  1.0  -0.6741
  O  O344  1  0.924100  0.934700  0.687500  1.0  -0.671
  O  O345  1  0.727400  0.952200  0.682400  1.0  -0.6598
  O  O346  1  0.011000  0.150800  0.500700  1.0  -0.6218
  O  O347  1  0.785000  0.163300  0.482500  1.0  -0.6046
  O  O348  1  0.898100  0.322500  0.830000  1.0  -0.6542
  O  O349  1  0.092800  0.335100  0.853500  1.0  -0.6537
  O  O350  1  0.313300  0.948700  0.730000  1.0  -0.6404
  O  O351  1  0.469400  0.973600  0.793500  1.0  -0.6934
  O  O352  1  0.928500  0.055100  0.924400  1.0  -0.5867
  O  O353  1  0.108500  0.078100  0.992400  1.0  -0.6069
  O  O354  1  0.568900  0.312800  0.844700  1.0  -0.7145
  O  O355  1  0.621900  0.255300  0.779200  1.0  -0.5983
  O  O356  1  0.954100  0.143700  0.222200  1.0  -0.7096
  O  O357  1  0.072800  0.106300  0.164100  1.0  -0.7084
  O  O358  1  0.442900  0.089400  0.024000  1.0  -0.5826
  O  O359  1  0.570400  0.036600  0.964200  1.0  -0.5756
