# generated using pymatgen
data_KNdRe4Te4(CN)12
_symmetry_space_group_name_H-M   'P 1'
_cell_length_a   13.33990000
_cell_length_b   13.33990000
_cell_length_c   20.77730000
_cell_angle_alpha   90.00000000
_cell_angle_beta   90.00000000
_cell_angle_gamma   108.34200000
_symmetry_Int_Tables_number   1
_chemical_formula_structural   KNdRe4Te4(CN)12
_chemical_formula_sum   'K4 Nd4 Re16 Te16 C48 N48'
_cell_volume   3509.53618945
_cell_formula_units_Z   4
loop_
 _symmetry_equiv_pos_site_id
 _symmetry_equiv_pos_as_xyz
  1  'x, y, z'
loop_
 _atom_site_type_symbol
 _atom_site_label
 _atom_site_symmetry_multiplicity
 _atom_site_fract_x
 _atom_site_fract_y
 _atom_site_fract_z
 _atom_site_occupancy
 _atom_site_charge
  K  K1  1  0.126900  0.126900  0.000000  1.0  0.9394
  K  K2  1  0.873100  0.873100  0.500000  1.0  0.9388
  K  K3  1  0.873100  0.873100  0.000000  1.0  0.9388
  K  K4  1  0.126900  0.126900  0.500000  1.0  0.9394
  Nd  Nd5  1  0.628750  0.881650  0.250000  1.0  2.3423
  Nd  Nd6  1  0.371250  0.118350  0.750000  1.0  2.3423
  Nd  Nd7  1  0.118350  0.371250  0.250000  1.0  2.3421
  Nd  Nd8  1  0.881650  0.628750  0.750000  1.0  2.3427
  Re  Re9  1  0.256550  0.559890  0.950250  1.0  -0.4116
  Re  Re10  1  0.743450  0.440110  0.450250  1.0  -0.4108
  Re  Re11  1  0.440110  0.743450  0.549750  1.0  -0.4161
  Re  Re12  1  0.559890  0.256550  0.049750  1.0  -0.4147
  Re  Re13  1  0.743450  0.440110  0.049750  1.0  -0.411
  Re  Re14  1  0.256550  0.559890  0.549750  1.0  -0.4111
  Re  Re15  1  0.559890  0.256550  0.450250  1.0  -0.4154
  Re  Re16  1  0.440110  0.743450  0.950250  1.0  -0.4161
  Re  Re17  1  0.297500  0.702500  0.057700  1.0  -0.5529
  Re  Re18  1  0.234640  0.765360  0.933860  1.0  -0.5914
  Re  Re19  1  0.702500  0.297500  0.557700  1.0  -0.5528
  Re  Re20  1  0.765360  0.234640  0.433860  1.0  -0.5901
  Re  Re21  1  0.297500  0.702500  0.442300  1.0  -0.5531
  Re  Re22  1  0.234640  0.765360  0.566140  1.0  -0.5911
  Re  Re23  1  0.702500  0.297500  0.942300  1.0  -0.5527
  Re  Re24  1  0.765360  0.234640  0.066140  1.0  -0.5898
  Te  Te25  1  0.108320  0.620540  0.008060  1.0  0.6082
  Te  Te26  1  0.891680  0.379460  0.508060  1.0  0.6097
  Te  Te27  1  0.379460  0.891680  0.491940  1.0  0.6067
  Te  Te28  1  0.620540  0.108320  0.991940  1.0  0.6088
  Te  Te29  1  0.891680  0.379460  0.991940  1.0  0.6094
  Te  Te30  1  0.108320  0.620540  0.491940  1.0  0.6076
  Te  Te31  1  0.620540  0.108320  0.508060  1.0  0.6092
  Te  Te32  1  0.379460  0.891680  0.008060  1.0  0.6071
  Te  Te33  1  0.323260  0.676740  0.847440  1.0  0.5119
  Te  Te34  1  0.416240  0.583760  0.030310  1.0  0.5369
  Te  Te35  1  0.676740  0.323260  0.347440  1.0  0.511
  Te  Te36  1  0.583760  0.416240  0.530310  1.0  0.538
  Te  Te37  1  0.323260  0.676740  0.652560  1.0  0.5115
  Te  Te38  1  0.416240  0.583760  0.469690  1.0  0.5374
  Te  Te39  1  0.676740  0.323260  0.152560  1.0  0.5111
  Te  Te40  1  0.583760  0.416240  0.969690  1.0  0.5379
  C  C41  1  0.415200  0.763800  0.128400  1.0  0.3778
  C  C42  1  0.131100  0.478700  0.889500  1.0  0.1325
  C  C43  1  0.325500  0.457900  0.902500  1.0  0.1812
  C  C44  1  0.186900  0.419700  0.001900  1.0  0.2106
  C  C45  1  0.284000  0.893400  0.869100  1.0  0.3657
  C  C46  1  0.584800  0.236200  0.628400  1.0  0.3769
  C  C47  1  0.868900  0.521300  0.389500  1.0  0.1329
  C  C48  1  0.674500  0.542100  0.402500  1.0  0.1806
  C  C49  1  0.813100  0.580300  0.501900  1.0  0.2097
  C  C50  1  0.716000  0.106600  0.369100  1.0  0.3667
  C  C51  1  0.236200  0.584800  0.371600  1.0  0.379
  C  C52  1  0.521300  0.868900  0.610500  1.0  0.135
  C  C53  1  0.542100  0.674500  0.597500  1.0  0.1815
  C  C54  1  0.580300  0.813100  0.498100  1.0  0.2095
  C  C55  1  0.106600  0.716000  0.630900  1.0  0.3628
  C  C56  1  0.763800  0.415200  0.871600  1.0  0.377
  C  C57  1  0.478700  0.131100  0.110500  1.0  0.134
  C  C58  1  0.457900  0.325500  0.097500  1.0  0.1803
  C  C59  1  0.419700  0.186900  0.998100  1.0  0.208
  C  C60  1  0.893400  0.284000  0.130900  1.0  0.363
  C  C61  1  0.584800  0.236200  0.871600  1.0  0.3758
  C  C62  1  0.868900  0.521300  0.110500  1.0  0.1346
  C  C63  1  0.674500  0.542100  0.097500  1.0  0.1806
  C  C64  1  0.813100  0.580300  0.998100  1.0  0.2098
  C  C65  1  0.716000  0.106600  0.130900  1.0  0.3664
  C  C66  1  0.415200  0.763800  0.371600  1.0  0.376
  C  C67  1  0.131100  0.478700  0.610500  1.0  0.1339
  C  C68  1  0.325500  0.457900  0.597500  1.0  0.1817
  C  C69  1  0.186900  0.419700  0.498100  1.0  0.2106
  C  C70  1  0.284000  0.893400  0.630900  1.0  0.3645
  C  C71  1  0.763800  0.415200  0.628400  1.0  0.3786
  C  C72  1  0.478700  0.131100  0.389500  1.0  0.1325
  C  C73  1  0.457900  0.325500  0.402500  1.0  0.1804
  C  C74  1  0.419700  0.186900  0.501900  1.0  0.2081
  C  C75  1  0.893400  0.284000  0.369100  1.0  0.3633
  C  C76  1  0.236200  0.584800  0.128400  1.0  0.3803
  C  C77  1  0.521300  0.868900  0.889500  1.0  0.1334
  C  C78  1  0.542100  0.674500  0.902500  1.0  0.1814
  C  C79  1  0.580300  0.813100  0.001900  1.0  0.2094
  C  C80  1  0.106600  0.716000  0.869100  1.0  0.3635
  C  C81  1  0.218300  0.781700  0.116200  1.0  0.1561
  C  C82  1  0.142800  0.857200  0.969200  1.0  0.2638
  C  C83  1  0.781700  0.218300  0.616200  1.0  0.1575
  C  C84  1  0.857200  0.142800  0.469200  1.0  0.2643
  C  C85  1  0.218300  0.781700  0.383800  1.0  0.1573
  C  C86  1  0.142800  0.857200  0.530800  1.0  0.2639
  C  C87  1  0.781700  0.218300  0.883800  1.0  0.1586
  C  C88  1  0.857200  0.142800  0.030800  1.0  0.2645
  N  N89  1  0.480600  0.797800  0.165700  1.0  -0.6541
  N  N90  1  0.063400  0.431400  0.857900  1.0  -0.4059
  N  N91  1  0.362700  0.404300  0.875300  1.0  -0.4621
  N  N92  1  0.145800  0.341000  0.026400  1.0  -0.5424
  N  N93  1  0.311500  0.963500  0.834300  1.0  -0.6998
  N  N94  1  0.519400  0.202200  0.665700  1.0  -0.6538
  N  N95  1  0.936600  0.568600  0.357900  1.0  -0.4058
  N  N96  1  0.637300  0.595700  0.375300  1.0  -0.4636
  N  N97  1  0.854200  0.659000  0.526400  1.0  -0.5451
  N  N98  1  0.688500  0.036500  0.334300  1.0  -0.6998
  N  N99  1  0.202200  0.519400  0.334300  1.0  -0.6573
  N  N100  1  0.568600  0.936600  0.642100  1.0  -0.4075
  N  N101  1  0.595700  0.637300  0.624700  1.0  -0.4635
  N  N102  1  0.659000  0.854200  0.473600  1.0  -0.5431
  N  N103  1  0.036500  0.688500  0.665700  1.0  -0.6908
  N  N104  1  0.797800  0.480600  0.834300  1.0  -0.658
  N  N105  1  0.431400  0.063400  0.142100  1.0  -0.4062
  N  N106  1  0.404300  0.362700  0.124700  1.0  -0.4645
  N  N107  1  0.341000  0.145800  0.973600  1.0  -0.5424
  N  N108  1  0.963500  0.311500  0.165700  1.0  -0.6956
  N  N109  1  0.519400  0.202200  0.834300  1.0  -0.6556
  N  N110  1  0.936600  0.568600  0.142100  1.0  -0.4062
  N  N111  1  0.637300  0.595700  0.124700  1.0  -0.4644
  N  N112  1  0.854200  0.659000  0.973600  1.0  -0.5452
  N  N113  1  0.688500  0.036500  0.165700  1.0  -0.6963
  N  N114  1  0.480600  0.797800  0.334300  1.0  -0.6551
  N  N115  1  0.063400  0.431400  0.642100  1.0  -0.4048
  N  N116  1  0.362700  0.404300  0.624700  1.0  -0.4629
  N  N117  1  0.145800  0.341000  0.473600  1.0  -0.5438
  N  N118  1  0.311500  0.963500  0.665700  1.0  -0.6982
  N  N119  1  0.797800  0.480600  0.665700  1.0  -0.6572
  N  N120  1  0.431400  0.063400  0.357900  1.0  -0.4069
  N  N121  1  0.404300  0.362700  0.375300  1.0  -0.4631
  N  N122  1  0.341000  0.145800  0.526400  1.0  -0.5415
  N  N123  1  0.963500  0.311500  0.334300  1.0  -0.6982
  N  N124  1  0.202200  0.519400  0.165700  1.0  -0.6547
  N  N125  1  0.568600  0.936600  0.857900  1.0  -0.407
  N  N126  1  0.595700  0.637300  0.875300  1.0  -0.4616
  N  N127  1  0.659000  0.854200  0.026400  1.0  -0.543
  N  N128  1  0.036500  0.688500  0.834300  1.0  -0.6934
  N  N129  1  0.176100  0.823900  0.148500  1.0  -0.3995
  N  N130  1  0.092800  0.907200  0.984200  1.0  -0.6005
  N  N131  1  0.823900  0.176100  0.648500  1.0  -0.3999
  N  N132  1  0.907200  0.092800  0.484200  1.0  -0.6021
  N  N133  1  0.176100  0.823900  0.351500  1.0  -0.3988
  N  N134  1  0.092800  0.907200  0.515800  1.0  -0.6005
  N  N135  1  0.823900  0.176100  0.851500  1.0  -0.3995
  N  N136  1  0.907200  0.092800  0.015800  1.0  -0.6019
