# generated using pymatgen
data_NdRe4Te4(CN)12
_symmetry_space_group_name_H-M   'P 1'
_cell_length_a   12.81710000
_cell_length_b   17.21310000
_cell_length_c   16.94660000
_cell_angle_alpha   90.00000000
_cell_angle_beta   108.73600000
_cell_angle_gamma   90.00000000
_symmetry_Int_Tables_number   1
_chemical_formula_structural   NdRe4Te4(CN)12
_chemical_formula_sum   'Nd4 Re16 Te16 C48 N48'
_cell_volume   3540.66946993
_cell_formula_units_Z   4
loop_
 _symmetry_equiv_pos_site_id
 _symmetry_equiv_pos_as_xyz
  1  'x, y, z'
loop_
 _atom_site_type_symbol
 _atom_site_label
 _atom_site_symmetry_multiplicity
 _atom_site_fract_x
 _atom_site_fract_y
 _atom_site_fract_z
 _atom_site_occupancy
 _atom_site_charge
  Nd  Nd1  1  0.317270  0.306650  0.148790  1.0  2.1998
  Nd  Nd2  1  0.682730  0.806650  0.351210  1.0  2.1988
  Nd  Nd3  1  0.682730  0.693350  0.851210  1.0  2.1999
  Nd  Nd4  1  0.317270  0.193350  0.648790  1.0  2.2008
  Re  Re5  1  0.694170  0.379190  0.062980  1.0  -0.3172
  Re  Re6  1  0.795560  0.381300  0.934040  1.0  -0.4086
  Re  Re7  1  0.856010  0.265210  0.062720  1.0  -0.3354
  Re  Re8  1  0.644550  0.260430  0.936860  1.0  -0.2895
  Re  Re9  1  0.305830  0.879190  0.437020  1.0  -0.3171
  Re  Re10  1  0.204440  0.881300  0.565960  1.0  -0.4087
  Re  Re11  1  0.143990  0.765210  0.437280  1.0  -0.3349
  Re  Re12  1  0.355450  0.760430  0.563140  1.0  -0.2902
  Re  Re13  1  0.305830  0.620810  0.937020  1.0  -0.3172
  Re  Re14  1  0.204440  0.618700  0.065960  1.0  -0.4074
  Re  Re15  1  0.143990  0.734790  0.937280  1.0  -0.3357
  Re  Re16  1  0.355450  0.739570  0.063140  1.0  -0.2907
  Re  Re17  1  0.694170  0.120810  0.562980  1.0  -0.3163
  Re  Re18  1  0.795560  0.118700  0.434040  1.0  -0.4077
  Re  Re19  1  0.856010  0.234790  0.562720  1.0  -0.3363
  Re  Re20  1  0.644550  0.239570  0.436860  1.0  -0.29
  Te  Te21  1  0.829410  0.234720  0.904490  1.0  0.2696
  Te  Te22  1  0.674110  0.231650  0.095680  1.0  0.3554
  Te  Te23  1  0.582970  0.406990  0.905510  1.0  0.4246
  Te  Te24  1  0.903490  0.414270  0.090680  1.0  0.2888
  Te  Te25  1  0.170590  0.734720  0.595510  1.0  0.2699
  Te  Te26  1  0.325890  0.731650  0.404320  1.0  0.3542
  Te  Te27  1  0.417030  0.906990  0.594490  1.0  0.4246
  Te  Te28  1  0.096510  0.914270  0.409320  1.0  0.2892
  Te  Te29  1  0.170590  0.765280  0.095510  1.0  0.2699
  Te  Te30  1  0.325890  0.768350  0.904320  1.0  0.3537
  Te  Te31  1  0.417030  0.593010  0.094490  1.0  0.4251
  Te  Te32  1  0.096510  0.585730  0.909320  1.0  0.2892
  Te  Te33  1  0.829410  0.265280  0.404490  1.0  0.2695
  Te  Te34  1  0.674110  0.268350  0.595680  1.0  0.3547
  Te  Te35  1  0.582970  0.093010  0.405510  1.0  0.4247
  Te  Te36  1  0.903490  0.085730  0.590680  1.0  0.289
  C  C37  1  0.539100  0.379900  0.078900  1.0  0.1469
  C  C38  1  0.738700  0.390500  0.191700  1.0  0.235
  C  C39  1  0.678700  0.499700  0.078200  1.0  0.2387
  C  C40  1  0.794200  0.502800  0.915100  1.0  0.1725
  C  C41  1  0.746800  0.389400  0.803200  1.0  0.2342
  C  C42  1  0.952500  0.392200  0.920300  1.0  0.2332
  C  C43  1  0.024100  0.259900  0.075200  1.0  0.2299
  C  C44  1  0.879400  0.145100  0.075300  1.0  0.2721
  C  C45  1  0.926500  0.259700  0.192600  1.0  0.2861
  C  C46  1  0.635900  0.136500  0.926700  1.0  0.2287
  C  C47  1  0.570800  0.248700  0.808000  1.0  0.1244
  C  C48  1  0.478100  0.243700  0.926300  1.0  0.1673
  C  C49  1  0.460900  0.879900  0.421100  1.0  0.1481
  C  C50  1  0.261300  0.890500  0.308300  1.0  0.2316
  C  C51  1  0.321300  0.999700  0.421800  1.0  0.2374
  C  C52  1  0.205800  0.002800  0.584900  1.0  0.1726
  C  C53  1  0.253200  0.889400  0.696800  1.0  0.2374
  C  C54  1  0.047500  0.892200  0.579700  1.0  0.2326
  C  C55  1  0.975900  0.759900  0.424800  1.0  0.2296
  C  C56  1  0.120600  0.645100  0.424700  1.0  0.2701
  C  C57  1  0.073500  0.759700  0.307400  1.0  0.2839
  C  C58  1  0.364100  0.636500  0.573300  1.0  0.2307
  C  C59  1  0.429200  0.748700  0.692000  1.0  0.1246
  C  C60  1  0.521900  0.743700  0.573700  1.0  0.1689
  C  C61  1  0.460900  0.620100  0.921100  1.0  0.1482
  C  C62  1  0.261300  0.609500  0.808300  1.0  0.2317
  C  C63  1  0.321300  0.500300  0.921800  1.0  0.2391
  C  C64  1  0.205800  0.497200  0.084900  1.0  0.1747
  C  C65  1  0.253200  0.610600  0.196800  1.0  0.2377
  C  C66  1  0.047500  0.607800  0.079700  1.0  0.2324
  C  C67  1  0.975900  0.740100  0.924800  1.0  0.2292
  C  C68  1  0.120600  0.854900  0.924700  1.0  0.2698
  C  C69  1  0.073500  0.740300  0.807400  1.0  0.2839
  C  C70  1  0.364100  0.863500  0.073300  1.0  0.2282
  C  C71  1  0.429200  0.751300  0.192000  1.0  0.1243
  C  C72  1  0.521900  0.756300  0.073700  1.0  0.1677
  C  C73  1  0.539100  0.120100  0.578900  1.0  0.1471
  C  C74  1  0.738700  0.109500  0.691700  1.0  0.2351
  C  C75  1  0.678700  0.000300  0.578200  1.0  0.2408
  C  C76  1  0.794200  0.997200  0.415100  1.0  0.1742
  C  C77  1  0.746800  0.110600  0.303200  1.0  0.2344
  C  C78  1  0.952500  0.107800  0.420300  1.0  0.2333
  C  C79  1  0.024100  0.240100  0.575200  1.0  0.2292
  C  C80  1  0.879400  0.354900  0.575300  1.0  0.2715
  C  C81  1  0.926500  0.240300  0.692600  1.0  0.2862
  C  C82  1  0.635900  0.363500  0.426700  1.0  0.2259
  C  C83  1  0.570800  0.251300  0.308000  1.0  0.1243
  C  C84  1  0.478100  0.256300  0.426300  1.0  0.167
  N  N85  1  0.458000  0.376000  0.093100  1.0  -0.4469
  N  N86  1  0.760900  0.400900  0.263600  1.0  -0.343
  N  N87  1  0.673800  0.564200  0.091500  1.0  -0.3303
  N  N88  1  0.790500  0.566600  0.896500  1.0  -0.4526
  N  N89  1  0.722000  0.399200  0.732800  1.0  -0.4002
  N  N90  1  0.036700  0.400600  0.912500  1.0  -0.3534
  N  N91  1  0.117600  0.258300  0.088600  1.0  -0.5376
  N  N92  1  0.891400  0.079000  0.082100  1.0  -0.3217
  N  N93  1  0.968800  0.256800  0.263100  1.0  -0.3573
  N  N94  1  0.625700  0.072000  0.918200  1.0  -0.3351
  N  N95  1  0.517000  0.238700  0.739300  1.0  -0.5263
  N  N96  1  0.388400  0.229300  0.916500  1.0  -0.3509
  N  N97  1  0.542000  0.876000  0.406900  1.0  -0.4486
  N  N98  1  0.239100  0.900900  0.236400  1.0  -0.3399
  N  N99  1  0.326200  0.064200  0.408500  1.0  -0.3296
  N  N100  1  0.209500  0.066600  0.603500  1.0  -0.4528
  N  N101  1  0.278000  0.899200  0.767200  1.0  -0.4006
  N  N102  1  0.963300  0.900600  0.587500  1.0  -0.3526
  N  N103  1  0.882400  0.758300  0.411400  1.0  -0.5362
  N  N104  1  0.108600  0.579000  0.417900  1.0  -0.321
  N  N105  1  0.031200  0.756800  0.236900  1.0  -0.3559
  N  N106  1  0.374300  0.572000  0.581800  1.0  -0.336
  N  N107  1  0.483000  0.738700  0.760700  1.0  -0.5302
  N  N108  1  0.611600  0.729300  0.583500  1.0  -0.3503
  N  N109  1  0.542000  0.624000  0.906900  1.0  -0.4496
  N  N110  1  0.239100  0.599100  0.736400  1.0  -0.3404
  N  N111  1  0.326200  0.435800  0.908500  1.0  -0.3317
  N  N112  1  0.209500  0.433400  0.103500  1.0  -0.4494
  N  N113  1  0.278000  0.600800  0.267200  1.0  -0.3996
  N  N114  1  0.963300  0.599400  0.087500  1.0  -0.3523
  N  N115  1  0.882400  0.741700  0.911400  1.0  -0.5367
  N  N116  1  0.108600  0.921000  0.917900  1.0  -0.3223
  N  N117  1  0.031200  0.743200  0.736900  1.0  -0.3561
  N  N118  1  0.374300  0.928000  0.081800  1.0  -0.3372
  N  N119  1  0.483000  0.761300  0.260700  1.0  -0.5305
  N  N120  1  0.611600  0.770700  0.083500  1.0  -0.3503
  N  N121  1  0.458000  0.124000  0.593100  1.0  -0.446
  N  N122  1  0.760900  0.099100  0.763600  1.0  -0.3419
  N  N123  1  0.673800  0.935800  0.591500  1.0  -0.3323
  N  N124  1  0.790500  0.933400  0.396500  1.0  -0.45
  N  N125  1  0.722000  0.100800  0.232800  1.0  -0.4001
  N  N126  1  0.036700  0.099400  0.412500  1.0  -0.3529
  N  N127  1  0.117600  0.241700  0.588600  1.0  -0.5382
  N  N128  1  0.891400  0.421000  0.582100  1.0  -0.3224
  N  N129  1  0.968800  0.243200  0.763100  1.0  -0.3572
  N  N130  1  0.625700  0.428000  0.418200  1.0  -0.3368
  N  N131  1  0.517000  0.261300  0.239300  1.0  -0.5269
  N  N132  1  0.388400  0.270700  0.416500  1.0  -0.3514
