# generated using pymatgen
data_LaH24C44S4(NO3)4
_symmetry_space_group_name_H-M   'P 1'
_cell_length_a   15.44000000
_cell_length_b   15.44000000
_cell_length_c   10.02100000
_cell_angle_alpha   90.00000000
_cell_angle_beta   90.00000000
_cell_angle_gamma   90.00000000
_symmetry_Int_Tables_number   1
_chemical_formula_structural   LaH24C44S4(NO3)4
_chemical_formula_sum   'La2 H48 C88 S8 N8 O24'
_cell_volume   2388.94226560
_cell_formula_units_Z   2
loop_
 _symmetry_equiv_pos_site_id
 _symmetry_equiv_pos_as_xyz
  1  'x, y, z'
loop_
 _atom_site_type_symbol
 _atom_site_label
 _atom_site_symmetry_multiplicity
 _atom_site_fract_x
 _atom_site_fract_y
 _atom_site_fract_z
 _atom_site_occupancy
 _atom_site_charge
  La  La1  1  0.500000  0.500000  0.250000  1.0  2.2307
  La  La2  1  0.500000  0.500000  0.750000  1.0  2.2307
  H  H3  1  0.411400  0.741600  0.800400  1.0  0.1232
  H  H4  1  0.284600  0.822000  0.802600  1.0  0.1014
  H  H5  1  0.588600  0.258400  0.800400  1.0  0.1229
  H  H6  1  0.715400  0.178000  0.802600  1.0  0.1011
  H  H7  1  0.258400  0.411400  0.800400  1.0  0.1227
  H  H8  1  0.178000  0.284600  0.802600  1.0  0.1022
  H  H9  1  0.741600  0.588600  0.800400  1.0  0.1229
  H  H10  1  0.822000  0.715400  0.802600  1.0  0.1019
  H  H11  1  0.588600  0.741600  0.699600  1.0  0.1239
  H  H12  1  0.715400  0.822000  0.697400  1.0  0.1005
  H  H13  1  0.411400  0.258400  0.699600  1.0  0.124
  H  H14  1  0.284600  0.178000  0.697400  1.0  0.1005
  H  H15  1  0.741600  0.411400  0.699600  1.0  0.1235
  H  H16  1  0.822000  0.284600  0.697400  1.0  0.1014
  H  H17  1  0.258400  0.588600  0.699600  1.0  0.124
  H  H18  1  0.178000  0.715400  0.697400  1.0  0.1013
  H  H19  1  0.588600  0.258400  0.199600  1.0  0.1239
  H  H20  1  0.715400  0.178000  0.197400  1.0  0.1007
  H  H21  1  0.411400  0.741600  0.199600  1.0  0.1239
  H  H22  1  0.284600  0.822000  0.197400  1.0  0.1004
  H  H23  1  0.741600  0.588600  0.199600  1.0  0.1236
  H  H24  1  0.822000  0.715400  0.197400  1.0  0.1014
  H  H25  1  0.258400  0.411400  0.199600  1.0  0.1235
  H  H26  1  0.178000  0.284600  0.197400  1.0  0.1014
  H  H27  1  0.411400  0.258400  0.300400  1.0  0.1231
  H  H28  1  0.284600  0.178000  0.302600  1.0  0.1009
  H  H29  1  0.588600  0.741600  0.300400  1.0  0.1232
  H  H30  1  0.715400  0.822000  0.302600  1.0  0.1014
  H  H31  1  0.258400  0.588600  0.300400  1.0  0.1229
  H  H32  1  0.178000  0.715400  0.302600  1.0  0.1018
  H  H33  1  0.741600  0.411400  0.300400  1.0  0.1231
  H  H34  1  0.822000  0.284600  0.302600  1.0  0.1021
  H  H35  1  0.331300  0.997100  0.000000  1.0  0.1234
  H  H36  1  0.295700  0.150400  0.000000  1.0  0.1231
  H  H37  1  0.668700  0.002900  0.000000  1.0  0.1229
  H  H38  1  0.704300  0.849600  0.000000  1.0  0.1224
  H  H39  1  0.002900  0.331300  0.000000  1.0  0.1239
  H  H40  1  0.849600  0.295700  0.000000  1.0  0.1214
  H  H41  1  0.997100  0.668700  0.000000  1.0  0.1239
  H  H42  1  0.150400  0.704300  0.000000  1.0  0.1229
  H  H43  1  0.668700  0.997100  0.500000  1.0  0.1233
  H  H44  1  0.704300  0.150400  0.500000  1.0  0.1227
  H  H45  1  0.331300  0.002900  0.500000  1.0  0.1233
  H  H46  1  0.295700  0.849600  0.500000  1.0  0.1232
  H  H47  1  0.997100  0.331300  0.500000  1.0  0.1237
  H  H48  1  0.150400  0.295700  0.500000  1.0  0.1225
  H  H49  1  0.002900  0.668700  0.500000  1.0  0.1241
  H  H50  1  0.849600  0.704300  0.500000  1.0  0.1212
  C  C51  1  0.386400  0.758200  0.881000  1.0  -0.0763
  C  C52  1  0.310100  0.806300  0.883100  1.0  -0.1146
  C  C53  1  0.613600  0.241800  0.881000  1.0  -0.0763
  C  C54  1  0.689900  0.193700  0.883100  1.0  -0.1138
  C  C55  1  0.241800  0.386400  0.881000  1.0  -0.075
  C  C56  1  0.193700  0.310100  0.883100  1.0  -0.1133
  C  C57  1  0.758200  0.613600  0.881000  1.0  -0.0767
  C  C58  1  0.806300  0.689900  0.883100  1.0  -0.1141
  C  C59  1  0.613600  0.758200  0.619000  1.0  -0.076
  C  C60  1  0.689900  0.806300  0.616900  1.0  -0.1113
  C  C61  1  0.386400  0.241800  0.619000  1.0  -0.0772
  C  C62  1  0.310100  0.193700  0.616900  1.0  -0.1127
  C  C63  1  0.758200  0.386400  0.619000  1.0  -0.0764
  C  C64  1  0.806300  0.310100  0.616900  1.0  -0.1121
  C  C65  1  0.241800  0.613600  0.619000  1.0  -0.0757
  C  C66  1  0.193700  0.689900  0.616900  1.0  -0.1116
  C  C67  1  0.613600  0.241800  0.119000  1.0  -0.0766
  C  C68  1  0.689900  0.193700  0.116900  1.0  -0.1149
  C  C69  1  0.386400  0.758200  0.119000  1.0  -0.0769
  C  C70  1  0.310100  0.806300  0.116900  1.0  -0.1156
  C  C71  1  0.758200  0.613600  0.119000  1.0  -0.0769
  C  C72  1  0.806300  0.689900  0.116900  1.0  -0.1154
  C  C73  1  0.241800  0.386400  0.119000  1.0  -0.0755
  C  C74  1  0.193700  0.310100  0.116900  1.0  -0.1148
  C  C75  1  0.386400  0.241800  0.381000  1.0  -0.0772
  C  C76  1  0.310100  0.193700  0.383100  1.0  -0.1177
  C  C77  1  0.613600  0.758200  0.381000  1.0  -0.076
  C  C78  1  0.689900  0.806300  0.383100  1.0  -0.1167
  C  C79  1  0.241800  0.613600  0.381000  1.0  -0.0762
  C  C80  1  0.193700  0.689900  0.383100  1.0  -0.1165
  C  C81  1  0.758200  0.386400  0.381000  1.0  -0.0761
  C  C82  1  0.806300  0.310100  0.383100  1.0  -0.117
  C  C83  1  0.424100  0.735900  0.000000  1.0  -0.1718
  C  C84  1  0.271200  0.831100  0.000000  1.0  0.0902
  C  C85  1  0.189800  0.881900  0.000000  1.0  -0.0635
  C  C86  1  0.197300  0.971900  0.000000  1.0  0.1451
  C  C87  1  0.275700  0.020300  0.000000  1.0  -0.1297
  C  C88  1  0.256200  0.104900  0.000000  1.0  -0.1595
  C  C89  1  0.165200  0.112600  0.000000  1.0  0.1804
  C  C90  1  0.575900  0.264100  0.000000  1.0  -0.175
  C  C91  1  0.728800  0.168900  0.000000  1.0  0.0879
  C  C92  1  0.810200  0.118100  0.000000  1.0  -0.0647
  C  C93  1  0.802700  0.028100  0.000000  1.0  0.1452
  C  C94  1  0.724300  0.979700  0.000000  1.0  -0.129
  C  C95  1  0.743800  0.895100  0.000000  1.0  -0.1598
  C  C96  1  0.834800  0.887400  0.000000  1.0  0.1816
  C  C97  1  0.264100  0.424100  0.000000  1.0  -0.1745
  C  C98  1  0.168900  0.271200  0.000000  1.0  0.088
  C  C99  1  0.118100  0.189800  0.000000  1.0  -0.0644
  C  C100  1  0.028100  0.197300  0.000000  1.0  0.1446
  C  C101  1  0.979700  0.275700  0.000000  1.0  -0.1319
  C  C102  1  0.895100  0.256200  0.000000  1.0  -0.1617
  C  C103  1  0.887400  0.165200  0.000000  1.0  0.1811
  C  C104  1  0.735900  0.575900  0.000000  1.0  -0.1732
  C  C105  1  0.831100  0.728800  0.000000  1.0  0.0893
  C  C106  1  0.881900  0.810200  0.000000  1.0  -0.0626
  C  C107  1  0.971900  0.802700  0.000000  1.0  0.1447
  C  C108  1  0.020300  0.724300  0.000000  1.0  -0.1336
  C  C109  1  0.104900  0.743800  0.000000  1.0  -0.1614
  C  C110  1  0.112600  0.834800  0.000000  1.0  0.1821
  C  C111  1  0.575900  0.735900  0.500000  1.0  -0.1751
  C  C112  1  0.728800  0.831100  0.500000  1.0  0.0882
  C  C113  1  0.810200  0.881900  0.500000  1.0  -0.0635
  C  C114  1  0.802700  0.971900  0.500000  1.0  0.1447
  C  C115  1  0.724300  0.020300  0.500000  1.0  -0.129
  C  C116  1  0.743800  0.104900  0.500000  1.0  -0.1587
  C  C117  1  0.834800  0.112600  0.500000  1.0  0.1814
  C  C118  1  0.424100  0.264100  0.500000  1.0  -0.1712
  C  C119  1  0.271200  0.168900  0.500000  1.0  0.0891
  C  C120  1  0.189800  0.118100  0.500000  1.0  -0.0648
  C  C121  1  0.197300  0.028100  0.500000  1.0  0.1454
  C  C122  1  0.275700  0.979700  0.500000  1.0  -0.1295
  C  C123  1  0.256200  0.895100  0.500000  1.0  -0.1606
  C  C124  1  0.165200  0.887400  0.500000  1.0  0.1811
  C  C125  1  0.735900  0.424100  0.500000  1.0  -0.1748
  C  C126  1  0.831100  0.271200  0.500000  1.0  0.0896
  C  C127  1  0.881900  0.189800  0.500000  1.0  -0.0637
  C  C128  1  0.971900  0.197300  0.500000  1.0  0.1435
  C  C129  1  0.020300  0.275700  0.500000  1.0  -0.1325
  C  C130  1  0.104900  0.256200  0.500000  1.0  -0.1609
  C  C131  1  0.112600  0.165200  0.500000  1.0  0.1814
  C  C132  1  0.264100  0.575900  0.500000  1.0  -0.1732
  C  C133  1  0.168900  0.728800  0.500000  1.0  0.0878
  C  C134  1  0.118100  0.810200  0.500000  1.0  -0.063
  C  C135  1  0.028100  0.802700  0.500000  1.0  0.1456
  C  C136  1  0.979700  0.724300  0.500000  1.0  -0.1332
  C  C137  1  0.895100  0.743800  0.500000  1.0  -0.1619
  C  C138  1  0.887400  0.834800  0.500000  1.0  0.1823
  S  S139  1  0.526330  0.685050  0.000000  1.0  1.4415
  S  S140  1  0.473670  0.314950  0.000000  1.0  1.4417
  S  S141  1  0.314950  0.526330  0.000000  1.0  1.4427
  S  S142  1  0.685050  0.473670  0.000000  1.0  1.4424
  S  S143  1  0.473670  0.685050  0.500000  1.0  1.442
  S  S144  1  0.526330  0.314950  0.500000  1.0  1.4414
  S  S145  1  0.685050  0.526330  0.500000  1.0  1.4423
  S  S146  1  0.314950  0.473670  0.500000  1.0  1.4424
  N  N147  1  0.129000  0.030500  0.000000  1.0  -0.2573
  N  N148  1  0.871000  0.969500  0.000000  1.0  -0.2579
  N  N149  1  0.969500  0.129000  0.000000  1.0  -0.246
  N  N150  1  0.030500  0.871000  0.000000  1.0  -0.2465
  N  N151  1  0.871000  0.030500  0.500000  1.0  -0.2568
  N  N152  1  0.129000  0.969500  0.500000  1.0  -0.2557
  N  N153  1  0.030500  0.129000  0.500000  1.0  -0.2468
  N  N154  1  0.969500  0.871000  0.500000  1.0  -0.2465
  O  O155  1  0.531630  0.633000  0.117900  1.0  -0.6703
  O  O156  1  0.468370  0.367000  0.117900  1.0  -0.6703
  O  O157  1  0.367000  0.531630  0.117900  1.0  -0.6699
  O  O158  1  0.633000  0.468370  0.117900  1.0  -0.6696
  O  O159  1  0.468370  0.633000  0.382100  1.0  -0.6709
  O  O160  1  0.531630  0.367000  0.382100  1.0  -0.671
  O  O161  1  0.633000  0.531630  0.382100  1.0  -0.6699
  O  O162  1  0.367000  0.468370  0.382100  1.0  -0.671
  O  O163  1  0.468370  0.367000  0.882100  1.0  -0.6707
  O  O164  1  0.531630  0.633000  0.882100  1.0  -0.6712
  O  O165  1  0.633000  0.468370  0.882100  1.0  -0.6703
  O  O166  1  0.367000  0.531630  0.882100  1.0  -0.6707
  O  O167  1  0.531630  0.367000  0.617900  1.0  -0.6707
  O  O168  1  0.468370  0.633000  0.617900  1.0  -0.6699
  O  O169  1  0.367000  0.468370  0.617900  1.0  -0.6698
  O  O170  1  0.633000  0.531630  0.617900  1.0  -0.6695
  O  O171  1  0.588150  0.753510  0.000000  1.0  -0.609
  O  O172  1  0.411850  0.246490  0.000000  1.0  -0.6085
  O  O173  1  0.246490  0.588150  0.000000  1.0  -0.6057
  O  O174  1  0.753510  0.411850  0.000000  1.0  -0.6051
  O  O175  1  0.411850  0.753510  0.500000  1.0  -0.6075
  O  O176  1  0.588150  0.246490  0.500000  1.0  -0.6094
  O  O177  1  0.753510  0.588150  0.500000  1.0  -0.6054
  O  O178  1  0.246490  0.411850  0.500000  1.0  -0.6056
