# generated using pymatgen
data_SmH24C44S4(NO3)4
_symmetry_space_group_name_H-M   'P 1'
_cell_length_a   15.37700000
_cell_length_b   15.37700000
_cell_length_c   9.91500000
_cell_angle_alpha   90.00000000
_cell_angle_beta   90.00000000
_cell_angle_gamma   90.00000000
_symmetry_Int_Tables_number   1
_chemical_formula_structural   SmH24C44S4(NO3)4
_chemical_formula_sum   'Sm2 H48 C88 S8 N8 O24'
_cell_volume   2344.42285903
_cell_formula_units_Z   2
loop_
 _symmetry_equiv_pos_site_id
 _symmetry_equiv_pos_as_xyz
  1  'x, y, z'
loop_
 _atom_site_type_symbol
 _atom_site_label
 _atom_site_symmetry_multiplicity
 _atom_site_fract_x
 _atom_site_fract_y
 _atom_site_fract_z
 _atom_site_occupancy
 _atom_site_charge
  Sm  Sm1  1  0.000000  0.000000  0.250000  1.0  2.3858
  Sm  Sm2  1  0.000000  0.000000  0.750000  1.0  2.3858
  H  H3  1  0.910900  0.762400  0.798500  1.0  0.1168
  H  H4  1  0.787400  0.676300  0.798000  1.0  0.1062
  H  H5  1  0.089100  0.237600  0.798500  1.0  0.1173
  H  H6  1  0.212600  0.323700  0.798000  1.0  0.1065
  H  H7  1  0.237600  0.910900  0.798500  1.0  0.1173
  H  H8  1  0.323700  0.787400  0.798000  1.0  0.1075
  H  H9  1  0.762400  0.089100  0.798500  1.0  0.1173
  H  H10  1  0.676300  0.212600  0.798000  1.0  0.1071
  H  H11  1  0.089100  0.762400  0.701500  1.0  0.1166
  H  H12  1  0.212600  0.676300  0.702000  1.0  0.1061
  H  H13  1  0.910900  0.237600  0.701500  1.0  0.1164
  H  H14  1  0.787400  0.323700  0.702000  1.0  0.1061
  H  H15  1  0.762400  0.910900  0.701500  1.0  0.1169
  H  H16  1  0.676300  0.787400  0.702000  1.0  0.107
  H  H17  1  0.237600  0.089100  0.701500  1.0  0.1167
  H  H18  1  0.323700  0.212600  0.702000  1.0  0.1069
  H  H19  1  0.089100  0.237600  0.201500  1.0  0.1166
  H  H20  1  0.212600  0.323700  0.202000  1.0  0.106
  H  H21  1  0.910900  0.762400  0.201500  1.0  0.1167
  H  H22  1  0.787400  0.676300  0.202000  1.0  0.1061
  H  H23  1  0.762400  0.089100  0.201500  1.0  0.1173
  H  H24  1  0.676300  0.212600  0.202000  1.0  0.107
  H  H25  1  0.237600  0.910900  0.201500  1.0  0.1166
  H  H26  1  0.323700  0.787400  0.202000  1.0  0.1069
  H  H27  1  0.910900  0.237600  0.298500  1.0  0.1171
  H  H28  1  0.787400  0.323700  0.298000  1.0  0.1067
  H  H29  1  0.089100  0.762400  0.298500  1.0  0.1168
  H  H30  1  0.212600  0.676300  0.298000  1.0  0.1063
  H  H31  1  0.237600  0.089100  0.298500  1.0  0.1171
  H  H32  1  0.323700  0.212600  0.298000  1.0  0.107
  H  H33  1  0.762400  0.910900  0.298500  1.0  0.1173
  H  H34  1  0.676300  0.787400  0.298000  1.0  0.1076
  H  H35  1  0.651100  0.796400  0.000000  1.0  0.1148
  H  H36  1  0.499000  0.833600  0.000000  1.0  0.1291
  H  H37  1  0.348900  0.203600  0.000000  1.0  0.1135
  H  H38  1  0.501000  0.166400  0.000000  1.0  0.1292
  H  H39  1  0.203600  0.651100  0.000000  1.0  0.1148
  H  H40  1  0.166400  0.499000  0.000000  1.0  0.129
  H  H41  1  0.796400  0.348900  0.000000  1.0  0.1149
  H  H42  1  0.833600  0.501000  0.000000  1.0  0.1288
  H  H43  1  0.348900  0.796400  0.500000  1.0  0.1139
  H  H44  1  0.501000  0.833600  0.500000  1.0  0.1291
  H  H45  1  0.651100  0.203600  0.500000  1.0  0.115
  H  H46  1  0.499000  0.166400  0.500000  1.0  0.1291
  H  H47  1  0.796400  0.651100  0.500000  1.0  0.1148
  H  H48  1  0.833600  0.499000  0.500000  1.0  0.1287
  H  H49  1  0.203600  0.348900  0.500000  1.0  0.1145
  H  H50  1  0.166400  0.501000  0.500000  1.0  0.1288
  C  C51  1  0.886460  0.744060  0.879420  1.0  -0.047
  C  C52  1  0.812000  0.693460  0.879500  1.0  -0.1063
  C  C53  1  0.113540  0.255940  0.879420  1.0  -0.0447
  C  C54  1  0.188000  0.306540  0.879500  1.0  -0.1062
  C  C55  1  0.255940  0.886460  0.879420  1.0  -0.0451
  C  C56  1  0.306540  0.812000  0.879500  1.0  -0.1065
  C  C57  1  0.744060  0.113540  0.879420  1.0  -0.0445
  C  C58  1  0.693460  0.188000  0.879500  1.0  -0.1065
  C  C59  1  0.113540  0.744060  0.620580  1.0  -0.0456
  C  C60  1  0.188000  0.693460  0.620500  1.0  -0.1053
  C  C61  1  0.886460  0.255940  0.620580  1.0  -0.0471
  C  C62  1  0.812000  0.306540  0.620500  1.0  -0.104
  C  C63  1  0.744060  0.886460  0.620580  1.0  -0.0449
  C  C64  1  0.693460  0.812000  0.620500  1.0  -0.1043
  C  C65  1  0.255940  0.113540  0.620580  1.0  -0.0456
  C  C66  1  0.306540  0.188000  0.620500  1.0  -0.1055
  C  C67  1  0.113540  0.255940  0.120580  1.0  -0.0442
  C  C68  1  0.188000  0.306540  0.120500  1.0  -0.1076
  C  C69  1  0.886460  0.744060  0.120580  1.0  -0.0458
  C  C70  1  0.812000  0.693460  0.120500  1.0  -0.1093
  C  C71  1  0.744060  0.113540  0.120580  1.0  -0.0435
  C  C72  1  0.693460  0.188000  0.120500  1.0  -0.1085
  C  C73  1  0.255940  0.886460  0.120580  1.0  -0.0441
  C  C74  1  0.306540  0.812000  0.120500  1.0  -0.1089
  C  C75  1  0.886460  0.255940  0.379420  1.0  -0.045
  C  C76  1  0.812000  0.306540  0.379500  1.0  -0.1102
  C  C77  1  0.113540  0.744060  0.379420  1.0  -0.0439
  C  C78  1  0.188000  0.693460  0.379500  1.0  -0.1104
  C  C79  1  0.255940  0.113540  0.379420  1.0  -0.0441
  C  C80  1  0.306540  0.188000  0.379500  1.0  -0.1112
  C  C81  1  0.744060  0.886460  0.379420  1.0  -0.0428
  C  C82  1  0.693460  0.812000  0.379500  1.0  -0.1096
  C  C83  1  0.923880  0.766850  0.000000  1.0  -0.1861
  C  C84  1  0.773570  0.668020  0.000000  1.0  0.0708
  C  C85  1  0.689390  0.617600  0.000000  1.0  -0.0453
  C  C86  1  0.613720  0.665970  0.000000  1.0  0.1814
  C  C87  1  0.605280  0.756940  0.000000  1.0  -0.1221
  C  C88  1  0.521930  0.777650  0.000000  1.0  -0.1523
  C  C89  1  0.472650  0.697390  0.000000  1.0  0.1802
  C  C90  1  0.076120  0.233150  0.000000  1.0  -0.1888
  C  C91  1  0.226430  0.331980  0.000000  1.0  0.0695
  C  C92  1  0.310610  0.382400  0.000000  1.0  -0.0436
  C  C93  1  0.386280  0.334030  0.000000  1.0  0.1813
  C  C94  1  0.394720  0.243060  0.000000  1.0  -0.1234
  C  C95  1  0.478070  0.222350  0.000000  1.0  -0.1524
  C  C96  1  0.527350  0.302610  0.000000  1.0  0.181
  C  C97  1  0.233150  0.923880  0.000000  1.0  -0.1903
  C  C98  1  0.331980  0.773570  0.000000  1.0  0.0701
  C  C99  1  0.382400  0.689390  0.000000  1.0  -0.0443
  C  C100  1  0.334030  0.613720  0.000000  1.0  0.1804
  C  C101  1  0.243060  0.605280  0.000000  1.0  -0.1203
  C  C102  1  0.222350  0.521930  0.000000  1.0  -0.1481
  C  C103  1  0.302610  0.472650  0.000000  1.0  0.1804
  C  C104  1  0.766850  0.076120  0.000000  1.0  -0.1882
  C  C105  1  0.668020  0.226430  0.000000  1.0  0.0698
  C  C106  1  0.617600  0.310610  0.000000  1.0  -0.0439
  C  C107  1  0.665970  0.386280  0.000000  1.0  0.1808
  C  C108  1  0.756940  0.394720  0.000000  1.0  -0.1213
  C  C109  1  0.777650  0.478070  0.000000  1.0  -0.1485
  C  C110  1  0.697390  0.527350  0.000000  1.0  0.1814
  C  C111  1  0.076120  0.766850  0.500000  1.0  -0.189
  C  C112  1  0.226430  0.668020  0.500000  1.0  0.0696
  C  C113  1  0.310610  0.617600  0.500000  1.0  -0.0447
  C  C114  1  0.386280  0.665970  0.500000  1.0  0.1811
  C  C115  1  0.394720  0.756940  0.500000  1.0  -0.1233
  C  C116  1  0.478070  0.777650  0.500000  1.0  -0.1511
  C  C117  1  0.527350  0.697390  0.500000  1.0  0.1813
  C  C118  1  0.923880  0.233150  0.500000  1.0  -0.1865
  C  C119  1  0.773570  0.331980  0.500000  1.0  0.0706
  C  C120  1  0.689390  0.382400  0.500000  1.0  -0.0441
  C  C121  1  0.613720  0.334030  0.500000  1.0  0.1816
  C  C122  1  0.605280  0.243060  0.500000  1.0  -0.1226
  C  C123  1  0.521930  0.222350  0.500000  1.0  -0.1533
  C  C124  1  0.472650  0.302610  0.500000  1.0  0.1805
  C  C125  1  0.766850  0.923880  0.500000  1.0  -0.1903
  C  C126  1  0.668020  0.773570  0.500000  1.0  0.0698
  C  C127  1  0.617600  0.689390  0.500000  1.0  -0.0455
  C  C128  1  0.665970  0.613720  0.500000  1.0  0.1805
  C  C129  1  0.756940  0.605280  0.500000  1.0  -0.1207
  C  C130  1  0.777650  0.521930  0.500000  1.0  -0.1488
  C  C131  1  0.697390  0.472650  0.500000  1.0  0.1809
  C  C132  1  0.233150  0.076120  0.500000  1.0  -0.1879
  C  C133  1  0.331980  0.226430  0.500000  1.0  0.0702
  C  C134  1  0.382400  0.310610  0.500000  1.0  -0.0429
  C  C135  1  0.334030  0.386280  0.500000  1.0  0.1803
  C  C136  1  0.243060  0.394720  0.500000  1.0  -0.1212
  C  C137  1  0.222350  0.478070  0.500000  1.0  -0.1482
  C  C138  1  0.302610  0.527350  0.500000  1.0  0.181
  S  S139  1  0.026350  0.818980  0.000000  1.0  1.4107
  S  S140  1  0.973650  0.181020  0.000000  1.0  1.4109
  S  S141  1  0.181020  0.026350  0.000000  1.0  1.4115
  S  S142  1  0.818980  0.973650  0.000000  1.0  1.4113
  S  S143  1  0.973650  0.818980  0.500000  1.0  1.411
  S  S144  1  0.026350  0.181020  0.500000  1.0  1.4104
  S  S145  1  0.818980  0.026350  0.500000  1.0  1.4114
  S  S146  1  0.181020  0.973650  0.500000  1.0  1.4117
  N  N147  1  0.530320  0.628970  0.000000  1.0  -0.2719
  N  N148  1  0.469680  0.371030  0.000000  1.0  -0.272
  N  N149  1  0.371030  0.530320  0.000000  1.0  -0.2765
  N  N150  1  0.628970  0.469680  0.000000  1.0  -0.2769
  N  N151  1  0.469680  0.628970  0.500000  1.0  -0.2712
  N  N152  1  0.530320  0.371030  0.500000  1.0  -0.2723
  N  N153  1  0.628970  0.530320  0.500000  1.0  -0.2769
  N  N154  1  0.371030  0.469680  0.500000  1.0  -0.277
  O  O155  1  0.031060  0.871130  0.120890  1.0  -0.7214
  O  O156  1  0.968940  0.128870  0.120890  1.0  -0.7207
  O  O157  1  0.128870  0.031060  0.120890  1.0  -0.7207
  O  O158  1  0.871130  0.968940  0.120890  1.0  -0.7206
  O  O159  1  0.968940  0.871130  0.379110  1.0  -0.7202
  O  O160  1  0.031060  0.128870  0.379110  1.0  -0.7213
  O  O161  1  0.871130  0.031060  0.379110  1.0  -0.7201
  O  O162  1  0.128870  0.968940  0.379110  1.0  -0.7202
  O  O163  1  0.968940  0.128870  0.879110  1.0  -0.7208
  O  O164  1  0.031060  0.871130  0.879110  1.0  -0.7207
  O  O165  1  0.871130  0.968940  0.879110  1.0  -0.7203
  O  O166  1  0.128870  0.031060  0.879110  1.0  -0.7202
  O  O167  1  0.031060  0.128870  0.620890  1.0  -0.7213
  O  O168  1  0.968940  0.871130  0.620890  1.0  -0.7208
  O  O169  1  0.128870  0.968940  0.620890  1.0  -0.7206
  O  O170  1  0.871130  0.031060  0.620890  1.0  -0.7205
  O  O171  1  0.089360  0.750320  0.000000  1.0  -0.6065
  O  O172  1  0.910640  0.249680  0.000000  1.0  -0.6057
  O  O173  1  0.249680  0.089360  0.000000  1.0  -0.6037
  O  O174  1  0.750320  0.910640  0.000000  1.0  -0.6032
  O  O175  1  0.910640  0.750320  0.500000  1.0  -0.6058
  O  O176  1  0.089360  0.249680  0.500000  1.0  -0.6068
  O  O177  1  0.750320  0.089360  0.500000  1.0  -0.6032
  O  O178  1  0.249680  0.910640  0.500000  1.0  -0.6035
