# generated using pymatgen
data_EuH24C44S4(NO3)4
_symmetry_space_group_name_H-M   'P 1'
_cell_length_a   15.43130000
_cell_length_b   15.43130000
_cell_length_c   9.88840000
_cell_angle_alpha   90.00000000
_cell_angle_beta   90.00000000
_cell_angle_gamma   90.00000000
_symmetry_Int_Tables_number   1
_chemical_formula_structural   EuH24C44S4(NO3)4
_chemical_formula_sum   'Eu2 H48 C88 S8 N8 O24'
_cell_volume   2354.67544470
_cell_formula_units_Z   2
loop_
 _symmetry_equiv_pos_site_id
 _symmetry_equiv_pos_as_xyz
  1  'x, y, z'
loop_
 _atom_site_type_symbol
 _atom_site_label
 _atom_site_symmetry_multiplicity
 _atom_site_fract_x
 _atom_site_fract_y
 _atom_site_fract_z
 _atom_site_occupancy
 _atom_site_charge
  Eu  Eu1  1  0.500000  0.500000  0.250000  1.0  2.1612
  Eu  Eu2  1  0.500000  0.500000  0.750000  1.0  2.1612
  H  H3  1  0.410400  0.738000  0.798100  1.0  0.1336
  H  H4  1  0.285700  0.821100  0.798900  1.0  0.1091
  H  H5  1  0.589600  0.262000  0.798100  1.0  0.1333
  H  H6  1  0.714300  0.178900  0.798900  1.0  0.1087
  H  H7  1  0.262000  0.410400  0.798100  1.0  0.1338
  H  H8  1  0.178900  0.285700  0.798900  1.0  0.1102
  H  H9  1  0.738000  0.589600  0.798100  1.0  0.1338
  H  H10  1  0.821100  0.714300  0.798900  1.0  0.1095
  H  H11  1  0.589600  0.738000  0.701900  1.0  0.1338
  H  H12  1  0.714300  0.821100  0.701100  1.0  0.1077
  H  H13  1  0.410400  0.262000  0.701900  1.0  0.1337
  H  H14  1  0.285700  0.178900  0.701100  1.0  0.108
  H  H15  1  0.738000  0.410400  0.701900  1.0  0.1337
  H  H16  1  0.821100  0.285700  0.701100  1.0  0.1086
  H  H17  1  0.262000  0.589600  0.701900  1.0  0.1344
  H  H18  1  0.178900  0.714300  0.701100  1.0  0.109
  H  H19  1  0.589600  0.262000  0.201900  1.0  0.1336
  H  H20  1  0.714300  0.178900  0.201100  1.0  0.1079
  H  H21  1  0.410400  0.738000  0.201900  1.0  0.1337
  H  H22  1  0.285700  0.821100  0.201100  1.0  0.1079
  H  H23  1  0.738000  0.589600  0.201900  1.0  0.1339
  H  H24  1  0.821100  0.714300  0.201100  1.0  0.1085
  H  H25  1  0.262000  0.410400  0.201900  1.0  0.1339
  H  H26  1  0.178900  0.285700  0.201100  1.0  0.1092
  H  H27  1  0.410400  0.262000  0.298100  1.0  0.1333
  H  H28  1  0.285700  0.178900  0.298900  1.0  0.1088
  H  H29  1  0.589600  0.738000  0.298100  1.0  0.1337
  H  H30  1  0.714300  0.821100  0.298900  1.0  0.1089
  H  H31  1  0.262000  0.589600  0.298100  1.0  0.134
  H  H32  1  0.178900  0.714300  0.298900  1.0  0.1099
  H  H33  1  0.738000  0.410400  0.298100  1.0  0.1339
  H  H34  1  0.821100  0.285700  0.298900  1.0  0.1098
  H  H35  1  0.332600  0.997500  0.000000  1.0  0.14
  H  H36  1  0.296500  0.150900  0.000000  1.0  0.1336
  H  H37  1  0.667400  0.002500  0.000000  1.0  0.1397
  H  H38  1  0.703500  0.849100  0.000000  1.0  0.133
  H  H39  1  0.002500  0.332600  0.000000  1.0  0.1409
  H  H40  1  0.849100  0.296500  0.000000  1.0  0.1321
  H  H41  1  0.997500  0.667400  0.000000  1.0  0.1409
  H  H42  1  0.150900  0.703500  0.000000  1.0  0.1325
  H  H43  1  0.667400  0.997500  0.500000  1.0  0.1399
  H  H44  1  0.703500  0.150900  0.500000  1.0  0.1332
  H  H45  1  0.332600  0.002500  0.500000  1.0  0.1401
  H  H46  1  0.296500  0.849100  0.500000  1.0  0.1339
  H  H47  1  0.997500  0.332600  0.500000  1.0  0.1407
  H  H48  1  0.150900  0.296500  0.500000  1.0  0.1323
  H  H49  1  0.002500  0.667400  0.500000  1.0  0.141
  H  H50  1  0.849100  0.703500  0.500000  1.0  0.1316
  C  C51  1  0.385750  0.755540  0.879500  1.0  -0.0544
  C  C52  1  0.310640  0.804950  0.880800  1.0  -0.1062
  C  C53  1  0.614250  0.244460  0.879500  1.0  -0.0537
  C  C54  1  0.689360  0.195050  0.880800  1.0  -0.1059
  C  C55  1  0.244460  0.385750  0.879500  1.0  -0.0528
  C  C56  1  0.195050  0.310640  0.880800  1.0  -0.1054
  C  C57  1  0.755540  0.614250  0.879500  1.0  -0.0538
  C  C58  1  0.804950  0.689360  0.880800  1.0  -0.1067
  C  C59  1  0.614250  0.755540  0.620500  1.0  -0.0537
  C  C60  1  0.689360  0.804950  0.619200  1.0  -0.1031
  C  C61  1  0.385750  0.244460  0.620500  1.0  -0.0553
  C  C62  1  0.310640  0.195050  0.619200  1.0  -0.1046
  C  C63  1  0.755540  0.385750  0.620500  1.0  -0.0536
  C  C64  1  0.804950  0.310640  0.619200  1.0  -0.1043
  C  C65  1  0.244460  0.614250  0.620500  1.0  -0.0533
  C  C66  1  0.195050  0.689360  0.619200  1.0  -0.1038
  C  C67  1  0.614250  0.244460  0.120500  1.0  -0.0522
  C  C68  1  0.689360  0.195050  0.119200  1.0  -0.1064
  C  C69  1  0.385750  0.755540  0.120500  1.0  -0.0531
  C  C70  1  0.310640  0.804950  0.119200  1.0  -0.1055
  C  C71  1  0.755540  0.614250  0.120500  1.0  -0.0524
  C  C72  1  0.804950  0.689360  0.119200  1.0  -0.1067
  C  C73  1  0.244460  0.385750  0.120500  1.0  -0.0514
  C  C74  1  0.195050  0.310640  0.119200  1.0  -0.1058
  C  C75  1  0.385750  0.244460  0.379500  1.0  -0.0533
  C  C76  1  0.310640  0.195050  0.380800  1.0  -0.1087
  C  C77  1  0.614250  0.755540  0.379500  1.0  -0.0521
  C  C78  1  0.689360  0.804950  0.380800  1.0  -0.1076
  C  C79  1  0.244460  0.614250  0.379500  1.0  -0.0522
  C  C80  1  0.195050  0.689360  0.380800  1.0  -0.1078
  C  C81  1  0.755540  0.385750  0.379500  1.0  -0.0519
  C  C82  1  0.804950  0.310640  0.380800  1.0  -0.1083
  C  C83  1  0.422900  0.733100  0.000000  1.0  -0.1661
  C  C84  1  0.271700  0.831000  0.000000  1.0  0.1047
  C  C85  1  0.190400  0.881300  0.000000  1.0  -0.0218
  C  C86  1  0.197300  0.973400  0.000000  1.0  0.1089
  C  C87  1  0.277100  0.021000  0.000000  1.0  -0.1392
  C  C88  1  0.257300  0.105200  0.000000  1.0  -0.1404
  C  C89  1  0.166000  0.112400  0.000000  1.0  0.1755
  C  C90  1  0.577100  0.266900  0.000000  1.0  -0.168
  C  C91  1  0.728300  0.169000  0.000000  1.0  0.1025
  C  C92  1  0.809600  0.118700  0.000000  1.0  -0.0227
  C  C93  1  0.802700  0.026600  0.000000  1.0  0.1086
  C  C94  1  0.722900  0.979000  0.000000  1.0  -0.1382
  C  C95  1  0.742700  0.894800  0.000000  1.0  -0.1401
  C  C96  1  0.834000  0.887600  0.000000  1.0  0.1755
  C  C97  1  0.266900  0.422900  0.000000  1.0  -0.1693
  C  C98  1  0.169000  0.271700  0.000000  1.0  0.1021
  C  C99  1  0.118700  0.190400  0.000000  1.0  -0.0231
  C  C100  1  0.026600  0.197300  0.000000  1.0  0.1091
  C  C101  1  0.979000  0.277100  0.000000  1.0  -0.142
  C  C102  1  0.894800  0.257300  0.000000  1.0  -0.1431
  C  C103  1  0.887600  0.166000  0.000000  1.0  0.1763
  C  C104  1  0.733100  0.577100  0.000000  1.0  -0.167
  C  C105  1  0.831000  0.728300  0.000000  1.0  0.1041
  C  C106  1  0.881300  0.809600  0.000000  1.0  -0.021
  C  C107  1  0.973400  0.802700  0.000000  1.0  0.1088
  C  C108  1  0.021000  0.722900  0.000000  1.0  -0.1426
  C  C109  1  0.105200  0.742700  0.000000  1.0  -0.1424
  C  C110  1  0.112400  0.834000  0.000000  1.0  0.1765
  C  C111  1  0.577100  0.733100  0.500000  1.0  -0.1675
  C  C112  1  0.728300  0.831000  0.500000  1.0  0.1026
  C  C113  1  0.809600  0.881300  0.500000  1.0  -0.0218
  C  C114  1  0.802700  0.973400  0.500000  1.0  0.1085
  C  C115  1  0.722900  0.021000  0.500000  1.0  -0.1382
  C  C116  1  0.742700  0.105200  0.500000  1.0  -0.1399
  C  C117  1  0.834000  0.112400  0.500000  1.0  0.1756
  C  C118  1  0.422900  0.266900  0.500000  1.0  -0.1661
  C  C119  1  0.271700  0.169000  0.500000  1.0  0.1044
  C  C120  1  0.190400  0.118700  0.500000  1.0  -0.0233
  C  C121  1  0.197300  0.026600  0.500000  1.0  0.1088
  C  C122  1  0.277100  0.979000  0.500000  1.0  -0.1388
  C  C123  1  0.257300  0.894800  0.500000  1.0  -0.1405
  C  C124  1  0.166000  0.887600  0.500000  1.0  0.1759
  C  C125  1  0.733100  0.422900  0.500000  1.0  -0.1696
  C  C126  1  0.831000  0.271700  0.500000  1.0  0.1042
  C  C127  1  0.881300  0.190400  0.500000  1.0  -0.0222
  C  C128  1  0.973400  0.197300  0.500000  1.0  0.1081
  C  C129  1  0.021000  0.277100  0.500000  1.0  -0.142
  C  C130  1  0.105200  0.257300  0.500000  1.0  -0.1422
  C  C131  1  0.112400  0.166000  0.500000  1.0  0.1759
  C  C132  1  0.266900  0.577100  0.500000  1.0  -0.1674
  C  C133  1  0.169000  0.728300  0.500000  1.0  0.1019
  C  C134  1  0.118700  0.809600  0.500000  1.0  -0.0209
  C  C135  1  0.026600  0.802700  0.500000  1.0  0.1093
  C  C136  1  0.979000  0.722900  0.500000  1.0  -0.1428
  C  C137  1  0.894800  0.742700  0.500000  1.0  -0.143
  C  C138  1  0.887600  0.834000  0.500000  1.0  0.1766
  S  S139  1  0.524930  0.680370  0.000000  1.0  1.4115
  S  S140  1  0.475070  0.319630  0.000000  1.0  1.4113
  S  S141  1  0.319630  0.524930  0.000000  1.0  1.4117
  S  S142  1  0.680370  0.475070  0.000000  1.0  1.4117
  S  S143  1  0.475070  0.680370  0.500000  1.0  1.4112
  S  S144  1  0.524930  0.319630  0.500000  1.0  1.4117
  S  S145  1  0.680370  0.524930  0.500000  1.0  1.4116
  S  S146  1  0.319630  0.475070  0.500000  1.0  1.4116
  N  N147  1  0.129130  0.030800  0.000000  1.0  -0.3011
  N  N148  1  0.870870  0.969200  0.000000  1.0  -0.3021
  N  N149  1  0.969200  0.129130  0.000000  1.0  -0.2901
  N  N150  1  0.030800  0.870870  0.000000  1.0  -0.2928
  N  N151  1  0.870870  0.030800  0.500000  1.0  -0.3017
  N  N152  1  0.129130  0.969200  0.500000  1.0  -0.3009
  N  N153  1  0.030800  0.129130  0.500000  1.0  -0.2906
  N  N154  1  0.969200  0.870870  0.500000  1.0  -0.2933
  O  O155  1  0.530200  0.628120  0.121410  1.0  -0.711
  O  O156  1  0.469800  0.371880  0.121410  1.0  -0.7108
  O  O157  1  0.371880  0.530200  0.121410  1.0  -0.7096
  O  O158  1  0.628120  0.469800  0.121410  1.0  -0.7099
  O  O159  1  0.469800  0.628120  0.378590  1.0  -0.7099
  O  O160  1  0.530200  0.371880  0.378590  1.0  -0.7102
  O  O161  1  0.628120  0.530200  0.378590  1.0  -0.709
  O  O162  1  0.371880  0.469800  0.378590  1.0  -0.7088
  O  O163  1  0.469800  0.371880  0.878590  1.0  -0.7098
  O  O164  1  0.530200  0.628120  0.878590  1.0  -0.7103
  O  O165  1  0.628120  0.469800  0.878590  1.0  -0.7089
  O  O166  1  0.371880  0.530200  0.878590  1.0  -0.7087
  O  O167  1  0.530200  0.371880  0.621410  1.0  -0.7112
  O  O168  1  0.469800  0.628120  0.621410  1.0  -0.7104
  O  O169  1  0.371880  0.469800  0.621410  1.0  -0.7096
  O  O170  1  0.628120  0.530200  0.621410  1.0  -0.7099
  O  O171  1  0.587270  0.748800  0.000000  1.0  -0.5946
  O  O172  1  0.412730  0.251200  0.000000  1.0  -0.593
  O  O173  1  0.251200  0.587270  0.000000  1.0  -0.5902
  O  O174  1  0.748800  0.412730  0.000000  1.0  -0.5904
  O  O175  1  0.412730  0.748800  0.500000  1.0  -0.5934
  O  O176  1  0.587270  0.251200  0.500000  1.0  -0.594
  O  O177  1  0.748800  0.587270  0.500000  1.0  -0.5909
  O  O178  1  0.251200  0.412730  0.500000  1.0  -0.5902
