# generated using pymatgen
data_Pr2H9(C8O5)3
_symmetry_space_group_name_H-M   'P 1'
_cell_length_a   14.00220000
_cell_length_b   14.00220000
_cell_length_c   14.00220000
_cell_angle_alpha   104.64900000
_cell_angle_beta   104.64900000
_cell_angle_gamma   119.61800000
_symmetry_Int_Tables_number   1
_chemical_formula_structural   Pr2H9(C8O5)3
_chemical_formula_sum   'Pr4 H18 C48 O30'
_cell_volume   2062.84862539
_cell_formula_units_Z   2
loop_
 _symmetry_equiv_pos_site_id
 _symmetry_equiv_pos_as_xyz
  1  'x, y, z'
loop_
 _atom_site_type_symbol
 _atom_site_label
 _atom_site_symmetry_multiplicity
 _atom_site_fract_x
 _atom_site_fract_y
 _atom_site_fract_z
 _atom_site_occupancy
 _atom_site_charge
  Pr  Pr1  1  0.983800  0.837550  0.548750  1.0  2.2423
  Pr  Pr2  1  0.288800  0.435050  0.451250  1.0  2.2422
  Pr  Pr3  1  0.685050  0.733800  0.646250  1.0  2.2413
  Pr  Pr4  1  0.087550  0.038800  0.353750  1.0  2.2413
  H  H5  1  0.688700  0.740200  0.406900  1.0  0.1194
  H  H6  1  0.362700  0.658000  0.223100  1.0  0.1322
  H  H7  1  0.662700  0.882500  0.194200  1.0  0.1443
  H  H8  1  0.369900  0.023900  0.438200  1.0  0.1268
  H  H9  1  0.333333  0.281800  0.593100  1.0  0.1189
  H  H10  1  0.434900  0.139600  0.776900  1.0  0.1313
  H  H11  1  0.688300  0.468500  0.805800  1.0  0.1446
  H  H12  1  0.585700  0.931700  0.561800  1.0  0.1265
  H  H13  1  0.531800  0.438700  0.448500  1.0  0.1186
  H  H14  1  0.389600  0.112700  0.204700  1.0  0.1342
  H  H15  1  0.718500  0.412700  0.280200  1.0  0.1439
  H  H16  1  0.181700  0.119900  0.846000  1.0  0.1273
  H  H17  1  0.990200  0.083300  0.551500  1.0  0.1192
  H  H18  1  0.908000  0.184900  0.795300  1.0  0.132
  H  H19  1  0.132500  0.438300  0.719800  1.0  0.1441
  H  H20  1  0.273900  0.335700  0.154000  1.0  0.1261
  H  H21  1  0.230800  0.730800  0.500000  1.0  0.1355
  H  H22  1  0.980800  0.980800  0.000000  1.0  0.1355
  C  C23  1  0.696400  0.821500  0.305700  1.0  -0.1432
  C  C24  1  0.641700  0.748200  0.353900  1.0  -0.0163
  C  C25  1  0.516600  0.687000  0.323000  1.0  -0.139
  C  C26  1  0.446400  0.699000  0.243800  1.0  -0.0825
  C  C27  1  0.501100  0.772300  0.195600  1.0  0.2488
  C  C28  1  0.626100  0.833500  0.226400  1.0  -0.0666
  C  C29  1  0.829100  0.888500  0.335800  1.0  0.7419
  C  C30  1  0.455000  0.608300  0.372300  1.0  0.6751
  C  C31  1  0.281670  0.873900  0.462970  1.0  -0.1449
  C  C32  1  0.380270  0.972500  0.462970  1.0  -0.1123
  C  C33  1  0.159900  0.853300  0.422400  1.0  0.7981
  C  C34  1  0.515800  0.390700  0.694300  1.0  -0.1485
  C  C35  1  0.394300  0.287800  0.646100  1.0  -0.0187
  C  C36  1  0.364000  0.193600  0.677000  1.0  -0.1383
  C  C37  1  0.455200  0.202600  0.756200  1.0  -0.0788
  C  C38  1  0.576700  0.305500  0.804400  1.0  0.2444
  C  C39  1  0.607100  0.399700  0.773600  1.0  -0.0672
  C  C40  1  0.552700  0.493300  0.664200  1.0  0.7404
  C  C41  1  0.236000  0.082700  0.627700  1.0  0.673
  C  C42  1  0.410930  0.818700  0.537030  1.0  -0.1473
  C  C43  1  0.509530  0.917300  0.537030  1.0  -0.1076
  C  C44  1  0.430900  0.737500  0.577600  1.0  0.8
  C  C45  1  0.640700  0.446400  0.374900  1.0  -0.1472
  C  C46  1  0.537800  0.391700  0.393500  1.0  -0.0164
  C  C47  1  0.443600  0.266600  0.329600  1.0  -0.1396
  C  C48  1  0.452600  0.196400  0.247400  1.0  -0.0797
  C  C49  1  0.555500  0.251100  0.228800  1.0  0.2457
  C  C50  1  0.649700  0.376100  0.292600  1.0  -0.0707
  C  C51  1  0.743300  0.579100  0.440600  1.0  0.7393
  C  C52  1  0.332700  0.205000  0.346700  1.0  0.6731
  C  C53  1  0.068700  0.031670  0.907770  1.0  -0.1456
  C  C54  1  0.167300  0.130270  0.907770  1.0  -0.109
  C  C55  1  0.987500  0.909900  0.806600  1.0  0.8004
  C  C56  1  0.071500  0.265800  0.625100  1.0  -0.1505
  C  C57  1  0.998200  0.144300  0.606500  1.0  -0.0174
  C  C58  1  0.937000  0.114000  0.670400  1.0  -0.1365
  C  C59  1  0.949000  0.205200  0.752600  1.0  -0.0796
  C  C60  1  0.022300  0.326700  0.771200  1.0  0.2459
  C  C61  1  0.083500  0.357100  0.707400  1.0  -0.0644
  C  C62  1  0.138500  0.302700  0.559400  1.0  0.7459
  C  C63  1  0.858300  0.986000  0.653300  1.0  0.674
  C  C64  1  0.123900  0.160930  0.092230  1.0  -0.147
  C  C65  1  0.222500  0.259530  0.092230  1.0  -0.106
  C  C66  1  0.103300  0.180900  0.193400  1.0  0.8003
  C  C67  1  0.494500  0.994500  0.500000  1.0  0.242
  C  C68  1  0.296800  0.796800  0.500000  1.0  0.0331
  C  C69  1  0.244500  0.244500  0.000000  1.0  0.242
  C  C70  1  0.046800  0.046800  0.000000  1.0  0.0331
  O  O71  1  0.892900  0.865900  0.389800  1.0  -0.7141
  O  O72  1  0.875700  0.969900  0.304600  1.0  -0.6211
  O  O73  1  0.516300  0.605900  0.453400  1.0  -0.6659
  O  O74  1  0.337800  0.541600  0.332200  1.0  -0.6483
  O  O75  1  0.435700  0.785300  0.119400  1.0  -0.4718
  O  O76  1  0.080600  0.788600  0.444400  1.0  -0.6631
  O  O77  1  0.148400  0.905700  0.367700  1.0  -0.6696
  O  O78  1  0.476100  0.503100  0.610200  1.0  -0.7141
  O  O79  1  0.665300  0.571100  0.695400  1.0  -0.6195
  O  O80  1  0.152500  0.062900  0.546600  1.0  -0.6648
  O  O81  1  0.209400  0.005600  0.667800  1.0  -0.6499
  O  O82  1  0.665900  0.316300  0.880600  1.0  -0.4685
  O  O83  1  0.344200  0.636200  0.555600  1.0  -0.6699
  O  O84  1  0.538000  0.780700  0.632300  1.0  -0.6694
  O  O85  1  0.753100  0.642900  0.527000  1.0  -0.7169
  O  O86  1  0.821100  0.625700  0.405800  1.0  -0.6204
  O  O87  1  0.312900  0.266300  0.410400  1.0  -0.6678
  O  O88  1  0.255600  0.087800  0.296200  1.0  -0.6476
  O  O89  1  0.566300  0.185700  0.150400  1.0  -0.4724
  O  O90  1  0.886200  0.830600  0.792000  1.0  -0.6678
  O  O91  1  0.030700  0.898400  0.742700  1.0  -0.6723
  O  O92  1  0.115900  0.226100  0.473000  1.0  -0.7163
  O  O93  1  0.219900  0.415300  0.594200  1.0  -0.6213
  O  O94  1  0.855900  0.902500  0.589600  1.0  -0.6661
  O  O95  1  0.791600  0.959400  0.703800  1.0  -0.65
  O  O96  1  0.035300  0.415900  0.849600  1.0  -0.47
  O  O97  1  0.038600  0.094200  0.208000  1.0  -0.6681
  O  O98  1  0.155700  0.288000  0.257300  1.0  -0.6748
  O  O99  1  0.588600  0.088600  0.500000  1.0  -0.5306
  O  O100  1  0.338600  0.338600  0.000000  1.0  -0.5305
