# generated using pymatgen
data_U5(PO4)4
_symmetry_space_group_name_H-M   'P 1'
_cell_length_a   9.32780000
_cell_length_b   15.55290000
_cell_length_c   9.64740000
_cell_angle_alpha   90.00000000
_cell_angle_beta   93.26600000
_cell_angle_gamma   90.00000000
_symmetry_Int_Tables_number   1
_chemical_formula_structural   U5(PO4)4
_chemical_formula_sum   'U10 P8 O32'
_cell_volume   1397.31697933
_cell_formula_units_Z   2
loop_
 _symmetry_equiv_pos_site_id
 _symmetry_equiv_pos_as_xyz
  1  'x, y, z'
loop_
 _atom_site_type_symbol
 _atom_site_label
 _atom_site_symmetry_multiplicity
 _atom_site_fract_x
 _atom_site_fract_y
 _atom_site_fract_z
 _atom_site_occupancy
 _atom_site_charge
  U  U1  1  0.142000  0.017000  0.029000  1.0  1.7924
  U  U2  1  0.238500  0.022800  0.634900  1.0  1.5901
  U  U3  1  0.133700  0.489200  0.001300  1.0  1.7635
  U  U4  1  0.228500  0.470700  0.605500  1.0  1.6673
  U  U5  1  0.716600  0.251200  0.811200  1.0  1.7275
  U  U6  1  0.642000  0.983000  0.529000  1.0  1.7918
  U  U7  1  0.738500  0.977200  0.134900  1.0  1.59
  U  U8  1  0.633700  0.510800  0.501300  1.0  1.7636
  U  U9  1  0.728500  0.529300  0.105500  1.0  1.6686
  U  U10  1  0.216600  0.748800  0.311200  1.0  1.7276
  P  P11  1  0.480000  0.436900  0.838300  1.0  1.4922
  P  P12  1  0.878600  0.473900  0.775000  1.0  1.5692
  P  P13  1  0.488800  0.063800  0.862200  1.0  1.5469
  P  P14  1  0.886400  0.030000  0.799200  1.0  1.5243
  P  P15  1  0.980000  0.563100  0.338300  1.0  1.4922
  P  P16  1  0.378600  0.526100  0.275000  1.0  1.5697
  P  P17  1  0.988800  0.936200  0.362200  1.0  1.5472
  P  P18  1  0.386400  0.970000  0.299200  1.0  1.524
  O  O19  1  0.324200  0.056300  0.878000  1.0  -0.9379
  O  O20  1  0.049700  0.042500  0.783500  1.0  -0.9469
  O  O21  1  0.040100  0.460600  0.755200  1.0  -0.9448
  O  O22  1  0.314000  0.444500  0.853700  1.0  -0.9482
  O  O23  1  0.488600  0.460600  0.681500  1.0  -0.962
  O  O24  1  0.557900  0.504700  0.928000  1.0  -0.8998
  O  O25  1  0.815100  0.539300  0.665000  1.0  -0.8247
  O  O26  1  0.881000  0.517500  0.920200  1.0  -0.9512
  O  O27  1  0.824000  0.960300  0.698600  1.0  -0.8381
  O  O28  1  0.567300  0.000800  0.956900  1.0  -0.9209
  O  O29  1  0.797000  0.391400  0.768900  1.0  -0.9385
  O  O30  1  0.889000  0.993000  0.949300  1.0  -0.9464
  O  O31  1  0.806600  0.112600  0.782900  1.0  -0.9434
  O  O32  1  0.498500  0.032700  0.710500  1.0  -0.972
  O  O33  1  0.529300  0.347400  0.868100  1.0  -0.8596
  O  O34  1  0.537400  0.153800  0.883500  1.0  -0.8431
  O  O35  1  0.824200  0.943700  0.378000  1.0  -0.938
  O  O36  1  0.549700  0.957500  0.283500  1.0  -0.9466
  O  O37  1  0.540100  0.539400  0.255200  1.0  -0.9447
  O  O38  1  0.814000  0.555500  0.353700  1.0  -0.9484
  O  O39  1  0.988600  0.539400  0.181500  1.0  -0.962
  O  O40  1  0.057900  0.495300  0.428000  1.0  -0.8978
  O  O41  1  0.315100  0.460700  0.165000  1.0  -0.8239
  O  O42  1  0.381000  0.482500  0.420200  1.0  -0.9501
  O  O43  1  0.324000  0.039700  0.198600  1.0  -0.8381
  O  O44  1  0.067300  0.999200  0.456900  1.0  -0.9223
  O  O45  1  0.297000  0.608600  0.268900  1.0  -0.9397
  O  O46  1  0.389000  0.007000  0.449300  1.0  -0.9463
  O  O47  1  0.306600  0.887400  0.282900  1.0  -0.9401
  O  O48  1  0.998500  0.967300  0.210500  1.0  -0.9714
  O  O49  1  0.029300  0.652600  0.368100  1.0  -0.8611
  O  O50  1  0.037400  0.846200  0.383500  1.0  -0.8402
