# generated using pymatgen
data_Sr2Zr(CO2)8
_symmetry_space_group_name_H-M   'P 1'
_cell_length_a   16.13900000
_cell_length_b   16.13900000
_cell_length_c   18.24700000
_cell_angle_alpha   90.00000000
_cell_angle_beta   90.00000000
_cell_angle_gamma   90.00000000
_symmetry_Int_Tables_number   1
_chemical_formula_structural   Sr2Zr(CO2)8
_chemical_formula_sum   'Sr16 Zr8 C64 O128'
_cell_volume   4752.74720629
_cell_formula_units_Z   8
loop_
 _symmetry_equiv_pos_site_id
 _symmetry_equiv_pos_as_xyz
  1  'x, y, z'
loop_
 _atom_site_type_symbol
 _atom_site_label
 _atom_site_symmetry_multiplicity
 _atom_site_fract_x
 _atom_site_fract_y
 _atom_site_fract_z
 _atom_site_occupancy
 _atom_site_charge
  Sr  Sr1  1  0.737200  0.750000  0.375000  1.0  1.6338
  Sr  Sr2  1  0.237200  0.250000  0.875000  1.0  1.6338
  Sr  Sr3  1  0.762800  0.750000  0.875000  1.0  1.6364
  Sr  Sr4  1  0.262800  0.250000  0.375000  1.0  1.6364
  Sr  Sr5  1  0.250000  0.237200  0.625000  1.0  1.6358
  Sr  Sr6  1  0.750000  0.737200  0.125000  1.0  1.6358
  Sr  Sr7  1  0.250000  0.262800  0.125000  1.0  1.6358
  Sr  Sr8  1  0.750000  0.762800  0.625000  1.0  1.6358
  Sr  Sr9  1  0.262800  0.750000  0.875000  1.0  1.6364
  Sr  Sr10  1  0.762800  0.250000  0.375000  1.0  1.6364
  Sr  Sr11  1  0.237200  0.750000  0.375000  1.0  1.6338
  Sr  Sr12  1  0.737200  0.250000  0.875000  1.0  1.6338
  Sr  Sr13  1  0.750000  0.262800  0.625000  1.0  1.6358
  Sr  Sr14  1  0.250000  0.762800  0.125000  1.0  1.6358
  Sr  Sr15  1  0.750000  0.237200  0.125000  1.0  1.6358
  Sr  Sr16  1  0.250000  0.737200  0.625000  1.0  1.6358
  Zr  Zr17  1  0.000000  0.500000  0.750000  1.0  1.971
  Zr  Zr18  1  0.500000  0.000000  0.250000  1.0  1.971
  Zr  Zr19  1  0.500000  0.500000  0.000000  1.0  1.971
  Zr  Zr20  1  0.000000  0.000000  0.500000  1.0  1.971
  Zr  Zr21  1  0.500000  0.500000  0.500000  1.0  1.971
  Zr  Zr22  1  0.000000  0.000000  0.000000  1.0  1.971
  Zr  Zr23  1  0.000000  0.500000  0.250000  1.0  1.971
  Zr  Zr24  1  0.500000  0.000000  0.750000  1.0  1.971
  C  C25  1  0.134600  0.367900  0.734800  1.0  0.5721
  C  C26  1  0.112300  0.390800  0.655400  1.0  0.5465
  C  C27  1  0.634600  0.867900  0.234800  1.0  0.5721
  C  C28  1  0.612300  0.890800  0.155400  1.0  0.5465
  C  C29  1  0.365400  0.132100  0.234800  1.0  0.5709
  C  C30  1  0.387700  0.109200  0.155400  1.0  0.5464
  C  C31  1  0.865400  0.632100  0.734800  1.0  0.5709
  C  C32  1  0.887700  0.609200  0.655400  1.0  0.5464
  C  C33  1  0.632100  0.634600  0.984800  1.0  0.5712
  C  C34  1  0.609200  0.612300  0.905400  1.0  0.546
  C  C35  1  0.132100  0.134600  0.484800  1.0  0.5717
  C  C36  1  0.109200  0.112300  0.405400  1.0  0.546
  C  C37  1  0.867900  0.865400  0.484800  1.0  0.5719
  C  C38  1  0.890800  0.887700  0.405400  1.0  0.5459
  C  C39  1  0.367900  0.365400  0.984800  1.0  0.572
  C  C40  1  0.390800  0.387700  0.905400  1.0  0.5459
  C  C41  1  0.365400  0.367900  0.515200  1.0  0.5714
  C  C42  1  0.387700  0.390800  0.594600  1.0  0.5453
  C  C43  1  0.865400  0.867900  0.015200  1.0  0.5715
  C  C44  1  0.887700  0.890800  0.094600  1.0  0.5453
  C  C45  1  0.134600  0.132100  0.015200  1.0  0.5709
  C  C46  1  0.112300  0.109200  0.094600  1.0  0.5452
  C  C47  1  0.634600  0.632100  0.515200  1.0  0.5709
  C  C48  1  0.612300  0.609200  0.594600  1.0  0.5452
  C  C49  1  0.867900  0.634600  0.265200  1.0  0.5722
  C  C50  1  0.890800  0.612300  0.344600  1.0  0.5447
  C  C51  1  0.367900  0.134600  0.765200  1.0  0.5722
  C  C52  1  0.390800  0.112300  0.844600  1.0  0.5447
  C  C53  1  0.632100  0.865400  0.765200  1.0  0.571
  C  C54  1  0.609200  0.887700  0.844600  1.0  0.5448
  C  C55  1  0.132100  0.365400  0.265200  1.0  0.5714
  C  C56  1  0.109200  0.387700  0.344600  1.0  0.5448
  C  C57  1  0.865400  0.132100  0.515200  1.0  0.5719
  C  C58  1  0.887700  0.109200  0.594600  1.0  0.5452
  C  C59  1  0.365400  0.632100  0.015200  1.0  0.5719
  C  C60  1  0.387700  0.609200  0.094600  1.0  0.5452
  C  C61  1  0.634600  0.367900  0.015200  1.0  0.5706
  C  C62  1  0.612300  0.390800  0.094600  1.0  0.5453
  C  C63  1  0.134600  0.867900  0.515200  1.0  0.5706
  C  C64  1  0.112300  0.890800  0.594600  1.0  0.5453
  C  C65  1  0.367900  0.865400  0.265200  1.0  0.5719
  C  C66  1  0.390800  0.887700  0.344600  1.0  0.5447
  C  C67  1  0.867900  0.365400  0.765200  1.0  0.5719
  C  C68  1  0.890800  0.387700  0.844600  1.0  0.5447
  C  C69  1  0.132100  0.634600  0.765200  1.0  0.5712
  C  C70  1  0.109200  0.612300  0.844600  1.0  0.5448
  C  C71  1  0.632100  0.134600  0.265200  1.0  0.5716
  C  C72  1  0.609200  0.112300  0.344600  1.0  0.5448
  C  C73  1  0.634600  0.132100  0.734800  1.0  0.5708
  C  C74  1  0.612300  0.109200  0.655400  1.0  0.5466
  C  C75  1  0.134600  0.632100  0.234800  1.0  0.5709
  C  C76  1  0.112300  0.609200  0.155400  1.0  0.5466
  C  C77  1  0.865400  0.367900  0.234800  1.0  0.5718
  C  C78  1  0.887700  0.390800  0.155400  1.0  0.5463
  C  C79  1  0.365400  0.867900  0.734800  1.0  0.5718
  C  C80  1  0.387700  0.890800  0.655400  1.0  0.5463
  C  C81  1  0.132100  0.865400  0.984800  1.0  0.5724
  C  C82  1  0.109200  0.887700  0.905400  1.0  0.546
  C  C83  1  0.632100  0.365400  0.484800  1.0  0.5728
  C  C84  1  0.609200  0.387700  0.405400  1.0  0.546
  C  C85  1  0.367900  0.634600  0.484800  1.0  0.5711
  C  C86  1  0.390800  0.612300  0.405400  1.0  0.5459
  C  C87  1  0.867900  0.134600  0.984800  1.0  0.5711
  C  C88  1  0.890800  0.112300  0.905400  1.0  0.5459
  O  O89  1  0.687800  0.815400  0.247500  1.0  -0.6637
  O  O90  1  0.056000  0.445400  0.650900  1.0  -0.5742
  O  O91  1  0.092300  0.408400  0.781600  1.0  -0.5819
  O  O92  1  0.148300  0.356800  0.603700  1.0  -0.606
  O  O93  1  0.187800  0.315400  0.747500  1.0  -0.6637
  O  O94  1  0.556000  0.945400  0.150900  1.0  -0.5742
  O  O95  1  0.592300  0.908400  0.281600  1.0  -0.5819
  O  O96  1  0.648300  0.856800  0.103700  1.0  -0.606
  O  O97  1  0.812200  0.684600  0.747500  1.0  -0.6653
  O  O98  1  0.444000  0.054600  0.150900  1.0  -0.5746
  O  O99  1  0.407700  0.091600  0.281600  1.0  -0.5835
  O  O100  1  0.351700  0.143200  0.103700  1.0  -0.6057
  O  O101  1  0.312200  0.184600  0.247500  1.0  -0.6653
  O  O102  1  0.944000  0.554600  0.650900  1.0  -0.5746
  O  O103  1  0.907700  0.591600  0.781600  1.0  -0.5835
  O  O104  1  0.851700  0.643200  0.603700  1.0  -0.6057
  O  O105  1  0.184600  0.187800  0.497500  1.0  -0.6657
  O  O106  1  0.554600  0.556000  0.900900  1.0  -0.5744
  O  O107  1  0.591600  0.592300  0.031600  1.0  -0.5829
  O  O108  1  0.643200  0.648300  0.853700  1.0  -0.6055
  O  O109  1  0.684600  0.687800  0.997500  1.0  -0.6657
  O  O110  1  0.054600  0.056000  0.400900  1.0  -0.5744
  O  O111  1  0.091600  0.092300  0.531600  1.0  -0.5829
  O  O112  1  0.143200  0.148300  0.353700  1.0  -0.6055
  O  O113  1  0.315400  0.312200  0.997500  1.0  -0.6665
  O  O114  1  0.945400  0.944000  0.400900  1.0  -0.5748
  O  O115  1  0.908400  0.907700  0.531600  1.0  -0.582
  O  O116  1  0.856800  0.851700  0.353700  1.0  -0.6051
  O  O117  1  0.815400  0.812200  0.497500  1.0  -0.6665
  O  O118  1  0.445400  0.444000  0.900900  1.0  -0.5748
  O  O119  1  0.408400  0.407700  0.031600  1.0  -0.582
  O  O120  1  0.356800  0.351700  0.853700  1.0  -0.6051
  O  O121  1  0.812200  0.815400  0.002500  1.0  -0.6643
  O  O122  1  0.444000  0.445400  0.599100  1.0  -0.5753
  O  O123  1  0.407700  0.408400  0.468400  1.0  -0.5809
  O  O124  1  0.351700  0.356800  0.646300  1.0  -0.606
  O  O125  1  0.312200  0.315400  0.502500  1.0  -0.6643
  O  O126  1  0.944000  0.945400  0.099100  1.0  -0.5753
  O  O127  1  0.907700  0.908400  0.968400  1.0  -0.5809
  O  O128  1  0.851700  0.856800  0.146300  1.0  -0.6058
  O  O129  1  0.687800  0.684600  0.502500  1.0  -0.6625
  O  O130  1  0.056000  0.054600  0.099100  1.0  -0.5748
  O  O131  1  0.092300  0.091600  0.968400  1.0  -0.5814
  O  O132  1  0.148300  0.143200  0.146300  1.0  -0.6076
  O  O133  1  0.187800  0.184600  0.002500  1.0  -0.6625
  O  O134  1  0.556000  0.554600  0.599100  1.0  -0.5748
  O  O135  1  0.592300  0.591600  0.468400  1.0  -0.5814
  O  O136  1  0.648300  0.643200  0.646300  1.0  -0.6074
  O  O137  1  0.315400  0.187800  0.752500  1.0  -0.6654
  O  O138  1  0.945400  0.556000  0.349100  1.0  -0.5754
  O  O139  1  0.908400  0.592300  0.218400  1.0  -0.5815
  O  O140  1  0.856800  0.648300  0.396300  1.0  -0.6068
  O  O141  1  0.815400  0.687800  0.252500  1.0  -0.6654
  O  O142  1  0.445400  0.056000  0.849100  1.0  -0.5754
  O  O143  1  0.408400  0.092300  0.718400  1.0  -0.5815
  O  O144  1  0.356800  0.148300  0.896300  1.0  -0.6066
  O  O145  1  0.184600  0.312200  0.252500  1.0  -0.6647
  O  O146  1  0.554600  0.944000  0.849100  1.0  -0.575
  O  O147  1  0.591600  0.907700  0.718400  1.0  -0.5807
  O  O148  1  0.643200  0.851700  0.896300  1.0  -0.6067
  O  O149  1  0.684600  0.812200  0.752500  1.0  -0.6647
  O  O150  1  0.054600  0.444000  0.349100  1.0  -0.575
  O  O151  1  0.091600  0.407700  0.218400  1.0  -0.5807
  O  O152  1  0.143200  0.351700  0.396300  1.0  -0.6066
  O  O153  1  0.312200  0.684600  0.002500  1.0  -0.665
  O  O154  1  0.944000  0.054600  0.599100  1.0  -0.5752
  O  O155  1  0.907700  0.091600  0.468400  1.0  -0.5817
  O  O156  1  0.851700  0.143200  0.646300  1.0  -0.6055
  O  O157  1  0.812200  0.184600  0.502500  1.0  -0.665
  O  O158  1  0.444000  0.554600  0.099100  1.0  -0.5752
  O  O159  1  0.407700  0.591600  0.968400  1.0  -0.5817
  O  O160  1  0.351700  0.643200  0.146300  1.0  -0.6055
  O  O161  1  0.187800  0.815400  0.502500  1.0  -0.6635
  O  O162  1  0.556000  0.445400  0.099100  1.0  -0.5747
  O  O163  1  0.592300  0.408400  0.968400  1.0  -0.5807
  O  O164  1  0.648300  0.356800  0.146300  1.0  -0.6062
  O  O165  1  0.687800  0.315400  0.002500  1.0  -0.6635
  O  O166  1  0.056000  0.945400  0.599100  1.0  -0.5747
  O  O167  1  0.092300  0.908400  0.468400  1.0  -0.5807
  O  O168  1  0.148300  0.856800  0.646300  1.0  -0.6062
  O  O169  1  0.815400  0.312200  0.752500  1.0  -0.6663
  O  O170  1  0.445400  0.944000  0.349100  1.0  -0.5755
  O  O171  1  0.408400  0.907700  0.218400  1.0  -0.581
  O  O172  1  0.356800  0.851700  0.396300  1.0  -0.6045
  O  O173  1  0.315400  0.812200  0.252500  1.0  -0.6663
  O  O174  1  0.945400  0.444000  0.849100  1.0  -0.5755
  O  O175  1  0.908400  0.407700  0.718400  1.0  -0.581
  O  O176  1  0.856800  0.351700  0.896300  1.0  -0.6045
  O  O177  1  0.684600  0.187800  0.252500  1.0  -0.6656
  O  O178  1  0.054600  0.556000  0.849100  1.0  -0.5753
  O  O179  1  0.091600  0.592300  0.718400  1.0  -0.5811
  O  O180  1  0.143200  0.648300  0.896300  1.0  -0.6064
  O  O181  1  0.184600  0.687800  0.752500  1.0  -0.6656
  O  O182  1  0.554600  0.056000  0.349100  1.0  -0.5753
  O  O183  1  0.591600  0.092300  0.218400  1.0  -0.5811
  O  O184  1  0.643200  0.148300  0.396300  1.0  -0.6064
  O  O185  1  0.187800  0.684600  0.247500  1.0  -0.6625
  O  O186  1  0.556000  0.054600  0.650900  1.0  -0.5744
  O  O187  1  0.592300  0.091600  0.781600  1.0  -0.5831
  O  O188  1  0.648300  0.143200  0.603700  1.0  -0.6068
  O  O189  1  0.687800  0.184600  0.747500  1.0  -0.6625
  O  O190  1  0.056000  0.554600  0.150900  1.0  -0.5744
  O  O191  1  0.092300  0.591600  0.281600  1.0  -0.5831
  O  O192  1  0.148300  0.643200  0.103700  1.0  -0.6066
  O  O193  1  0.312200  0.815400  0.747500  1.0  -0.6646
  O  O194  1  0.944000  0.445400  0.150900  1.0  -0.5751
  O  O195  1  0.907700  0.408400  0.281600  1.0  -0.5819
  O  O196  1  0.851700  0.356800  0.103700  1.0  -0.6069
  O  O197  1  0.812200  0.315400  0.247500  1.0  -0.6646
  O  O198  1  0.444000  0.945400  0.650900  1.0  -0.5751
  O  O199  1  0.407700  0.908400  0.781600  1.0  -0.5819
  O  O200  1  0.351700  0.856800  0.603700  1.0  -0.6067
  O  O201  1  0.684600  0.312200  0.497500  1.0  -0.6648
  O  O202  1  0.054600  0.944000  0.900900  1.0  -0.5747
  O  O203  1  0.091600  0.907700  0.031600  1.0  -0.5821
  O  O204  1  0.143200  0.851700  0.853700  1.0  -0.6064
  O  O205  1  0.184600  0.812200  0.997500  1.0  -0.6648
  O  O206  1  0.554600  0.444000  0.400900  1.0  -0.5747
  O  O207  1  0.591600  0.407700  0.531600  1.0  -0.5821
  O  O208  1  0.643200  0.351700  0.353700  1.0  -0.6062
  O  O209  1  0.815400  0.187800  0.997500  1.0  -0.6654
  O  O210  1  0.445400  0.556000  0.400900  1.0  -0.5745
  O  O211  1  0.408400  0.592300  0.531600  1.0  -0.5833
  O  O212  1  0.356800  0.648300  0.353700  1.0  -0.6068
  O  O213  1  0.315400  0.687800  0.497500  1.0  -0.6654
  O  O214  1  0.945400  0.056000  0.900900  1.0  -0.5745
  O  O215  1  0.908400  0.092300  0.031600  1.0  -0.5833
  O  O216  1  0.856800  0.148300  0.853700  1.0  -0.6066
