# generated using pymatgen
data_Ca2Zr(CO2)8
_symmetry_space_group_name_H-M   'P 1'
_cell_length_a   8.41810000
_cell_length_b   15.88850000
_cell_length_c   15.88850000
_cell_angle_alpha   90.00000000
_cell_angle_beta   90.00000000
_cell_angle_gamma   90.00000000
_symmetry_Int_Tables_number   1
_chemical_formula_structural   Ca2Zr(CO2)8
_chemical_formula_sum   'Ca8 Zr4 C32 O64'
_cell_volume   2125.10247512
_cell_formula_units_Z   4
loop_
 _symmetry_equiv_pos_site_id
 _symmetry_equiv_pos_as_xyz
  1  'x, y, z'
loop_
 _atom_site_type_symbol
 _atom_site_label
 _atom_site_symmetry_multiplicity
 _atom_site_fract_x
 _atom_site_fract_y
 _atom_site_fract_z
 _atom_site_occupancy
 _atom_site_charge
  Ca  Ca1  1  0.002200  0.759310  0.380600  1.0  1.5823
  Ca  Ca2  1  0.002600  0.260360  0.381600  1.0  1.5784
  Ca  Ca3  1  0.997800  0.240690  0.880600  1.0  1.5823
  Ca  Ca4  1  0.997400  0.739640  0.881600  1.0  1.5788
  Ca  Ca5  1  0.502200  0.740690  0.380600  1.0  1.5823
  Ca  Ca6  1  0.502600  0.239640  0.381600  1.0  1.5788
  Ca  Ca7  1  0.497800  0.259310  0.880600  1.0  1.5823
  Ca  Ca8  1  0.497400  0.760360  0.881600  1.0  1.5784
  Zr  Zr9  1  0.251300  0.500240  0.631000  1.0  1.9785
  Zr  Zr10  1  0.748700  0.499760  0.131000  1.0  1.9792
  Zr  Zr11  1  0.751300  0.999760  0.631000  1.0  1.9788
  Zr  Zr12  1  0.248700  0.000240  0.131000  1.0  1.979
  C  C13  1  0.052500  0.614500  0.520500  1.0  0.561
  C  C14  1  0.045200  0.383800  0.737700  1.0  0.5797
  C  C15  1  0.457200  0.386500  0.518100  1.0  0.5879
  C  C16  1  0.449800  0.609000  0.745200  1.0  0.5592
  C  C17  1  0.213400  0.367400  0.766000  1.0  0.5756
  C  C18  1  0.228600  0.642400  0.500200  1.0  0.5789
  C  C19  1  0.277700  0.362800  0.501800  1.0  0.5425
  C  C20  1  0.276700  0.630500  0.767500  1.0  0.5625
  C  C21  1  0.947500  0.385500  0.020500  1.0  0.56
  C  C22  1  0.954800  0.616200  0.237700  1.0  0.5807
  C  C23  1  0.542800  0.613500  0.018100  1.0  0.5869
  C  C24  1  0.550200  0.391000  0.245200  1.0  0.5585
  C  C25  1  0.786600  0.632600  0.266000  1.0  0.5749
  C  C26  1  0.771400  0.357600  0.000200  1.0  0.5799
  C  C27  1  0.722300  0.637200  0.001800  1.0  0.542
  C  C28  1  0.723300  0.369500  0.267500  1.0  0.5617
  C  C29  1  0.552500  0.885500  0.520500  1.0  0.561
  C  C30  1  0.545200  0.116200  0.737700  1.0  0.5792
  C  C31  1  0.957200  0.113500  0.518100  1.0  0.5877
  C  C32  1  0.949800  0.891000  0.745200  1.0  0.5593
  C  C33  1  0.713400  0.132600  0.766000  1.0  0.5752
  C  C34  1  0.728600  0.857600  0.500200  1.0  0.5794
  C  C35  1  0.777700  0.137200  0.501800  1.0  0.5426
  C  C36  1  0.776700  0.869500  0.767500  1.0  0.5625
  C  C37  1  0.447500  0.114500  0.020500  1.0  0.5597
  C  C38  1  0.454800  0.883800  0.237700  1.0  0.5811
  C  C39  1  0.042800  0.886500  0.018100  1.0  0.5869
  C  C40  1  0.050200  0.109000  0.245200  1.0  0.5582
  C  C41  1  0.286600  0.867400  0.266000  1.0  0.5752
  C  C42  1  0.271400  0.142400  0.000200  1.0  0.5795
  C  C43  1  0.222300  0.862800  0.001800  1.0  0.5416
  C  C44  1  0.223300  0.130500  0.267500  1.0  0.5616
  O  O45  1  0.255400  0.308200  0.449500  1.0  -0.6769
  O  O46  1  0.252400  0.694500  0.448200  1.0  -0.6078
  O  O47  1  0.249700  0.683400  0.826900  1.0  -0.6988
  O  O48  1  0.246800  0.316700  0.825400  1.0  -0.7729
  O  O49  1  0.179400  0.602000  0.714900  1.0  -0.5494
  O  O50  1  0.468800  0.439600  0.578100  1.0  -0.5479
  O  O51  1  0.177600  0.408200  0.537800  1.0  -0.5728
  O  O52  1  0.936800  0.639900  0.472900  1.0  -0.6074
  O  O53  1  0.559100  0.658100  0.774900  1.0  -0.5978
  O  O54  1  0.563900  0.356600  0.474900  1.0  -0.5753
  O  O55  1  0.322100  0.588200  0.533100  1.0  -0.6034
  O  O56  1  0.036300  0.563000  0.579800  1.0  -0.5562
  O  O57  1  0.937200  0.343800  0.775600  1.0  -0.6069
  O  O58  1  0.320600  0.399500  0.718200  1.0  -0.589
  O  O59  1  0.034100  0.448100  0.694100  1.0  -0.5812
  O  O60  1  0.462200  0.549600  0.696400  1.0  -0.5403
  O  O61  1  0.744600  0.691800  0.949500  1.0  -0.6737
  O  O62  1  0.747600  0.305500  0.948200  1.0  -0.609
  O  O63  1  0.750300  0.316600  0.326900  1.0  -0.6991
  O  O64  1  0.753200  0.683300  0.325400  1.0  -0.774
  O  O65  1  0.820600  0.398000  0.214900  1.0  -0.5497
  O  O66  1  0.531200  0.560400  0.078100  1.0  -0.5484
  O  O67  1  0.822400  0.591800  0.037800  1.0  -0.5724
  O  O68  1  0.063200  0.360100  0.972900  1.0  -0.6052
  O  O69  1  0.440900  0.341900  0.274900  1.0  -0.5989
  O  O70  1  0.436100  0.643400  0.974900  1.0  -0.5745
  O  O71  1  0.677900  0.411800  0.033100  1.0  -0.6038
  O  O72  1  0.963700  0.437000  0.079800  1.0  -0.5553
  O  O73  1  0.062800  0.656200  0.275600  1.0  -0.6107
  O  O74  1  0.679400  0.600500  0.218200  1.0  -0.5889
  O  O75  1  0.965900  0.551900  0.194100  1.0  -0.5821
  O  O76  1  0.537800  0.450400  0.196400  1.0  -0.5405
  O  O77  1  0.755400  0.191800  0.449500  1.0  -0.6769
  O  O78  1  0.752400  0.805500  0.448200  1.0  -0.6073
  O  O79  1  0.749700  0.816600  0.826900  1.0  -0.6988
  O  O80  1  0.746800  0.183300  0.825400  1.0  -0.7723
  O  O81  1  0.679400  0.898000  0.714900  1.0  -0.5492
  O  O82  1  0.968800  0.060400  0.578100  1.0  -0.5482
  O  O83  1  0.677600  0.091800  0.537800  1.0  -0.5733
  O  O84  1  0.436800  0.860100  0.472900  1.0  -0.6071
  O  O85  1  0.059100  0.841900  0.774900  1.0  -0.5978
  O  O86  1  0.063900  0.143400  0.474900  1.0  -0.5754
  O  O87  1  0.822100  0.911800  0.533100  1.0  -0.6033
  O  O88  1  0.536300  0.937000  0.579800  1.0  -0.5564
  O  O89  1  0.437200  0.156200  0.775600  1.0  -0.6068
  O  O90  1  0.820600  0.100500  0.718200  1.0  -0.5892
  O  O91  1  0.534100  0.051900  0.694100  1.0  -0.5829
  O  O92  1  0.962200  0.950400  0.696400  1.0  -0.5398
  O  O93  1  0.244600  0.808200  0.949500  1.0  -0.6745
  O  O94  1  0.247600  0.194500  0.948200  1.0  -0.6099
  O  O95  1  0.250300  0.183400  0.326900  1.0  -0.6989
  O  O96  1  0.253200  0.816700  0.325400  1.0  -0.7753
  O  O97  1  0.320600  0.102000  0.214900  1.0  -0.5498
  O  O98  1  0.031200  0.939600  0.078100  1.0  -0.5479
  O  O99  1  0.322400  0.908200  0.037800  1.0  -0.5721
  O  O100  1  0.563200  0.139900  0.972900  1.0  -0.6049
  O  O101  1  0.940900  0.158100  0.274900  1.0  -0.5984
  O  O102  1  0.936100  0.856600  0.974900  1.0  -0.5741
  O  O103  1  0.177900  0.088200  0.033100  1.0  -0.604
  O  O104  1  0.463700  0.063000  0.079800  1.0  -0.5557
  O  O105  1  0.562800  0.843800  0.275600  1.0  -0.6108
  O  O106  1  0.179400  0.899500  0.218200  1.0  -0.5888
  O  O107  1  0.465900  0.948100  0.194100  1.0  -0.5809
  O  O108  1  0.037800  0.049600  0.196400  1.0  -0.5411
