# generated using pymatgen
data_Zn4H24C51(O7F9)2
_symmetry_space_group_name_H-M   'P 1'
_cell_length_a   7.54200000
_cell_length_b   17.89900000
_cell_length_c   23.65940000
_cell_angle_alpha   92.66070000
_cell_angle_beta   90.00000000
_cell_angle_gamma   90.00000000
_symmetry_Int_Tables_number   1
_chemical_formula_structural   Zn4H24C51(O7F9)2
_chemical_formula_sum   'Zn8 H48 C102 O28 F36'
_cell_volume   3190.43998511
_cell_formula_units_Z   2
loop_
 _symmetry_equiv_pos_site_id
 _symmetry_equiv_pos_as_xyz
  1  'x, y, z'
loop_
 _atom_site_type_symbol
 _atom_site_label
 _atom_site_symmetry_multiplicity
 _atom_site_fract_x
 _atom_site_fract_y
 _atom_site_fract_z
 _atom_site_occupancy
 _atom_site_charge
  Zn  Zn1  1  0.473320  0.420810  0.969590  1.0  1.0975
  Zn  Zn2  1  0.790090  0.490320  0.912680  1.0  1.0254
  Zn  Zn3  1  0.473320  0.079190  0.530410  1.0  1.0993
  Zn  Zn4  1  0.790090  0.009680  0.587320  1.0  1.0249
  Zn  Zn5  1  0.526680  0.579190  0.030410  1.0  1.0988
  Zn  Zn6  1  0.209910  0.509680  0.087320  1.0  1.0251
  Zn  Zn7  1  0.526680  0.920810  0.469590  1.0  1.097
  Zn  Zn8  1  0.209910  0.990320  0.412680  1.0  1.0255
  H  H9  1  0.049800  0.609100  0.785400  1.0  0.0916
  H  H10  1  0.230500  0.677500  0.729500  1.0  0.113
  H  H11  1  0.562400  0.712200  0.860200  1.0  0.1186
  H  H12  1  0.557500  0.996800  0.741400  1.0  0.0979
  H  H13  1  0.426300  0.994100  0.828600  1.0  0.0992
  H  H14  1  0.994900  0.091200  0.767500  1.0  0.1201
  H  H15  1  0.124100  0.091900  0.679800  1.0  0.0976
  H  H16  1  0.228400  0.176000  0.858100  1.0  0.1129
  H  H17  1  0.121500  0.292800  0.882000  1.0  0.1119
  H  H18  1  0.662800  0.201500  0.927900  1.0  0.1058
  H  H19  1  0.774200  0.084800  0.906200  1.0  0.103
  H  H20  1  0.376100  0.645500  0.915600  1.0  0.0893
  H  H21  1  0.049800  0.890900  0.714600  1.0  0.0916
  H  H22  1  0.230500  0.822500  0.770500  1.0  0.1116
  H  H23  1  0.562400  0.787800  0.639800  1.0  0.1181
  H  H24  1  0.557500  0.503200  0.758600  1.0  0.0979
  H  H25  1  0.426300  0.505900  0.671400  1.0  0.0989
  H  H26  1  0.994900  0.408800  0.732500  1.0  0.12
  H  H27  1  0.124100  0.408100  0.820200  1.0  0.0981
  H  H28  1  0.228400  0.324000  0.641900  1.0  0.1124
  H  H29  1  0.121500  0.207200  0.618000  1.0  0.112
  H  H30  1  0.662800  0.298500  0.572100  1.0  0.1059
  H  H31  1  0.774200  0.415200  0.593800  1.0  0.103
  H  H32  1  0.376100  0.854500  0.584400  1.0  0.0894
  H  H33  1  0.950200  0.390900  0.214600  1.0  0.0922
  H  H34  1  0.769500  0.322500  0.270500  1.0  0.1116
  H  H35  1  0.437600  0.287800  0.139800  1.0  0.1187
  H  H36  1  0.442500  0.003200  0.258600  1.0  0.0979
  H  H37  1  0.573700  0.005900  0.171400  1.0  0.0985
  H  H38  1  0.005100  0.908800  0.232500  1.0  0.1196
  H  H39  1  0.875900  0.908100  0.320200  1.0  0.0984
  H  H40  1  0.771600  0.824000  0.141900  1.0  0.1129
  H  H41  1  0.878500  0.707200  0.118000  1.0  0.1117
  H  H42  1  0.337200  0.798500  0.072100  1.0  0.1055
  H  H43  1  0.225800  0.915200  0.093800  1.0  0.1033
  H  H44  1  0.623900  0.354500  0.084400  1.0  0.089
  H  H45  1  0.950200  0.109100  0.285400  1.0  0.0921
  H  H46  1  0.769500  0.177500  0.229500  1.0  0.1126
  H  H47  1  0.437600  0.212200  0.360200  1.0  0.1185
  H  H48  1  0.442500  0.496800  0.241400  1.0  0.098
  H  H49  1  0.573700  0.494100  0.328600  1.0  0.0992
  H  H50  1  0.005100  0.591200  0.267500  1.0  0.1201
  H  H51  1  0.875900  0.591900  0.179800  1.0  0.098
  H  H52  1  0.771600  0.676000  0.358100  1.0  0.1134
  H  H53  1  0.878500  0.792800  0.382000  1.0  0.1121
  H  H54  1  0.337200  0.701500  0.427900  1.0  0.1054
  H  H55  1  0.225800  0.584800  0.406200  1.0  0.1033
  H  H56  1  0.623900  0.145500  0.415600  1.0  0.0893
  C  C57  1  0.802200  0.335200  0.920200  1.0  0.724
  C  C58  1  0.067100  0.580200  0.893500  1.0  0.6439
  C  C59  1  0.190300  0.622000  0.857000  1.0  -0.1465
  C  C60  1  0.151600  0.631000  0.800900  1.0  -0.0093
  C  C61  1  0.260200  0.671700  0.767200  1.0  -0.1399
  C  C62  1  0.413400  0.704200  0.789000  1.0  0.084
  C  C63  1  0.457500  0.692700  0.845100  1.0  -0.1515
  C  C64  1  0.649900  0.806700  0.783000  1.0  0.6885
  C  C65  1  0.441200  0.045000  0.644800  1.0  0.7073
  C  C66  1  0.354500  0.045000  0.700900  1.0  -0.1635
  C  C67  1  0.443600  0.015800  0.746500  1.0  -0.0027
  C  C68  1  0.365500  0.014400  0.798800  1.0  -0.1618
  C  C69  1  0.197100  0.043200  0.807500  1.0  0.0907
  C  C70  1  0.108600  0.071900  0.762300  1.0  -0.1419
  C  C71  1  0.186300  0.072600  0.709800  1.0  -0.0051
  C  C72  1  0.099200  0.041200  0.865000  1.0  -0.3071
  C  C73  1  0.960800  0.977600  0.859000  1.0  0.6891
  C  C74  1  0.223400  0.023700  0.914200  1.0  0.7
  C  C75  1  0.014600  0.117500  0.879700  1.0  0.0911
  C  C76  1  0.114200  0.181000  0.872600  1.0  -0.1491
  C  C77  1  0.050300  0.251000  0.886300  1.0  -0.0352
  C  C78  1  0.877600  0.259400  0.906700  1.0  -0.1484
  C  C79  1  0.777600  0.196600  0.913900  1.0  -0.0216
  C  C80  1  0.844200  0.126600  0.900800  1.0  -0.1545
  C  C81  1  0.345800  0.652400  0.878100  1.0  -0.0101
  C  C82  1  0.802200  0.164800  0.579800  1.0  0.7236
  C  C83  1  0.067100  0.919800  0.606500  1.0  0.6481
  C  C84  1  0.190300  0.878000  0.643000  1.0  -0.1469
  C  C85  1  0.151600  0.869000  0.699100  1.0  -0.0103
  C  C86  1  0.260200  0.828300  0.732800  1.0  -0.1408
  C  C87  1  0.413400  0.795800  0.711000  1.0  0.084
  C  C88  1  0.457500  0.807300  0.654900  1.0  -0.1517
  C  C89  1  0.649900  0.693300  0.717000  1.0  0.6856
  C  C90  1  0.441200  0.455000  0.855200  1.0  0.7068
  C  C91  1  0.354500  0.455000  0.799100  1.0  -0.1644
  C  C92  1  0.443600  0.484200  0.753500  1.0  -0.0025
  C  C93  1  0.365500  0.485600  0.701200  1.0  -0.1617
  C  C94  1  0.197100  0.456800  0.692500  1.0  0.0907
  C  C95  1  0.108600  0.428100  0.737700  1.0  -0.1413
  C  C96  1  0.186300  0.427400  0.790200  1.0  -0.0041
  C  C97  1  0.099200  0.458800  0.635000  1.0  -0.308
  C  C98  1  0.960800  0.522400  0.641000  1.0  0.6891
  C  C99  1  0.223400  0.476300  0.585800  1.0  0.7009
  C  C100  1  0.014600  0.382500  0.620300  1.0  0.0904
  C  C101  1  0.114200  0.319000  0.627400  1.0  -0.1493
  C  C102  1  0.050300  0.249000  0.613700  1.0  -0.0364
  C  C103  1  0.877600  0.240600  0.593300  1.0  -0.148
  C  C104  1  0.777600  0.303400  0.586100  1.0  -0.0207
  C  C105  1  0.844200  0.373400  0.599200  1.0  -0.155
  C  C106  1  0.345800  0.847600  0.621900  1.0  -0.0128
  C  C107  1  0.197800  0.664800  0.079800  1.0  0.7233
  C  C108  1  0.932900  0.419800  0.106500  1.0  0.6489
  C  C109  1  0.809700  0.378000  0.143000  1.0  -0.147
  C  C110  1  0.848400  0.369000  0.199100  1.0  -0.0096
  C  C111  1  0.739800  0.328300  0.232800  1.0  -0.1415
  C  C112  1  0.586600  0.295800  0.211000  1.0  0.0834
  C  C113  1  0.542500  0.307300  0.154900  1.0  -0.1504
  C  C114  1  0.350100  0.193300  0.217000  1.0  0.6883
  C  C115  1  0.558800  0.955000  0.355200  1.0  0.7064
  C  C116  1  0.645500  0.955000  0.299100  1.0  -0.1636
  C  C117  1  0.556400  0.984200  0.253500  1.0  -0.0013
  C  C118  1  0.634500  0.985600  0.201200  1.0  -0.1609
  C  C119  1  0.802900  0.956800  0.192500  1.0  0.0901
  C  C120  1  0.891400  0.928100  0.237700  1.0  -0.143
  C  C121  1  0.813700  0.927400  0.290200  1.0  -0.0052
  C  C122  1  0.900800  0.958800  0.135000  1.0  -0.3079
  C  C123  1  0.039200  0.022400  0.141000  1.0  0.6894
  C  C124  1  0.776600  0.976300  0.085800  1.0  0.7003
  C  C125  1  0.985400  0.882500  0.120300  1.0  0.0905
  C  C126  1  0.885800  0.819000  0.127400  1.0  -0.1486
  C  C127  1  0.949700  0.749000  0.113700  1.0  -0.0362
  C  C128  1  0.122400  0.740600  0.093300  1.0  -0.147
  C  C129  1  0.222400  0.803400  0.086100  1.0  -0.0193
  C  C130  1  0.155800  0.873400  0.099200  1.0  -0.1554
  C  C131  1  0.654200  0.347600  0.121900  1.0  -0.0122
  C  C132  1  0.197800  0.835200  0.420200  1.0  0.7238
  C  C133  1  0.932900  0.080200  0.393500  1.0  0.6476
  C  C134  1  0.809700  0.122000  0.357000  1.0  -0.1465
  C  C135  1  0.848400  0.131000  0.300900  1.0  -0.0091
  C  C136  1  0.739800  0.171700  0.267200  1.0  -0.1404
  C  C137  1  0.586600  0.204200  0.289000  1.0  0.0836
  C  C138  1  0.542500  0.192700  0.345100  1.0  -0.1521
  C  C139  1  0.350100  0.306700  0.283000  1.0  0.6847
  C  C140  1  0.558800  0.545000  0.144800  1.0  0.7076
  C  C141  1  0.645500  0.545000  0.200900  1.0  -0.1637
  C  C142  1  0.556400  0.515800  0.246500  1.0  -0.0028
  C  C143  1  0.634500  0.514400  0.298800  1.0  -0.1606
  C  C144  1  0.802900  0.543200  0.307500  1.0  0.09
  C  C145  1  0.891400  0.571900  0.262300  1.0  -0.143
  C  C146  1  0.813700  0.572600  0.209800  1.0  -0.0048
  C  C147  1  0.900800  0.541200  0.365000  1.0  -0.3072
  C  C148  1  0.039200  0.477600  0.359000  1.0  0.6893
  C  C149  1  0.776600  0.523700  0.414200  1.0  0.6989
  C  C150  1  0.985400  0.617500  0.379700  1.0  0.0912
  C  C151  1  0.885800  0.681000  0.372600  1.0  -0.1495
  C  C152  1  0.949700  0.751000  0.386300  1.0  -0.0358
  C  C153  1  0.122400  0.759400  0.406700  1.0  -0.1479
  C  C154  1  0.222400  0.696600  0.413900  1.0  -0.0195
  C  C155  1  0.155800  0.626600  0.400800  1.0  -0.155
  C  C156  1  0.654200  0.152400  0.378100  1.0  -0.0104
  C  C157  1  0.529000  0.750000  0.750000  1.0  -0.3023
  C  C158  1  0.471000  0.250000  0.250000  1.0  -0.3026
  O  O159  1  0.654900  0.338820  0.943420  1.0  -0.6211
  O  O160  1  0.894900  0.390460  0.907160  1.0  -0.5664
  O  O161  1  0.923600  0.558980  0.870780  1.0  -0.5509
  O  O162  1  0.105000  0.570180  0.943280  1.0  -0.436
  O  O163  1  0.590500  0.015910  0.641010  1.0  -0.6
  O  O164  1  0.359700  0.072520  0.604720  1.0  -0.5796
  O  O165  1  0.673000  0.496350  0.987050  1.0  -0.7678
  O  O166  1  0.654900  0.161180  0.556580  1.0  -0.6217
  O  O167  1  0.894900  0.109540  0.592840  1.0  -0.5671
  O  O168  1  0.923600  0.941020  0.629220  1.0  -0.5489
  O  O169  1  0.105000  0.929820  0.556720  1.0  -0.4323
  O  O170  1  0.590500  0.484090  0.858990  1.0  -0.5998
  O  O171  1  0.359700  0.427480  0.895280  1.0  -0.5793
  O  O172  1  0.673000  0.003650  0.512950  1.0  -0.767
  O  O173  1  0.345100  0.661180  0.056580  1.0  -0.6227
  O  O174  1  0.105100  0.609540  0.092840  1.0  -0.5676
  O  O175  1  0.076400  0.441020  0.129220  1.0  -0.5485
  O  O176  1  0.895000  0.429820  0.056720  1.0  -0.4325
  O  O177  1  0.409500  0.984090  0.358990  1.0  -0.6005
  O  O178  1  0.640300  0.927480  0.395280  1.0  -0.5794
  O  O179  1  0.327000  0.503650  0.012950  1.0  -0.7666
  O  O180  1  0.345100  0.838820  0.443420  1.0  -0.622
  O  O181  1  0.105100  0.890460  0.407160  1.0  -0.5667
  O  O182  1  0.076400  0.058980  0.370780  1.0  -0.5493
  O  O183  1  0.895000  0.070180  0.443280  1.0  -0.436
  O  O184  1  0.409500  0.515910  0.141010  1.0  -0.6005
  O  O185  1  0.640300  0.572520  0.104720  1.0  -0.5798
  O  O186  1  0.327000  0.996350  0.487050  1.0  -0.7671
  F  F187  1  0.557700  0.846850  0.821150  1.0  -0.1955
  F  F188  1  0.781900  0.774630  0.810530  1.0  -0.2071
  F  F189  1  0.723700  0.854400  0.749300  1.0  -0.1895
  F  F190  1  0.830100  0.994670  0.824170  1.0  -0.1827
  F  F191  1  0.034500  0.914780  0.837880  1.0  -0.1959
  F  F192  1  0.887000  0.961190  0.907890  1.0  -0.2023
  F  F193  1  0.364400  0.068290  0.916690  1.0  -0.1944
  F  F194  1  0.284500  0.953530  0.911730  1.0  -0.2083
  F  F195  1  0.142900  0.033140  0.963840  1.0  -0.2055
  F  F196  1  0.557700  0.653150  0.678850  1.0  -0.1955
  F  F197  1  0.781900  0.725370  0.689470  1.0  -0.2076
  F  F198  1  0.723700  0.645600  0.750700  1.0  -0.1903
  F  F199  1  0.830100  0.505330  0.675830  1.0  -0.1826
  F  F200  1  0.034500  0.585220  0.662120  1.0  -0.1965
  F  F201  1  0.887000  0.538810  0.592110  1.0  -0.2017
  F  F202  1  0.364400  0.431710  0.583310  1.0  -0.1943
  F  F203  1  0.284500  0.546470  0.588270  1.0  -0.2088
  F  F204  1  0.142900  0.466860  0.536160  1.0  -0.2055
  F  F205  1  0.442300  0.153150  0.178850  1.0  -0.1953
  F  F206  1  0.218100  0.225370  0.189470  1.0  -0.2064
  F  F207  1  0.276300  0.145600  0.250700  1.0  -0.1904
  F  F208  1  0.169900  0.005330  0.175830  1.0  -0.1836
  F  F209  1  0.965500  0.085220  0.162120  1.0  -0.1964
  F  F210  1  0.113000  0.038810  0.092110  1.0  -0.2017
  F  F211  1  0.635600  0.931710  0.083310  1.0  -0.1943
  F  F212  1  0.715500  0.046470  0.088270  1.0  -0.2084
  F  F213  1  0.857100  0.966860  0.036160  1.0  -0.206
  F  F214  1  0.442300  0.346850  0.321150  1.0  -0.1955
  F  F215  1  0.218100  0.274630  0.310530  1.0  -0.2068
  F  F216  1  0.276300  0.354400  0.249300  1.0  -0.1901
  F  F217  1  0.169900  0.494670  0.324170  1.0  -0.1838
  F  F218  1  0.965500  0.414780  0.337880  1.0  -0.196
  F  F219  1  0.113000  0.461190  0.407890  1.0  -0.202
  F  F220  1  0.635600  0.568290  0.416690  1.0  -0.1938
  F  F221  1  0.715500  0.453530  0.411730  1.0  -0.2083
  F  F222  1  0.857100  0.533140  0.463840  1.0  -0.2058
