# generated using pymatgen
data_Cu2H3(C4O3)2
_symmetry_space_group_name_H-M   'P 1'
_cell_length_a   7.40540000
_cell_length_b   18.81100000
_cell_length_c   12.00600000
_cell_angle_alpha   90.00000000
_cell_angle_beta   97.06000000
_cell_angle_gamma   90.00000000
_symmetry_Int_Tables_number   1
_chemical_formula_structural   Cu2H3(C4O3)2
_chemical_formula_sum   'Cu8 H12 C32 O24'
_cell_volume   1659.79086808
_cell_formula_units_Z   4
loop_
 _symmetry_equiv_pos_site_id
 _symmetry_equiv_pos_as_xyz
  1  'x, y, z'
loop_
 _atom_site_type_symbol
 _atom_site_label
 _atom_site_symmetry_multiplicity
 _atom_site_fract_x
 _atom_site_fract_y
 _atom_site_fract_z
 _atom_site_occupancy
 _atom_site_charge
  Cu  Cu1  1  0.937610  0.075520  0.493780  1.0  1.0369
  Cu  Cu2  1  0.317400  0.059010  0.431500  1.0  0.9201
  Cu  Cu3  1  0.562390  0.575520  0.006220  1.0  1.0352
  Cu  Cu4  1  0.182600  0.559010  0.068500  1.0  0.9193
  Cu  Cu5  1  0.062390  0.924480  0.506220  1.0  1.0347
  Cu  Cu6  1  0.682600  0.940990  0.568500  1.0  0.9199
  Cu  Cu7  1  0.437610  0.424480  0.993780  1.0  1.0367
  Cu  Cu8  1  0.817400  0.440990  0.931500  1.0  0.9201
  H  H9  1  0.702000  0.231500  0.294300  1.0  0.1408
  H  H10  1  0.585300  0.323000  0.186100  1.0  0.1316
  H  H11  1  0.191800  0.266000  0.198000  1.0  0.1318
  H  H12  1  0.798000  0.731500  0.205700  1.0  0.1408
  H  H13  1  0.914700  0.823000  0.313900  1.0  0.1304
  H  H14  1  0.308200  0.766000  0.302000  1.0  0.1325
  H  H15  1  0.298000  0.768500  0.705700  1.0  0.1413
  H  H16  1  0.414700  0.677000  0.813900  1.0  0.1305
  H  H17  1  0.808200  0.734000  0.802000  1.0  0.132
  H  H18  1  0.202000  0.268500  0.794300  1.0  0.1408
  H  H19  1  0.085300  0.177000  0.686100  1.0  0.1319
  H  H20  1  0.691800  0.234000  0.698000  1.0  0.132
  C  C21  1  0.031400  0.176400  0.326100  1.0  0.745
  C  C22  1  0.959700  0.238900  0.256900  1.0  -0.1408
  C  C23  1  0.777300  0.257200  0.252600  1.0  -0.0477
  C  C24  1  0.708200  0.312200  0.188200  1.0  -0.1356
  C  C25  1  0.816400  0.353700  0.124000  1.0  0.3611
  C  C26  1  0.000000  0.335400  0.126900  1.0  -0.1187
  C  C27  1  0.069300  0.277800  0.195000  1.0  0.0452
  C  C28  1  0.124300  0.374800  0.061400  1.0  0.7187
  C  C29  1  0.468600  0.676400  0.173900  1.0  0.744
  C  C30  1  0.540300  0.738900  0.243100  1.0  -0.1408
  C  C31  1  0.722700  0.757200  0.247400  1.0  -0.0481
  C  C32  1  0.791800  0.812200  0.311800  1.0  -0.1433
  C  C33  1  0.683600  0.853700  0.376000  1.0  0.357
  C  C34  1  0.500000  0.835400  0.373100  1.0  -0.1226
  C  C35  1  0.430700  0.777800  0.305000  1.0  0.0453
  C  C36  1  0.375700  0.874800  0.438600  1.0  0.7196
  C  C37  1  0.968600  0.823600  0.673900  1.0  0.7445
  C  C38  1  0.040300  0.761100  0.743100  1.0  -0.1402
  C  C39  1  0.222700  0.742800  0.747400  1.0  -0.0482
  C  C40  1  0.291800  0.687800  0.811800  1.0  -0.137
  C  C41  1  0.183600  0.646300  0.876000  1.0  0.359
  C  C42  1  0.000000  0.664600  0.873100  1.0  -0.1193
  C  C43  1  0.930700  0.722200  0.805000  1.0  0.0451
  C  C44  1  0.875700  0.625200  0.938600  1.0  0.7196
  C  C45  1  0.531400  0.323600  0.826100  1.0  0.7452
  C  C46  1  0.459700  0.261100  0.756900  1.0  -0.1407
  C  C47  1  0.277300  0.242800  0.752600  1.0  -0.0485
  C  C48  1  0.208200  0.187800  0.688200  1.0  -0.1428
  C  C49  1  0.316400  0.146300  0.624000  1.0  0.3569
  C  C50  1  0.500000  0.164600  0.626900  1.0  -0.1224
  C  C51  1  0.569300  0.222200  0.695000  1.0  0.0449
  C  C52  1  0.624300  0.125200  0.561400  1.0  0.7185
  O  O53  1  0.911100  0.145500  0.376900  1.0  -0.5794
  O  O54  1  0.195100  0.158940  0.331000  1.0  -0.6133
  O  O55  1  0.294900  0.366570  0.087700  1.0  -0.5513
  O  O56  1  0.066500  0.416760  0.981700  1.0  -0.6028
  O  O57  1  0.919700  0.991600  0.589800  1.0  -0.8102
  O  O58  1  0.736900  0.407380  0.066700  1.0  -0.6178
  O  O59  1  0.588900  0.645500  0.123100  1.0  -0.5819
  O  O60  1  0.304900  0.658940  0.169000  1.0  -0.6121
  O  O61  1  0.205100  0.866570  0.412300  1.0  -0.5511
  O  O62  1  0.433500  0.916760  0.518300  1.0  -0.6037
  O  O63  1  0.580300  0.491600  0.910200  1.0  -0.813
  O  O64  1  0.763100  0.907380  0.433300  1.0  -0.6195
  O  O65  1  0.088900  0.854500  0.623100  1.0  -0.5801
  O  O66  1  0.804900  0.841060  0.669000  1.0  -0.6137
  O  O67  1  0.705100  0.633430  0.912300  1.0  -0.5509
  O  O68  1  0.933500  0.583240  0.018300  1.0  -0.6035
  O  O69  1  0.080300  0.008400  0.410200  1.0  -0.8131
  O  O70  1  0.263100  0.592620  0.933300  1.0  -0.6176
  O  O71  1  0.411100  0.354500  0.876900  1.0  -0.5822
  O  O72  1  0.695100  0.341060  0.831000  1.0  -0.6148
  O  O73  1  0.794900  0.133430  0.587700  1.0  -0.5513
  O  O74  1  0.566500  0.083240  0.481700  1.0  -0.6031
  O  O75  1  0.419700  0.508400  0.089800  1.0  -0.8095
  O  O76  1  0.236900  0.092620  0.566700  1.0  -0.6166
