# generated using pymatgen
data_Cu4H24WC30S4(IN3)2
_symmetry_space_group_name_H-M   'P 1'
_cell_length_a   22.47790000
_cell_length_b   22.47790000
_cell_length_c   22.47790000
_cell_angle_alpha   66.89980000
_cell_angle_beta   77.56570000
_cell_angle_gamma   113.10000000
_symmetry_Int_Tables_number   1
_chemical_formula_structural   Cu4H24WC30S4(IN3)2
_chemical_formula_sum   'Cu32 H192 W8 C240 S32 I16 N48'
_cell_volume   8645.49899153
_cell_formula_units_Z   8
loop_
 _symmetry_equiv_pos_site_id
 _symmetry_equiv_pos_as_xyz
  1  'x, y, z'
loop_
 _atom_site_type_symbol
 _atom_site_label
 _atom_site_symmetry_multiplicity
 _atom_site_fract_x
 _atom_site_fract_y
 _atom_site_fract_z
 _atom_site_occupancy
 _atom_site_charge
  Cu  Cu1  1  0.691000  0.402950  0.549110  1.0  0.2627
  Cu  Cu2  1  0.547940  0.097050  0.711950  1.0  0.2626
  Cu  Cu3  1  0.288050  0.740110  0.309000  1.0  0.2606
  Cu  Cu4  1  0.450890  0.759890  0.452060  1.0  0.2618
  Cu  Cu5  1  0.309000  0.597050  0.450890  1.0  0.2598
  Cu  Cu6  1  0.452060  0.902950  0.288050  1.0  0.2628
  Cu  Cu7  1  0.711950  0.259890  0.691000  1.0  0.2612
  Cu  Cu8  1  0.549110  0.240110  0.547940  1.0  0.2605
  Cu  Cu9  1  0.952060  0.740110  0.950890  1.0  0.2609
  Cu  Cu10  1  0.809000  0.759890  0.788050  1.0  0.2606
  Cu  Cu11  1  0.049110  0.097050  0.191000  1.0  0.2633
  Cu  Cu12  1  0.211950  0.402950  0.047940  1.0  0.2598
  Cu  Cu13  1  0.047940  0.259890  0.049110  1.0  0.2611
  Cu  Cu14  1  0.191000  0.240110  0.211950  1.0  0.2614
  Cu  Cu15  1  0.950890  0.902950  0.809000  1.0  0.2624
  Cu  Cu16  1  0.788050  0.597050  0.952060  1.0  0.2627
  Cu  Cu17  1  0.701210  0.750000  0.201210  1.0  0.3578
  Cu  Cu18  1  0.548790  0.750000  0.048790  1.0  0.3582
  Cu  Cu19  1  0.951210  0.402420  0.298790  1.0  0.3566
  Cu  Cu20  1  0.798790  0.097580  0.451210  1.0  0.3579
  Cu  Cu21  1  0.700950  0.901900  0.049050  1.0  0.3648
  Cu  Cu22  1  0.549050  0.598100  0.200950  1.0  0.3655
  Cu  Cu23  1  0.799050  0.250000  0.299050  1.0  0.3659
  Cu  Cu24  1  0.950950  0.250000  0.450950  1.0  0.3658
  Cu  Cu25  1  0.298790  0.250000  0.798790  1.0  0.3582
  Cu  Cu26  1  0.451210  0.250000  0.951210  1.0  0.3578
  Cu  Cu27  1  0.048790  0.597580  0.701210  1.0  0.3579
  Cu  Cu28  1  0.201210  0.902420  0.548790  1.0  0.3566
  Cu  Cu29  1  0.299050  0.098100  0.950950  1.0  0.3655
  Cu  Cu30  1  0.450950  0.401900  0.799050  1.0  0.3648
  Cu  Cu31  1  0.200950  0.750000  0.700950  1.0  0.3658
  Cu  Cu32  1  0.049050  0.750000  0.549050  1.0  0.3659
  H  H33  1  0.691700  0.543700  0.485200  1.0  0.0712
  H  H34  1  0.624300  0.592800  0.442300  1.0  0.1201
  H  H35  1  0.452700  0.384000  0.597300  1.0  0.1018
  H  H36  1  0.533800  0.347700  0.616700  1.0  0.0686
  H  H37  1  0.471100  0.956300  0.852000  1.0  0.0718
  H  H38  1  0.464900  0.907200  0.968500  1.0  0.1189
  H  H39  1  0.518700  0.116000  0.931300  1.0  0.101
  H  H40  1  0.535600  0.152300  0.813900  1.0  0.0682
  H  H41  1  0.148000  0.676900  0.308300  1.0  0.072
  H  H42  1  0.031500  0.566600  0.375700  1.0  0.1205
  H  H43  1  0.068700  0.550000  0.547300  1.0  0.1021
  H  H44  1  0.186100  0.650500  0.466200  1.0  0.0688
  H  H45  1  0.514800  0.823100  0.528900  1.0  0.0706
  H  H46  1  0.557700  0.933400  0.535100  1.0  0.1215
  H  H47  1  0.402700  0.950000  0.481300  1.0  0.1013
  H  H48  1  0.383300  0.849500  0.464400  1.0  0.0684
  H  H49  1  0.308300  0.456300  0.514800  1.0  0.0703
  H  H50  1  0.375700  0.407200  0.557700  1.0  0.1214
  H  H51  1  0.547300  0.616000  0.402700  1.0  0.1021
  H  H52  1  0.466200  0.652300  0.383300  1.0  0.0681
  H  H53  1  0.528900  0.043700  0.148000  1.0  0.0718
  H  H54  1  0.535100  0.092800  0.031500  1.0  0.1197
  H  H55  1  0.481300  0.884000  0.068700  1.0  0.1014
  H  H56  1  0.464400  0.847700  0.186100  1.0  0.0688
  H  H57  1  0.852000  0.323100  0.691700  1.0  0.0709
  H  H58  1  0.968500  0.433400  0.624300  1.0  0.122
  H  H59  1  0.931300  0.450000  0.452700  1.0  0.1018
  H  H60  1  0.813900  0.349500  0.533800  1.0  0.0692
  H  H61  1  0.485200  0.176900  0.471100  1.0  0.0709
  H  H62  1  0.442300  0.066600  0.464900  1.0  0.1219
  H  H63  1  0.597300  0.050000  0.518700  1.0  0.1021
  H  H64  1  0.616700  0.150500  0.535600  1.0  0.068
  H  H65  1  0.028900  0.676900  0.014800  1.0  0.0712
  H  H66  1  0.035100  0.566600  0.057700  1.0  0.1205
  H  H67  1  0.981300  0.550000  0.902700  1.0  0.1018
  H  H68  1  0.964400  0.650500  0.883300  1.0  0.0692
  H  H69  1  0.808300  0.823100  0.648000  1.0  0.0698
  H  H70  1  0.875700  0.933400  0.531500  1.0  0.1207
  H  H71  1  0.047300  0.950000  0.568700  1.0  0.1016
  H  H72  1  0.966200  0.849500  0.686100  1.0  0.0686
  H  H73  1  0.985200  0.956300  0.191700  1.0  0.0715
  H  H74  1  0.942300  0.907200  0.124300  1.0  0.119
  H  H75  1  0.097300  0.116000  0.952700  1.0  0.1013
  H  H76  1  0.116700  0.152300  0.033800  1.0  0.0682
  H  H77  1  0.352000  0.543700  0.971100  1.0  0.0716
  H  H78  1  0.468500  0.592800  0.964900  1.0  0.1201
  H  H79  1  0.431300  0.384000  0.018700  1.0  0.1023
  H  H80  1  0.313900  0.347700  0.035600  1.0  0.0687
  H  H81  1  0.971100  0.323100  0.985200  1.0  0.0716
  H  H82  1  0.964900  0.433400  0.942300  1.0  0.1215
  H  H83  1  0.018700  0.450000  0.097300  1.0  0.1017
  H  H84  1  0.035600  0.349500  0.116700  1.0  0.0693
  H  H85  1  0.191700  0.176900  0.352000  1.0  0.0707
  H  H86  1  0.124300  0.066600  0.468500  1.0  0.1222
  H  H87  1  0.952700  0.050000  0.431300  1.0  0.1012
  H  H88  1  0.033800  0.150500  0.313900  1.0  0.0682
  H  H89  1  0.014800  0.043700  0.808300  1.0  0.0722
  H  H90  1  0.057700  0.092800  0.875700  1.0  0.1201
  H  H91  1  0.902700  0.884000  0.047300  1.0  0.1015
  H  H92  1  0.883300  0.847700  0.966200  1.0  0.0688
  H  H93  1  0.648000  0.456300  0.028900  1.0  0.0709
  H  H94  1  0.531500  0.407200  0.035100  1.0  0.1216
  H  H95  1  0.568700  0.616000  0.981300  1.0  0.1017
  H  H96  1  0.686100  0.652300  0.964400  1.0  0.068
  H  H97  1  0.814800  0.827400  0.238800  1.0  0.0745
  H  H98  1  0.839000  0.898700  0.289900  1.0  0.0937
  H  H99  1  0.642600  0.868000  0.332000  1.0  0.1215
  H  H100  1  0.623500  0.793800  0.283100  1.0  0.0705
  H  H101  1  0.619900  0.936800  0.137900  1.0  0.0676
  H  H102  1  0.638900  0.009400  0.190700  1.0  0.1116
  H  H103  1  0.843800  0.071300  0.118500  1.0  0.0871
  H  H104  1  0.820900  0.998500  0.067600  1.0  0.097
  H  H105  1  0.433800  0.672600  0.012600  1.0  0.0744
  H  H106  1  0.311400  0.601300  0.059700  1.0  0.0931
  H  H107  1  0.300000  0.632000  0.225400  1.0  0.1189
  H  H108  1  0.423100  0.706200  0.170300  1.0  0.0721
  H  H109  1  0.425300  0.563200  0.316900  1.0  0.0673
  H  H110  1  0.299900  0.490600  0.370500  1.0  0.112
  H  H111  1  0.310200  0.428700  0.227500  1.0  0.0841
  H  H112  1  0.433900  0.501500  0.177600  1.0  0.0966
  H  H113  1  0.987400  0.553600  0.185200  1.0  0.0733
  H  H114  1  0.940300  0.628900  0.161000  1.0  0.0917
  H  H115  1  0.774600  0.474600  0.357400  1.0  0.1192
  H  H116  1  0.829700  0.406600  0.376500  1.0  0.0713
  H  H117  1  0.683100  0.257800  0.380100  1.0  0.0673
  H  H118  1  0.629500  0.329600  0.361100  1.0  0.1099
  H  H119  1  0.772500  0.462300  0.156200  1.0  0.0852
  H  H120  1  0.822400  0.388500  0.179100  1.0  0.0964
  H  H121  1  0.761200  0.946400  0.566200  1.0  0.0731
  H  H122  1  0.710100  0.871100  0.688600  1.0  0.0933
  H  H123  1  0.668000  0.025400  0.700000  1.0  0.119
  H  H124  1  0.716900  0.093400  0.576900  1.0  0.071
  H  H125  1  0.862100  0.242200  0.574700  1.0  0.068
  H  H126  1  0.809300  0.170400  0.700100  1.0  0.1104
  H  H127  1  0.881500  0.037700  0.689800  1.0  0.0851
  H  H128  1  0.932400  0.111500  0.566100  1.0  0.0977
  H  H129  1  0.066200  0.553600  0.261200  1.0  0.073
  H  H130  1  0.188600  0.628900  0.210100  1.0  0.0916
  H  H131  1  0.200000  0.474600  0.168000  1.0  0.1199
  H  H132  1  0.076900  0.406600  0.216900  1.0  0.0716
  H  H133  1  0.074700  0.257800  0.362100  1.0  0.0674
  H  H134  1  0.200100  0.329600  0.309300  1.0  0.1101
  H  H135  1  0.189800  0.462300  0.381500  1.0  0.0846
  H  H136  1  0.066100  0.388500  0.432400  1.0  0.097
  H  H137  1  0.685200  0.946400  0.487400  1.0  0.0733
  H  H138  1  0.661000  0.871100  0.440300  1.0  0.0923
  H  H139  1  0.857400  0.025400  0.274600  1.0  0.1193
  H  H140  1  0.876500  0.093400  0.329700  1.0  0.071
  H  H141  1  0.880100  0.242200  0.183100  1.0  0.0681
  H  H142  1  0.861100  0.170400  0.129500  1.0  0.1104
  H  H143  1  0.656200  0.037700  0.272500  1.0  0.0842
  H  H144  1  0.679100  0.111500  0.322400  1.0  0.0973
  H  H145  1  0.738800  0.672600  0.314800  1.0  0.074
  H  H146  1  0.789900  0.601300  0.339000  1.0  0.0925
  H  H147  1  0.832000  0.632000  0.142600  1.0  0.119
  H  H148  1  0.783100  0.706200  0.123500  1.0  0.072
  H  H149  1  0.637900  0.563200  0.119900  1.0  0.0675
  H  H150  1  0.690700  0.490600  0.138900  1.0  0.1117
  H  H151  1  0.618500  0.428700  0.343800  1.0  0.0845
  H  H152  1  0.567600  0.501500  0.320900  1.0  0.096
  H  H153  1  0.512600  0.827400  0.933800  1.0  0.0746
  H  H154  1  0.559700  0.898700  0.811400  1.0  0.0928
  H  H155  1  0.725400  0.868000  0.800000  1.0  0.1218
  H  H156  1  0.670300  0.793800  0.923100  1.0  0.0708
  H  H157  1  0.816900  0.936800  0.925300  1.0  0.0675
  H  H158  1  0.870500  0.009400  0.799900  1.0  0.1122
  H  H159  1  0.727500  0.071300  0.810200  1.0  0.0859
  H  H160  1  0.677600  0.998500  0.933900  1.0  0.0974
  H  H161  1  0.185200  0.172600  0.761200  1.0  0.0745
  H  H162  1  0.161000  0.101300  0.710100  1.0  0.0929
  H  H163  1  0.357400  0.132000  0.668000  1.0  0.122
  H  H164  1  0.376500  0.206200  0.716900  1.0  0.0705
  H  H165  1  0.380100  0.063200  0.862100  1.0  0.0672
  H  H166  1  0.361100  0.990600  0.809300  1.0  0.1122
  H  H167  1  0.156200  0.928700  0.881500  1.0  0.0857
  H  H168  1  0.179100  0.001500  0.932400  1.0  0.0976
  H  H169  1  0.566200  0.327400  0.987400  1.0  0.0739
  H  H170  1  0.688600  0.398700  0.940300  1.0  0.0929
  H  H171  1  0.700000  0.368000  0.774600  1.0  0.1192
  H  H172  1  0.576900  0.293800  0.829700  1.0  0.0726
  H  H173  1  0.574700  0.436800  0.683100  1.0  0.0676
  H  H174  1  0.700100  0.509400  0.629500  1.0  0.112
  H  H175  1  0.689800  0.571300  0.772500  1.0  0.0845
  H  H176  1  0.566100  0.498500  0.822400  1.0  0.0959
  H  H177  1  0.012600  0.446400  0.814800  1.0  0.0732
  H  H178  1  0.059700  0.371100  0.839000  1.0  0.092
  H  H179  1  0.225400  0.525400  0.642600  1.0  0.1201
  H  H180  1  0.170300  0.593400  0.623500  1.0  0.071
  H  H181  1  0.316900  0.742200  0.619900  1.0  0.0676
  H  H182  1  0.370500  0.670400  0.638900  1.0  0.1104
  H  H183  1  0.227500  0.537700  0.843800  1.0  0.0853
  H  H184  1  0.177600  0.611500  0.820900  1.0  0.097
  H  H185  1  0.238800  0.053600  0.433800  1.0  0.0735
  H  H186  1  0.289900  0.128900  0.311400  1.0  0.0923
  H  H187  1  0.332000  0.974600  0.300000  1.0  0.1194
  H  H188  1  0.283100  0.906600  0.423100  1.0  0.0715
  H  H189  1  0.137900  0.757800  0.425300  1.0  0.0683
  H  H190  1  0.190700  0.829600  0.299900  1.0  0.1101
  H  H191  1  0.118500  0.962300  0.310200  1.0  0.0845
  H  H192  1  0.067600  0.888500  0.433900  1.0  0.0973
  H  H193  1  0.933800  0.446400  0.738800  1.0  0.073
  H  H194  1  0.811400  0.371100  0.789900  1.0  0.0919
  H  H195  1  0.800000  0.525400  0.832000  1.0  0.119
  H  H196  1  0.923100  0.593400  0.783100  1.0  0.0708
  H  H197  1  0.925300  0.742200  0.637900  1.0  0.067
  H  H198  1  0.799900  0.670400  0.690700  1.0  0.1099
  H  H199  1  0.810200  0.537700  0.618500  1.0  0.085
  H  H200  1  0.933900  0.611500  0.567600  1.0  0.0962
  H  H201  1  0.314800  0.053600  0.512600  1.0  0.0733
  H  H202  1  0.339000  0.128900  0.559700  1.0  0.0926
  H  H203  1  0.142600  0.974600  0.725400  1.0  0.119
  H  H204  1  0.123500  0.906600  0.670300  1.0  0.0714
  H  H205  1  0.119900  0.757800  0.816900  1.0  0.0677
  H  H206  1  0.138900  0.829600  0.870500  1.0  0.1103
  H  H207  1  0.343800  0.962300  0.727500  1.0  0.085
  H  H208  1  0.320900  0.888500  0.677600  1.0  0.0977
  H  H209  1  0.261200  0.327400  0.685200  1.0  0.0745
  H  H210  1  0.210100  0.398700  0.661000  1.0  0.0928
  H  H211  1  0.168000  0.368000  0.857400  1.0  0.119
  H  H212  1  0.216900  0.293800  0.876500  1.0  0.0722
  H  H213  1  0.362100  0.436800  0.880100  1.0  0.0675
  H  H214  1  0.309300  0.509400  0.861100  1.0  0.1121
  H  H215  1  0.381500  0.571300  0.656200  1.0  0.0841
  H  H216  1  0.432400  0.498500  0.679100  1.0  0.0962
  H  H217  1  0.487400  0.172600  0.066200  1.0  0.0747
  H  H218  1  0.440300  0.101300  0.188600  1.0  0.0933
  H  H219  1  0.274600  0.132000  0.200000  1.0  0.121
  H  H220  1  0.329700  0.206200  0.076900  1.0  0.0705
  H  H221  1  0.183100  0.063200  0.074700  1.0  0.0676
  H  H222  1  0.129500  0.990600  0.200100  1.0  0.1115
  H  H223  1  0.272500  0.928700  0.189800  1.0  0.0865
  H  H224  1  0.322400  0.001500  0.066100  1.0  0.0974
  W  W225  1  0.625000  0.250000  0.625000  1.0  0.4977
  W  W226  1  0.375000  0.750000  0.375000  1.0  0.4979
  W  W227  1  0.875000  0.750000  0.875000  1.0  0.4977
  W  W228  1  0.125000  0.250000  0.125000  1.0  0.4978
  W  W229  1  0.625000  0.750000  0.125000  1.0  0.5628
  W  W230  1  0.875000  0.250000  0.375000  1.0  0.5628
  W  W231  1  0.375000  0.250000  0.875000  1.0  0.5628
  W  W232  1  0.125000  0.750000  0.625000  1.0  0.5628
  C  C233  1  0.643600  0.509600  0.499600  1.0  0.1713
  C  C234  1  0.602200  0.541100  0.476300  1.0  -0.1477
  C  C235  1  0.523100  0.488300  0.508200  1.0  -0.0394
  C  C236  1  0.501300  0.417900  0.565800  1.0  -0.1768
  C  C237  1  0.551500  0.395900  0.578000  1.0  0.1625
  C  C238  1  0.490800  0.990400  0.866000  1.0  0.1716
  C  C239  1  0.482600  0.958900  0.938900  1.0  -0.145
  C  C240  1  0.503500  0.011700  0.965200  1.0  -0.0394
  C  C241  1  0.516300  0.082100  0.916600  1.0  -0.1763
  C  C242  1  0.526100  0.104100  0.844400  1.0  0.1631
  C  C243  1  0.134000  0.643200  0.356400  1.0  0.1718
  C  C244  1  0.061100  0.578500  0.397800  1.0  -0.1454
  C  C245  1  0.034800  0.531300  0.476900  1.0  -0.0398
  C  C246  1  0.083400  0.567100  0.498700  1.0  -0.1743
  C  C247  1  0.155600  0.629500  0.448500  1.0  0.1642
  C  C248  1  0.500400  0.856800  0.509200  1.0  0.1708
  C  C249  1  0.523700  0.921500  0.517400  1.0  -0.1436
  C  C250  1  0.491800  0.968700  0.496500  1.0  -0.039
  C  C251  1  0.434200  0.932900  0.483700  1.0  -0.1796
  C  C252  1  0.422000  0.870500  0.473900  1.0  0.1647
  C  C253  1  0.356400  0.490400  0.500400  1.0  0.1712
  C  C254  1  0.397800  0.458900  0.523700  1.0  -0.1437
  C  C255  1  0.476900  0.511700  0.491800  1.0  -0.0392
  C  C256  1  0.498700  0.582100  0.434200  1.0  -0.1733
  C  C257  1  0.448500  0.604100  0.422000  1.0  0.1633
  C  C258  1  0.509200  0.009600  0.134000  1.0  0.1721
  C  C259  1  0.517400  0.041100  0.061100  1.0  -0.1494
  C  C260  1  0.496500  0.988300  0.034800  1.0  -0.0393
  C  C261  1  0.483700  0.917900  0.083400  1.0  -0.1717
  C  C262  1  0.473900  0.895900  0.155600  1.0  0.1623
  C  C263  1  0.866000  0.356800  0.643600  1.0  0.1724
  C  C264  1  0.938900  0.421500  0.602200  1.0  -0.1466
  C  C265  1  0.965200  0.468700  0.523100  1.0  -0.0391
  C  C266  1  0.916600  0.432900  0.501300  1.0  -0.1717
  C  C267  1  0.844400  0.370500  0.551500  1.0  0.1628
  C  C268  1  0.499600  0.143200  0.490800  1.0  0.1701
  C  C269  1  0.476300  0.078500  0.482600  1.0  -0.1441
  C  C270  1  0.508200  0.031300  0.503500  1.0  -0.0393
  C  C271  1  0.565800  0.067100  0.516300  1.0  -0.1772
  C  C272  1  0.578000  0.129500  0.526100  1.0  0.1652
  C  C273  1  0.009200  0.643200  0.000400  1.0  0.1723
  C  C274  1  0.017400  0.578500  0.023700  1.0  -0.1465
  C  C275  1  0.996500  0.531300  0.991800  1.0  -0.0395
  C  C276  1  0.983700  0.567100  0.934200  1.0  -0.175
  C  C277  1  0.973900  0.629500  0.922000  1.0  0.1635
  C  C278  1  0.856400  0.856800  0.634000  1.0  0.1704
  C  C279  1  0.897800  0.921500  0.561100  1.0  -0.1437
  C  C280  1  0.976900  0.968700  0.534800  1.0  -0.0386
  C  C281  1  0.998700  0.932900  0.583400  1.0  -0.1807
  C  C282  1  0.948500  0.870500  0.655600  1.0  0.1647
  C  C283  1  0.999600  0.990400  0.143600  1.0  0.1729
  C  C284  1  0.976300  0.958900  0.102200  1.0  -0.1461
  C  C285  1  0.008200  0.011700  0.023100  1.0  -0.0393
  C  C286  1  0.065800  0.082100  0.001300  1.0  -0.1753
  C  C287  1  0.078000  0.104100  0.051500  1.0  0.1636
  C  C288  1  0.366000  0.509600  0.990800  1.0  0.1708
  C  C289  1  0.438900  0.541100  0.982600  1.0  -0.1473
  C  C290  1  0.465200  0.488300  0.003500  1.0  -0.0393
  C  C291  1  0.416600  0.417900  0.016300  1.0  -0.177
  C  C292  1  0.344400  0.395900  0.026100  1.0  0.162
  C  C293  1  0.990800  0.356800  0.999600  1.0  0.1716
  C  C294  1  0.982600  0.421500  0.976300  1.0  -0.1454
  C  C295  1  0.003500  0.468700  0.008200  1.0  -0.0392
  C  C296  1  0.016300  0.432900  0.065800  1.0  -0.1703
  C  C297  1  0.026100  0.370500  0.078000  1.0  0.1636
  C  C298  1  0.143600  0.143200  0.366000  1.0  0.1704
  C  C299  1  0.102200  0.078500  0.438900  1.0  -0.1435
  C  C300  1  0.023100  0.031300  0.465200  1.0  -0.0395
  C  C301  1  0.001300  0.067100  0.416600  1.0  -0.1763
  C  C302  1  0.051500  0.129500  0.344400  1.0  0.165
  C  C303  1  0.000400  0.009600  0.856400  1.0  0.1716
  C  C304  1  0.023700  0.041100  0.897800  1.0  -0.148
  C  C305  1  0.991800  0.988300  0.976900  1.0  -0.0396
  C  C306  1  0.934200  0.917900  0.998700  1.0  -0.1723
  C  C307  1  0.922000  0.895900  0.948500  1.0  0.1612
  C  C308  1  0.634000  0.490400  0.009200  1.0  0.1716
  C  C309  1  0.561100  0.458900  0.017400  1.0  -0.1452
  C  C310  1  0.534800  0.511700  0.996500  1.0  -0.0394
  C  C311  1  0.583400  0.582100  0.983700  1.0  -0.1739
  C  C312  1  0.655600  0.604100  0.973900  1.0  0.1641
  C  C313  1  0.779800  0.835400  0.258000  1.0  0.1685
  C  C314  1  0.794100  0.877500  0.290200  1.0  -0.1645
  C  C315  1  0.744600  0.888700  0.322100  1.0  0.056
  C  C316  1  0.677600  0.858800  0.315400  1.0  -0.2027
  C  C317  1  0.667800  0.816500  0.283700  1.0  0.1758
  C  C318  1  0.666000  0.966000  0.132200  1.0  0.156
  C  C319  1  0.676900  0.008600  0.165500  1.0  -0.154
  C  C320  1  0.747400  0.050500  0.160100  1.0  0.0419
  C  C321  1  0.797600  0.045300  0.123100  1.0  -0.1238
  C  C322  1  0.784400  0.002400  0.091000  1.0  0.129
  C  C323  1  0.406600  0.664600  0.055600  1.0  0.1672
  C  C324  1  0.332300  0.622500  0.083400  1.0  -0.1672
  C  C325  1  0.289200  0.611300  0.144100  1.0  0.0558
  C  C326  1  0.325800  0.641200  0.181200  1.0  -0.2027
  C  C327  1  0.399800  0.683500  0.148700  1.0  0.173
  C  C328  1  0.401800  0.534000  0.300000  1.0  0.156
  C  C329  1  0.325900  0.491400  0.331700  1.0  -0.1553
  C  C330  1  0.289400  0.449500  0.303100  1.0  0.041
  C  C331  1  0.331600  0.454700  0.247700  1.0  -0.1239
  C  C332  1  0.406600  0.497600  0.218000  1.0  0.1282
  C  C333  1  0.944400  0.537800  0.220200  1.0  0.1674
  C  C334  1  0.916600  0.584300  0.205900  1.0  -0.1659
  C  C335  1  0.855900  0.566700  0.255400  1.0  0.0546
  C  C336  1  0.818800  0.493000  0.322400  1.0  -0.2015
  C  C337  1  0.851300  0.451500  0.332200  1.0  0.1769
  C  C338  1  0.700000  0.298200  0.334000  1.0  0.1555
  C  C339  1  0.668300  0.342400  0.323100  1.0  -0.1546
  C  C340  1  0.696900  0.407500  0.252600  1.0  0.04
  C  C341  1  0.752300  0.420700  0.202400  1.0  -0.1252
  C  C342  1  0.782000  0.375400  0.215600  1.0  0.127
  C  C343  1  0.742000  0.962200  0.593400  1.0  0.1671
  C  C344  1  0.709800  0.915700  0.667700  1.0  -0.1655
  C  C345  1  0.677900  0.933300  0.710800  1.0  0.0558
  C  C346  1  0.684600  0.007000  0.674200  1.0  -0.2019
  C  C347  1  0.716300  0.048500  0.600200  1.0  0.1743
  C  C348  1  0.867800  0.201800  0.598200  1.0  0.1564
  C  C349  1  0.834500  0.157600  0.674100  1.0  -0.1551
  C  C350  1  0.839900  0.092500  0.710600  1.0  0.0398
  C  C351  1  0.876900  0.079300  0.668400  1.0  -0.1233
  C  C352  1  0.909000  0.124600  0.593400  1.0  0.1323
  C  C353  1  0.093400  0.537800  0.242000  1.0  0.1676
  C  C354  1  0.167700  0.584300  0.209800  1.0  -0.1661
  C  C355  1  0.210800  0.566700  0.177900  1.0  0.055
  C  C356  1  0.174200  0.493000  0.184600  1.0  -0.202
  C  C357  1  0.100200  0.451500  0.216300  1.0  0.1761
  C  C358  1  0.098200  0.298200  0.367800  1.0  0.1538
  C  C359  1  0.174100  0.342400  0.334500  1.0  -0.1547
  C  C360  1  0.210600  0.407500  0.339900  1.0  0.0408
  C  C361  1  0.168400  0.420700  0.376900  1.0  -0.1273
  C  C362  1  0.093400  0.375400  0.409000  1.0  0.1265
  C  C363  1  0.720200  0.962200  0.444400  1.0  0.1681
  C  C364  1  0.705900  0.915700  0.416600  1.0  -0.1656
  C  C365  1  0.755400  0.933300  0.355900  1.0  0.0561
  C  C366  1  0.822400  0.007000  0.318800  1.0  -0.2025
  C  C367  1  0.832200  0.048500  0.351300  1.0  0.1746
  C  C368  1  0.834000  0.201800  0.200000  1.0  0.1561
  C  C369  1  0.823100  0.157600  0.168300  1.0  -0.1544
  C  C370  1  0.752600  0.092500  0.196900  1.0  0.04
  C  C371  1  0.702400  0.079300  0.252300  1.0  -0.1245
  C  C372  1  0.715600  0.124600  0.282000  1.0  0.1318
  C  C373  1  0.758000  0.664600  0.279800  1.0  0.1671
  C  C374  1  0.790200  0.622500  0.294100  1.0  -0.1662
  C  C375  1  0.822100  0.611300  0.244600  1.0  0.056
  C  C376  1  0.815400  0.641200  0.177600  1.0  -0.2029
  C  C377  1  0.783700  0.683500  0.167800  1.0  0.1715
  C  C378  1  0.632200  0.534000  0.166000  1.0  0.1547
  C  C379  1  0.665500  0.491400  0.176900  1.0  -0.1542
  C  C380  1  0.660100  0.449500  0.247400  1.0  0.0413
  C  C381  1  0.623100  0.454700  0.297600  1.0  -0.1254
  C  C382  1  0.591000  0.497600  0.284400  1.0  0.1298
  C  C383  1  0.555600  0.835400  0.906600  1.0  0.1706
  C  C384  1  0.583400  0.877500  0.832300  1.0  -0.1662
  C  C385  1  0.644100  0.888700  0.789200  1.0  0.0558
  C  C386  1  0.681200  0.858800  0.825800  1.0  -0.2036
  C  C387  1  0.648700  0.816500  0.899800  1.0  0.1777
  C  C388  1  0.800000  0.966000  0.901800  1.0  0.1557
  C  C389  1  0.831700  0.008600  0.825900  1.0  -0.1546
  C  C390  1  0.803100  0.050500  0.789400  1.0  0.0423
  C  C391  1  0.747700  0.045300  0.831600  1.0  -0.1256
  C  C392  1  0.718000  0.002400  0.906600  1.0  0.1269
  C  C393  1  0.220200  0.164600  0.742000  1.0  0.1704
  C  C394  1  0.205900  0.122500  0.709800  1.0  -0.1667
  C  C395  1  0.255400  0.111300  0.677900  1.0  0.0559
  C  C396  1  0.322400  0.141200  0.684600  1.0  -0.2029
  C  C397  1  0.332200  0.183500  0.716300  1.0  0.1763
  C  C398  1  0.334000  0.034000  0.867800  1.0  0.1563
  C  C399  1  0.323100  0.991400  0.834500  1.0  -0.1551
  C  C400  1  0.252600  0.949500  0.839900  1.0  0.0418
  C  C401  1  0.202400  0.954700  0.876900  1.0  -0.126
  C  C402  1  0.215600  0.997600  0.909000  1.0  0.1285
  C  C403  1  0.593400  0.335400  0.944400  1.0  0.1675
  C  C404  1  0.667700  0.377500  0.916600  1.0  -0.1665
  C  C405  1  0.710800  0.388700  0.855900  1.0  0.0565
  C  C406  1  0.674200  0.358800  0.818800  1.0  -0.2024
  C  C407  1  0.600200  0.316500  0.851300  1.0  0.1716
  C  C408  1  0.598200  0.466000  0.700000  1.0  0.1545
  C  C409  1  0.674100  0.508600  0.668300  1.0  -0.1537
  C  C410  1  0.710600  0.550500  0.696900  1.0  0.0421
  C  C411  1  0.668400  0.545300  0.752300  1.0  -0.1249
  C  C412  1  0.593400  0.502400  0.782000  1.0  0.1286
  C  C413  1  0.055600  0.462200  0.779800  1.0  0.1677
  C  C414  1  0.083400  0.415700  0.794100  1.0  -0.1647
  C  C415  1  0.144100  0.433300  0.744600  1.0  0.0546
  C  C416  1  0.181200  0.507000  0.677600  1.0  -0.2022
  C  C417  1  0.148700  0.548500  0.667800  1.0  0.1755
  C  C418  1  0.300000  0.701800  0.666000  1.0  0.1555
  C  C419  1  0.331700  0.657600  0.676900  1.0  -0.1551
  C  C420  1  0.303100  0.592500  0.747400  1.0  0.0412
  C  C421  1  0.247700  0.579300  0.797600  1.0  -0.1267
  C  C422  1  0.218000  0.624600  0.784400  1.0  0.126
  C  C423  1  0.258000  0.037800  0.406600  1.0  0.1678
  C  C424  1  0.290200  0.084300  0.332300  1.0  -0.168
  C  C425  1  0.322100  0.066700  0.289200  1.0  0.056
  C  C426  1  0.315400  0.993000  0.325800  1.0  -0.2021
  C  C427  1  0.283700  0.951500  0.399800  1.0  0.1759
  C  C428  1  0.132200  0.798200  0.401800  1.0  0.155
  C  C429  1  0.165500  0.842400  0.325900  1.0  -0.1542
  C  C430  1  0.160100  0.907500  0.289400  1.0  0.0394
  C  C431  1  0.123100  0.920700  0.331600  1.0  -0.1252
  C  C432  1  0.091000  0.875400  0.406600  1.0  0.1325
  C  C433  1  0.906600  0.462200  0.758000  1.0  0.1673
  C  C434  1  0.832300  0.415700  0.790200  1.0  -0.1649
  C  C435  1  0.789200  0.433300  0.822100  1.0  0.0549
  C  C436  1  0.825800  0.507000  0.815400  1.0  -0.2017
  C  C437  1  0.899800  0.548500  0.783700  1.0  0.1759
  C  C438  1  0.901800  0.701800  0.632200  1.0  0.1564
  C  C439  1  0.825900  0.657600  0.665500  1.0  -0.1547
  C  C440  1  0.789400  0.592500  0.660100  1.0  0.041
  C  C441  1  0.831600  0.579300  0.623100  1.0  -0.1254
  C  C442  1  0.906600  0.624600  0.591000  1.0  0.1274
  C  C443  1  0.279800  0.037800  0.555600  1.0  0.1676
  C  C444  1  0.294100  0.084300  0.583400  1.0  -0.1657
  C  C445  1  0.244600  0.066700  0.644100  1.0  0.0561
  C  C446  1  0.177600  0.993000  0.681200  1.0  -0.2013
  C  C447  1  0.167800  0.951500  0.648700  1.0  0.1748
  C  C448  1  0.166000  0.798200  0.800000  1.0  0.155
  C  C449  1  0.176900  0.842400  0.831700  1.0  -0.1552
  C  C450  1  0.247400  0.907500  0.803100  1.0  0.0391
  C  C451  1  0.297600  0.920700  0.747700  1.0  -0.1232
  C  C452  1  0.284400  0.875400  0.718000  1.0  0.1321
  C  C453  1  0.242000  0.335400  0.720200  1.0  0.1669
  C  C454  1  0.209800  0.377500  0.705900  1.0  -0.1673
  C  C455  1  0.177900  0.388700  0.755400  1.0  0.0555
  C  C456  1  0.184600  0.358800  0.822400  1.0  -0.2032
  C  C457  1  0.216300  0.316500  0.832200  1.0  0.174
  C  C458  1  0.367800  0.466000  0.834000  1.0  0.1555
  C  C459  1  0.334500  0.508600  0.823100  1.0  -0.1551
  C  C460  1  0.339900  0.550500  0.752600  1.0  0.0419
  C  C461  1  0.376900  0.545300  0.702400  1.0  -0.1234
  C  C462  1  0.409000  0.502400  0.715600  1.0  0.1277
  C  C463  1  0.444400  0.164600  0.093400  1.0  0.1687
  C  C464  1  0.416600  0.122500  0.167700  1.0  -0.1641
  C  C465  1  0.355900  0.111300  0.210800  1.0  0.0559
  C  C466  1  0.318800  0.141200  0.174200  1.0  -0.2029
  C  C467  1  0.351300  0.183500  0.100200  1.0  0.1754
  C  C468  1  0.200000  0.034000  0.098200  1.0  0.1555
  C  C469  1  0.168300  0.991400  0.174100  1.0  -0.1544
  C  C470  1  0.196900  0.949500  0.210600  1.0  0.0405
  C  C471  1  0.252300  0.954700  0.168400  1.0  -0.1246
  C  C472  1  0.282000  0.997600  0.093400  1.0  0.1293
  S  S473  1  0.670250  0.322920  0.505090  1.0  -0.3807
  S  S474  1  0.671990  0.177080  0.652670  1.0  -0.3807
  S  S475  1  0.347330  0.675340  0.329750  1.0  -0.3803
  S  S476  1  0.494910  0.824660  0.328010  1.0  -0.3792
  S  S477  1  0.329750  0.677080  0.494910  1.0  -0.3801
  S  S478  1  0.328010  0.822920  0.347330  1.0  -0.3803
  S  S479  1  0.652670  0.324660  0.670250  1.0  -0.3785
  S  S480  1  0.505090  0.175340  0.671990  1.0  -0.38
  S  S481  1  0.828010  0.675340  0.994910  1.0  -0.379
  S  S482  1  0.829750  0.824660  0.847330  1.0  -0.3794
  S  S483  1  0.005090  0.177080  0.170250  1.0  -0.3805
  S  S484  1  0.152670  0.322920  0.171990  1.0  -0.38
  S  S485  1  0.171990  0.324660  0.005090  1.0  -0.3799
  S  S486  1  0.170250  0.175340  0.152670  1.0  -0.3798
  S  S487  1  0.994910  0.822920  0.829750  1.0  -0.3807
  S  S488  1  0.847330  0.677080  0.828010  1.0  -0.3807
  S  S489  1  0.744370  0.823790  0.080080  1.0  -0.3594
  S  S490  1  0.596130  0.676210  0.079420  1.0  -0.3607
  S  S491  1  0.920580  0.324450  0.255630  1.0  -0.3601
  S  S492  1  0.919920  0.175550  0.403870  1.0  -0.3589
  S  S493  1  0.903870  0.324450  0.419920  1.0  -0.3603
  S  S494  1  0.755630  0.175550  0.420580  1.0  -0.3593
  S  S495  1  0.580080  0.676210  0.244370  1.0  -0.361
  S  S496  1  0.579420  0.823790  0.096130  1.0  -0.3597
  S  S497  1  0.255630  0.176210  0.919920  1.0  -0.3599
  S  S498  1  0.403870  0.323790  0.920580  1.0  -0.361
  S  S499  1  0.079420  0.675550  0.744370  1.0  -0.3604
  S  S500  1  0.080080  0.824450  0.596130  1.0  -0.3591
  S  S501  1  0.096130  0.675550  0.580080  1.0  -0.3604
  S  S502  1  0.244370  0.824450  0.579420  1.0  -0.3584
  S  S503  1  0.419920  0.323790  0.755630  1.0  -0.3606
  S  S504  1  0.420580  0.176210  0.903870  1.0  -0.3596
  I  I505  1  0.812960  0.527710  0.480430  1.0  -0.4088
  I  I506  1  0.491860  0.972290  0.714750  1.0  -0.4092
  I  I507  1  0.285250  0.793390  0.187040  1.0  -0.4114
  I  I508  1  0.519570  0.706610  0.508140  1.0  -0.4098
  I  I509  1  0.187040  0.472290  0.519570  1.0  -0.4098
  I  I510  1  0.508140  0.027710  0.285250  1.0  -0.4078
  I  I511  1  0.714750  0.206610  0.812960  1.0  -0.4104
  I  I512  1  0.480430  0.293390  0.491860  1.0  -0.4091
  I  I513  1  0.008140  0.793390  0.019570  1.0  -0.4113
  I  I514  1  0.687040  0.706610  0.785250  1.0  -0.4089
  I  I515  1  0.980430  0.972290  0.312960  1.0  -0.4081
  I  I516  1  0.214750  0.527710  0.991860  1.0  -0.4096
  I  I517  1  0.991860  0.206610  0.980430  1.0  -0.4111
  I  I518  1  0.312960  0.293390  0.214750  1.0  -0.4106
  I  I519  1  0.019570  0.027710  0.687040  1.0  -0.4083
  I  I520  1  0.785250  0.472290  0.008140  1.0  -0.4097
  N  N521  1  0.619500  0.439400  0.538100  1.0  -0.244
  N  N522  1  0.522500  0.060600  0.819900  1.0  -0.2481
  N  N523  1  0.180100  0.657600  0.380500  1.0  -0.2452
  N  N524  1  0.461900  0.842400  0.477500  1.0  -0.2478
  N  N525  1  0.380500  0.560600  0.461900  1.0  -0.244
  N  N526  1  0.477500  0.939400  0.180100  1.0  -0.2461
  N  N527  1  0.819900  0.342400  0.619500  1.0  -0.2439
  N  N528  1  0.538100  0.157600  0.522500  1.0  -0.2453
  N  N529  1  0.977500  0.657600  0.961900  1.0  -0.2444
  N  N530  1  0.880500  0.842400  0.680100  1.0  -0.2443
  N  N531  1  0.038100  0.060600  0.119500  1.0  -0.2472
  N  N532  1  0.319900  0.439400  0.022500  1.0  -0.2441
  N  N533  1  0.022500  0.342400  0.038100  1.0  -0.2445
  N  N534  1  0.119500  0.157600  0.319900  1.0  -0.2471
  N  N535  1  0.961900  0.939400  0.880500  1.0  -0.2485
  N  N536  1  0.680100  0.560600  0.977500  1.0  -0.2449
  N  N537  1  0.718100  0.805800  0.253700  1.0  -0.338
  N  N538  1  0.718700  0.966800  0.093900  1.0  -0.2976
  N  N539  1  0.440500  0.694200  0.087700  1.0  -0.3301
  N  N540  1  0.439300  0.533200  0.248100  1.0  -0.2891
  N  N541  1  0.912300  0.471800  0.281900  1.0  -0.3295
  N  N542  1  0.751900  0.312600  0.281300  1.0  -0.2901
  N  N543  1  0.746300  0.028200  0.559500  1.0  -0.3349
  N  N544  1  0.906100  0.187400  0.560700  1.0  -0.2924
  N  N545  1  0.059500  0.471800  0.246300  1.0  -0.3304
  N  N546  1  0.060700  0.312600  0.406100  1.0  -0.291
  N  N547  1  0.781900  0.028200  0.412300  1.0  -0.3329
  N  N548  1  0.781300  0.187400  0.251900  1.0  -0.2919
  N  N549  1  0.753700  0.694200  0.218100  1.0  -0.3295
  N  N550  1  0.593900  0.533200  0.218700  1.0  -0.288
  N  N551  1  0.587700  0.805800  0.940500  1.0  -0.3347
  N  N552  1  0.748100  0.966800  0.939300  1.0  -0.2942
  N  N553  1  0.281900  0.194200  0.746300  1.0  -0.3348
  N  N554  1  0.281300  0.033200  0.906100  1.0  -0.2953
  N  N555  1  0.559500  0.305800  0.912300  1.0  -0.33
  N  N556  1  0.560700  0.466800  0.751900  1.0  -0.2883
  N  N557  1  0.087700  0.528200  0.718100  1.0  -0.3292
  N  N558  1  0.248100  0.687400  0.718700  1.0  -0.2921
  N  N559  1  0.253700  0.971800  0.440500  1.0  -0.3333
  N  N560  1  0.093900  0.812600  0.439300  1.0  -0.2905
  N  N561  1  0.940500  0.528200  0.753700  1.0  -0.3298
  N  N562  1  0.939300  0.687400  0.593900  1.0  -0.2913
  N  N563  1  0.218100  0.971800  0.587700  1.0  -0.3362
  N  N564  1  0.218700  0.812600  0.748100  1.0  -0.2905
  N  N565  1  0.246300  0.305800  0.781900  1.0  -0.3297
  N  N566  1  0.406100  0.466800  0.781300  1.0  -0.2888
  N  N567  1  0.412300  0.194200  0.059500  1.0  -0.337
  N  N568  1  0.251900  0.033200  0.060700  1.0  -0.2964
