# generated using pymatgen
data_GdH4C7(NO3)2
_symmetry_space_group_name_H-M   'P 1'
_cell_length_a   10.19000000
_cell_length_b   11.23200000
_cell_length_c   22.14000000
_cell_angle_alpha   90.00000000
_cell_angle_beta   96.86300000
_cell_angle_gamma   90.00000000
_symmetry_Int_Tables_number   1
_chemical_formula_structural   GdH4C7(NO3)2
_chemical_formula_sum   'Gd8 H32 C56 N16 O48'
_cell_volume   2515.85640579
_cell_formula_units_Z   8
loop_
 _symmetry_equiv_pos_site_id
 _symmetry_equiv_pos_as_xyz
  1  'x, y, z'
loop_
 _atom_site_type_symbol
 _atom_site_label
 _atom_site_symmetry_multiplicity
 _atom_site_fract_x
 _atom_site_fract_y
 _atom_site_fract_z
 _atom_site_occupancy
 _atom_site_charge
  Gd  Gd1  1  0.388950  0.686170  0.274530  1.0  2.0833
  Gd  Gd2  1  0.741120  0.411730  0.436090  1.0  2.167
  Gd  Gd3  1  0.111050  0.186170  0.225470  1.0  2.0828
  Gd  Gd4  1  0.758880  0.911730  0.063910  1.0  2.1667
  Gd  Gd5  1  0.611050  0.313830  0.725470  1.0  2.0829
  Gd  Gd6  1  0.258880  0.588270  0.563910  1.0  2.1677
  Gd  Gd7  1  0.888950  0.813830  0.774530  1.0  2.0834
  Gd  Gd8  1  0.241120  0.088270  0.936090  1.0  2.1672
  H  H9  1  0.750100  0.389700  0.074300  1.0  0.1425
  H  H10  1  0.903100  0.369200  0.087200  1.0  0.1744
  H  H11  1  0.805900  0.261200  0.087900  1.0  0.156
  H  H12  1  0.040200  0.668700  0.203800  1.0  0.1582
  H  H13  1  0.930100  0.580700  0.219700  1.0  0.1317
  H  H14  1  0.910900  0.718400  0.226400  1.0  0.1374
  H  H15  1  0.662000  0.470500  0.164800  1.0  0.3395
  H  H16  1  0.882000  0.618000  0.338600  1.0  0.3089
  H  H17  1  0.749900  0.889700  0.425700  1.0  0.1425
  H  H18  1  0.596900  0.869200  0.412800  1.0  0.1743
  H  H19  1  0.694100  0.761200  0.412100  1.0  0.1571
  H  H20  1  0.459800  0.168700  0.296200  1.0  0.1617
  H  H21  1  0.569900  0.080700  0.280300  1.0  0.1327
  H  H22  1  0.589100  0.218400  0.273600  1.0  0.137
  H  H23  1  0.838000  0.970500  0.335200  1.0  0.34
  H  H24  1  0.618000  0.118000  0.161400  1.0  0.3104
  H  H25  1  0.249900  0.610300  0.925700  1.0  0.1428
  H  H26  1  0.096900  0.630800  0.912800  1.0  0.1741
  H  H27  1  0.194100  0.738800  0.912100  1.0  0.1553
  H  H28  1  0.959800  0.331300  0.796200  1.0  0.1615
  H  H29  1  0.069900  0.419300  0.780300  1.0  0.1341
  H  H30  1  0.089100  0.281600  0.773600  1.0  0.1371
  H  H31  1  0.338000  0.529500  0.835200  1.0  0.3395
  H  H32  1  0.118000  0.382000  0.661400  1.0  0.3107
  H  H33  1  0.250100  0.110300  0.574300  1.0  0.1415
  H  H34  1  0.403100  0.130800  0.587200  1.0  0.1743
  H  H35  1  0.305900  0.238800  0.587900  1.0  0.1566
  H  H36  1  0.540200  0.831300  0.703800  1.0  0.1577
  H  H37  1  0.430100  0.919300  0.719700  1.0  0.1338
  H  H38  1  0.410900  0.781600  0.726400  1.0  0.137
  H  H39  1  0.162000  0.029500  0.664800  1.0  0.3394
  H  H40  1  0.382000  0.882000  0.838600  1.0  0.3091
  C  C41  1  0.921100  0.311300  0.320600  1.0  0.7343
  C  C42  1  0.849400  0.354000  0.262500  1.0  0.0063
  C  C43  1  0.742700  0.427100  0.248500  1.0  -0.1018
  C  C44  1  0.659400  0.504800  0.283700  1.0  0.7345
  C  C45  1  0.812100  0.363300  0.164400  1.0  0.4596
  C  C46  1  0.818400  0.344100  0.097400  1.0  -0.4557
  C  C47  1  0.307800  0.652800  0.412400  1.0  0.796
  C  C48  1  0.174300  0.649600  0.376200  1.0  0.0391
  C  C49  1  0.050600  0.628700  0.394300  1.0  -0.069
  C  C50  1  0.994400  0.614900  0.452600  1.0  0.7825
  C  C51  1  0.037500  0.648700  0.293900  1.0  0.4701
  C  C52  1  0.974100  0.654600  0.230400  1.0  -0.4462
  C  C53  1  0.295900  0.407600  0.278500  1.0  0.5485
  C  C54  1  0.236700  0.453300  0.215000  1.0  0.5453
  C  C55  1  0.578900  0.811300  0.179400  1.0  0.7342
  C  C56  1  0.650600  0.854000  0.237500  1.0  0.0067
  C  C57  1  0.757300  0.927100  0.251500  1.0  -0.1027
  C  C58  1  0.840600  0.004800  0.216300  1.0  0.7316
  C  C59  1  0.687900  0.863300  0.335600  1.0  0.457
  C  C60  1  0.681600  0.844100  0.402600  1.0  -0.4561
  C  C61  1  0.192200  0.152800  0.087600  1.0  0.7934
  C  C62  1  0.325700  0.149600  0.123800  1.0  0.0402
  C  C63  1  0.449400  0.128700  0.105700  1.0  -0.0706
  C  C64  1  0.505600  0.114900  0.047400  1.0  0.7823
  C  C65  1  0.462500  0.148700  0.206100  1.0  0.4703
  C  C66  1  0.525900  0.154600  0.269600  1.0  -0.4437
  C  C67  1  0.204100  0.907600  0.221500  1.0  0.5489
  C  C68  1  0.263300  0.953300  0.285000  1.0  0.5448
  C  C69  1  0.078900  0.688700  0.679400  1.0  0.735
  C  C70  1  0.150600  0.646000  0.737500  1.0  0.0072
  C  C71  1  0.257300  0.572900  0.751500  1.0  -0.1027
  C  C72  1  0.340600  0.495200  0.716300  1.0  0.7317
  C  C73  1  0.187900  0.636700  0.835600  1.0  0.4573
  C  C74  1  0.181600  0.655900  0.902600  1.0  -0.4554
  C  C75  1  0.692200  0.347200  0.587600  1.0  0.7935
  C  C76  1  0.825700  0.350400  0.623800  1.0  0.0402
  C  C77  1  0.949400  0.371300  0.605700  1.0  -0.0706
  C  C78  1  0.005600  0.385100  0.547400  1.0  0.7825
  C  C79  1  0.962500  0.351300  0.706100  1.0  0.4705
  C  C80  1  0.025900  0.345400  0.769600  1.0  -0.4429
  C  C81  1  0.704100  0.592400  0.721500  1.0  0.5494
  C  C82  1  0.763300  0.546700  0.785000  1.0  0.5448
  C  C83  1  0.421100  0.188700  0.820600  1.0  0.7356
  C  C84  1  0.349400  0.146000  0.762500  1.0  0.0063
  C  C85  1  0.242700  0.072900  0.748500  1.0  -0.1016
  C  C86  1  0.159400  0.995200  0.783700  1.0  0.7346
  C  C87  1  0.312100  0.136700  0.664400  1.0  0.4604
  C  C88  1  0.318400  0.155900  0.597400  1.0  -0.4558
  C  C89  1  0.807800  0.847200  0.912400  1.0  0.7963
  C  C90  1  0.674300  0.850400  0.876200  1.0  0.0395
  C  C91  1  0.550600  0.871300  0.894300  1.0  -0.0693
  C  C92  1  0.494400  0.885100  0.952600  1.0  0.7829
  C  C93  1  0.537500  0.851300  0.793900  1.0  0.4705
  C  C94  1  0.474100  0.845400  0.730400  1.0  -0.4459
  C  C95  1  0.795900  0.092400  0.778500  1.0  0.5484
  C  C96  1  0.736700  0.046700  0.715000  1.0  0.5455
  N  N97  1  0.894800  0.312400  0.208400  1.0  -0.5571
  N  N98  1  0.722900  0.430700  0.186200  1.0  -0.2863
  N  N99  1  0.164600  0.659900  0.314000  1.0  -0.5221
  N  N100  1  0.966000  0.628700  0.341500  1.0  -0.2826
  N  N101  1  0.605200  0.812400  0.291600  1.0  -0.5571
  N  N102  1  0.777100  0.930700  0.313800  1.0  -0.2869
  N  N103  1  0.335400  0.159900  0.186000  1.0  -0.5317
  N  N104  1  0.534000  0.128700  0.158500  1.0  -0.2832
  N  N105  1  0.105200  0.687600  0.791600  1.0  -0.5581
  N  N106  1  0.277100  0.569300  0.813800  1.0  -0.2865
  N  N107  1  0.835400  0.340100  0.686000  1.0  -0.5317
  N  N108  1  0.034000  0.371300  0.658500  1.0  -0.2835
  N  N109  1  0.394800  0.187600  0.708400  1.0  -0.5589
  N  N110  1  0.222900  0.069300  0.686200  1.0  -0.2858
  N  N111  1  0.664600  0.840100  0.814000  1.0  -0.5215
  N  N112  1  0.466000  0.871300  0.841500  1.0  -0.2829
  O  O113  1  0.878900  0.336300  0.369000  1.0  -0.7791
  O  O114  1  0.024900  0.253000  0.317800  1.0  -0.6144
  O  O115  1  0.685800  0.513400  0.341200  1.0  -0.8011
  O  O116  1  0.402900  0.676600  0.383800  1.0  -0.6508
  O  O117  1  0.570900  0.560500  0.252600  1.0  -0.652
  O  O118  1  0.320500  0.629900  0.468100  1.0  -0.8525
  O  O119  1  0.060000  0.635400  0.501700  1.0  -0.6887
  O  O120  1  0.872200  0.585200  0.446800  1.0  -0.7482
  O  O121  1  0.366300  0.478600  0.311800  1.0  -0.6134
  O  O122  1  0.268600  0.303500  0.291400  1.0  -0.594
  O  O123  1  0.272700  0.556500  0.200500  1.0  -0.5967
  O  O124  1  0.159300  0.385600  0.184000  1.0  -0.5934
  O  O125  1  0.621100  0.836300  0.131000  1.0  -0.7757
  O  O126  1  0.475100  0.753000  0.182200  1.0  -0.6136
  O  O127  1  0.814200  0.013400  0.158800  1.0  -0.8003
  O  O128  1  0.097100  0.176600  0.116200  1.0  -0.6519
  O  O129  1  0.929100  0.060500  0.247400  1.0  -0.6554
  O  O130  1  0.179500  0.129900  0.031900  1.0  -0.8518
  O  O131  1  0.440000  0.135400  0.998300  1.0  -0.6894
  O  O132  1  0.627800  0.085200  0.053200  1.0  -0.7501
  O  O133  1  0.133700  0.978600  0.188200  1.0  -0.6132
  O  O134  1  0.231400  0.803500  0.208600  1.0  -0.5996
  O  O135  1  0.227300  0.056500  0.299500  1.0  -0.6025
  O  O136  1  0.340700  0.885600  0.316000  1.0  -0.5934
  O  O137  1  0.121100  0.663700  0.631000  1.0  -0.7775
  O  O138  1  0.975100  0.747000  0.682200  1.0  -0.613
  O  O139  1  0.314200  0.486600  0.658800  1.0  -0.8014
  O  O140  1  0.597100  0.323400  0.616200  1.0  -0.6509
  O  O141  1  0.429100  0.439500  0.747400  1.0  -0.6514
  O  O142  1  0.679500  0.370100  0.531900  1.0  -0.851
  O  O143  1  0.940000  0.364600  0.498300  1.0  -0.6897
  O  O144  1  0.127800  0.414800  0.553200  1.0  -0.7499
  O  O145  1  0.633700  0.521400  0.688200  1.0  -0.6132
  O  O146  1  0.731400  0.696500  0.708600  1.0  -0.597
  O  O147  1  0.727300  0.443500  0.799500  1.0  -0.6035
  O  O148  1  0.840700  0.614400  0.816000  1.0  -0.5934
  O  O149  1  0.378900  0.163700  0.869000  1.0  -0.779
  O  O150  1  0.524900  0.247000  0.817800  1.0  -0.6141
  O  O151  1  0.185800  0.986600  0.841200  1.0  -0.801
  O  O152  1  0.902900  0.823400  0.883800  1.0  -0.6514
  O  O153  1  0.070900  0.939500  0.752600  1.0  -0.6559
  O  O154  1  0.820500  0.870100  0.968100  1.0  -0.8524
  O  O155  1  0.560000  0.864600  0.001700  1.0  -0.6886
  O  O156  1  0.372200  0.914800  0.946800  1.0  -0.7485
  O  O157  1  0.866300  0.021400  0.811800  1.0  -0.6139
  O  O158  1  0.768600  0.196500  0.791400  1.0  -0.5923
  O  O159  1  0.772700  0.943500  0.700500  1.0  -0.5979
  O  O160  1  0.659300  0.114400  0.684000  1.0  -0.5935
