# generated using pymatgen
data_CeH4C7(NO3)2
_symmetry_space_group_name_H-M   'P 1'
_cell_length_a   10.41600000
_cell_length_b   11.44000000
_cell_length_c   22.45700000
_cell_angle_alpha   90.00000000
_cell_angle_beta   97.69500000
_cell_angle_gamma   90.00000000
_symmetry_Int_Tables_number   1
_chemical_formula_structural   CeH4C7(NO3)2
_chemical_formula_sum   'Ce8 H32 C56 N16 O48'
_cell_volume   2651.85729193
_cell_formula_units_Z   8
loop_
 _symmetry_equiv_pos_site_id
 _symmetry_equiv_pos_as_xyz
  1  'x, y, z'
loop_
 _atom_site_type_symbol
 _atom_site_label
 _atom_site_symmetry_multiplicity
 _atom_site_fract_x
 _atom_site_fract_y
 _atom_site_fract_z
 _atom_site_occupancy
 _atom_site_charge
  Ce  Ce1  1  0.392280  0.307020  0.774810  1.0  2.1654
  Ce  Ce2  1  0.736880  0.580000  0.934950  1.0  2.3192
  Ce  Ce3  1  0.107720  0.807020  0.725190  1.0  2.1657
  Ce  Ce4  1  0.763120  0.080000  0.565050  1.0  2.3196
  Ce  Ce5  1  0.607720  0.692980  0.225190  1.0  2.1659
  Ce  Ce6  1  0.263120  0.420000  0.065050  1.0  2.3193
  Ce  Ce7  1  0.892280  0.192980  0.274810  1.0  2.1655
  Ce  Ce8  1  0.236880  0.920000  0.434950  1.0  2.3192
  H  H9  1  0.886300  0.375600  0.837900  1.0  0.3058
  H  H10  1  0.663600  0.521200  0.663200  1.0  0.3342
  H  H11  1  0.023000  0.281900  0.710500  1.0  0.1643
  H  H12  1  0.887800  0.310200  0.730400  1.0  0.1284
  H  H13  1  0.976200  0.411900  0.712700  1.0  0.1543
  H  H14  1  0.905600  0.634200  0.590700  1.0  0.174
  H  H15  1  0.762000  0.591500  0.575600  1.0  0.1434
  H  H16  1  0.791700  0.724500  0.587000  1.0  0.158
  H  H17  1  0.613700  0.875600  0.662100  1.0  0.3061
  H  H18  1  0.836400  0.021200  0.836800  1.0  0.3332
  H  H19  1  0.477000  0.781900  0.789500  1.0  0.1639
  H  H20  1  0.612200  0.810200  0.769600  1.0  0.1296
  H  H21  1  0.523800  0.911900  0.787300  1.0  0.1536
  H  H22  1  0.594400  0.134200  0.909300  1.0  0.1744
  H  H23  1  0.738000  0.091500  0.924400  1.0  0.1451
  H  H24  1  0.708300  0.224500  0.913000  1.0  0.1582
  H  H25  1  0.113700  0.624400  0.162100  1.0  0.306
  H  H26  1  0.336400  0.478800  0.336800  1.0  0.3338
  H  H27  1  0.977000  0.718100  0.289500  1.0  0.1636
  H  H28  1  0.112200  0.689800  0.269600  1.0  0.1296
  H  H29  1  0.023800  0.588100  0.287300  1.0  0.1525
  H  H30  1  0.094400  0.365800  0.409300  1.0  0.1743
  H  H31  1  0.238000  0.408500  0.424400  1.0  0.1442
  H  H32  1  0.208300  0.275500  0.413000  1.0  0.1593
  H  H33  1  0.386300  0.124400  0.337900  1.0  0.3058
  H  H34  1  0.163600  0.978800  0.163200  1.0  0.3348
  H  H35  1  0.523000  0.218100  0.210500  1.0  0.1642
  H  H36  1  0.387800  0.189800  0.230400  1.0  0.1287
  H  H37  1  0.476200  0.088100  0.212700  1.0  0.1519
  H  H38  1  0.405600  0.865800  0.090700  1.0  0.1746
  H  H39  1  0.262000  0.908500  0.075600  1.0  0.1441
  H  H40  1  0.291700  0.775500  0.087000  1.0  0.1591
  C  C41  1  0.995800  0.382800  0.951250  1.0  0.7799
  C  C42  1  0.052400  0.368700  0.894240  1.0  -0.0884
  C  C43  1  0.173000  0.350200  0.877500  1.0  0.0473
  C  C44  1  0.304200  0.348300  0.913040  1.0  0.7895
  C  C45  1  0.037300  0.345500  0.795460  1.0  0.4771
  C  C46  1  0.975600  0.336600  0.731530  1.0  -0.4564
  C  C47  1  0.916600  0.677700  0.819300  1.0  0.7329
  C  C48  1  0.846000  0.637900  0.760760  1.0  0.0206
  C  C49  1  0.741700  0.564300  0.746850  1.0  -0.087
  C  C50  1  0.660400  0.487300  0.780510  1.0  0.7419
  C  C51  1  0.810900  0.629500  0.663740  1.0  0.4661
  C  C52  1  0.818200  0.646400  0.598440  1.0  -0.452
  C  C53  1  0.296100  0.585700  0.776760  1.0  0.5508
  C  C54  1  0.234400  0.539700  0.714160  1.0  0.5526
  C  C55  1  0.504200  0.882800  0.548750  1.0  0.7858
  C  C56  1  0.447600  0.868700  0.605760  1.0  -0.0885
  C  C57  1  0.327000  0.850200  0.622500  1.0  0.049
  C  C58  1  0.195800  0.848300  0.586960  1.0  0.7899
  C  C59  1  0.462700  0.845500  0.704540  1.0  0.4776
  C  C60  1  0.524400  0.836600  0.768470  1.0  -0.4565
  C  C61  1  0.583400  0.177700  0.680700  1.0  0.7324
  C  C62  1  0.654000  0.137900  0.739240  1.0  0.0208
  C  C63  1  0.758300  0.064300  0.753150  1.0  -0.087
  C  C64  1  0.839600  0.987300  0.719490  1.0  0.7408
  C  C65  1  0.689100  0.129500  0.836260  1.0  0.463
  C  C66  1  0.681800  0.146400  0.901560  1.0  -0.4512
  C  C67  1  0.203900  0.085700  0.723240  1.0  0.5529
  C  C68  1  0.265600  0.039700  0.785840  1.0  0.5535
  C  C69  1  0.004200  0.617200  0.048750  1.0  0.788
  C  C70  1  0.947600  0.631300  0.105760  1.0  -0.0887
  C  C71  1  0.827000  0.649800  0.122500  1.0  0.0487
  C  C72  1  0.695800  0.651700  0.086960  1.0  0.7898
  C  C73  1  0.962700  0.654500  0.204540  1.0  0.4768
  C  C74  1  0.024400  0.663400  0.268470  1.0  -0.4567
  C  C75  1  0.083400  0.322300  0.180700  1.0  0.7327
  C  C76  1  0.154000  0.362100  0.239240  1.0  0.0211
  C  C77  1  0.258300  0.435700  0.253150  1.0  -0.0869
  C  C78  1  0.339600  0.512700  0.219490  1.0  0.7406
  C  C79  1  0.189100  0.370500  0.336260  1.0  0.4629
  C  C80  1  0.181800  0.353600  0.401560  1.0  -0.452
  C  C81  1  0.703900  0.414300  0.223240  1.0  0.5522
  C  C82  1  0.765600  0.460300  0.285840  1.0  0.5535
  C  C83  1  0.495800  0.117200  0.451250  1.0  0.7818
  C  C84  1  0.552400  0.131300  0.394240  1.0  -0.0879
  C  C85  1  0.673000  0.149800  0.377500  1.0  0.0467
  C  C86  1  0.804200  0.151700  0.413040  1.0  0.7893
  C  C87  1  0.537300  0.154500  0.295460  1.0  0.4761
  C  C88  1  0.475600  0.163400  0.231530  1.0  -0.4568
  C  C89  1  0.416600  0.822300  0.319300  1.0  0.7319
  C  C90  1  0.346000  0.862100  0.260760  1.0  0.0213
  C  C91  1  0.241700  0.935700  0.246850  1.0  -0.087
  C  C92  1  0.160400  0.012700  0.280510  1.0  0.7417
  C  C93  1  0.310900  0.870500  0.163740  1.0  0.4651
  C  C94  1  0.318200  0.853600  0.098440  1.0  -0.452
  C  C95  1  0.796100  0.914300  0.276760  1.0  0.5506
  C  C96  1  0.734400  0.960300  0.214160  1.0  0.5524
  N  N97  1  0.968800  0.365900  0.841220  1.0  -0.2843
  N  N98  1  0.162100  0.336000  0.815720  1.0  -0.5269
  N  N99  1  0.888700  0.677800  0.708710  1.0  -0.546
  N  N100  1  0.722600  0.560900  0.684860  1.0  -0.2948
  N  N101  1  0.531200  0.865900  0.658780  1.0  -0.2846
  N  N102  1  0.337900  0.836000  0.684280  1.0  -0.527
  N  N103  1  0.611300  0.177800  0.791290  1.0  -0.5473
  N  N104  1  0.777400  0.060900  0.815140  1.0  -0.2945
  N  N105  1  0.031200  0.634100  0.158780  1.0  -0.2842
  N  N106  1  0.837900  0.664000  0.184280  1.0  -0.5274
  N  N107  1  0.111300  0.322200  0.291290  1.0  -0.5468
  N  N108  1  0.277400  0.439100  0.315140  1.0  -0.2949
  N  N109  1  0.468800  0.134100  0.341220  1.0  -0.2841
  N  N110  1  0.662100  0.164000  0.315720  1.0  -0.5272
  N  N111  1  0.388700  0.822200  0.208710  1.0  -0.5451
  N  N112  1  0.222600  0.939100  0.184860  1.0  -0.2945
  O  O113  1  0.876800  0.407300  0.945100  1.0  -0.7503
  O  O114  1  0.063300  0.366200  0.000500  1.0  -0.7142
  O  O115  1  0.398000  0.319340  0.885680  1.0  -0.673
  O  O116  1  0.319200  0.377100  0.966890  1.0  -0.8644
  O  O117  1  0.020600  0.731600  0.817590  1.0  -0.6084
  O  O118  1  0.870900  0.658800  0.866630  1.0  -0.7958
  O  O119  1  0.685100  0.478300  0.836640  1.0  -0.8107
  O  O120  1  0.573800  0.433000  0.748330  1.0  -0.663
  O  O121  1  0.368800  0.516500  0.808870  1.0  -0.6749
  O  O122  1  0.269800  0.687650  0.790180  1.0  -0.6358
  O  O123  1  0.156800  0.606360  0.683840  1.0  -0.6485
  O  O124  1  0.267100  0.439100  0.699150  1.0  -0.6336
  O  O125  1  0.623200  0.907300  0.554900  1.0  -0.7517
  O  O126  1  0.436700  0.866200  0.499500  1.0  -0.7149
  O  O127  1  0.102000  0.819340  0.614320  1.0  -0.6713
  O  O128  1  0.180800  0.877100  0.533110  1.0  -0.8636
  O  O129  1  0.479400  0.231600  0.682410  1.0  -0.6083
  O  O130  1  0.629100  0.158800  0.633370  1.0  -0.7971
  O  O131  1  0.814900  0.978300  0.663360  1.0  -0.8126
  O  O132  1  0.926200  0.933000  0.751670  1.0  -0.6628
  O  O133  1  0.131200  0.016500  0.691130  1.0  -0.6733
  O  O134  1  0.230200  0.187650  0.709820  1.0  -0.6363
  O  O135  1  0.343200  0.106360  0.816160  1.0  -0.6486
  O  O136  1  0.232900  0.939100  0.800850  1.0  -0.6341
  O  O137  1  0.123200  0.592700  0.054900  1.0  -0.7517
  O  O138  1  0.936700  0.633800  0.999500  1.0  -0.7146
  O  O139  1  0.602000  0.680660  0.114320  1.0  -0.6717
  O  O140  1  0.680800  0.622900  0.033110  1.0  -0.8641
  O  O141  1  0.979400  0.268400  0.182410  1.0  -0.6078
  O  O142  1  0.129100  0.341200  0.133370  1.0  -0.7969
  O  O143  1  0.314900  0.521700  0.163360  1.0  -0.8119
  O  O144  1  0.426200  0.567000  0.251670  1.0  -0.6621
  O  O145  1  0.631200  0.483500  0.191130  1.0  -0.6733
  O  O146  1  0.730200  0.312350  0.209820  1.0  -0.6359
  O  O147  1  0.843200  0.393640  0.316160  1.0  -0.6479
  O  O148  1  0.732900  0.560900  0.300850  1.0  -0.6341
  O  O149  1  0.376800  0.092700  0.445100  1.0  -0.7495
  O  O150  1  0.563300  0.133800  0.500500  1.0  -0.7147
  O  O151  1  0.898000  0.180660  0.385680  1.0  -0.6733
  O  O152  1  0.819200  0.122900  0.466890  1.0  -0.8646
  O  O153  1  0.520600  0.768400  0.317590  1.0  -0.6092
  O  O154  1  0.370900  0.841200  0.366630  1.0  -0.7966
  O  O155  1  0.185100  0.021700  0.336640  1.0  -0.8112
  O  O156  1  0.073800  0.067000  0.248330  1.0  -0.6643
  O  O157  1  0.868800  0.983500  0.308870  1.0  -0.6745
  O  O158  1  0.769800  0.812350  0.290180  1.0  -0.6357
  O  O159  1  0.656800  0.893640  0.183840  1.0  -0.6484
  O  O160  1  0.767100  0.060900  0.199150  1.0  -0.6339
