# generated using pymatgen
data_EuH4C7(NO3)2
_symmetry_space_group_name_H-M   'P 1'
_cell_length_a   10.22890000
_cell_length_b   11.25260000
_cell_length_c   22.18770000
_cell_angle_alpha   90.00000000
_cell_angle_beta   96.96700000
_cell_angle_gamma   90.00000000
_symmetry_Int_Tables_number   1
_chemical_formula_structural   EuH4C7(NO3)2
_chemical_formula_sum   'Eu8 H32 C56 N16 O48'
_cell_volume   2534.98531981
_cell_formula_units_Z   8
loop_
 _symmetry_equiv_pos_site_id
 _symmetry_equiv_pos_as_xyz
  1  'x, y, z'
loop_
 _atom_site_type_symbol
 _atom_site_label
 _atom_site_symmetry_multiplicity
 _atom_site_fract_x
 _atom_site_fract_y
 _atom_site_fract_z
 _atom_site_occupancy
 _atom_site_charge
  Eu  Eu1  1  0.759540  0.413110  0.563960  1.0  2.1877
  Eu  Eu2  1  0.110460  0.686900  0.725570  1.0  2.037
  Eu  Eu3  1  0.740460  0.913110  0.936040  1.0  2.1889
  Eu  Eu4  1  0.389540  0.186900  0.774430  1.0  2.038
  Eu  Eu5  1  0.240460  0.586890  0.436040  1.0  2.1896
  Eu  Eu6  1  0.889540  0.313100  0.274430  1.0  2.037
  Eu  Eu7  1  0.259540  0.086890  0.063960  1.0  2.1892
  Eu  Eu8  1  0.610460  0.813100  0.225570  1.0  2.0361
  H  H9  1  0.838800  0.471000  0.835000  1.0  0.2732
  H  H10  1  0.617000  0.618900  0.662200  1.0  0.2955
  H  H11  1  0.726400  0.411700  0.924000  1.0  0.1479
  H  H12  1  0.588100  0.351300  0.909400  1.0  0.1587
  H  H13  1  0.716300  0.273700  0.915300  1.0  0.1504
  H  H14  1  0.518900  0.579900  0.788900  1.0  0.1403
  H  H15  1  0.616400  0.677900  0.771300  1.0  0.1281
  H  H16  1  0.480400  0.714500  0.791600  1.0  0.156
  H  H17  1  0.661200  0.971000  0.665000  1.0  0.2736
  H  H18  1  0.883000  0.118900  0.837800  1.0  0.2943
  H  H19  1  0.773600  0.911700  0.576000  1.0  0.1479
  H  H20  1  0.911900  0.851300  0.590600  1.0  0.1557
  H  H21  1  0.783700  0.773700  0.584700  1.0  0.1497
  H  H22  1  0.981100  0.079900  0.711100  1.0  0.1398
  H  H23  1  0.883600  0.177900  0.728700  1.0  0.1287
  H  H24  1  0.019600  0.214500  0.708400  1.0  0.1564
  H  H25  1  0.161200  0.529000  0.165000  1.0  0.2733
  H  H26  1  0.383000  0.381100  0.337800  1.0  0.2943
  H  H27  1  0.273600  0.588300  0.076000  1.0  0.1465
  H  H28  1  0.411900  0.648700  0.090600  1.0  0.1556
  H  H29  1  0.283700  0.726300  0.084700  1.0  0.151
  H  H30  1  0.481100  0.420100  0.211100  1.0  0.1411
  H  H31  1  0.383600  0.322100  0.228700  1.0  0.1289
  H  H32  1  0.519600  0.285500  0.208400  1.0  0.156
  H  H33  1  0.338800  0.029000  0.335000  1.0  0.2731
  H  H34  1  0.117000  0.881100  0.162200  1.0  0.2956
  H  H35  1  0.226400  0.088300  0.424000  1.0  0.1481
  H  H36  1  0.088100  0.148700  0.409400  1.0  0.1588
  H  H37  1  0.216300  0.226300  0.415300  1.0  0.1509
  H  H38  1  0.018900  0.920100  0.288900  1.0  0.1407
  H  H39  1  0.116400  0.822100  0.271300  1.0  0.1284
  H  H40  1  0.980400  0.785500  0.291600  1.0  0.156
  C  C41  1  0.840600  0.505600  0.716200  1.0  0.7267
  C  C42  1  0.757200  0.428200  0.751600  1.0  -0.0756
  C  C43  1  0.651200  0.354200  0.737900  1.0  0.0169
  C  C44  1  0.579300  0.313900  0.679400  1.0  0.7253
  C  C45  1  0.686500  0.363600  0.835700  1.0  0.4593
  C  C46  1  0.678600  0.348700  0.902000  1.0  -0.4491
  C  C47  1  0.193800  0.651800  0.587470  1.0  0.7844
  C  C48  1  0.326600  0.648000  0.623100  1.0  0.0368
  C  C49  1  0.449600  0.629000  0.606000  1.0  -0.0543
  C  C50  1  0.507300  0.614600  0.548100  1.0  0.7916
  C  C51  1  0.463400  0.650400  0.705500  1.0  0.4398
  C  C52  1  0.525300  0.656200  0.770100  1.0  -0.4289
  C  C53  1  0.263100  0.454700  0.785100  1.0  0.5363
  C  C54  1  0.204200  0.408900  0.721800  1.0  0.5684
  C  C55  1  0.659400  0.005600  0.783800  1.0  0.7281
  C  C56  1  0.742800  0.928200  0.748400  1.0  -0.0762
  C  C57  1  0.848800  0.854200  0.762100  1.0  0.0163
  C  C58  1  0.920700  0.813900  0.820600  1.0  0.7265
  C  C59  1  0.813500  0.863600  0.664300  1.0  0.4595
  C  C60  1  0.821400  0.848700  0.598000  1.0  -0.4485
  C  C61  1  0.306200  0.151800  0.912530  1.0  0.7832
  C  C62  1  0.173400  0.148000  0.876900  1.0  0.0347
  C  C63  1  0.050400  0.129000  0.894000  1.0  -0.0544
  C  C64  1  0.992700  0.114600  0.951900  1.0  0.7896
  C  C65  1  0.036600  0.150400  0.794500  1.0  0.4394
  C  C66  1  0.974700  0.156200  0.729900  1.0  -0.4289
  C  C67  1  0.236900  0.954700  0.714900  1.0  0.5399
  C  C68  1  0.295800  0.908900  0.778200  1.0  0.5682
  C  C69  1  0.159400  0.494400  0.283800  1.0  0.7281
  C  C70  1  0.242800  0.571800  0.248400  1.0  -0.076
  C  C71  1  0.348800  0.645800  0.262100  1.0  0.0158
  C  C72  1  0.420700  0.686100  0.320600  1.0  0.7273
  C  C73  1  0.313500  0.636400  0.164300  1.0  0.4592
  C  C74  1  0.321400  0.651300  0.098000  1.0  -0.4487
  C  C75  1  0.806200  0.348200  0.412530  1.0  0.7871
  C  C76  1  0.673400  0.352000  0.376900  1.0  0.0346
  C  C77  1  0.550400  0.371000  0.394000  1.0  -0.0551
  C  C78  1  0.492700  0.385400  0.451900  1.0  0.7902
  C  C79  1  0.536600  0.349600  0.294500  1.0  0.4401
  C  C80  1  0.474700  0.343800  0.229900  1.0  -0.427
  C  C81  1  0.736900  0.545300  0.214900  1.0  0.5403
  C  C82  1  0.795800  0.591100  0.278200  1.0  0.5678
  C  C83  1  0.340600  0.994400  0.216200  1.0  0.7267
  C  C84  1  0.257200  0.071800  0.251600  1.0  -0.0755
  C  C85  1  0.151200  0.145800  0.237900  1.0  0.017
  C  C86  1  0.079300  0.186100  0.179400  1.0  0.7248
  C  C87  1  0.186500  0.136400  0.335700  1.0  0.4594
  C  C88  1  0.178600  0.151300  0.402000  1.0  -0.4483
  C  C89  1  0.693800  0.848200  0.087470  1.0  0.7846
  C  C90  1  0.826600  0.852000  0.123100  1.0  0.037
  C  C91  1  0.949600  0.871000  0.106000  1.0  -0.0563
  C  C92  1  0.007300  0.885400  0.048100  1.0  0.7917
  C  C93  1  0.963400  0.849600  0.205500  1.0  0.4402
  C  C94  1  0.025300  0.843800  0.270100  1.0  -0.4265
  C  C95  1  0.763100  0.045300  0.285100  1.0  0.5361
  C  C96  1  0.704200  0.091100  0.221800  1.0  0.5686
  N  N97  1  0.606600  0.315100  0.791000  1.0  -0.5006
  N  N98  1  0.777600  0.431700  0.813580  1.0  -0.2004
  N  N99  1  0.336200  0.660800  0.685570  1.0  -0.4905
  N  N100  1  0.533200  0.629800  0.659130  1.0  -0.2554
  N  N101  1  0.893400  0.815100  0.709000  1.0  -0.5
  N  N102  1  0.722400  0.931700  0.686420  1.0  -0.1995
  N  N103  1  0.163800  0.160800  0.814430  1.0  -0.5006
  N  N104  1  0.966800  0.129800  0.840870  1.0  -0.2549
  N  N105  1  0.393400  0.684900  0.209000  1.0  -0.5027
  N  N106  1  0.222400  0.568300  0.186420  1.0  -0.1995
  N  N107  1  0.663800  0.339200  0.314430  1.0  -0.5043
  N  N108  1  0.466800  0.370200  0.340870  1.0  -0.2537
  N  N109  1  0.106600  0.184900  0.291000  1.0  -0.5025
  N  N110  1  0.277600  0.068300  0.313580  1.0  -0.2012
  N  N111  1  0.836200  0.839200  0.185570  1.0  -0.5004
  N  N112  1  0.033200  0.870200  0.159130  1.0  -0.2554
  O  O113  1  0.813700  0.514100  0.659470  1.0  -0.7524
  O  O114  1  0.928500  0.561500  0.748230  1.0  -0.6691
  O  O115  1  0.621700  0.338500  0.630690  1.0  -0.7745
  O  O116  1  0.476300  0.255000  0.682210  1.0  -0.6204
  O  O117  1  0.097600  0.676600  0.616390  1.0  -0.6575
  O  O118  1  0.179600  0.628600  0.532140  1.0  -0.8492
  O  O119  1  0.439800  0.635400  0.498690  1.0  -0.7152
  O  O120  1  0.626900  0.586100  0.553740  1.0  -0.7228
  O  O121  1  0.340400  0.386100  0.816140  1.0  -0.6255
  O  O122  1  0.228900  0.556500  0.800490  1.0  -0.6218
  O  O123  1  0.231500  0.304200  0.708550  1.0  -0.6443
  O  O124  1  0.132600  0.478900  0.689000  1.0  -0.6458
  O  O125  1  0.686300  0.014100  0.840530  1.0  -0.7512
  O  O126  1  0.571500  0.061500  0.751770  1.0  -0.6655
  O  O127  1  0.878300  0.838500  0.869310  1.0  -0.7752
  O  O128  1  0.023700  0.755000  0.817790  1.0  -0.6236
  O  O129  1  0.402400  0.176600  0.883610  1.0  -0.6571
  O  O130  1  0.320400  0.128600  0.967860  1.0  -0.8503
  O  O131  1  0.060200  0.135400  0.001310  1.0  -0.7157
  O  O132  1  0.873100  0.086100  0.946260  1.0  -0.7224
  O  O133  1  0.159600  0.886100  0.683860  1.0  -0.6259
  O  O134  1  0.271100  0.056500  0.699510  1.0  -0.6212
  O  O135  1  0.268500  0.804200  0.791450  1.0  -0.6422
  O  O136  1  0.367400  0.978900  0.811000  1.0  -0.6491
  O  O137  1  0.186300  0.485900  0.340530  1.0  -0.7511
  O  O138  1  0.071500  0.438500  0.251770  1.0  -0.6657
  O  O139  1  0.378300  0.661500  0.369310  1.0  -0.7748
  O  O140  1  0.523700  0.745000  0.317790  1.0  -0.6244
  O  O141  1  0.902400  0.323400  0.383610  1.0  -0.6554
  O  O142  1  0.820400  0.371400  0.467860  1.0  -0.8483
  O  O143  1  0.560200  0.364600  0.501310  1.0  -0.7127
  O  O144  1  0.373100  0.413900  0.446260  1.0  -0.7234
  O  O145  1  0.659600  0.613900  0.183860  1.0  -0.6259
  O  O146  1  0.771100  0.443500  0.199510  1.0  -0.6212
  O  O147  1  0.768500  0.695800  0.291450  1.0  -0.6428
  O  O148  1  0.867400  0.521100  0.311000  1.0  -0.6497
  O  O149  1  0.313700  0.985900  0.159470  1.0  -0.7531
  O  O150  1  0.428500  0.938500  0.248230  1.0  -0.6692
  O  O151  1  0.121700  0.161500  0.130690  1.0  -0.7753
  O  O152  1  0.976300  0.245000  0.182210  1.0  -0.6197
  O  O153  1  0.597600  0.823400  0.116390  1.0  -0.6575
  O  O154  1  0.679600  0.871400  0.032140  1.0  -0.8476
  O  O155  1  0.939800  0.864600  0.998690  1.0  -0.7166
  O  O156  1  0.126900  0.913900  0.053740  1.0  -0.7227
  O  O157  1  0.840400  0.113900  0.316140  1.0  -0.6259
  O  O158  1  0.728900  0.943500  0.300490  1.0  -0.6226
  O  O159  1  0.731500  0.195800  0.208550  1.0  -0.6457
  O  O160  1  0.632600  0.021100  0.189000  1.0  -0.6453
