# generated using pymatgen
data_SmH4C7(NO3)2
_symmetry_space_group_name_H-M   'P 1'
_cell_length_a   10.25500000
_cell_length_b   11.26800000
_cell_length_c   22.19400000
_cell_angle_alpha   90.00000000
_cell_angle_beta   97.06100000
_cell_angle_gamma   90.00000000
_symmetry_Int_Tables_number   1
_chemical_formula_structural   SmH4C7(NO3)2
_chemical_formula_sum   'Sm8 H32 C56 N16 O48'
_cell_volume   2545.14056297
_cell_formula_units_Z   8
loop_
 _symmetry_equiv_pos_site_id
 _symmetry_equiv_pos_as_xyz
  1  'x, y, z'
loop_
 _atom_site_type_symbol
 _atom_site_label
 _atom_site_symmetry_multiplicity
 _atom_site_fract_x
 _atom_site_fract_y
 _atom_site_fract_z
 _atom_site_occupancy
 _atom_site_charge
  Sm  Sm1  1  0.389920  0.188340  0.774490  1.0  2.1978
  Sm  Sm2  1  0.739770  0.914850  0.935830  1.0  2.3443
  Sm  Sm3  1  0.110080  0.688340  0.725510  1.0  2.1973
  Sm  Sm4  1  0.760230  0.414850  0.564170  1.0  2.3423
  Sm  Sm5  1  0.610080  0.811660  0.225510  1.0  2.1973
  Sm  Sm6  1  0.260230  0.085150  0.064170  1.0  2.3445
  Sm  Sm7  1  0.889920  0.311660  0.274490  1.0  2.1978
  Sm  Sm8  1  0.239770  0.585150  0.435830  1.0  2.3451
  H  H9  1  0.662700  0.974100  0.665000  1.0  0.3335
  H  H10  1  0.884600  0.120700  0.838000  1.0  0.3016
  H  H11  1  0.890500  0.795300  0.592700  1.0  0.1666
  H  H12  1  0.738600  0.815900  0.579100  1.0  0.1478
  H  H13  1  0.835200  0.924000  0.580600  1.0  0.1442
  H  H14  1  0.882700  0.147300  0.728900  1.0  0.1246
  H  H15  1  0.012300  0.098100  0.707400  1.0  0.1687
  H  H16  1  0.993700  0.235100  0.714900  1.0  0.1571
  H  H17  1  0.837300  0.474100  0.835000  1.0  0.3312
  H  H18  1  0.615400  0.620700  0.662000  1.0  0.3028
  H  H19  1  0.609500  0.295300  0.907300  1.0  0.1643
  H  H20  1  0.761400  0.315900  0.920900  1.0  0.1468
  H  H21  1  0.664800  0.424000  0.919400  1.0  0.1433
  H  H22  1  0.617300  0.647300  0.771100  1.0  0.1251
  H  H23  1  0.487700  0.598100  0.792600  1.0  0.1677
  H  H24  1  0.506300  0.735100  0.785100  1.0  0.1569
  H  H25  1  0.337300  0.025900  0.335000  1.0  0.3308
  H  H26  1  0.115400  0.879300  0.162000  1.0  0.303
  H  H27  1  0.109500  0.204700  0.407300  1.0  0.1649
  H  H28  1  0.261400  0.184100  0.420900  1.0  0.1468
  H  H29  1  0.164800  0.076000  0.419400  1.0  0.1445
  H  H30  1  0.117300  0.852700  0.271100  1.0  0.1253
  H  H31  1  0.987700  0.901900  0.292600  1.0  0.1684
  H  H32  1  0.006300  0.764900  0.285100  1.0  0.1568
  H  H33  1  0.162700  0.525900  0.165000  1.0  0.3329
  H  H34  1  0.384600  0.379300  0.338000  1.0  0.3017
  H  H35  1  0.390500  0.704700  0.092700  1.0  0.1674
  H  H36  1  0.238600  0.684100  0.079100  1.0  0.1475
  H  H37  1  0.335200  0.576000  0.080600  1.0  0.1447
  H  H38  1  0.382700  0.352700  0.228900  1.0  0.1246
  H  H39  1  0.512300  0.401900  0.207400  1.0  0.1676
  H  H40  1  0.493700  0.264900  0.214900  1.0  0.156
  C  C41  1  0.265200  0.455200  0.785600  1.0  0.5492
  C  C42  1  0.204200  0.408800  0.722500  1.0  0.5528
  C  C43  1  0.660000  0.007300  0.783600  1.0  0.7534
  C  C44  1  0.740500  0.929700  0.747700  1.0  -0.0919
  C  C45  1  0.811900  0.863600  0.664200  1.0  0.4568
  C  C46  1  0.819800  0.848400  0.598300  1.0  -0.4533
  C  C47  1  0.850100  0.855900  0.761800  1.0  0.0095
  C  C48  1  0.919400  0.815000  0.820300  1.0  0.7362
  C  C49  1  0.992900  0.114700  0.951500  1.0  0.796
  C  C50  1  0.050900  0.130500  0.893600  1.0  -0.0861
  C  C51  1  0.035500  0.150500  0.793700  1.0  0.4796
  C  C52  1  0.976000  0.158400  0.730900  1.0  -0.4722
  C  C53  1  0.173800  0.149900  0.877000  1.0  0.0521
  C  C54  1  0.306200  0.152100  0.912700  1.0  0.791
  C  C55  1  0.234800  0.955200  0.714400  1.0  0.55
  C  C56  1  0.295800  0.908800  0.777500  1.0  0.5526
  C  C57  1  0.840000  0.507300  0.716400  1.0  0.753
  C  C58  1  0.759500  0.429700  0.752300  1.0  -0.0937
  C  C59  1  0.688100  0.363600  0.835800  1.0  0.4546
  C  C60  1  0.680200  0.348400  0.901700  1.0  -0.4534
  C  C61  1  0.649900  0.355900  0.738200  1.0  0.009
  C  C62  1  0.580600  0.315000  0.679700  1.0  0.7342
  C  C63  1  0.507100  0.614700  0.548500  1.0  0.7967
  C  C64  1  0.449100  0.630500  0.606400  1.0  -0.0888
  C  C65  1  0.464500  0.650500  0.706300  1.0  0.4778
  C  C66  1  0.524000  0.658400  0.769100  1.0  -0.4726
  C  C67  1  0.326200  0.649900  0.623000  1.0  0.0533
  C  C68  1  0.193800  0.652100  0.587300  1.0  0.7852
  C  C69  1  0.734800  0.544800  0.214400  1.0  0.5497
  C  C70  1  0.795800  0.591200  0.277500  1.0  0.5525
  C  C71  1  0.340000  0.992700  0.216400  1.0  0.7525
  C  C72  1  0.259500  0.070300  0.252300  1.0  -0.0935
  C  C73  1  0.188100  0.136400  0.335800  1.0  0.4549
  C  C74  1  0.180200  0.151600  0.401700  1.0  -0.4526
  C  C75  1  0.149900  0.144100  0.238200  1.0  0.0096
  C  C76  1  0.080600  0.185000  0.179700  1.0  0.7345
  C  C77  1  0.007100  0.885300  0.048500  1.0  0.7968
  C  C78  1  0.949100  0.869500  0.106400  1.0  -0.088
  C  C79  1  0.964500  0.849500  0.206300  1.0  0.4777
  C  C80  1  0.024000  0.841600  0.269100  1.0  -0.4722
  C  C81  1  0.826200  0.850100  0.123000  1.0  0.0532
  C  C82  1  0.693800  0.847900  0.087300  1.0  0.7854
  C  C83  1  0.765200  0.044800  0.285600  1.0  0.5489
  C  C84  1  0.704200  0.091200  0.222500  1.0  0.5527
  C  C85  1  0.160000  0.492700  0.283600  1.0  0.7531
  C  C86  1  0.240500  0.570300  0.247700  1.0  -0.0919
  C  C87  1  0.311900  0.636400  0.164200  1.0  0.4574
  C  C88  1  0.319800  0.651600  0.098300  1.0  -0.4533
  C  C89  1  0.350100  0.644100  0.261800  1.0  0.0091
  C  C90  1  0.419400  0.685000  0.320300  1.0  0.7368
  C  C91  1  0.492900  0.385300  0.451500  1.0  0.7965
  C  C92  1  0.550900  0.369500  0.393600  1.0  -0.0861
  C  C93  1  0.535500  0.349500  0.293700  1.0  0.4797
  C  C94  1  0.476000  0.341600  0.230900  1.0  -0.4719
  C  C95  1  0.673800  0.350100  0.377000  1.0  0.0522
  C  C96  1  0.806200  0.347900  0.412700  1.0  0.7912
  N  N97  1  0.892800  0.817100  0.709400  1.0  -0.5436
  N  N98  1  0.722300  0.933400  0.686500  1.0  -0.2829
  N  N99  1  0.163200  0.161500  0.815300  1.0  -0.5446
  N  N100  1  0.968200  0.131200  0.840800  1.0  -0.266
  N  N101  1  0.607200  0.317100  0.790600  1.0  -0.5402
  N  N102  1  0.777700  0.433400  0.813500  1.0  -0.2829
  N  N103  1  0.336800  0.661500  0.684700  1.0  -0.5373
  N  N104  1  0.531800  0.631200  0.659200  1.0  -0.2668
  N  N105  1  0.107200  0.182900  0.290600  1.0  -0.5428
  N  N106  1  0.277700  0.066600  0.313500  1.0  -0.2832
  N  N107  1  0.836800  0.838500  0.184700  1.0  -0.5365
  N  N108  1  0.031800  0.868800  0.159200  1.0  -0.267
  N  N109  1  0.392800  0.682900  0.209400  1.0  -0.5462
  N  N110  1  0.222300  0.566600  0.186500  1.0  -0.2826
  N  N111  1  0.663200  0.338500  0.315300  1.0  -0.5441
  N  N112  1  0.468200  0.368800  0.340800  1.0  -0.266
  O  O113  1  0.341300  0.388200  0.815800  1.0  -0.6241
  O  O114  1  0.228300  0.557300  0.800700  1.0  -0.6386
  O  O115  1  0.230800  0.305900  0.709000  1.0  -0.6245
  O  O116  1  0.133000  0.479200  0.689600  1.0  -0.6832
  O  O117  1  0.572300  0.062100  0.751800  1.0  -0.6638
  O  O118  1  0.686300  0.015400  0.839800  1.0  -0.8269
  O  O119  1  0.875700  0.840300  0.868900  1.0  -0.8176
  O  O120  1  0.024500  0.758100  0.817600  1.0  -0.6113
  O  O121  1  0.061400  0.134100  0.001500  1.0  -0.7376
  O  O122  1  0.874600  0.088600  0.945600  1.0  -0.7414
  O  O123  1  0.320300  0.127900  0.967800  1.0  -0.8847
  O  O124  1  0.402300  0.177400  0.883800  1.0  -0.668
  O  O125  1  0.158700  0.888200  0.684200  1.0  -0.6272
  O  O126  1  0.271700  0.057300  0.699300  1.0  -0.6341
  O  O127  1  0.269200  0.805900  0.791000  1.0  -0.623
  O  O128  1  0.367000  0.979200  0.810400  1.0  -0.6837
  O  O129  1  0.927700  0.562100  0.748200  1.0  -0.6645
  O  O130  1  0.813700  0.515400  0.660200  1.0  -0.8264
  O  O131  1  0.624300  0.340300  0.631100  1.0  -0.8159
  O  O132  1  0.475500  0.258100  0.682400  1.0  -0.6096
  O  O133  1  0.438600  0.634100  0.498500  1.0  -0.7368
  O  O134  1  0.625400  0.588600  0.554400  1.0  -0.7408
  O  O135  1  0.179700  0.627900  0.532200  1.0  -0.8841
  O  O136  1  0.097700  0.677400  0.616200  1.0  -0.666
  O  O137  1  0.658700  0.611800  0.184200  1.0  -0.6272
  O  O138  1  0.771700  0.442700  0.199300  1.0  -0.636
  O  O139  1  0.769200  0.694100  0.291000  1.0  -0.6221
  O  O140  1  0.867000  0.520800  0.310400  1.0  -0.6835
  O  O141  1  0.427700  0.937900  0.248200  1.0  -0.6635
  O  O142  1  0.313700  0.984600  0.160200  1.0  -0.8265
  O  O143  1  0.124300  0.159700  0.131100  1.0  -0.8177
  O  O144  1  0.975500  0.241900  0.182400  1.0  -0.6092
  O  O145  1  0.938600  0.865900  0.998500  1.0  -0.7368
  O  O146  1  0.125400  0.911400  0.054400  1.0  -0.7409
  O  O147  1  0.679700  0.872100  0.032200  1.0  -0.8832
  O  O148  1  0.597700  0.822600  0.116200  1.0  -0.6658
  O  O149  1  0.841300  0.111800  0.315800  1.0  -0.6233
  O  O150  1  0.728300  0.942700  0.300700  1.0  -0.6385
  O  O151  1  0.730800  0.194100  0.209000  1.0  -0.6233
  O  O152  1  0.633000  0.020800  0.189600  1.0  -0.6829
  O  O153  1  0.072300  0.437900  0.251800  1.0  -0.6645
  O  O154  1  0.186300  0.484600  0.339800  1.0  -0.8265
  O  O155  1  0.375700  0.659700  0.368900  1.0  -0.8176
  O  O156  1  0.524500  0.741900  0.317600  1.0  -0.6102
  O  O157  1  0.561400  0.365900  0.501500  1.0  -0.737
  O  O158  1  0.374600  0.411400  0.445600  1.0  -0.7417
  O  O159  1  0.820300  0.372100  0.467800  1.0  -0.8844
  O  O160  1  0.902300  0.322600  0.383800  1.0  -0.6683
