# generated using pymatgen
data_NdH4C7(NO3)2
_symmetry_space_group_name_H-M   'P 1'
_cell_length_a   10.32460000
_cell_length_b   11.33590000
_cell_length_c   22.31600000
_cell_angle_alpha   90.00000000
_cell_angle_beta   97.29000000
_cell_angle_gamma   90.00000000
_symmetry_Int_Tables_number   1
_chemical_formula_structural   NdH4C7(NO3)2
_chemical_formula_sum   'Nd8 H32 C56 N16 O48'
_cell_volume   2590.72164869
_cell_formula_units_Z   8
loop_
 _symmetry_equiv_pos_site_id
 _symmetry_equiv_pos_as_xyz
  1  'x, y, z'
loop_
 _atom_site_type_symbol
 _atom_site_label
 _atom_site_symmetry_multiplicity
 _atom_site_fract_x
 _atom_site_fract_y
 _atom_site_fract_z
 _atom_site_occupancy
 _atom_site_charge
  Nd  Nd1  1  0.890900  0.309630  0.774570  1.0  2.2061
  Nd  Nd2  1  0.238390  0.582590  0.935500  1.0  2.2491
  Nd  Nd3  1  0.609100  0.809630  0.725430  1.0  2.2063
  Nd  Nd4  1  0.261610  0.082590  0.564500  1.0  2.2492
  Nd  Nd5  1  0.109100  0.690370  0.225430  1.0  2.2062
  Nd  Nd6  1  0.761610  0.417410  0.064500  1.0  2.2476
  Nd  Nd7  1  0.390900  0.190370  0.274570  1.0  2.2059
  Nd  Nd8  1  0.738390  0.917410  0.435500  1.0  2.2481
  H  H9  1  0.384600  0.376700  0.838300  1.0  0.2986
  H  H10  1  0.163700  0.522800  0.664700  1.0  0.2964
  H  H11  1  0.520600  0.281000  0.710200  1.0  0.1482
  H  H12  1  0.385500  0.316600  0.729900  1.0  0.127
  H  H13  1  0.480300  0.414300  0.711400  1.0  0.1326
  H  H14  1  0.378400  0.588700  0.585600  1.0  0.1402
  H  H15  1  0.234900  0.636900  0.576100  1.0  0.1422
  H  H16  1  0.352300  0.724400  0.590600  1.0  0.1484
  H  H17  1  0.115400  0.876700  0.661700  1.0  0.2999
  H  H18  1  0.336300  0.022800  0.835300  1.0  0.2951
  H  H19  1  0.979400  0.781000  0.789800  1.0  0.1478
  H  H20  1  0.114500  0.816600  0.770100  1.0  0.1283
  H  H21  1  0.019700  0.914300  0.788600  1.0  0.1324
  H  H22  1  0.121600  0.088700  0.914400  1.0  0.1411
  H  H23  1  0.265100  0.136900  0.923900  1.0  0.1435
  H  H24  1  0.147700  0.224400  0.909400  1.0  0.148
  H  H25  1  0.615400  0.623300  0.161700  1.0  0.2997
  H  H26  1  0.836300  0.477200  0.335300  1.0  0.2949
  H  H27  1  0.479400  0.719000  0.289800  1.0  0.1475
  H  H28  1  0.614500  0.683400  0.270100  1.0  0.1271
  H  H29  1  0.519700  0.585700  0.288600  1.0  0.1314
  H  H30  1  0.621600  0.411300  0.414400  1.0  0.1405
  H  H31  1  0.765100  0.363100  0.423900  1.0  0.1432
  H  H32  1  0.647700  0.275600  0.409400  1.0  0.1485
  H  H33  1  0.884600  0.123300  0.338300  1.0  0.2986
  H  H34  1  0.663700  0.977200  0.164700  1.0  0.2966
  H  H35  1  0.020600  0.219000  0.210200  1.0  0.1482
  H  H36  1  0.885500  0.183400  0.229900  1.0  0.1269
  H  H37  1  0.980300  0.085700  0.211400  1.0  0.1315
  H  H38  1  0.878400  0.911300  0.085600  1.0  0.1403
  H  H39  1  0.734900  0.863100  0.076100  1.0  0.1416
  H  H40  1  0.852300  0.775600  0.090600  1.0  0.1478
  C  C41  1  0.673800  0.350800  0.876700  1.0  0.0416
  C  C42  1  0.551500  0.370000  0.893800  1.0  -0.0896
  C  C43  1  0.537300  0.348300  0.795300  1.0  0.4474
  C  C44  1  0.805000  0.348900  0.912800  1.0  0.7658
  C  C45  1  0.493900  0.383800  0.951300  1.0  0.7734
  C  C46  1  0.475300  0.339200  0.730900  1.0  -0.4498
  C  C47  1  0.735600  0.541900  0.715000  1.0  0.5988
  C  C48  1  0.795800  0.587900  0.776900  1.0  0.5753
  C  C49  1  0.347200  0.641200  0.761600  1.0  0.012
  C  C50  1  0.242000  0.568200  0.747200  1.0  -0.0417
  C  C51  1  0.312400  0.633500  0.664000  1.0  0.4484
  C  C52  1  0.418200  0.681900  0.819600  1.0  0.7266
  C  C53  1  0.160700  0.489600  0.782000  1.0  0.7032
  C  C54  1  0.320200  0.647100  0.598200  1.0  -0.4523
  C  C55  1  0.826200  0.850800  0.623300  1.0  0.0429
  C  C56  1  0.948500  0.870000  0.606200  1.0  -0.0911
  C  C57  1  0.962700  0.848300  0.704700  1.0  0.4477
  C  C58  1  0.695000  0.848900  0.587200  1.0  0.7623
  C  C59  1  0.006100  0.883800  0.548700  1.0  0.7753
  C  C60  1  0.024700  0.839200  0.769100  1.0  -0.4503
  C  C61  1  0.764400  0.041900  0.785000  1.0  0.5989
  C  C62  1  0.704200  0.087900  0.723100  1.0  0.5773
  C  C63  1  0.152800  0.141200  0.738400  1.0  0.0133
  C  C64  1  0.258000  0.068200  0.752800  1.0  -0.0411
  C  C65  1  0.187600  0.133500  0.836000  1.0  0.4459
  C  C66  1  0.081800  0.181900  0.680400  1.0  0.7255
  C  C67  1  0.339300  0.989600  0.718000  1.0  0.7015
  C  C68  1  0.179800  0.147100  0.901800  1.0  -0.4505
  C  C69  1  0.326200  0.649200  0.123300  1.0  0.0427
  C  C70  1  0.448500  0.630000  0.106200  1.0  -0.0921
  C  C71  1  0.462700  0.651700  0.204700  1.0  0.4473
  C  C72  1  0.195000  0.651100  0.087200  1.0  0.7621
  C  C73  1  0.506100  0.616200  0.048700  1.0  0.7745
  C  C74  1  0.524700  0.660800  0.269100  1.0  -0.4504
  C  C75  1  0.264400  0.458100  0.285000  1.0  0.5992
  C  C76  1  0.204200  0.412100  0.223100  1.0  0.5764
  C  C77  1  0.652800  0.358800  0.238400  1.0  0.0133
  C  C78  1  0.758000  0.431800  0.252800  1.0  -0.0412
  C  C79  1  0.687600  0.366500  0.336000  1.0  0.4458
  C  C80  1  0.581800  0.318100  0.180400  1.0  0.7255
  C  C81  1  0.839300  0.510400  0.218000  1.0  0.7016
  C  C82  1  0.679800  0.352900  0.401800  1.0  -0.451
  C  C83  1  0.173800  0.149200  0.376700  1.0  0.0413
  C  C84  1  0.051500  0.130000  0.393800  1.0  -0.0898
  C  C85  1  0.037300  0.151700  0.295300  1.0  0.447
  C  C86  1  0.305000  0.151100  0.412800  1.0  0.7656
  C  C87  1  0.993900  0.116200  0.451300  1.0  0.773
  C  C88  1  0.975300  0.160800  0.230900  1.0  -0.4502
  C  C89  1  0.235600  0.958100  0.215000  1.0  0.5989
  C  C90  1  0.295800  0.912100  0.276900  1.0  0.5749
  C  C91  1  0.847200  0.858800  0.261600  1.0  0.0126
  C  C92  1  0.742000  0.931800  0.247200  1.0  -0.0418
  C  C93  1  0.812400  0.866500  0.164000  1.0  0.4478
  C  C94  1  0.918200  0.818100  0.319600  1.0  0.7265
  C  C95  1  0.660700  0.010400  0.282000  1.0  0.7033
  C  C96  1  0.820200  0.852900  0.098200  1.0  -0.4522
  N  N97  1  0.662900  0.337000  0.815500  1.0  -0.4785
  N  N98  1  0.467800  0.367500  0.841400  1.0  -0.2631
  N  N99  1  0.390500  0.681200  0.709100  1.0  -0.5296
  N  N100  1  0.222900  0.563500  0.686000  1.0  -0.2144
  N  N101  1  0.837100  0.837000  0.684500  1.0  -0.4789
  N  N102  1  0.032200  0.867500  0.658600  1.0  -0.2636
  N  N103  1  0.109500  0.181200  0.790900  1.0  -0.5302
  N  N104  1  0.277100  0.063500  0.814000  1.0  -0.2126
  N  N105  1  0.337100  0.663000  0.184500  1.0  -0.4797
  N  N106  1  0.532200  0.632500  0.158600  1.0  -0.2633
  N  N107  1  0.609500  0.318800  0.290900  1.0  -0.5287
  N  N108  1  0.777100  0.436500  0.314000  1.0  -0.2115
  N  N109  1  0.162900  0.163000  0.315500  1.0  -0.4793
  N  N110  1  0.967800  0.132500  0.341400  1.0  -0.2629
  N  N111  1  0.890500  0.818800  0.209100  1.0  -0.5279
  N  N112  1  0.722900  0.936500  0.186000  1.0  -0.2144
  O  O113  1  0.900100  0.321100  0.884560  1.0  -0.6847
  O  O114  1  0.819800  0.374800  0.967640  1.0  -0.8667
  O  O115  1  0.562700  0.365700  0.001230  1.0  -0.7285
  O  O116  1  0.375500  0.410500  0.945610  1.0  -0.7495
  O  O117  1  0.768100  0.441400  0.698930  1.0  -0.6494
  O  O118  1  0.657800  0.609200  0.684280  1.0  -0.6476
  O  O119  1  0.868300  0.518800  0.809610  1.0  -0.6727
  O  O120  1  0.768900  0.691400  0.790470  1.0  -0.6507
  O  O121  1  0.521900  0.737700  0.817850  1.0  -0.6147
  O  O122  1  0.375100  0.658700  0.868400  1.0  -0.7908
  O  O123  1  0.185400  0.481200  0.838170  1.0  -0.7557
  O  O124  1  0.073600  0.435600  0.750310  1.0  -0.6484
  O  O125  1  0.599900  0.821100  0.615440  1.0  -0.6825
  O  O126  1  0.680200  0.874800  0.532360  1.0  -0.8669
  O  O127  1  0.937300  0.865700  0.498770  1.0  -0.7282
  O  O128  1  0.124500  0.910500  0.554390  1.0  -0.7492
  O  O129  1  0.731900  0.941400  0.801070  1.0  -0.6521
  O  O130  1  0.842200  0.109200  0.815720  1.0  -0.6471
  O  O131  1  0.631700  0.018800  0.690390  1.0  -0.671
  O  O132  1  0.731100  0.191400  0.709530  1.0  -0.6526
  O  O133  1  0.978100  0.237700  0.682150  1.0  -0.6124
  O  O134  1  0.124900  0.158700  0.631600  1.0  -0.7922
  O  O135  1  0.314600  0.981200  0.661830  1.0  -0.7553
  O  O136  1  0.426400  0.935600  0.749690  1.0  -0.6517
  O  O137  1  0.099900  0.678900  0.115440  1.0  -0.6827
  O  O138  1  0.180200  0.625200  0.032360  1.0  -0.8676
  O  O139  1  0.437300  0.634300  0.998770  1.0  -0.7276
  O  O140  1  0.624500  0.589500  0.054390  1.0  -0.749
  O  O141  1  0.231900  0.558600  0.301070  1.0  -0.6524
  O  O142  1  0.342200  0.390800  0.315720  1.0  -0.6466
  O  O143  1  0.131700  0.481200  0.190390  1.0  -0.6711
  O  O144  1  0.231100  0.308600  0.209530  1.0  -0.6516
  O  O145  1  0.478100  0.262300  0.182150  1.0  -0.6122
  O  O146  1  0.624900  0.341300  0.131600  1.0  -0.7921
  O  O147  1  0.814600  0.518800  0.161830  1.0  -0.755
  O  O148  1  0.926400  0.564400  0.249690  1.0  -0.648
  O  O149  1  0.400100  0.178900  0.384560  1.0  -0.6842
  O  O150  1  0.319800  0.125200  0.467640  1.0  -0.867
  O  O151  1  0.062700  0.134300  0.501230  1.0  -0.7278
  O  O152  1  0.875500  0.089500  0.445610  1.0  -0.7489
  O  O153  1  0.268100  0.058600  0.198930  1.0  -0.6496
  O  O154  1  0.157800  0.890800  0.184280  1.0  -0.6475
  O  O155  1  0.368300  0.981200  0.309610  1.0  -0.6729
  O  O156  1  0.268900  0.808600  0.290470  1.0  -0.6502
  O  O157  1  0.021900  0.762300  0.317850  1.0  -0.6157
  O  O158  1  0.875100  0.841300  0.368400  1.0  -0.7916
  O  O159  1  0.685400  0.018800  0.338170  1.0  -0.7564
  O  O160  1  0.573600  0.064400  0.250310  1.0  -0.6522
