# generated using pymatgen
data_Cu2H26C28(NO2)5
_symmetry_space_group_name_H-M   'P 1'
_cell_length_a   11.57500000
_cell_length_b   12.63400000
_cell_length_c   14.33500000
_cell_angle_alpha   101.36900000
_cell_angle_beta   102.93500000
_cell_angle_gamma   96.45700000
_symmetry_Int_Tables_number   1
_chemical_formula_structural   Cu2H26C28(NO2)5
_chemical_formula_sum   'Cu4 H52 C56 N10 O20'
_cell_volume   1975.96482734
_cell_formula_units_Z   2
loop_
 _symmetry_equiv_pos_site_id
 _symmetry_equiv_pos_as_xyz
  1  'x, y, z'
loop_
 _atom_site_type_symbol
 _atom_site_label
 _atom_site_symmetry_multiplicity
 _atom_site_fract_x
 _atom_site_fract_y
 _atom_site_fract_z
 _atom_site_occupancy
 _atom_site_charge
  Cu  Cu1  1  0.900350  0.937020  0.285580  1.0  0.968
  Cu  Cu2  1  0.106150  0.950020  0.483560  1.0  0.9984
  Cu  Cu3  1  0.099650  0.062980  0.714420  1.0  0.976
  Cu  Cu4  1  0.893850  0.049980  0.516440  1.0  0.9983
  H  H5  1  0.561600  0.695000  0.469300  1.0  0.097
  H  H6  1  0.572300  0.591200  0.713800  1.0  0.0996
  H  H7  1  0.256100  0.565600  0.523200  1.0  0.1039
  H  H8  1  0.180600  0.682900  0.234100  1.0  0.1148
  H  H9  1  0.067800  0.615800  0.251000  1.0  0.1192
  H  H10  1  0.947400  0.713300  0.656200  1.0  0.119
  H  H11  1  0.946700  0.711900  0.546400  1.0  0.1238
  H  H12  1  0.407700  0.339200  0.821000  1.0  0.1327
  H  H13  1  0.301500  0.405700  0.820600  1.0  0.1315
  H  H14  1  0.336400  0.106200  0.529800  1.0  0.0897
  H  H15  1  0.527600  0.121200  0.607100  1.0  0.1075
  H  H16  1  0.448600  0.844200  0.694000  1.0  0.1259
  H  H17  1  0.254800  0.832200  0.608100  1.0  0.0784
  H  H18  1  0.680400  0.946600  0.662000  1.0  0.0996
  H  H19  1  0.686100  0.070900  0.708800  1.0  0.0973
  H  H20  1  0.630500  0.902300  0.799500  1.0  0.072
  H  H21  1  0.641900  0.027400  0.846500  1.0  0.0726
  H  H22  1  0.843500  0.921100  0.810700  1.0  0.0995
  H  H23  1  0.858300  0.049300  0.843800  1.0  0.0995
  H  H24  1  0.844500  0.131300  0.015700  1.0  0.1327
  H  H25  1  0.862700  0.110000  0.172200  1.0  0.0848
  H  H26  1  0.865300  0.800800  0.089700  1.0  0.0804
  H  H27  1  0.832800  0.811200  0.930300  1.0  0.1274
  H  H28  1  0.178200  0.603400  0.395500  1.0  0.3105
  H  H29  1  0.746900  0.683900  0.508000  1.0  0.2782
  H  H30  1  0.468000  0.431100  0.718400  1.0  0.2808
  H  H31  1  0.438400  0.305000  0.530700  1.0  0.0968
  H  H32  1  0.427700  0.408800  0.286200  1.0  0.1001
  H  H33  1  0.743900  0.434400  0.476800  1.0  0.1038
  H  H34  1  0.819400  0.317100  0.765900  1.0  0.1151
  H  H35  1  0.932200  0.384200  0.749000  1.0  0.1193
  H  H36  1  0.052600  0.286700  0.343800  1.0  0.1199
  H  H37  1  0.053300  0.288100  0.453600  1.0  0.1242
  H  H38  1  0.592300  0.660800  0.179000  1.0  0.134
  H  H39  1  0.698500  0.594300  0.179400  1.0  0.1269
  H  H40  1  0.663600  0.893800  0.470200  1.0  0.0897
  H  H41  1  0.472400  0.878800  0.392900  1.0  0.1057
  H  H42  1  0.551400  0.155800  0.306000  1.0  0.1258
  H  H43  1  0.745200  0.167800  0.391900  1.0  0.078
  H  H44  1  0.319600  0.053400  0.338000  1.0  0.0982
  H  H45  1  0.313900  0.929100  0.291200  1.0  0.0982
  H  H46  1  0.369500  0.097700  0.200500  1.0  0.0741
  H  H47  1  0.358100  0.972600  0.153500  1.0  0.0724
  H  H48  1  0.156500  0.078900  0.189300  1.0  0.0996
  H  H49  1  0.141700  0.950700  0.156200  1.0  0.1003
  H  H50  1  0.155500  0.868700  0.984300  1.0  0.1321
  H  H51  1  0.137300  0.890000  0.827800  1.0  0.0845
  H  H52  1  0.134700  0.199200  0.910300  1.0  0.0809
  H  H53  1  0.167200  0.188800  0.069700  1.0  0.1264
  H  H54  1  0.821800  0.396600  0.604500  1.0  0.3069
  H  H55  1  0.253100  0.316100  0.492000  1.0  0.2779
  H  H56  1  0.532000  0.568900  0.281600  1.0  0.2799
  C  C57  1  0.397000  0.630500  0.478200  1.0  -0.1407
  C  C58  1  0.522300  0.663200  0.509300  1.0  -0.0338
  C  C59  1  0.587500  0.649700  0.596400  1.0  -0.0971
  C  C60  1  0.528100  0.600900  0.654300  1.0  -0.0375
  C  C61  1  0.407600  0.566800  0.627700  1.0  -0.0807
  C  C62  1  0.339400  0.584400  0.540200  1.0  -0.0619
  C  C63  1  0.331100  0.648700  0.380700  1.0  0.5272
  C  C64  1  0.137100  0.672400  0.282900  1.0  -0.1164
  C  C65  1  0.094700  0.776800  0.319500  1.0  0.7318
  C  C66  1  0.717800  0.683700  0.631600  1.0  0.5423
  C  C67  1  0.911000  0.739900  0.599300  1.0  -0.1214
  C  C68  1  0.937100  0.863400  0.624400  1.0  0.6964
  C  C69  1  0.337900  0.507800  0.684500  1.0  0.5522
  C  C70  1  0.343400  0.363600  0.778700  1.0  -0.1358
  C  C71  1  0.256600  0.264200  0.713400  1.0  0.6842
  C  C72  1  0.360200  0.053000  0.563100  1.0  0.1835
  C  C73  1  0.473200  0.062000  0.609100  1.0  -0.2096
  C  C74  1  0.513300  0.987600  0.659400  1.0  0.1581
  C  C75  1  0.426400  0.897200  0.660000  1.0  -0.2173
  C  C76  1  0.311100  0.891600  0.609600  1.0  0.191
  C  C77  1  0.646900  0.997400  0.704500  1.0  -0.1986
  C  C78  1  0.672100  0.974600  0.803000  1.0  -0.0738
  C  C79  1  0.814600  0.980900  0.847700  1.0  -0.2108
  C  C80  1  0.833300  0.973000  0.952600  1.0  0.1699
  C  C81  1  0.845800  0.062000  0.028400  1.0  -0.2373
  C  C82  1  0.860300  0.049200  0.122800  1.0  0.1769
  C  C83  1  0.860000  0.868800  0.074800  1.0  0.1837
  C  C84  1  0.840800  0.874500  0.978700  1.0  -0.2407
  C  C85  1  0.603000  0.369500  0.521800  1.0  -0.1397
  C  C86  1  0.477700  0.336800  0.490700  1.0  -0.0334
  C  C87  1  0.412500  0.350300  0.403600  1.0  -0.0933
  C  C88  1  0.471900  0.399100  0.345700  1.0  -0.0384
  C  C89  1  0.592400  0.433200  0.372300  1.0  -0.0819
  C  C90  1  0.660600  0.415600  0.459800  1.0  -0.0621
  C  C91  1  0.668900  0.351300  0.619300  1.0  0.5265
  C  C92  1  0.862900  0.327600  0.717100  1.0  -0.1264
  C  C93  1  0.905300  0.223200  0.680500  1.0  0.731
  C  C94  1  0.282200  0.316300  0.368400  1.0  0.5254
  C  C95  1  0.089000  0.260100  0.400700  1.0  -0.1207
  C  C96  1  0.062900  0.136600  0.375600  1.0  0.6975
  C  C97  1  0.662100  0.492200  0.315500  1.0  0.5512
  C  C98  1  0.656600  0.636400  0.221300  1.0  -0.1355
  C  C99  1  0.743400  0.735800  0.286600  1.0  0.6906
  C  C100  1  0.639800  0.947000  0.436900  1.0  0.1847
  C  C101  1  0.526800  0.938000  0.390900  1.0  -0.2093
  C  C102  1  0.486700  0.012400  0.340600  1.0  0.1574
  C  C103  1  0.573600  0.102800  0.340000  1.0  -0.2207
  C  C104  1  0.688900  0.108400  0.390400  1.0  0.1905
  C  C105  1  0.353100  0.002600  0.295500  1.0  -0.199
  C  C106  1  0.327900  0.025400  0.197000  1.0  -0.0722
  C  C107  1  0.185400  0.019100  0.152300  1.0  -0.2104
  C  C108  1  0.166700  0.027000  0.047400  1.0  0.1693
  C  C109  1  0.154200  0.938000  0.971600  1.0  -0.2393
  C  C110  1  0.139700  0.950800  0.877200  1.0  0.1776
  C  C111  1  0.140000  0.131200  0.925200  1.0  0.1833
  C  C112  1  0.159200  0.125500  0.021300  1.0  -0.2377
  N  N113  1  0.213100  0.636400  0.359600  1.0  -0.3584
  N  N114  1  0.782400  0.698900  0.569700  1.0  -0.3622
  N  N115  1  0.396400  0.435700  0.724500  1.0  -0.404
  N  N116  1  0.275100  0.966900  0.562500  1.0  -0.3488
  N  N117  1  0.871200  0.953300  0.147200  1.0  -0.3367
  N  N118  1  0.786900  0.363600  0.640400  1.0  -0.359
  N  N119  1  0.217600  0.301100  0.430300  1.0  -0.3624
  N  N120  1  0.603600  0.564300  0.275500  1.0  -0.4033
  N  N121  1  0.724900  0.033100  0.437500  1.0  -0.3494
  N  N122  1  0.128800  0.046700  0.852800  1.0  -0.3379
  O  O123  1  0.389400  0.675000  0.323400  1.0  -0.559
  O  O124  1  0.125000  0.812200  0.409000  1.0  -0.5955
  O  O125  1  0.033500  0.816500  0.256670  1.0  -0.6386
  O  O126  1  0.768200  0.696900  0.722380  1.0  -0.5761
  O  O127  1  0.857400  0.919000  0.603060  1.0  -0.6149
  O  O128  1  0.048500  0.903200  0.664700  1.0  -0.6222
  O  O129  1  0.239500  0.521900  0.693150  1.0  -0.5239
  O  O130  1  0.219000  0.258600  0.624770  1.0  -0.5247
  O  O131  1  0.230800  0.192600  0.758200  1.0  -0.6158
  O  O132  1  0.931700  0.927700  0.423180  1.0  -0.735
  O  O133  1  0.610600  0.325000  0.676600  1.0  -0.5593
  O  O134  1  0.875000  0.187800  0.591000  1.0  -0.594
  O  O135  1  0.966500  0.183500  0.743330  1.0  -0.6406
  O  O136  1  0.231800  0.303100  0.277620  1.0  -0.576
  O  O137  1  0.142600  0.081000  0.396940  1.0  -0.6155
  O  O138  1  0.951500  0.096800  0.335300  1.0  -0.616
  O  O139  1  0.760500  0.478100  0.306850  1.0  -0.5322
  O  O140  1  0.781000  0.741400  0.375230  1.0  -0.5242
  O  O141  1  0.769200  0.807400  0.241800  1.0  -0.6183
  O  O142  1  0.068300  0.072300  0.576820  1.0  -0.7352
