# generated using pymatgen
data_Cu2H11C19(NO3)2
_symmetry_space_group_name_H-M   'P 1'
_cell_length_a   11.35020000
_cell_length_b   16.15010000
_cell_length_c   11.36580000
_cell_angle_alpha   90.00000000
_cell_angle_beta   101.93500000
_cell_angle_gamma   90.00000000
_symmetry_Int_Tables_number   1
_chemical_formula_structural   Cu2H11C19(NO3)2
_chemical_formula_sum   'Cu8 H44 C76 N8 O24'
_cell_volume   2038.39134391
_cell_formula_units_Z   4
loop_
 _symmetry_equiv_pos_site_id
 _symmetry_equiv_pos_as_xyz
  1  'x, y, z'
loop_
 _atom_site_type_symbol
 _atom_site_label
 _atom_site_symmetry_multiplicity
 _atom_site_fract_x
 _atom_site_fract_y
 _atom_site_fract_z
 _atom_site_occupancy
 _atom_site_charge
  Cu  Cu1  1  0.372570  0.589840  0.616270  1.0  0.7409
  Cu  Cu2  1  0.872570  0.089840  0.616270  1.0  0.7409
  Cu  Cu3  1  0.627430  0.589840  0.883730  1.0  0.738
  Cu  Cu4  1  0.127430  0.089840  0.883730  1.0  0.738
  Cu  Cu5  1  0.627430  0.410160  0.383730  1.0  0.7367
  Cu  Cu6  1  0.127430  0.910160  0.383730  1.0  0.7367
  Cu  Cu7  1  0.372570  0.410160  0.116270  1.0  0.7402
  Cu  Cu8  1  0.872570  0.910160  0.116270  1.0  0.7402
  H  H9  1  0.437400  0.805900  0.402100  1.0  0.1111
  H  H10  1  0.362200  0.759500  0.703200  1.0  0.0931
  H  H11  1  0.305000  0.829500  0.857500  1.0  0.1307
  H  H12  1  0.254700  0.611000  0.006700  1.0  0.1249
  H  H13  1  0.313000  0.546400  0.848600  1.0  0.0956
  H  H14  1  0.937400  0.305900  0.402100  1.0  0.1111
  H  H15  1  0.862200  0.259500  0.703200  1.0  0.0931
  H  H16  1  0.805000  0.329500  0.857500  1.0  0.1307
  H  H17  1  0.754700  0.111000  0.006700  1.0  0.1249
  H  H18  1  0.813000  0.046400  0.848600  1.0  0.0956
  H  H19  1  0.562600  0.805900  0.097900  1.0  0.1112
  H  H20  1  0.637800  0.759500  0.796800  1.0  0.0929
  H  H21  1  0.695000  0.829500  0.642500  1.0  0.1306
  H  H22  1  0.745300  0.611000  0.493300  1.0  0.1247
  H  H23  1  0.687000  0.546400  0.651400  1.0  0.0963
  H  H24  1  0.062600  0.305900  0.097900  1.0  0.1112
  H  H25  1  0.137800  0.259500  0.796800  1.0  0.0929
  H  H26  1  0.195000  0.329500  0.642500  1.0  0.1306
  H  H27  1  0.245300  0.111000  0.493300  1.0  0.1247
  H  H28  1  0.187000  0.046400  0.651400  1.0  0.0963
  H  H29  1  0.562600  0.194100  0.597900  1.0  0.1111
  H  H30  1  0.637800  0.240500  0.296800  1.0  0.0928
  H  H31  1  0.695000  0.170500  0.142500  1.0  0.1334
  H  H32  1  0.745300  0.389000  0.993300  1.0  0.125
  H  H33  1  0.687000  0.453600  0.151400  1.0  0.0945
  H  H34  1  0.062600  0.694100  0.597900  1.0  0.1111
  H  H35  1  0.137800  0.740500  0.296800  1.0  0.0928
  H  H36  1  0.195000  0.670500  0.142500  1.0  0.1334
  H  H37  1  0.245300  0.889000  0.993300  1.0  0.125
  H  H38  1  0.187000  0.953600  0.151400  1.0  0.0945
  H  H39  1  0.437400  0.194100  0.902100  1.0  0.1111
  H  H40  1  0.362200  0.240500  0.203200  1.0  0.093
  H  H41  1  0.305000  0.170500  0.357500  1.0  0.134
  H  H42  1  0.254700  0.389000  0.506700  1.0  0.1252
  H  H43  1  0.313000  0.453600  0.348600  1.0  0.095
  H  H44  1  0.937400  0.694100  0.902100  1.0  0.1111
  H  H45  1  0.862200  0.740500  0.203200  1.0  0.093
  H  H46  1  0.805000  0.670500  0.357500  1.0  0.134
  H  H47  1  0.754700  0.889000  0.506700  1.0  0.1252
  H  H48  1  0.813000  0.953600  0.348600  1.0  0.095
  H  H49  1  0.500000  0.877400  0.250000  1.0  0.1176
  H  H50  1  0.000000  0.377400  0.250000  1.0  0.1176
  H  H51  1  0.500000  0.122600  0.750000  1.0  0.1188
  H  H52  1  0.000000  0.622600  0.750000  1.0  0.1188
  C  C53  1  0.462690  0.690390  0.341930  1.0  -0.1555
  C  C54  1  0.462700  0.776960  0.341000  1.0  -0.069
  C  C55  1  0.422640  0.648860  0.444160  1.0  0.6282
  C  C56  1  0.339500  0.729460  0.764800  1.0  0.1749
  C  C57  1  0.305000  0.771900  0.857200  1.0  -0.1733
  C  C58  1  0.270030  0.728360  0.950040  1.0  0.0542
  C  C59  1  0.275200  0.642530  0.945400  1.0  -0.1761
  C  C60  1  0.310600  0.603900  0.850300  1.0  0.1496
  C  C61  1  0.962690  0.190390  0.341930  1.0  -0.1555
  C  C62  1  0.962700  0.276960  0.341000  1.0  -0.069
  C  C63  1  0.922640  0.148860  0.444160  1.0  0.6282
  C  C64  1  0.839500  0.229460  0.764800  1.0  0.1749
  C  C65  1  0.805000  0.271900  0.857200  1.0  -0.1733
  C  C66  1  0.770030  0.228360  0.950040  1.0  0.0542
  C  C67  1  0.775200  0.142530  0.945400  1.0  -0.1761
  C  C68  1  0.810600  0.103900  0.850300  1.0  0.1496
  C  C69  1  0.537310  0.690390  0.158070  1.0  -0.1556
  C  C70  1  0.537300  0.776960  0.159000  1.0  -0.068
  C  C71  1  0.577360  0.648860  0.055840  1.0  0.6272
  C  C72  1  0.660500  0.729460  0.735200  1.0  0.1734
  C  C73  1  0.695000  0.771900  0.642800  1.0  -0.1726
  C  C74  1  0.729970  0.728360  0.549960  1.0  0.0542
  C  C75  1  0.724800  0.642530  0.554600  1.0  -0.176
  C  C76  1  0.689400  0.603900  0.649700  1.0  0.15
  C  C77  1  0.037310  0.190390  0.158070  1.0  -0.1556
  C  C78  1  0.037300  0.276960  0.159000  1.0  -0.068
  C  C79  1  0.077360  0.148860  0.055840  1.0  0.6272
  C  C80  1  0.160500  0.229460  0.735200  1.0  0.1734
  C  C81  1  0.195000  0.271900  0.642800  1.0  -0.1726
  C  C82  1  0.229970  0.228360  0.549960  1.0  0.0542
  C  C83  1  0.224800  0.142530  0.554600  1.0  -0.176
  C  C84  1  0.189400  0.103900  0.649700  1.0  0.15
  C  C85  1  0.537310  0.309610  0.658070  1.0  -0.1553
  C  C86  1  0.537300  0.223040  0.659000  1.0  -0.0678
  C  C87  1  0.577360  0.351140  0.555840  1.0  0.6278
  C  C88  1  0.660500  0.270540  0.235200  1.0  0.1736
  C  C89  1  0.695000  0.228100  0.142800  1.0  -0.1721
  C  C90  1  0.729970  0.271640  0.049960  1.0  0.0544
  C  C91  1  0.724800  0.357470  0.054600  1.0  -0.1708
  C  C92  1  0.689400  0.396100  0.149700  1.0  0.1485
  C  C93  1  0.037310  0.809610  0.658070  1.0  -0.1553
  C  C94  1  0.037300  0.723040  0.659000  1.0  -0.0678
  C  C95  1  0.077360  0.851140  0.555840  1.0  0.6278
  C  C96  1  0.160500  0.770540  0.235200  1.0  0.1736
  C  C97  1  0.195000  0.728100  0.142800  1.0  -0.1721
  C  C98  1  0.229970  0.771640  0.049960  1.0  0.0544
  C  C99  1  0.224800  0.857470  0.054600  1.0  -0.1708
  C  C100  1  0.189400  0.896100  0.149700  1.0  0.1485
  C  C101  1  0.462690  0.309610  0.841930  1.0  -0.1555
  C  C102  1  0.462700  0.223040  0.841000  1.0  -0.068
  C  C103  1  0.422640  0.351140  0.944160  1.0  0.6288
  C  C104  1  0.339500  0.270540  0.264800  1.0  0.1748
  C  C105  1  0.305000  0.228100  0.357200  1.0  -0.1729
  C  C106  1  0.270030  0.271640  0.450040  1.0  0.0542
  C  C107  1  0.275200  0.357470  0.445400  1.0  -0.1702
  C  C108  1  0.310600  0.396100  0.350300  1.0  0.1492
  C  C109  1  0.962690  0.809610  0.841930  1.0  -0.1555
  C  C110  1  0.962700  0.723040  0.841000  1.0  -0.068
  C  C111  1  0.922640  0.851140  0.944160  1.0  0.6288
  C  C112  1  0.839500  0.770540  0.264800  1.0  0.1748
  C  C113  1  0.805000  0.728100  0.357200  1.0  -0.1729
  C  C114  1  0.770030  0.771640  0.450040  1.0  0.0542
  C  C115  1  0.775200  0.857470  0.445400  1.0  -0.1702
  C  C116  1  0.810600  0.896100  0.350300  1.0  0.1492
  C  C117  1  0.500000  0.552140  0.250000  1.0  0.6782
  C  C118  1  0.500000  0.646110  0.250000  1.0  -0.0732
  C  C119  1  0.500000  0.819800  0.250000  1.0  -0.0888
  C  C120  1  0.000000  0.052140  0.250000  1.0  0.6782
  C  C121  1  0.000000  0.146110  0.250000  1.0  -0.0732
  C  C122  1  0.000000  0.319800  0.250000  1.0  -0.0888
  C  C123  1  0.500000  0.447860  0.750000  1.0  0.6778
  C  C124  1  0.500000  0.353890  0.750000  1.0  -0.0728
  C  C125  1  0.500000  0.180200  0.750000  1.0  -0.0858
  C  C126  1  0.000000  0.947860  0.750000  1.0  0.6778
  C  C127  1  0.000000  0.853890  0.750000  1.0  -0.0728
  C  C128  1  0.000000  0.680200  0.750000  1.0  -0.0858
  N  N129  1  0.341690  0.646710  0.760030  1.0  -0.3407
  N  N130  1  0.841690  0.146710  0.760030  1.0  -0.3407
  N  N131  1  0.658310  0.646710  0.739970  1.0  -0.3374
  N  N132  1  0.158310  0.146710  0.739970  1.0  -0.3374
  N  N133  1  0.658310  0.353290  0.239970  1.0  -0.338
  N  N134  1  0.158310  0.853290  0.239970  1.0  -0.338
  N  N135  1  0.341690  0.353290  0.260030  1.0  -0.3404
  N  N136  1  0.841690  0.853290  0.260030  1.0  -0.3404
  O  O137  1  0.418440  0.571680  0.453980  1.0  -0.5587
  O  O138  1  0.394780  0.692720  0.526380  1.0  -0.5574
  O  O139  1  0.592360  0.518850  0.310500  1.0  -0.5937
  O  O140  1  0.918440  0.071680  0.453980  1.0  -0.5587
  O  O141  1  0.894780  0.192720  0.526380  1.0  -0.5574
  O  O142  1  0.092360  0.018850  0.310500  1.0  -0.5937
  O  O143  1  0.581560  0.571680  0.046020  1.0  -0.56
  O  O144  1  0.605220  0.692720  0.973620  1.0  -0.556
  O  O145  1  0.407640  0.518850  0.189500  1.0  -0.5945
  O  O146  1  0.081560  0.071680  0.046020  1.0  -0.56
  O  O147  1  0.105220  0.192720  0.973620  1.0  -0.556
  O  O148  1  0.907640  0.018850  0.189500  1.0  -0.5945
  O  O149  1  0.581560  0.428320  0.546020  1.0  -0.5594
  O  O150  1  0.605220  0.307280  0.473620  1.0  -0.5563
  O  O151  1  0.407640  0.481150  0.689500  1.0  -0.5945
  O  O152  1  0.081560  0.928320  0.546020  1.0  -0.5594
  O  O153  1  0.105220  0.807280  0.473620  1.0  -0.5563
  O  O154  1  0.907640  0.981150  0.689500  1.0  -0.5945
  O  O155  1  0.418440  0.428320  0.953980  1.0  -0.5597
  O  O156  1  0.394780  0.307280  0.026380  1.0  -0.5577
  O  O157  1  0.592360  0.481150  0.810500  1.0  -0.594
  O  O158  1  0.918440  0.928320  0.953980  1.0  -0.5597
  O  O159  1  0.894780  0.807280  0.026380  1.0  -0.5577
  O  O160  1  0.092360  0.981150  0.810500  1.0  -0.594
