# generated using pymatgen
data_NdH11C13O8
_symmetry_space_group_name_H-M   'P 1'
_cell_length_a   12.84140000
_cell_length_b   24.10860000
_cell_length_c   12.34880000
_cell_angle_alpha   90.00000000
_cell_angle_beta   90.00000000
_cell_angle_gamma   90.00000000
_symmetry_Int_Tables_number   1
_chemical_formula_structural   NdH11C13O8
_chemical_formula_sum   'Nd8 H88 C104 O64'
_cell_volume   3823.04246828
_cell_formula_units_Z   8
loop_
 _symmetry_equiv_pos_site_id
 _symmetry_equiv_pos_as_xyz
  1  'x, y, z'
loop_
 _atom_site_type_symbol
 _atom_site_label
 _atom_site_symmetry_multiplicity
 _atom_site_fract_x
 _atom_site_fract_y
 _atom_site_fract_z
 _atom_site_occupancy
 _atom_site_charge
  Nd  Nd1  1  0.398220  0.931800  0.054600  1.0  2.3113
  Nd  Nd2  1  0.624880  0.582310  0.274810  1.0  2.1421
  Nd  Nd3  1  0.601780  0.068200  0.054600  1.0  2.3115
  Nd  Nd4  1  0.375120  0.417690  0.274810  1.0  2.1419
  Nd  Nd5  1  0.101780  0.431800  0.945400  1.0  2.3115
  Nd  Nd6  1  0.875120  0.082310  0.725190  1.0  2.1422
  Nd  Nd7  1  0.898220  0.568200  0.945400  1.0  2.3116
  Nd  Nd8  1  0.124880  0.917690  0.725190  1.0  2.1412
  H  H9  1  0.301600  0.745600  0.918700  1.0  0.1076
  H  H10  1  0.322000  0.751600  0.239600  1.0  0.1193
  H  H11  1  0.257300  0.605000  0.092700  1.0  0.1011
  H  H12  1  0.284400  0.563800  0.932400  1.0  0.0799
  H  H13  1  0.190200  0.589700  0.733100  1.0  0.11
  H  H14  1  0.227000  0.530400  0.768400  1.0  0.0974
  H  H15  1  0.309300  0.577000  0.745600  1.0  0.1066
  H  H16  1  0.211600  0.583500  0.270100  1.0  0.0756
  H  H17  1  0.327900  0.600400  0.459600  1.0  0.1161
  H  H18  1  0.262200  0.546700  0.438100  1.0  0.1051
  H  H19  1  0.206300  0.604200  0.450700  1.0  0.1025
  H  H20  1  0.047100  0.921200  0.387900  1.0  0.1076
  H  H21  1  0.985000  0.911100  0.048400  1.0  0.0682
  H  H22  1  0.115600  0.818000  0.079100  1.0  0.1064
  H  H23  1  0.042700  0.826800  0.978800  1.0  0.0975
  H  H24  1  0.994400  0.816600  0.093600  1.0  0.0985
  H  H25  1  0.521200  0.083500  0.416400  1.0  0.1181
  H  H26  1  0.446900  0.086200  0.749800  1.0  0.0803
  H  H27  1  0.569600  0.184300  0.739800  1.0  0.1169
  H  H28  1  0.487900  0.170700  0.830300  1.0  0.1065
  H  H29  1  0.450400  0.184200  0.712400  1.0  0.1091
  H  H30  1  0.698400  0.254400  0.918700  1.0  0.1078
  H  H31  1  0.678000  0.248400  0.239600  1.0  0.1197
  H  H32  1  0.742700  0.395000  0.092700  1.0  0.1007
  H  H33  1  0.715600  0.436200  0.932400  1.0  0.0815
  H  H34  1  0.809800  0.410300  0.733100  1.0  0.1097
  H  H35  1  0.773000  0.469600  0.768400  1.0  0.1002
  H  H36  1  0.690700  0.423000  0.745600  1.0  0.1049
  H  H37  1  0.788400  0.416500  0.270100  1.0  0.0762
  H  H38  1  0.672100  0.399600  0.459600  1.0  0.117
  H  H39  1  0.737800  0.453300  0.438100  1.0  0.1055
  H  H40  1  0.793700  0.395800  0.450700  1.0  0.1034
  H  H41  1  0.952900  0.078800  0.387900  1.0  0.1075
  H  H42  1  0.015000  0.088900  0.048400  1.0  0.0681
  H  H43  1  0.884400  0.182000  0.079100  1.0  0.1058
  H  H44  1  0.957300  0.173200  0.978800  1.0  0.0978
  H  H45  1  0.005600  0.183400  0.093600  1.0  0.0976
  H  H46  1  0.478800  0.916500  0.416400  1.0  0.1189
  H  H47  1  0.553100  0.913800  0.749800  1.0  0.0811
  H  H48  1  0.430400  0.815700  0.739800  1.0  0.117
  H  H49  1  0.512100  0.829300  0.830300  1.0  0.1058
  H  H50  1  0.549600  0.815800  0.712400  1.0  0.1086
  H  H51  1  0.198400  0.245600  0.081300  1.0  0.1081
  H  H52  1  0.178000  0.251600  0.760400  1.0  0.1201
  H  H53  1  0.242700  0.105000  0.907300  1.0  0.1009
  H  H54  1  0.215600  0.063800  0.067600  1.0  0.0812
  H  H55  1  0.309800  0.089700  0.266900  1.0  0.1094
  H  H56  1  0.273000  0.030400  0.231600  1.0  0.0984
  H  H57  1  0.190700  0.077000  0.254400  1.0  0.1056
  H  H58  1  0.288400  0.083500  0.729900  1.0  0.0763
  H  H59  1  0.172100  0.100400  0.540400  1.0  0.1163
  H  H60  1  0.237800  0.046700  0.561900  1.0  0.1047
  H  H61  1  0.293700  0.104200  0.549300  1.0  0.1031
  H  H62  1  0.452900  0.421200  0.612100  1.0  0.1068
  H  H63  1  0.515000  0.411100  0.951600  1.0  0.0679
  H  H64  1  0.384400  0.318000  0.920900  1.0  0.1057
  H  H65  1  0.457300  0.326800  0.021200  1.0  0.0974
  H  H66  1  0.505600  0.316600  0.906400  1.0  0.0979
  H  H67  1  0.978800  0.583500  0.583600  1.0  0.1187
  H  H68  1  0.053100  0.586200  0.250200  1.0  0.0806
  H  H69  1  0.930400  0.684300  0.260200  1.0  0.1181
  H  H70  1  0.012100  0.670700  0.169700  1.0  0.1058
  H  H71  1  0.049600  0.684200  0.287600  1.0  0.1084
  H  H72  1  0.801600  0.754400  0.081300  1.0  0.1084
  H  H73  1  0.822000  0.748400  0.760400  1.0  0.12
  H  H74  1  0.757300  0.895000  0.907300  1.0  0.101
  H  H75  1  0.784400  0.936200  0.067600  1.0  0.0805
  H  H76  1  0.690200  0.910300  0.266900  1.0  0.1101
  H  H77  1  0.727000  0.969600  0.231600  1.0  0.0993
  H  H78  1  0.809300  0.923000  0.254400  1.0  0.1057
  H  H79  1  0.711600  0.916500  0.729900  1.0  0.0756
  H  H80  1  0.827900  0.899600  0.540400  1.0  0.1172
  H  H81  1  0.762200  0.953300  0.561900  1.0  0.1064
  H  H82  1  0.706300  0.895800  0.549300  1.0  0.1032
  H  H83  1  0.547100  0.578800  0.612100  1.0  0.1067
  H  H84  1  0.485000  0.588900  0.951600  1.0  0.0673
  H  H85  1  0.615600  0.682000  0.920900  1.0  0.105
  H  H86  1  0.542700  0.673200  0.021200  1.0  0.0972
  H  H87  1  0.494400  0.683400  0.906400  1.0  0.0993
  H  H88  1  0.021200  0.416500  0.583600  1.0  0.1191
  H  H89  1  0.946900  0.413800  0.250200  1.0  0.0808
  H  H90  1  0.069600  0.315700  0.260200  1.0  0.114
  H  H91  1  0.987900  0.329300  0.169700  1.0  0.1064
  H  H92  1  0.950400  0.315800  0.287600  1.0  0.109
  H  H93  1  0.000000  0.000000  0.102100  1.0  0.1006
  H  H94  1  0.500000  0.500000  0.897900  1.0  0.1008
  H  H95  1  0.500000  0.000000  0.696200  1.0  0.091
  H  H96  1  0.000000  0.500000  0.303800  1.0  0.0917
  C  C97  1  0.278900  0.668600  0.991700  1.0  0.2312
  C  C98  1  0.299700  0.727700  0.985400  1.0  -0.117
  C  C99  1  0.316300  0.756100  0.077200  1.0  -0.145
  C  C100  1  0.311700  0.730900  0.176900  1.0  -0.0609
  C  C101  1  0.291300  0.673500  0.183500  1.0  0.2346
  C  C102  1  0.273100  0.642600  0.088700  1.0  -0.21
  C  C103  1  0.236400  0.586600  0.889700  1.0  0.1005
  C  C104  1  0.126900  0.580400  0.933700  1.0  0.6827
  C  C105  1  0.241200  0.569400  0.773900  1.0  -0.3517
  C  C106  1  0.276400  0.595100  0.305300  1.0  0.0906
  C  C107  1  0.366500  0.562400  0.257700  1.0  0.6605
  C  C108  1  0.267400  0.585700  0.423900  1.0  -0.3586
  C  C109  1  0.339800  0.817900  0.069700  1.0  0.6775
  C  C110  1  0.026300  0.951800  0.236100  1.0  0.2255
  C  C111  1  0.027600  0.952800  0.349600  1.0  -0.0536
  C  C112  1  0.050500  0.895800  0.076000  1.0  0.097
  C  C113  1  0.141200  0.924900  0.017400  1.0  0.6622
  C  C114  1  0.050800  0.833500  0.054900  1.0  -0.3355
  C  C115  1  0.512800  0.050000  0.452800  1.0  -0.1469
  C  C116  1  0.512500  0.047400  0.562400  1.0  0.2908
  C  C117  1  0.510400  0.105100  0.725700  1.0  0.1046
  C  C118  1  0.605400  0.078300  0.779500  1.0  0.6732
  C  C119  1  0.504000  0.166800  0.754700  1.0  -0.3595
  C  C120  1  0.721100  0.331400  0.991700  1.0  0.2317
  C  C121  1  0.700300  0.272300  0.985400  1.0  -0.1171
  C  C122  1  0.683700  0.243900  0.077200  1.0  -0.145
  C  C123  1  0.688300  0.269100  0.176900  1.0  -0.0623
  C  C124  1  0.708700  0.326500  0.183500  1.0  0.2363
  C  C125  1  0.726900  0.357400  0.088700  1.0  -0.2081
  C  C126  1  0.763600  0.413400  0.889700  1.0  0.1008
  C  C127  1  0.873100  0.419600  0.933700  1.0  0.684
  C  C128  1  0.758800  0.430600  0.773900  1.0  -0.3521
  C  C129  1  0.723600  0.404900  0.305300  1.0  0.0895
  C  C130  1  0.633500  0.437600  0.257700  1.0  0.6587
  C  C131  1  0.732600  0.414300  0.423900  1.0  -0.3594
  C  C132  1  0.660200  0.182100  0.069700  1.0  0.6773
  C  C133  1  0.973700  0.048200  0.236100  1.0  0.2251
  C  C134  1  0.972400  0.047200  0.349600  1.0  -0.0535
  C  C135  1  0.949500  0.104200  0.076000  1.0  0.0953
  C  C136  1  0.858800  0.075100  0.017400  1.0  0.6622
  C  C137  1  0.949200  0.166500  0.054900  1.0  -0.3346
  C  C138  1  0.487200  0.950000  0.452800  1.0  -0.1478
  C  C139  1  0.487500  0.952600  0.562400  1.0  0.2912
  C  C140  1  0.489600  0.894900  0.725700  1.0  0.1033
  C  C141  1  0.394600  0.921700  0.779500  1.0  0.6694
  C  C142  1  0.496000  0.833200  0.754700  1.0  -0.3597
  C  C143  1  0.221100  0.168600  0.008300  1.0  0.23
  C  C144  1  0.200300  0.227700  0.014600  1.0  -0.1157
  C  C145  1  0.183700  0.256100  0.922800  1.0  -0.145
  C  C146  1  0.188300  0.230900  0.823100  1.0  -0.061
  C  C147  1  0.208700  0.173500  0.816500  1.0  0.2349
  C  C148  1  0.226900  0.142600  0.911300  1.0  -0.2083
  C  C149  1  0.263600  0.086600  0.110300  1.0  0.1028
  C  C150  1  0.373100  0.080400  0.066300  1.0  0.6833
  C  C151  1  0.258800  0.069400  0.226100  1.0  -0.3533
  C  C152  1  0.223600  0.095100  0.694700  1.0  0.0895
  C  C153  1  0.133500  0.062400  0.742300  1.0  0.6588
  C  C154  1  0.232600  0.085700  0.576100  1.0  -0.3585
  C  C155  1  0.160200  0.317900  0.930300  1.0  0.6778
  C  C156  1  0.473700  0.451800  0.763900  1.0  0.2249
  C  C157  1  0.472400  0.452800  0.650400  1.0  -0.053
  C  C158  1  0.449500  0.395800  0.924000  1.0  0.096
  C  C159  1  0.358800  0.424900  0.982600  1.0  0.6622
  C  C160  1  0.449200  0.333500  0.945100  1.0  -0.3353
  C  C161  1  0.987200  0.550000  0.547200  1.0  -0.1453
  C  C162  1  0.987500  0.547400  0.437600  1.0  0.2939
  C  C163  1  0.989600  0.605100  0.274300  1.0  0.1029
  C  C164  1  0.894600  0.578300  0.220500  1.0  0.6693
  C  C165  1  0.996000  0.666800  0.245300  1.0  -0.3593
  C  C166  1  0.778900  0.831400  0.008300  1.0  0.2311
  C  C167  1  0.799700  0.772300  0.014600  1.0  -0.1159
  C  C168  1  0.816300  0.743900  0.922800  1.0  -0.1449
  C  C169  1  0.811700  0.769100  0.823100  1.0  -0.0636
  C  C170  1  0.791300  0.826500  0.816500  1.0  0.2364
  C  C171  1  0.773100  0.857400  0.911300  1.0  -0.2092
  C  C172  1  0.736400  0.913400  0.110300  1.0  0.1019
  C  C173  1  0.626900  0.919600  0.066300  1.0  0.6822
  C  C174  1  0.741200  0.930600  0.226100  1.0  -0.3531
  C  C175  1  0.776400  0.904900  0.694700  1.0  0.0895
  C  C176  1  0.866500  0.937600  0.742300  1.0  0.6596
  C  C177  1  0.767400  0.914300  0.576100  1.0  -0.3589
  C  C178  1  0.839800  0.682100  0.930300  1.0  0.6789
  C  C179  1  0.526300  0.548200  0.763900  1.0  0.226
  C  C180  1  0.527600  0.547200  0.650400  1.0  -0.0533
  C  C181  1  0.550500  0.604200  0.924000  1.0  0.0965
  C  C182  1  0.641200  0.575100  0.982600  1.0  0.6628
  C  C183  1  0.550800  0.666500  0.945100  1.0  -0.3358
  C  C184  1  0.012800  0.450000  0.547200  1.0  -0.1474
  C  C185  1  0.012500  0.452600  0.437600  1.0  0.293
  C  C186  1  0.010400  0.394900  0.274300  1.0  0.1054
  C  C187  1  0.105400  0.421700  0.220500  1.0  0.6708
  C  C188  1  0.004000  0.333200  0.245300  1.0  -0.3584
  C  C189  1  0.000000  0.000000  0.177400  1.0  -0.1967
  C  C190  1  0.000000  0.000000  0.404400  1.0  -0.1376
  C  C191  1  0.000000  0.000000  0.525700  1.0  0.6818
  C  C192  1  0.500000  0.500000  0.822600  1.0  -0.1959
  C  C193  1  0.500000  0.500000  0.595600  1.0  -0.1393
  C  C194  1  0.500000  0.500000  0.474300  1.0  0.6802
  C  C195  1  0.500000  0.000000  0.396800  1.0  -0.1412
  C  C196  1  0.500000  0.000000  0.620900  1.0  -0.178
  C  C197  1  0.500000  0.000000  0.273600  1.0  0.6688
  C  C198  1  0.000000  0.500000  0.603200  1.0  -0.1401
  C  C199  1  0.000000  0.500000  0.379100  1.0  -0.1781
  C  C200  1  0.000000  0.500000  0.726400  1.0  0.6707
  O  O201  1  0.292000  0.653400  0.287000  1.0  -0.3258
  O  O202  1  0.446700  0.585700  0.231300  1.0  -0.6536
  O  O203  1  0.346400  0.510700  0.253500  1.0  -0.7111
  O  O204  1  0.269300  0.643500  0.893300  1.0  -0.3332
  O  O205  1  0.097900  0.532500  0.959500  1.0  -0.7659
  O  O206  1  0.068100  0.620700  0.935100  1.0  -0.6206
  O  O207  1  0.334200  0.841100  0.979600  1.0  -0.6401
  O  O208  1  0.362300  0.844100  0.154400  1.0  -0.6609
  O  O209  1  0.052000  0.902500  0.190600  1.0  -0.3352
  O  O210  1  0.215600  0.939700  0.072100  1.0  -0.689
  O  O211  1  0.133100  0.926600  0.917900  1.0  -0.7205
  O  O212  1  0.041600  0.960600  0.572200  1.0  -0.6737
  O  O213  1  0.587900  0.058700  0.870800  1.0  -0.6744
  O  O214  1  0.689000  0.079100  0.734200  1.0  -0.7056
  O  O215  1  0.519600  0.100700  0.608900  1.0  -0.3582
  O  O216  1  0.453700  0.960700  0.227900  1.0  -0.7476
  O  O217  1  0.708000  0.346600  0.287000  1.0  -0.3327
  O  O218  1  0.553300  0.414300  0.231300  1.0  -0.6552
  O  O219  1  0.653600  0.489300  0.253500  1.0  -0.7101
  O  O220  1  0.730700  0.356500  0.893300  1.0  -0.3345
  O  O221  1  0.902100  0.467500  0.959500  1.0  -0.7673
  O  O222  1  0.931900  0.379300  0.935100  1.0  -0.6206
  O  O223  1  0.665800  0.158900  0.979600  1.0  -0.6398
  O  O224  1  0.637700  0.155900  0.154400  1.0  -0.6631
  O  O225  1  0.948000  0.097500  0.190600  1.0  -0.335
  O  O226  1  0.784400  0.060300  0.072100  1.0  -0.6885
  O  O227  1  0.866900  0.073400  0.917900  1.0  -0.7199
  O  O228  1  0.958400  0.039400  0.572200  1.0  -0.6742
  O  O229  1  0.412100  0.941300  0.870800  1.0  -0.6748
  O  O230  1  0.311000  0.920900  0.734200  1.0  -0.7057
  O  O231  1  0.480400  0.899300  0.608900  1.0  -0.3595
  O  O232  1  0.546300  0.039300  0.227900  1.0  -0.7473
  O  O233  1  0.208000  0.153400  0.713000  1.0  -0.329
  O  O234  1  0.053300  0.085700  0.768700  1.0  -0.6535
  O  O235  1  0.153600  0.010700  0.746500  1.0  -0.7086
  O  O236  1  0.230700  0.143500  0.106700  1.0  -0.3312
  O  O237  1  0.402100  0.032500  0.040500  1.0  -0.7665
  O  O238  1  0.431900  0.120700  0.064900  1.0  -0.6206
  O  O239  1  0.165800  0.341100  0.020400  1.0  -0.639
  O  O240  1  0.137700  0.344100  0.845600  1.0  -0.6603
  O  O241  1  0.448000  0.402500  0.809400  1.0  -0.332
  O  O242  1  0.284400  0.439700  0.927900  1.0  -0.6898
  O  O243  1  0.366900  0.426600  0.082100  1.0  -0.7218
  O  O244  1  0.458400  0.460600  0.427800  1.0  -0.6749
  O  O245  1  0.912100  0.558700  0.129200  1.0  -0.6744
  O  O246  1  0.811000  0.579100  0.265800  1.0  -0.7066
  O  O247  1  0.980400  0.600700  0.391100  1.0  -0.3574
  O  O248  1  0.046300  0.460700  0.772100  1.0  -0.7471
  O  O249  1  0.792000  0.846600  0.713000  1.0  -0.3302
  O  O250  1  0.946700  0.914300  0.768700  1.0  -0.6536
  O  O251  1  0.846400  0.989300  0.746500  1.0  -0.7101
  O  O252  1  0.769300  0.856500  0.106700  1.0  -0.3359
  O  O253  1  0.597900  0.967500  0.040500  1.0  -0.767
  O  O254  1  0.568100  0.879300  0.064900  1.0  -0.6207
  O  O255  1  0.834200  0.658900  0.020400  1.0  -0.6392
  O  O256  1  0.862300  0.655900  0.845600  1.0  -0.6621
  O  O257  1  0.552000  0.597500  0.809400  1.0  -0.3337
  O  O258  1  0.715600  0.560300  0.927900  1.0  -0.6889
  O  O259  1  0.633100  0.573400  0.082100  1.0  -0.7217
  O  O260  1  0.541600  0.539400  0.427800  1.0  -0.6742
  O  O261  1  0.087900  0.441300  0.129200  1.0  -0.6736
  O  O262  1  0.189000  0.420900  0.265800  1.0  -0.7062
  O  O263  1  0.019600  0.399300  0.391100  1.0  -0.3606
  O  O264  1  0.953700  0.539300  0.772100  1.0  -0.7485
