# generated using pymatgen
data_Eu2H24C26O17
_symmetry_space_group_name_H-M   'P 1'
_cell_length_a   11.88800000
_cell_length_b   12.47500000
_cell_length_c   12.54200000
_cell_angle_alpha   90.00000000
_cell_angle_beta   98.94000000
_cell_angle_gamma   90.00000000
_symmetry_Int_Tables_number   1
_chemical_formula_structural   Eu2H24C26O17
_chemical_formula_sum   'Eu4 H48 C52 O34'
_cell_volume   1837.41755819
_cell_formula_units_Z   2
loop_
 _symmetry_equiv_pos_site_id
 _symmetry_equiv_pos_as_xyz
  1  'x, y, z'
loop_
 _atom_site_type_symbol
 _atom_site_label
 _atom_site_symmetry_multiplicity
 _atom_site_fract_x
 _atom_site_fract_y
 _atom_site_fract_z
 _atom_site_occupancy
 _atom_site_charge
  Eu  Eu1  1  0.372640  0.445730  0.131510  1.0  2.1195
  Eu  Eu2  1  0.641180  0.229320  0.187080  1.0  2.1587
  Eu  Eu3  1  0.627360  0.945730  0.868490  1.0  2.121
  Eu  Eu4  1  0.358820  0.729320  0.812920  1.0  2.1611
  H  H5  1  0.326000  0.400200  0.482400  1.0  0.1196
  H  H6  1  0.479800  0.330200  0.784900  1.0  0.1156
  H  H7  1  0.644100  0.280800  0.531200  1.0  0.1133
  H  H8  1  0.303200  0.306500  0.804300  1.0  0.0627
  H  H9  1  0.111000  0.341600  0.751100  1.0  0.1135
  H  H10  1  0.130900  0.463800  0.776400  1.0  0.1073
  H  H11  1  0.146800  0.379900  0.870600  1.0  0.1114
  H  H12  1  0.661500  0.366400  0.855200  1.0  0.0612
  H  H13  1  0.853100  0.351600  0.843300  1.0  0.1088
  H  H14  1  0.851000  0.229300  0.871600  1.0  0.1178
  H  H15  1  0.832500  0.315300  0.958400  1.0  0.1077
  H  H16  1  0.000300  0.533900  0.929200  1.0  0.1109
  H  H17  1  0.712800  0.606000  0.046000  1.0  0.0951
  H  H18  1  0.007500  0.565900  0.249400  1.0  0.1153
  H  H19  1  0.635800  0.619900  0.199600  1.0  0.07
  H  H20  1  0.673900  0.653200  0.389900  1.0  0.1102
  H  H21  1  0.706900  0.532400  0.409700  1.0  0.1173
  H  H22  1  0.580900  0.563800  0.364100  1.0  0.0995
  H  H23  1  0.633900  0.552200  0.873800  1.0  0.0759
  H  H24  1  0.661900  0.512500  0.695800  1.0  0.0906
  H  H25  1  0.702600  0.630100  0.680000  1.0  0.1166
  H  H26  1  0.575200  0.607700  0.691200  1.0  0.1033
  H  H27  1  0.771500  0.111000  0.313800  1.0  0.4456
  H  H28  1  0.804400  0.162900  0.411700  1.0  0.4975
  H  H29  1  0.674000  0.900200  0.517600  1.0  0.1203
  H  H30  1  0.520200  0.830200  0.215100  1.0  0.1153
  H  H31  1  0.355900  0.780800  0.468800  1.0  0.1137
  H  H32  1  0.696800  0.806500  0.195700  1.0  0.0633
  H  H33  1  0.889000  0.841600  0.248900  1.0  0.1133
  H  H34  1  0.869100  0.963800  0.223600  1.0  0.1056
  H  H35  1  0.853200  0.879900  0.129400  1.0  0.1133
  H  H36  1  0.338500  0.866400  0.144800  1.0  0.0611
  H  H37  1  0.146900  0.851600  0.156700  1.0  0.1075
  H  H38  1  0.149000  0.729300  0.128400  1.0  0.1182
  H  H39  1  0.167500  0.815300  0.041600  1.0  0.1083
  H  H40  1  0.999700  0.033900  0.070800  1.0  0.111
  H  H41  1  0.287200  0.106000  0.954000  1.0  0.0964
  H  H42  1  0.992500  0.065900  0.750600  1.0  0.1155
  H  H43  1  0.364200  0.119900  0.800400  1.0  0.0694
  H  H44  1  0.326100  0.153200  0.610100  1.0  0.1108
  H  H45  1  0.293100  0.032400  0.590300  1.0  0.1165
  H  H46  1  0.419100  0.063800  0.635900  1.0  0.1009
  H  H47  1  0.366100  0.052200  0.126200  1.0  0.0765
  H  H48  1  0.338100  0.012500  0.304200  1.0  0.0909
  H  H49  1  0.297400  0.130100  0.320000  1.0  0.1164
  H  H50  1  0.424800  0.107700  0.308800  1.0  0.1041
  H  H51  1  0.228500  0.611000  0.686200  1.0  0.446
  H  H52  1  0.195600  0.662900  0.588300  1.0  0.4946
  C  C53  1  0.484700  0.339700  0.489800  1.0  -0.1416
  C  C54  1  0.388700  0.374300  0.528900  1.0  -0.1033
  C  C55  1  0.387700  0.369500  0.640700  1.0  0.2479
  C  C56  1  0.481700  0.333800  0.711100  1.0  -0.169
  C  C57  1  0.579200  0.303500  0.669500  1.0  0.2267
  C  C58  1  0.580100  0.304100  0.558800  1.0  -0.1257
  C  C59  1  0.487400  0.341400  0.370300  1.0  0.6671
  C  C60  1  0.279400  0.380200  0.785200  1.0  0.0931
  C  C61  1  0.356500  0.457900  0.859100  1.0  0.6464
  C  C62  1  0.155800  0.392500  0.796900  1.0  -0.3485
  C  C63  1  0.692900  0.295300  0.844300  1.0  0.096
  C  C64  1  0.632400  0.212800  0.907000  1.0  0.6435
  C  C65  1  0.818700  0.298100  0.882900  1.0  -0.3354
  C  C66  1  0.022100  0.546500  0.091000  1.0  -0.0988
  C  C67  1  0.963000  0.548500  0.987400  1.0  -0.1256
  C  C68  1  0.846300  0.572500  0.970200  1.0  0.2894
  C  C69  1  0.790400  0.591200  0.057200  1.0  -0.167
  C  C70  1  0.851700  0.587600  0.163000  1.0  0.2639
  C  C71  1  0.966800  0.566700  0.179700  1.0  -0.1563
  C  C72  1  0.145900  0.520400  0.108400  1.0  0.6515
  C  C73  1  0.686500  0.572800  0.247800  1.0  0.0931
  C  C74  1  0.672500  0.458600  0.209100  1.0  0.6893
  C  C75  1  0.659500  0.581400  0.363800  1.0  -0.3507
  C  C76  1  0.681800  0.599400  0.837300  1.0  0.0821
  C  C77  1  0.661300  0.716100  0.864200  1.0  0.6922
  C  C78  1  0.652700  0.586200  0.714600  1.0  -0.3446
  C  C79  1  0.515300  0.839700  0.510200  1.0  -0.1411
  C  C80  1  0.611300  0.874300  0.471100  1.0  -0.1018
  C  C81  1  0.612300  0.869500  0.359300  1.0  0.2487
  C  C82  1  0.518300  0.833800  0.288900  1.0  -0.1709
  C  C83  1  0.420800  0.803500  0.330500  1.0  0.2226
  C  C84  1  0.419900  0.804100  0.441200  1.0  -0.1245
  C  C85  1  0.512600  0.841400  0.629700  1.0  0.6679
  C  C86  1  0.720600  0.880200  0.214800  1.0  0.0961
  C  C87  1  0.643500  0.957900  0.140900  1.0  0.6477
  C  C88  1  0.844200  0.892500  0.203100  1.0  -0.3476
  C  C89  1  0.307100  0.795300  0.155700  1.0  0.0959
  C  C90  1  0.367600  0.712800  0.093000  1.0  0.6416
  C  C91  1  0.181300  0.798100  0.117100  1.0  -0.3355
  C  C92  1  0.977900  0.046500  0.909000  1.0  -0.1016
  C  C93  1  0.037000  0.048500  0.012600  1.0  -0.1258
  C  C94  1  0.153700  0.072500  0.029800  1.0  0.2893
  C  C95  1  0.209600  0.091200  0.942800  1.0  -0.1691
  C  C96  1  0.148300  0.087600  0.837000  1.0  0.2633
  C  C97  1  0.033200  0.066700  0.820300  1.0  -0.1547
  C  C98  1  0.854100  0.020400  0.891600  1.0  0.6591
  C  C99  1  0.313500  0.072800  0.752200  1.0  0.0901
  C  C100  1  0.327500  0.958600  0.790900  1.0  0.6892
  C  C101  1  0.340500  0.081400  0.636200  1.0  -0.3533
  C  C102  1  0.318200  0.099400  0.162700  1.0  0.0837
  C  C103  1  0.338700  0.216100  0.135800  1.0  0.6919
  C  C104  1  0.347300  0.086200  0.285400  1.0  -0.347
  O  O105  1  0.563600  0.285200  0.337500  1.0  -0.6866
  O  O106  1  0.417000  0.397500  0.313300  1.0  -0.6918
  O  O107  1  0.288100  0.397900  0.674800  1.0  -0.3325
  O  O108  1  0.379100  0.545500  0.826300  1.0  -0.6255
  O  O109  1  0.390500  0.421100  0.953900  1.0  -0.6807
  O  O110  1  0.678800  0.274600  0.732400  1.0  -0.3212
  O  O111  1  0.625300  0.238400  0.001500  1.0  -0.7244
  O  O112  1  0.592900  0.128100  0.859900  1.0  -0.6865
  O  O113  1  0.197400  0.496900  0.200300  1.0  -0.6356
  O  O114  1  0.198500  0.522100  0.027700  1.0  -0.6824
  O  O115  1  0.797400  0.570400  0.864500  1.0  -0.2945
  O  O116  1  0.742900  0.781700  0.877300  1.0  -0.6675
  O  O117  1  0.561200  0.745200  0.871000  1.0  -0.7762
  O  O118  1  0.802000  0.606100  0.251500  1.0  -0.304
  O  O119  1  0.750000  0.391200  0.232200  1.0  -0.6485
  O  O120  1  0.575900  0.431500  0.156000  1.0  -0.8328
  O  O121  1  0.763700  0.167700  0.349800  1.0  -0.7925
  O  O122  1  0.436400  0.785200  0.662500  1.0  -0.6864
  O  O123  1  0.583000  0.897500  0.686700  1.0  -0.6907
  O  O124  1  0.711900  0.897900  0.325200  1.0  -0.3346
  O  O125  1  0.620900  0.045500  0.173700  1.0  -0.6251
  O  O126  1  0.609500  0.921100  0.046100  1.0  -0.6787
  O  O127  1  0.321200  0.774600  0.267600  1.0  -0.3234
  O  O128  1  0.374700  0.738400  0.998500  1.0  -0.7229
  O  O129  1  0.407100  0.628100  0.140100  1.0  -0.6874
  O  O130  1  0.802600  0.996900  0.799700  1.0  -0.634
  O  O131  1  0.801500  0.022100  0.972300  1.0  -0.6808
  O  O132  1  0.202600  0.070400  0.135500  1.0  -0.2954
  O  O133  1  0.257100  0.281700  0.122700  1.0  -0.6676
  O  O134  1  0.438800  0.245200  0.129000  1.0  -0.7748
  O  O135  1  0.198000  0.106100  0.748500  1.0  -0.3048
  O  O136  1  0.250000  0.891200  0.767800  1.0  -0.6473
  O  O137  1  0.424100  0.931500  0.844000  1.0  -0.831
  O  O138  1  0.236300  0.667700  0.650200  1.0  -0.7983
