# generated using pymatgen
data_Nd2H24C26O17
_symmetry_space_group_name_H-M   'P 1'
_cell_length_a   12.86500000
_cell_length_b   24.16200000
_cell_length_c   12.36800000
_cell_angle_alpha   90.00000000
_cell_angle_beta   90.00000000
_cell_angle_gamma   90.00000000
_symmetry_Int_Tables_number   1
_chemical_formula_structural   Nd2H24C26O17
_chemical_formula_sum   'Nd8 H96 C104 O68'
_cell_volume   3844.52019984
_cell_formula_units_Z   4
loop_
 _symmetry_equiv_pos_site_id
 _symmetry_equiv_pos_as_xyz
  1  'x, y, z'
loop_
 _atom_site_type_symbol
 _atom_site_label
 _atom_site_symmetry_multiplicity
 _atom_site_fract_x
 _atom_site_fract_y
 _atom_site_fract_z
 _atom_site_occupancy
 _atom_site_charge
  Nd  Nd1  1  0.897290  0.568120  0.560450  1.0  2.3182
  Nd  Nd2  1  0.375840  0.418140  0.231160  1.0  2.2671
  Nd  Nd3  1  0.102710  0.431880  0.560450  1.0  2.3183
  Nd  Nd4  1  0.624160  0.581860  0.231160  1.0  2.267
  Nd  Nd5  1  0.602710  0.068120  0.439550  1.0  2.3204
  Nd  Nd6  1  0.124160  0.918140  0.768840  1.0  2.2722
  Nd  Nd7  1  0.397290  0.931880  0.439550  1.0  2.3208
  Nd  Nd8  1  0.875840  0.081860  0.768840  1.0  2.2723
  H  H9  1  0.695200  0.254900  0.582600  1.0  0.107
  H  H10  1  0.681100  0.249400  0.257200  1.0  0.1195
  H  H11  1  0.744400  0.394200  0.407100  1.0  0.1
  H  H12  1  0.714900  0.434100  0.569600  1.0  0.0722
  H  H13  1  0.809000  0.411200  0.770000  1.0  0.1128
  H  H14  1  0.688700  0.419200  0.757100  1.0  0.1096
  H  H15  1  0.764400  0.468600  0.734000  1.0  0.1039
  H  H16  1  0.788200  0.418700  0.235000  1.0  0.0626
  H  H17  1  0.673000  0.400300  0.044000  1.0  0.1157
  H  H18  1  0.794500  0.399900  0.052600  1.0  0.1036
  H  H19  1  0.733200  0.455600  0.066100  1.0  0.1044
  H  H20  1  0.544400  0.579400  0.892500  1.0  0.1148
  H  H21  1  0.481800  0.588400  0.556000  1.0  0.0684
  H  H22  1  0.611800  0.681700  0.588400  1.0  0.1123
  H  H23  1  0.490100  0.683000  0.595000  1.0  0.0957
  H  H24  1  0.545200  0.672400  0.483800  1.0  0.1039
  H  H25  1  0.973300  0.582300  0.919700  1.0  0.1213
  H  H26  1  0.049400  0.585400  0.252900  1.0  0.072
  H  H27  1  0.927500  0.682600  0.237200  1.0  0.1065
  H  H28  1  0.047800  0.681300  0.216600  1.0  0.1129
  H  H29  1  0.003900  0.669500  0.332600  1.0  0.1002
  H  H30  1  0.279400  0.300400  0.330200  1.0  0.4433
  H  H31  1  0.373000  0.327600  0.328900  1.0  0.4115
  H  H32  1  0.304800  0.745100  0.582600  1.0  0.1076
  H  H33  1  0.318900  0.750600  0.257200  1.0  0.12
  H  H34  1  0.255600  0.605800  0.407100  1.0  0.1005
  H  H35  1  0.285100  0.565900  0.569600  1.0  0.0719
  H  H36  1  0.191000  0.588800  0.770000  1.0  0.1132
  H  H37  1  0.311300  0.580800  0.757100  1.0  0.11
  H  H38  1  0.235600  0.531400  0.734000  1.0  0.1028
  H  H39  1  0.211800  0.581300  0.235000  1.0  0.0611
  H  H40  1  0.327000  0.599700  0.044000  1.0  0.1179
  H  H41  1  0.205500  0.600100  0.052600  1.0  0.1032
  H  H42  1  0.266800  0.544400  0.066100  1.0  0.1046
  H  H43  1  0.455600  0.420600  0.892500  1.0  0.1148
  H  H44  1  0.518200  0.411600  0.556000  1.0  0.0681
  H  H45  1  0.388200  0.318300  0.588400  1.0  0.1121
  H  H46  1  0.509900  0.317000  0.595000  1.0  0.0954
  H  H47  1  0.454800  0.327600  0.483800  1.0  0.1029
  H  H48  1  0.026700  0.417700  0.919700  1.0  0.121
  H  H49  1  0.950600  0.414600  0.252900  1.0  0.0712
  H  H50  1  0.072500  0.317400  0.237200  1.0  0.108
  H  H51  1  0.952200  0.318700  0.216600  1.0  0.1141
  H  H52  1  0.996100  0.330500  0.332600  1.0  0.0996
  H  H53  1  0.720600  0.699600  0.330200  1.0  0.4437
  H  H54  1  0.627000  0.672400  0.328900  1.0  0.4134
  H  H55  1  0.804800  0.754900  0.417400  1.0  0.1076
  H  H56  1  0.818900  0.749400  0.742800  1.0  0.1191
  H  H57  1  0.755600  0.894200  0.592900  1.0  0.0999
  H  H58  1  0.785100  0.934100  0.430400  1.0  0.0724
  H  H59  1  0.691000  0.911200  0.230000  1.0  0.1126
  H  H60  1  0.811300  0.919200  0.242900  1.0  0.1106
  H  H61  1  0.735600  0.968600  0.266000  1.0  0.1043
  H  H62  1  0.711800  0.918700  0.765000  1.0  0.0617
  H  H63  1  0.827000  0.900300  0.956000  1.0  0.1176
  H  H64  1  0.705500  0.899900  0.947400  1.0  0.1036
  H  H65  1  0.766800  0.955600  0.933900  1.0  0.1041
  H  H66  1  0.955600  0.079400  0.107500  1.0  0.115
  H  H67  1  0.018200  0.088400  0.444000  1.0  0.0684
  H  H68  1  0.888200  0.181700  0.411600  1.0  0.111
  H  H69  1  0.009900  0.183000  0.405000  1.0  0.0954
  H  H70  1  0.954800  0.172400  0.516200  1.0  0.1036
  H  H71  1  0.526700  0.082300  0.080300  1.0  0.1212
  H  H72  1  0.450600  0.085400  0.747100  1.0  0.0714
  H  H73  1  0.572500  0.182600  0.762800  1.0  0.1076
  H  H74  1  0.452200  0.181300  0.783400  1.0  0.1135
  H  H75  1  0.496100  0.169500  0.667400  1.0  0.1002
  H  H76  1  0.220600  0.800400  0.669800  1.0  0.4418
  H  H77  1  0.127000  0.827600  0.671100  1.0  0.4112
  H  H78  1  0.195200  0.245100  0.417400  1.0  0.1072
  H  H79  1  0.181100  0.250600  0.742800  1.0  0.1188
  H  H80  1  0.244400  0.105800  0.592900  1.0  0.1004
  H  H81  1  0.214900  0.065900  0.430400  1.0  0.0725
  H  H82  1  0.309000  0.088800  0.230000  1.0  0.1127
  H  H83  1  0.188700  0.080800  0.242900  1.0  0.11
  H  H84  1  0.264400  0.031400  0.266000  1.0  0.1043
  H  H85  1  0.288200  0.081300  0.765000  1.0  0.0605
  H  H86  1  0.173000  0.099700  0.956000  1.0  0.1161
  H  H87  1  0.294500  0.100100  0.947400  1.0  0.1017
  H  H88  1  0.233200  0.044400  0.933900  1.0  0.1041
  H  H89  1  0.044400  0.920600  0.107500  1.0  0.1146
  H  H90  1  0.981800  0.911600  0.444000  1.0  0.0682
  H  H91  1  0.111800  0.818300  0.411600  1.0  0.1131
  H  H92  1  0.990100  0.817000  0.405000  1.0  0.0958
  H  H93  1  0.045200  0.827600  0.516200  1.0  0.1037
  H  H94  1  0.473300  0.917700  0.080300  1.0  0.1217
  H  H95  1  0.549400  0.914600  0.747100  1.0  0.0715
  H  H96  1  0.427500  0.817400  0.762800  1.0  0.1101
  H  H97  1  0.547800  0.818700  0.783400  1.0  0.1119
  H  H98  1  0.503900  0.830500  0.667400  1.0  0.0997
  H  H99  1  0.779400  0.199600  0.669800  1.0  0.4434
  H  H100  1  0.873000  0.172400  0.671100  1.0  0.4107
  H  H101  1  0.500000  0.500000  0.609700  1.0  0.101
  H  H102  1  0.000000  0.000000  0.390300  1.0  0.1006
  H  H103  1  0.000000  0.500000  0.201300  1.0  0.1011
  H  H104  1  0.500000  0.000000  0.798700  1.0  0.1015
  C  C105  1  0.722200  0.329900  0.509700  1.0  0.2333
  C  C106  1  0.700300  0.272600  0.516000  1.0  -0.1521
  C  C107  1  0.686700  0.243400  0.420700  1.0  -0.1392
  C  C108  1  0.691300  0.269500  0.320500  1.0  -0.111
  C  C109  1  0.711500  0.326800  0.316200  1.0  0.2292
  C  C110  1  0.728700  0.356700  0.410400  1.0  -0.1698
  C  C111  1  0.763000  0.411800  0.612900  1.0  0.0999
  C  C112  1  0.872900  0.419300  0.569700  1.0  0.691
  C  C113  1  0.755600  0.429300  0.728900  1.0  -0.3417
  C  C114  1  0.723900  0.406400  0.200000  1.0  0.0944
  C  C115  1  0.633900  0.437300  0.246800  1.0  0.6577
  C  C116  1  0.731900  0.416500  0.079700  1.0  -0.3607
  C  C117  1  0.660900  0.182900  0.425300  1.0  0.6655
  C  C118  1  0.526700  0.547600  0.742000  1.0  0.262
  C  C119  1  0.526600  0.547500  0.854600  1.0  -0.1153
  C  C120  1  0.547600  0.603900  0.582200  1.0  0.0933
  C  C121  1  0.639000  0.575200  0.521800  1.0  0.643
  C  C122  1  0.548800  0.666000  0.560300  1.0  -0.3525
  C  C123  1  0.987200  0.548500  0.068500  1.0  0.2505
  C  C124  1  0.984800  0.549400  0.956800  1.0  -0.1407
  C  C125  1  0.985200  0.603900  0.230200  1.0  0.1142
  C  C126  1  0.895000  0.578200  0.285500  1.0  0.6817
  C  C127  1  0.991700  0.664900  0.256600  1.0  -0.3581
  C  C128  1  0.277800  0.670100  0.509700  1.0  0.2327
  C  C129  1  0.299700  0.727400  0.516000  1.0  -0.1527
  C  C130  1  0.313300  0.756600  0.420700  1.0  -0.1369
  C  C131  1  0.308700  0.730500  0.320500  1.0  -0.1123
  C  C132  1  0.288500  0.673200  0.316200  1.0  0.2301
  C  C133  1  0.271300  0.643300  0.410400  1.0  -0.1711
  C  C134  1  0.237000  0.588200  0.612900  1.0  0.0981
  C  C135  1  0.127100  0.580700  0.569700  1.0  0.6891
  C  C136  1  0.244400  0.570700  0.728900  1.0  -0.3423
  C  C137  1  0.276100  0.593600  0.200000  1.0  0.0951
  C  C138  1  0.366100  0.562700  0.246800  1.0  0.6611
  C  C139  1  0.268100  0.583500  0.079700  1.0  -0.3601
  C  C140  1  0.339100  0.817100  0.425300  1.0  0.6645
  C  C141  1  0.473300  0.452400  0.742000  1.0  0.2633
  C  C142  1  0.473400  0.452500  0.854600  1.0  -0.1145
  C  C143  1  0.452400  0.396100  0.582200  1.0  0.0935
  C  C144  1  0.361000  0.424800  0.521800  1.0  0.6438
  C  C145  1  0.451200  0.334000  0.560300  1.0  -0.353
  C  C146  1  0.012800  0.451500  0.068500  1.0  0.25
  C  C147  1  0.015200  0.450600  0.956800  1.0  -0.1452
  C  C148  1  0.014800  0.396100  0.230200  1.0  0.1145
  C  C149  1  0.105000  0.421800  0.285500  1.0  0.6817
  C  C150  1  0.008300  0.335100  0.256600  1.0  -0.3595
  C  C151  1  0.777800  0.829900  0.490300  1.0  0.2336
  C  C152  1  0.799700  0.772600  0.484000  1.0  -0.153
  C  C153  1  0.813300  0.743400  0.579300  1.0  -0.1381
  C  C154  1  0.808700  0.769500  0.679500  1.0  -0.1104
  C  C155  1  0.788500  0.826800  0.683800  1.0  0.2316
  C  C156  1  0.771300  0.856700  0.589600  1.0  -0.1708
  C  C157  1  0.737000  0.911800  0.387100  1.0  0.0975
  C  C158  1  0.627100  0.919300  0.430300  1.0  0.6908
  C  C159  1  0.744400  0.929300  0.271100  1.0  -0.3412
  C  C160  1  0.776100  0.906400  0.800000  1.0  0.0954
  C  C161  1  0.866100  0.937300  0.753200  1.0  0.6587
  C  C162  1  0.768100  0.916500  0.920300  1.0  -0.3605
  C  C163  1  0.839100  0.682900  0.574700  1.0  0.6651
  C  C164  1  0.973300  0.047600  0.258000  1.0  0.2616
  C  C165  1  0.973400  0.047500  0.145400  1.0  -0.115
  C  C166  1  0.952400  0.103900  0.417800  1.0  0.0925
  C  C167  1  0.861000  0.075200  0.478200  1.0  0.6441
  C  C168  1  0.951200  0.166000  0.439700  1.0  -0.3533
  C  C169  1  0.512800  0.048500  0.931500  1.0  0.2512
  C  C170  1  0.515200  0.049400  0.043200  1.0  -0.141
  C  C171  1  0.514800  0.103900  0.769800  1.0  0.1153
  C  C172  1  0.605000  0.078200  0.714500  1.0  0.6817
  C  C173  1  0.508300  0.164900  0.743400  1.0  -0.3595
  C  C174  1  0.222200  0.170100  0.490300  1.0  0.2337
  C  C175  1  0.200300  0.227400  0.484000  1.0  -0.1529
  C  C176  1  0.186700  0.256600  0.579300  1.0  -0.1374
  C  C177  1  0.191300  0.230500  0.679500  1.0  -0.1099
  C  C178  1  0.211500  0.173200  0.683800  1.0  0.2311
  C  C179  1  0.228700  0.143300  0.589600  1.0  -0.1707
  C  C180  1  0.263000  0.088200  0.387100  1.0  0.098
  C  C181  1  0.372900  0.080700  0.430300  1.0  0.6919
  C  C182  1  0.255600  0.070700  0.271100  1.0  -0.342
  C  C183  1  0.223900  0.093600  0.800000  1.0  0.0952
  C  C184  1  0.133900  0.062700  0.753200  1.0  0.6584
  C  C185  1  0.231900  0.083500  0.920300  1.0  -0.3607
  C  C186  1  0.160900  0.317100  0.574700  1.0  0.6645
  C  C187  1  0.026700  0.952400  0.258000  1.0  0.2616
  C  C188  1  0.026600  0.952500  0.145400  1.0  -0.1153
  C  C189  1  0.047600  0.896100  0.417800  1.0  0.0939
  C  C190  1  0.139000  0.924800  0.478200  1.0  0.6445
  C  C191  1  0.048800  0.834000  0.439700  1.0  -0.3535
  C  C192  1  0.487200  0.951500  0.931500  1.0  0.2515
  C  C193  1  0.484800  0.950600  0.043200  1.0  -0.1426
  C  C194  1  0.485200  0.896100  0.769800  1.0  0.1159
  C  C195  1  0.395000  0.921800  0.714500  1.0  0.6813
  C  C196  1  0.491700  0.835100  0.743400  1.0  -0.3583
  C  C197  1  0.500000  0.500000  0.684800  1.0  -0.1779
  C  C198  1  0.500000  0.500000  0.909800  1.0  -0.1324
  C  C199  1  0.500000  0.500000  0.030600  1.0  0.6776
  C  C200  1  0.000000  0.000000  0.315200  1.0  -0.1773
  C  C201  1  0.000000  0.000000  0.090200  1.0  -0.1328
  C  C202  1  0.000000  0.000000  0.969400  1.0  0.6765
  C  C203  1  0.000000  0.500000  0.126100  1.0  -0.1854
  C  C204  1  0.000000  0.500000  0.901000  1.0  -0.14
  C  C205  1  0.000000  0.500000  0.780200  1.0  0.6773
  C  C206  1  0.500000  0.000000  0.873900  1.0  -0.1864
  C  C207  1  0.500000  0.000000  0.099000  1.0  -0.1382
  C  C208  1  0.500000  0.000000  0.219800  1.0  0.6775
  O  O209  1  0.713100  0.348200  0.213900  1.0  -0.3264
  O  O210  1  0.555500  0.413200  0.271100  1.0  -0.6629
  O  O211  1  0.653200  0.489200  0.255000  1.0  -0.7086
  O  O212  1  0.731900  0.354800  0.608000  1.0  -0.3181
  O  O213  1  0.901800  0.467590  0.544900  1.0  -0.8022
  O  O214  1  0.933700  0.379740  0.569700  1.0  -0.6292
  O  O215  1  0.667400  0.158610  0.515300  1.0  -0.6738
  O  O216  1  0.638200  0.157100  0.341300  1.0  -0.6832
  O  O217  1  0.552900  0.597000  0.695800  1.0  -0.3288
  O  O218  1  0.714300  0.559600  0.577300  1.0  -0.714
  O  O219  1  0.629800  0.572400  0.423200  1.0  -0.6673
  O  O220  1  0.543000  0.539300  0.077300  1.0  -0.755
  O  O221  1  0.975000  0.600400  0.115600  1.0  -0.3463
  O  O222  1  0.913600  0.558300  0.376800  1.0  -0.692
  O  O223  1  0.811200  0.578000  0.242600  1.0  -0.6627
  O  O224  1  0.953700  0.539400  0.732400  1.0  -0.7534
  O  O225  1  0.310300  0.329200  0.307600  1.0  -0.7824
  O  O226  1  0.286900  0.651800  0.213900  1.0  -0.3242
  O  O227  1  0.444500  0.586800  0.271100  1.0  -0.6613
  O  O228  1  0.346800  0.510800  0.255000  1.0  -0.7074
  O  O229  1  0.268100  0.645200  0.608000  1.0  -0.3172
  O  O230  1  0.098200  0.532410  0.544900  1.0  -0.8021
  O  O231  1  0.066300  0.620260  0.569700  1.0  -0.6289
  O  O232  1  0.332600  0.841390  0.515300  1.0  -0.6728
  O  O233  1  0.361800  0.842900  0.341300  1.0  -0.6825
  O  O234  1  0.447100  0.403000  0.695800  1.0  -0.3307
  O  O235  1  0.285700  0.440400  0.577300  1.0  -0.7144
  O  O236  1  0.370200  0.427600  0.423200  1.0  -0.6665
  O  O237  1  0.457000  0.460700  0.077300  1.0  -0.7554
  O  O238  1  0.025000  0.399600  0.115600  1.0  -0.3457
  O  O239  1  0.086400  0.441700  0.376800  1.0  -0.6921
  O  O240  1  0.188800  0.422000  0.242600  1.0  -0.6623
  O  O241  1  0.046300  0.460600  0.732400  1.0  -0.7523
  O  O242  1  0.689700  0.670800  0.307600  1.0  -0.7847
  O  O243  1  0.786900  0.848200  0.786100  1.0  -0.3234
  O  O244  1  0.944500  0.913200  0.728900  1.0  -0.6611
  O  O245  1  0.846800  0.989200  0.745000  1.0  -0.7077
  O  O246  1  0.768100  0.854800  0.392000  1.0  -0.3192
  O  O247  1  0.598200  0.967590  0.455100  1.0  -0.8024
  O  O248  1  0.566300  0.879740  0.430300  1.0  -0.629
  O  O249  1  0.832600  0.658610  0.484700  1.0  -0.6739
  O  O250  1  0.861800  0.657100  0.658700  1.0  -0.6779
  O  O251  1  0.947100  0.097000  0.304200  1.0  -0.3275
  O  O252  1  0.785700  0.059600  0.422700  1.0  -0.7144
  O  O253  1  0.870200  0.072400  0.576800  1.0  -0.6668
  O  O254  1  0.957000  0.039300  0.922700  1.0  -0.7556
  O  O255  1  0.525000  0.100400  0.884400  1.0  -0.344
  O  O256  1  0.586400  0.058300  0.623200  1.0  -0.6907
  O  O257  1  0.688800  0.078000  0.757400  1.0  -0.6623
  O  O258  1  0.546300  0.039400  0.267600  1.0  -0.7531
  O  O259  1  0.189700  0.829200  0.692400  1.0  -0.7817
  O  O260  1  0.213100  0.151800  0.786100  1.0  -0.3221
  O  O261  1  0.055500  0.086800  0.728900  1.0  -0.6625
  O  O262  1  0.153200  0.010800  0.745000  1.0  -0.7082
  O  O263  1  0.231900  0.145200  0.392000  1.0  -0.3197
  O  O264  1  0.401800  0.032410  0.455100  1.0  -0.8014
  O  O265  1  0.433700  0.120260  0.430300  1.0  -0.6286
  O  O266  1  0.167400  0.341390  0.484700  1.0  -0.6735
  O  O267  1  0.138200  0.342900  0.658700  1.0  -0.6793
  O  O268  1  0.052900  0.903000  0.304200  1.0  -0.3277
  O  O269  1  0.214300  0.940400  0.422700  1.0  -0.7133
  O  O270  1  0.129800  0.927600  0.576800  1.0  -0.6671
  O  O271  1  0.043000  0.960700  0.922700  1.0  -0.7563
  O  O272  1  0.475000  0.899600  0.884400  1.0  -0.3499
  O  O273  1  0.413600  0.941700  0.623200  1.0  -0.691
  O  O274  1  0.311200  0.922000  0.757400  1.0  -0.6629
  O  O275  1  0.453700  0.960600  0.267600  1.0  -0.7525
  O  O276  1  0.810300  0.170800  0.692400  1.0  -0.7827
