# generated using pymatgen
data_Sm2H24C26O17
_symmetry_space_group_name_H-M   'P 1'
_cell_length_a   11.92100000
_cell_length_b   12.52700000
_cell_length_c   12.55200000
_cell_angle_alpha   90.00000000
_cell_angle_beta   98.87000000
_cell_angle_gamma   90.00000000
_symmetry_Int_Tables_number   1
_chemical_formula_structural   Sm2H24C26O17
_chemical_formula_sum   'Sm4 H48 C52 O34'
_cell_volume   1852.02799323
_cell_formula_units_Z   2
loop_
 _symmetry_equiv_pos_site_id
 _symmetry_equiv_pos_as_xyz
  1  'x, y, z'
loop_
 _atom_site_type_symbol
 _atom_site_label
 _atom_site_symmetry_multiplicity
 _atom_site_fract_x
 _atom_site_fract_y
 _atom_site_fract_z
 _atom_site_occupancy
 _atom_site_charge
  Sm  Sm1  1  0.372490  0.445910  0.132110  1.0  2.2959
  Sm  Sm2  1  0.641690  0.229160  0.187870  1.0  2.3053
  Sm  Sm3  1  0.627510  0.945910  0.867890  1.0  2.2963
  Sm  Sm4  1  0.358310  0.729160  0.812130  1.0  2.3072
  H  H5  1  0.326600  0.401700  0.485000  1.0  0.111
  H  H6  1  0.480400  0.328900  0.785100  1.0  0.1146
  H  H7  1  0.643400  0.280300  0.532100  1.0  0.109
  H  H8  1  0.303200  0.307200  0.803000  1.0  0.0575
  H  H9  1  0.110600  0.342400  0.751100  1.0  0.1093
  H  H10  1  0.130400  0.463700  0.778400  1.0  0.102
  H  H11  1  0.147000  0.378500  0.871000  1.0  0.1047
  H  H12  1  0.659900  0.365600  0.855200  1.0  0.058
  H  H13  1  0.852800  0.351400  0.843700  1.0  0.1012
  H  H14  1  0.851000  0.229800  0.872700  1.0  0.1144
  H  H15  1  0.832000  0.315800  0.958800  1.0  0.0978
  H  H16  1  0.999300  0.534800  0.929300  1.0  0.1066
  H  H17  1  0.713100  0.606300  0.046200  1.0  0.0966
  H  H18  1  0.007400  0.565000  0.248400  1.0  0.1154
  H  H19  1  0.636400  0.618800  0.201300  1.0  0.0708
  H  H20  1  0.675000  0.652100  0.388800  1.0  0.1094
  H  H21  1  0.703500  0.530800  0.408100  1.0  0.1217
  H  H22  1  0.579600  0.566000  0.360800  1.0  0.0953
  H  H23  1  0.634100  0.553500  0.873600  1.0  0.0678
  H  H24  1  0.662100  0.511800  0.697800  1.0  0.09
  H  H25  1  0.698700  0.629800  0.679700  1.0  0.1123
  H  H26  1  0.573000  0.604300  0.693700  1.0  0.1026
  H  H27  1  0.770100  0.108900  0.314800  1.0  0.4418
  H  H28  1  0.803000  0.160800  0.412700  1.0  0.4872
  H  H29  1  0.673400  0.901700  0.515000  1.0  0.1114
  H  H30  1  0.519600  0.828900  0.214900  1.0  0.1143
  H  H31  1  0.356600  0.780300  0.467900  1.0  0.1097
  H  H32  1  0.696800  0.807200  0.197000  1.0  0.0581
  H  H33  1  0.889400  0.842400  0.248900  1.0  0.1099
  H  H34  1  0.869600  0.963700  0.221600  1.0  0.1014
  H  H35  1  0.853000  0.878500  0.129000  1.0  0.1064
  H  H36  1  0.340100  0.865600  0.144800  1.0  0.0574
  H  H37  1  0.147200  0.851400  0.156300  1.0  0.1003
  H  H38  1  0.149000  0.729800  0.127300  1.0  0.1154
  H  H39  1  0.168000  0.815800  0.041200  1.0  0.0977
  H  H40  1  0.000700  0.034800  0.070700  1.0  0.1063
  H  H41  1  0.286900  0.106300  0.953800  1.0  0.0972
  H  H42  1  0.992600  0.065000  0.751600  1.0  0.1152
  H  H43  1  0.363600  0.118800  0.798700  1.0  0.071
  H  H44  1  0.325000  0.152100  0.611200  1.0  0.1099
  H  H45  1  0.296500  0.030800  0.591900  1.0  0.1213
  H  H46  1  0.420400  0.066000  0.639200  1.0  0.0968
  H  H47  1  0.365900  0.053500  0.126400  1.0  0.0687
  H  H48  1  0.337900  0.011800  0.302200  1.0  0.0902
  H  H49  1  0.301300  0.129800  0.320300  1.0  0.1118
  H  H50  1  0.427000  0.104300  0.306300  1.0  0.1033
  H  H51  1  0.229900  0.608900  0.685200  1.0  0.4421
  H  H52  1  0.197000  0.660800  0.587300  1.0  0.4843
  C  C53  1  0.484200  0.339000  0.490200  1.0  -0.1608
  C  C54  1  0.388700  0.374600  0.530900  1.0  -0.1075
  C  C55  1  0.387500  0.369000  0.640700  1.0  0.2344
  C  C56  1  0.482100  0.333333  0.711400  1.0  -0.1827
  C  C57  1  0.578800  0.304400  0.669100  1.0  0.2575
  C  C58  1  0.579700  0.303900  0.559600  1.0  -0.1454
  C  C59  1  0.487000  0.341200  0.372500  1.0  0.6773
  C  C60  1  0.279500  0.380700  0.784500  1.0  0.0594
  C  C61  1  0.355600  0.457000  0.861000  1.0  0.6489
  C  C62  1  0.155500  0.392400  0.797500  1.0  -0.361
  C  C63  1  0.691400  0.295000  0.844200  1.0  0.0923
  C  C64  1  0.632100  0.213400  0.906400  1.0  0.6424
  C  C65  1  0.818500  0.298300  0.883500  1.0  -0.3397
  C  C66  1  0.020800  0.546500  0.090000  1.0  -0.0905
  C  C67  1  0.962100  0.548700  0.987700  1.0  -0.1412
  C  C68  1  0.846300  0.571700  0.971000  1.0  0.2742
  C  C69  1  0.790400  0.591200  0.057400  1.0  -0.2017
  C  C70  1  0.850700  0.588100  0.161600  1.0  0.2641
  C  C71  1  0.966800  0.566300  0.179000  1.0  -0.157
  C  C72  1  0.145900  0.520000  0.107900  1.0  0.6366
  C  C73  1  0.687100  0.572400  0.249800  1.0  0.0882
  C  C74  1  0.673300  0.457500  0.210100  1.0  0.6727
  C  C75  1  0.658700  0.581100  0.362000  1.0  -0.3618
  C  C76  1  0.681700  0.599900  0.836400  1.0  0.0863
  C  C77  1  0.662300  0.715900  0.864200  1.0  0.6637
  C  C78  1  0.651100  0.585100  0.715900  1.0  -0.3503
  C  C79  1  0.515800  0.839000  0.509800  1.0  -0.1603
  C  C80  1  0.611300  0.874600  0.469100  1.0  -0.1063
  C  C81  1  0.612500  0.869000  0.359300  1.0  0.2337
  C  C82  1  0.517900  0.833300  0.288600  1.0  -0.1851
  C  C83  1  0.421200  0.804400  0.330900  1.0  0.2551
  C  C84  1  0.420300  0.803900  0.440400  1.0  -0.1438
  C  C85  1  0.513000  0.841200  0.627500  1.0  0.6787
  C  C86  1  0.720500  0.880700  0.215500  1.0  0.0614
  C  C87  1  0.644400  0.957000  0.139000  1.0  0.6496
  C  C88  1  0.844500  0.892400  0.202500  1.0  -0.3601
  C  C89  1  0.308600  0.795000  0.155800  1.0  0.092
  C  C90  1  0.367900  0.713400  0.093600  1.0  0.64
  C  C91  1  0.181500  0.798300  0.116500  1.0  -0.3395
  C  C92  1  0.979200  0.046500  0.910000  1.0  -0.0942
  C  C93  1  0.037900  0.048700  0.012300  1.0  -0.1391
  C  C94  1  0.153700  0.071700  0.029000  1.0  0.2731
  C  C95  1  0.209600  0.091200  0.942600  1.0  -0.2033
  C  C96  1  0.149300  0.088100  0.838400  1.0  0.2632
  C  C97  1  0.033200  0.066300  0.821000  1.0  -0.1543
  C  C98  1  0.854100  0.020000  0.892100  1.0  0.6452
  C  C99  1  0.312900  0.072400  0.750200  1.0  0.0863
  C  C100  1  0.326700  0.957500  0.789900  1.0  0.6722
  C  C101  1  0.341300  0.081100  0.638000  1.0  -0.363
  C  C102  1  0.318300  0.099900  0.163600  1.0  0.0875
  C  C103  1  0.337700  0.215900  0.135800  1.0  0.6634
  C  C104  1  0.348900  0.085100  0.284100  1.0  -0.3521
  O  O105  1  0.563500  0.286100  0.338300  1.0  -0.6967
  O  O106  1  0.416300  0.397600  0.314500  1.0  -0.7354
  O  O107  1  0.288000  0.398100  0.675800  1.0  -0.3411
  O  O108  1  0.379000  0.544500  0.826200  1.0  -0.6259
  O  O109  1  0.389400  0.420800  0.954200  1.0  -0.683
  O  O110  1  0.678100  0.274900  0.732500  1.0  -0.3196
  O  O111  1  0.625700  0.237700  0.001700  1.0  -0.7361
  O  O112  1  0.592700  0.128700  0.859700  1.0  -0.702
  O  O113  1  0.195700  0.496700  0.199800  1.0  -0.6435
  O  O114  1  0.197700  0.521700  0.027600  1.0  -0.6636
  O  O115  1  0.797000  0.570000  0.864500  1.0  -0.303
  O  O116  1  0.743300  0.780800  0.876400  1.0  -0.6506
  O  O117  1  0.561600  0.745600  0.870500  1.0  -0.7754
  O  O118  1  0.801900  0.605900  0.251500  1.0  -0.3054
  O  O119  1  0.750300  0.391500  0.233600  1.0  -0.6364
  O  O120  1  0.577000  0.431700  0.156200  1.0  -0.7945
  O  O121  1  0.762300  0.165600  0.350800  1.0  -0.7875
  O  O122  1  0.436500  0.786100  0.661700  1.0  -0.697
  O  O123  1  0.583700  0.897600  0.685500  1.0  -0.7342
  O  O124  1  0.712000  0.898100  0.324200  1.0  -0.3434
  O  O125  1  0.621000  0.044500  0.173800  1.0  -0.6248
  O  O126  1  0.610600  0.920800  0.045800  1.0  -0.682
  O  O127  1  0.321900  0.774900  0.267500  1.0  -0.3192
  O  O128  1  0.374300  0.737700  0.998300  1.0  -0.7341
  O  O129  1  0.407300  0.628700  0.140300  1.0  -0.7028
  O  O130  1  0.804300  0.996700  0.800200  1.0  -0.6444
  O  O131  1  0.802300  0.021700  0.972400  1.0  -0.6628
  O  O132  1  0.203000  0.070000  0.135500  1.0  -0.3051
  O  O133  1  0.256700  0.280800  0.123600  1.0  -0.6508
  O  O134  1  0.438400  0.245600  0.129500  1.0  -0.7738
  O  O135  1  0.198100  0.105900  0.748500  1.0  -0.305
  O  O136  1  0.249700  0.891500  0.766400  1.0  -0.6338
  O  O137  1  0.423000  0.931700  0.843800  1.0  -0.7934
  O  O138  1  0.237700  0.665600  0.649200  1.0  -0.794
