# generated using pymatgen
data_Sm2H24C26O17
_symmetry_space_group_name_H-M   'P 1'
_cell_length_a   11.90000000
_cell_length_b   12.49400000
_cell_length_c   12.53900000
_cell_angle_alpha   90.00000000
_cell_angle_beta   98.76000000
_cell_angle_gamma   90.00000000
_symmetry_Int_Tables_number   1
_chemical_formula_structural   Sm2H24C26O17
_chemical_formula_sum   'Sm4 H48 C52 O34'
_cell_volume   1842.53402517
_cell_formula_units_Z   2
loop_
 _symmetry_equiv_pos_site_id
 _symmetry_equiv_pos_as_xyz
  1  'x, y, z'
loop_
 _atom_site_type_symbol
 _atom_site_label
 _atom_site_symmetry_multiplicity
 _atom_site_fract_x
 _atom_site_fract_y
 _atom_site_fract_z
 _atom_site_occupancy
 _atom_site_charge
  Sm  Sm1  1  0.627390  0.554300  0.868460  1.0  2.2915
  Sm  Sm2  1  0.358870  0.770640  0.813050  1.0  2.3163
  Sm  Sm3  1  0.372610  0.054300  0.131540  1.0  2.2906
  Sm  Sm4  1  0.641130  0.270640  0.186950  1.0  2.3159
  H  H5  1  0.674100  0.600400  0.516200  1.0  0.114
  H  H6  1  0.518900  0.669500  0.215600  1.0  0.1109
  H  H7  1  0.356600  0.722600  0.469600  1.0  0.1127
  H  H8  1  0.697500  0.694000  0.197600  1.0  0.0584
  H  H9  1  0.889100  0.659900  0.246400  1.0  0.1101
  H  H10  1  0.851900  0.619600  0.127900  1.0  0.1082
  H  H11  1  0.869800  0.537400  0.223400  1.0  0.106
  H  H12  1  0.339000  0.633300  0.145100  1.0  0.0554
  H  H13  1  0.145500  0.650500  0.156600  1.0  0.1
  H  H14  1  0.168100  0.682700  0.040900  1.0  0.1038
  H  H15  1  0.149400  0.771600  0.124700  1.0  0.1147
  H  H16  1  0.999700  0.465100  0.070500  1.0  0.1101
  H  H17  1  0.287700  0.395100  0.954000  1.0  0.1
  H  H18  1  0.992800  0.435200  0.751300  1.0  0.1159
  H  H19  1  0.363300  0.379700  0.799400  1.0  0.0719
  H  H20  1  0.324700  0.348400  0.610700  1.0  0.1101
  H  H21  1  0.421200  0.433600  0.639800  1.0  0.0968
  H  H22  1  0.297600  0.470500  0.592900  1.0  0.1144
  H  H23  1  0.365800  0.446800  0.126100  1.0  0.0733
  H  H24  1  0.329900  0.486400  0.303900  1.0  0.0938
  H  H25  1  0.426100  0.400200  0.307600  1.0  0.0978
  H  H26  1  0.302300  0.365400  0.320500  1.0  0.1177
  H  H27  1  0.228200  0.889100  0.686400  1.0  0.4466
  H  H28  1  0.195100  0.836900  0.588000  1.0  0.4891
  H  H29  1  0.325900  0.100400  0.483800  1.0  0.1138
  H  H30  1  0.481100  0.169500  0.784400  1.0  0.111
  H  H31  1  0.643400  0.222600  0.530400  1.0  0.1128
  H  H32  1  0.302500  0.194000  0.802400  1.0  0.0581
  H  H33  1  0.110900  0.159900  0.753600  1.0  0.1111
  H  H34  1  0.148100  0.119600  0.872100  1.0  0.1077
  H  H35  1  0.130200  0.037400  0.776600  1.0  0.1051
  H  H36  1  0.661000  0.133300  0.854900  1.0  0.0561
  H  H37  1  0.854500  0.150500  0.843400  1.0  0.1006
  H  H38  1  0.831900  0.182700  0.959100  1.0  0.1027
  H  H39  1  0.850600  0.271600  0.875300  1.0  0.1141
  H  H40  1  0.000300  0.965100  0.929500  1.0  0.1105
  H  H41  1  0.712300  0.895100  0.046000  1.0  0.0986
  H  H42  1  0.007200  0.935200  0.248700  1.0  0.116
  H  H43  1  0.636700  0.879700  0.200600  1.0  0.0715
  H  H44  1  0.675300  0.848400  0.389300  1.0  0.1113
  H  H45  1  0.578800  0.933600  0.360200  1.0  0.095
  H  H46  1  0.702400  0.970500  0.407100  1.0  0.1141
  H  H47  1  0.634200  0.946800  0.873900  1.0  0.0725
  H  H48  1  0.670100  0.986400  0.696100  1.0  0.0942
  H  H49  1  0.573900  0.900200  0.692400  1.0  0.0953
  H  H50  1  0.697700  0.865400  0.679500  1.0  0.1162
  H  H51  1  0.771800  0.389100  0.313600  1.0  0.4479
  H  H52  1  0.804900  0.336900  0.412000  1.0  0.4917
  C  C53  1  0.515500  0.659800  0.509500  1.0  -0.1488
  C  C54  1  0.611200  0.625800  0.470000  1.0  -0.1287
  C  C55  1  0.611600  0.630500  0.359800  1.0  0.2414
  C  C56  1  0.517100  0.665900  0.289400  1.0  -0.1903
  C  C57  1  0.420200  0.695600  0.330800  1.0  0.2505
  C  C58  1  0.419400  0.697200  0.441400  1.0  -0.136
  C  C59  1  0.513000  0.659000  0.628700  1.0  0.6706
  C  C60  1  0.721000  0.620200  0.215700  1.0  0.0677
  C  C61  1  0.642200  0.543900  0.141100  1.0  0.6446
  C  C62  1  0.844100  0.608200  0.202100  1.0  -0.3533
  C  C63  1  0.307800  0.704300  0.155900  1.0  0.0929
  C  C64  1  0.367800  0.785100  0.095100  1.0  0.6919
  C  C65  1  0.181100  0.702100  0.115900  1.0  -0.3443
  C  C66  1  0.979200  0.454000  0.909100  1.0  -0.1104
  C  C67  1  0.037500  0.451300  0.012300  1.0  -0.1469
  C  C68  1  0.153300  0.428000  0.029800  1.0  0.2791
  C  C69  1  0.210000  0.409300  0.943100  1.0  -0.1805
  C  C70  1  0.148000  0.412100  0.837700  1.0  0.2785
  C  C71  1  0.033300  0.433900  0.820800  1.0  -0.1733
  C  C72  1  0.855100  0.481000  0.891700  1.0  0.6646
  C  C73  1  0.313200  0.426900  0.751200  1.0  0.0856
  C  C74  1  0.327500  0.542000  0.791300  1.0  0.6714
  C  C75  1  0.341700  0.419200  0.638400  1.0  -0.3585
  C  C76  1  0.318000  0.399900  0.162900  1.0  0.0804
  C  C77  1  0.338100  0.283900  0.135700  1.0  0.6731
  C  C78  1  0.346800  0.414300  0.285100  1.0  -0.3451
  C  C79  1  0.484500  0.159800  0.490500  1.0  -0.1493
  C  C80  1  0.388800  0.125800  0.530000  1.0  -0.1275
  C  C81  1  0.388400  0.130500  0.640200  1.0  0.2424
  C  C82  1  0.482900  0.165900  0.710600  1.0  -0.188
  C  C83  1  0.579800  0.195600  0.669200  1.0  0.2533
  C  C84  1  0.580600  0.197200  0.558600  1.0  -0.137
  C  C85  1  0.487000  0.159000  0.371300  1.0  0.6693
  C  C86  1  0.279000  0.120200  0.784300  1.0  0.0658
  C  C87  1  0.357800  0.043900  0.858900  1.0  0.6467
  C  C88  1  0.155900  0.108200  0.797900  1.0  -0.3549
  C  C89  1  0.692200  0.204300  0.844100  1.0  0.093
  C  C90  1  0.632200  0.285100  0.904900  1.0  0.6912
  C  C91  1  0.818900  0.202100  0.884100  1.0  -0.3458
  C  C92  1  0.020800  0.954000  0.090900  1.0  -0.1082
  C  C93  1  0.962500  0.951300  0.987700  1.0  -0.1458
  C  C94  1  0.846700  0.928000  0.970200  1.0  0.2799
  C  C95  1  0.790000  0.909300  0.056900  1.0  -0.1799
  C  C96  1  0.852000  0.912100  0.162300  1.0  0.2814
  C  C97  1  0.966700  0.933900  0.179200  1.0  -0.1771
  C  C98  1  0.144900  0.981000  0.108300  1.0  0.6647
  C  C99  1  0.686800  0.926900  0.248800  1.0  0.0874
  C  C100  1  0.672500  0.042000  0.208700  1.0  0.672
  C  C101  1  0.658300  0.919200  0.361600  1.0  -0.3579
  C  C102  1  0.682000  0.899900  0.837100  1.0  0.0794
  C  C103  1  0.661900  0.783900  0.864300  1.0  0.6741
  C  C104  1  0.653200  0.914300  0.714900  1.0  -0.3433
  O  O105  1  0.436200  0.714300  0.662300  1.0  -0.6985
  O  O106  1  0.583800  0.602300  0.686400  1.0  -0.7262
  O  O107  1  0.711700  0.601900  0.325400  1.0  -0.3373
  O  O108  1  0.620200  0.454900  0.174400  1.0  -0.6382
  O  O109  1  0.609500  0.578900  0.046700  1.0  -0.6939
  O  O110  1  0.321100  0.725000  0.267400  1.0  -0.3272
  O  O111  1  0.374500  0.762700  0.998000  1.0  -0.746
  O  O112  1  0.407100  0.871400  0.140300  1.0  -0.7051
  O  O113  1  0.802700  0.503400  0.799400  1.0  -0.6339
  O  O114  1  0.801500  0.478300  0.973000  1.0  -0.6437
  O  O115  1  0.202100  0.429700  0.135900  1.0  -0.311
  O  O116  1  0.257900  0.218200  0.123000  1.0  -0.6571
  O  O117  1  0.438700  0.254600  0.129500  1.0  -0.811
  O  O118  1  0.197600  0.394300  0.748300  1.0  -0.3064
  O  O119  1  0.250400  0.608900  0.768500  1.0  -0.64
  O  O120  1  0.423800  0.568900  0.844500  1.0  -0.8362
  O  O121  1  0.236000  0.832100  0.650300  1.0  -0.8027
  O  O122  1  0.563800  0.214300  0.337700  1.0  -0.6967
  O  O123  1  0.416200  0.102300  0.313600  1.0  -0.7286
  O  O124  1  0.288300  0.101900  0.674600  1.0  -0.337
  O  O125  1  0.379800  0.954900  0.825600  1.0  -0.6389
  O  O126  1  0.390500  0.078900  0.953300  1.0  -0.6951
  O  O127  1  0.678900  0.225000  0.732600  1.0  -0.328
  O  O128  1  0.625500  0.262700  0.002000  1.0  -0.7498
  O  O129  1  0.592900  0.371400  0.859700  1.0  -0.7045
  O  O130  1  0.197300  0.003400  0.200600  1.0  -0.6342
  O  O131  1  0.198500  0.978300  0.027000  1.0  -0.6445
  O  O132  1  0.797900  0.929700  0.864100  1.0  -0.311
  O  O133  1  0.742100  0.718200  0.877000  1.0  -0.657
  O  O134  1  0.561300  0.754600  0.870500  1.0  -0.8121
  O  O135  1  0.802400  0.894300  0.251700  1.0  -0.3061
  O  O136  1  0.749600  0.108900  0.231500  1.0  -0.641
  O  O137  1  0.576200  0.068900  0.155500  1.0  -0.8369
  O  O138  1  0.764000  0.332100  0.349700  1.0  -0.7994
