# generated using pymatgen
data_Tb2H24C26O17
_symmetry_space_group_name_H-M   'P 1'
_cell_length_a   11.85500000
_cell_length_b   12.41400000
_cell_length_c   12.47300000
_cell_angle_alpha   90.00000000
_cell_angle_beta   99.01000000
_cell_angle_gamma   90.00000000
_symmetry_Int_Tables_number   1
_chemical_formula_structural   Tb2H24C26O17
_chemical_formula_sum   'Tb4 H48 C52 O34'
_cell_volume   1812.97634095
_cell_formula_units_Z   2
loop_
 _symmetry_equiv_pos_site_id
 _symmetry_equiv_pos_as_xyz
  1  'x, y, z'
loop_
 _atom_site_type_symbol
 _atom_site_label
 _atom_site_symmetry_multiplicity
 _atom_site_fract_x
 _atom_site_fract_y
 _atom_site_fract_z
 _atom_site_occupancy
 _atom_site_charge
  Tb  Tb1  1  0.373620  0.445400  0.130270  1.0  2.2738
  Tb  Tb2  1  0.641690  0.229650  0.186930  1.0  2.2667
  Tb  Tb3  1  0.626380  0.945400  0.869730  1.0  2.2737
  Tb  Tb4  1  0.358310  0.729650  0.813070  1.0  2.2674
  H  H5  1  0.326900  0.402500  0.480800  1.0  0.1158
  H  H6  1  0.479800  0.330100  0.783800  1.0  0.1072
  H  H7  1  0.645100  0.278300  0.531400  1.0  0.11
  H  H8  1  0.301700  0.307200  0.801300  1.0  0.0567
  H  H9  1  0.109100  0.346100  0.745100  1.0  0.112
  H  H10  1  0.131000  0.467200  0.777500  1.0  0.105
  H  H11  1  0.144500  0.377800  0.867400  1.0  0.1048
  H  H12  1  0.659500  0.366100  0.854300  1.0  0.0554
  H  H13  1  0.854400  0.351100  0.843800  1.0  0.1028
  H  H14  1  0.852400  0.229100  0.875700  1.0  0.1109
  H  H15  1  0.832900  0.317900  0.960200  1.0  0.0997
  H  H16  1  0.999600  0.533900  0.927800  1.0  0.1159
  H  H17  1  0.713700  0.606200  0.047000  1.0  0.094
  H  H18  1  0.009900  0.563400  0.250500  1.0  0.1125
  H  H19  1  0.636700  0.620500  0.201400  1.0  0.066
  H  H20  1  0.680500  0.652300  0.392600  1.0  0.1059
  H  H21  1  0.705200  0.529000  0.409900  1.0  0.1154
  H  H22  1  0.581300  0.568600  0.364600  1.0  0.0955
  H  H23  1  0.632300  0.552500  0.872600  1.0  0.0751
  H  H24  1  0.659000  0.513000  0.694700  1.0  0.0872
  H  H25  1  0.701400  0.630800  0.679000  1.0  0.1108
  H  H26  1  0.573400  0.609800  0.690400  1.0  0.0994
  H  H27  1  0.771500  0.111500  0.313600  1.0  0.4383
  H  H28  1  0.804600  0.163700  0.411900  1.0  0.4877
  H  H29  1  0.673100  0.902500  0.519200  1.0  0.1169
  H  H30  1  0.520200  0.830100  0.216200  1.0  0.1067
  H  H31  1  0.354900  0.778300  0.468600  1.0  0.1101
  H  H32  1  0.698300  0.807200  0.198700  1.0  0.0575
  H  H33  1  0.890900  0.846100  0.254900  1.0  0.112
  H  H34  1  0.869000  0.967200  0.222500  1.0  0.103
  H  H35  1  0.855500  0.877800  0.132600  1.0  0.1063
  H  H36  1  0.340500  0.866100  0.145700  1.0  0.0553
  H  H37  1  0.145600  0.851100  0.156200  1.0  0.1017
  H  H38  1  0.147600  0.729100  0.124300  1.0  0.1115
  H  H39  1  0.167100  0.817900  0.039800  1.0  0.1008
  H  H40  1  0.000400  0.033900  0.072200  1.0  0.1158
  H  H41  1  0.286300  0.106200  0.953000  1.0  0.0951
  H  H42  1  0.990100  0.063400  0.749500  1.0  0.1128
  H  H43  1  0.363300  0.120500  0.798600  1.0  0.0654
  H  H44  1  0.319500  0.152300  0.607400  1.0  0.1071
  H  H45  1  0.294800  0.029000  0.590100  1.0  0.1151
  H  H46  1  0.418700  0.068600  0.635400  1.0  0.0958
  H  H47  1  0.367700  0.052500  0.127400  1.0  0.0757
  H  H48  1  0.341000  0.013000  0.305300  1.0  0.0877
  H  H49  1  0.298600  0.130800  0.321000  1.0  0.1106
  H  H50  1  0.426600  0.109800  0.309600  1.0  0.1002
  H  H51  1  0.228500  0.611500  0.686400  1.0  0.438
  H  H52  1  0.195400  0.663700  0.588100  1.0  0.4857
  C  C53  1  0.485100  0.339500  0.488000  1.0  -0.1599
  C  C54  1  0.389200  0.375400  0.527500  1.0  -0.107
  C  C55  1  0.388100  0.369900  0.639200  1.0  0.2434
  C  C56  1  0.482000  0.333700  0.709600  1.0  -0.2053
  C  C57  1  0.579700  0.302900  0.669200  1.0  0.2366
  C  C58  1  0.581100  0.302700  0.558700  1.0  -0.1265
  C  C59  1  0.488800  0.341600  0.369000  1.0  0.66
  C  C60  1  0.278600  0.381600  0.783100  1.0  0.0839
  C  C61  1  0.356200  0.457900  0.858800  1.0  0.6406
  C  C62  1  0.154500  0.394300  0.794300  1.0  -0.3455
  C  C63  1  0.691600  0.294700  0.844400  1.0  0.0958
  C  C64  1  0.631700  0.212400  0.907900  1.0  0.6587
  C  C65  1  0.819700  0.298600  0.884800  1.0  -0.3373
  C  C66  1  0.022900  0.545400  0.091500  1.0  -0.1078
  C  C67  1  0.962700  0.548000  0.986800  1.0  -0.127
  C  C68  1  0.847200  0.572000  0.971000  1.0  0.281
  C  C69  1  0.791500  0.591200  0.058200  1.0  -0.1874
  C  C70  1  0.852500  0.587800  0.163500  1.0  0.2645
  C  C71  1  0.968900  0.565200  0.180500  1.0  -0.1634
  C  C72  1  0.148700  0.519200  0.108500  1.0  0.6394
  C  C73  1  0.687500  0.572900  0.249700  1.0  0.0863
  C  C74  1  0.672500  0.457200  0.210200  1.0  0.6621
  C  C75  1  0.661200  0.581500  0.364800  1.0  -0.3536
  C  C76  1  0.680300  0.600100  0.836200  1.0  0.0876
  C  C77  1  0.660900  0.715600  0.864800  1.0  0.6965
  C  C78  1  0.650800  0.587200  0.713800  1.0  -0.3566
  C  C79  1  0.514900  0.839500  0.512000  1.0  -0.1597
  C  C80  1  0.610800  0.875400  0.472500  1.0  -0.1047
  C  C81  1  0.611900  0.869900  0.360800  1.0  0.2409
  C  C82  1  0.518000  0.833700  0.290400  1.0  -0.2058
  C  C83  1  0.420300  0.802900  0.330800  1.0  0.2339
  C  C84  1  0.418900  0.802700  0.441300  1.0  -0.1258
  C  C85  1  0.511200  0.841600  0.631000  1.0  0.6609
  C  C86  1  0.721400  0.881600  0.216900  1.0  0.0864
  C  C87  1  0.643800  0.957900  0.141200  1.0  0.6404
  C  C88  1  0.845500  0.894300  0.205700  1.0  -0.3443
  C  C89  1  0.308400  0.794700  0.155600  1.0  0.0957
  C  C90  1  0.368300  0.712400  0.092100  1.0  0.6594
  C  C91  1  0.180300  0.798600  0.115200  1.0  -0.337
  C  C92  1  0.977100  0.045400  0.908500  1.0  -0.1116
  C  C93  1  0.037300  0.048000  0.013200  1.0  -0.1266
  C  C94  1  0.152800  0.072000  0.029000  1.0  0.2799
  C  C95  1  0.208500  0.091200  0.941800  1.0  -0.1894
  C  C96  1  0.147500  0.087800  0.836500  1.0  0.2628
  C  C97  1  0.031100  0.065200  0.819500  1.0  -0.161
  C  C98  1  0.851300  0.019200  0.891500  1.0  0.6378
  C  C99  1  0.312500  0.072900  0.750300  1.0  0.084
  C  C100  1  0.327500  0.957200  0.789800  1.0  0.6621
  C  C101  1  0.338800  0.081500  0.635200  1.0  -0.3541
  C  C102  1  0.319700  0.100100  0.163800  1.0  0.0883
  C  C103  1  0.339100  0.215600  0.135200  1.0  0.6965
  C  C104  1  0.349200  0.087200  0.286200  1.0  -0.3582
  O  O105  1  0.564600  0.284600  0.336300  1.0  -0.6838
  O  O106  1  0.417300  0.398700  0.310700  1.0  -0.7205
  O  O107  1  0.287800  0.400200  0.672900  1.0  -0.3211
  O  O108  1  0.379800  0.547100  0.826600  1.0  -0.6362
  O  O109  1  0.389800  0.421200  0.953900  1.0  -0.6905
  O  O110  1  0.678900  0.272800  0.732700  1.0  -0.3281
  O  O111  1  0.626400  0.237600  0.003400  1.0  -0.7099
  O  O112  1  0.591800  0.127100  0.861000  1.0  -0.6857
  O  O113  1  0.200300  0.496300  0.200600  1.0  -0.6337
  O  O114  1  0.200100  0.520900  0.026500  1.0  -0.6412
  O  O115  1  0.796700  0.570400  0.863900  1.0  -0.2971
  O  O116  1  0.741500  0.782700  0.877100  1.0  -0.662
  O  O117  1  0.559400  0.745800  0.871800  1.0  -0.8203
  O  O118  1  0.803800  0.605700  0.253000  1.0  -0.3009
  O  O119  1  0.750100  0.390000  0.233000  1.0  -0.6468
  O  O120  1  0.576400  0.431300  0.155100  1.0  -0.8076
  O  O121  1  0.763600  0.168400  0.349700  1.0  -0.7932
  O  O122  1  0.435400  0.784600  0.663700  1.0  -0.6834
  O  O123  1  0.582700  0.898700  0.689300  1.0  -0.7195
  O  O124  1  0.712200  0.900200  0.327100  1.0  -0.3245
  O  O125  1  0.620200  0.047100  0.173400  1.0  -0.6357
  O  O126  1  0.610200  0.921200  0.046100  1.0  -0.6897
  O  O127  1  0.321100  0.772800  0.267300  1.0  -0.3294
  O  O128  1  0.373600  0.737600  0.996600  1.0  -0.7089
  O  O129  1  0.408200  0.627100  0.139000  1.0  -0.6875
  O  O130  1  0.799700  0.996300  0.799400  1.0  -0.6346
  O  O131  1  0.799900  0.020900  0.973500  1.0  -0.6401
  O  O132  1  0.203300  0.070400  0.136100  1.0  -0.2977
  O  O133  1  0.258500  0.282700  0.122900  1.0  -0.6626
  O  O134  1  0.440600  0.245800  0.128200  1.0  -0.8186
  O  O135  1  0.196200  0.105700  0.747000  1.0  -0.3003
  O  O136  1  0.249900  0.890000  0.767000  1.0  -0.6458
  O  O137  1  0.423600  0.931300  0.844900  1.0  -0.8064
  O  O138  1  0.236400  0.668400  0.650300  1.0  -0.7994
