# generated using pymatgen
data_Tb2H24C26O17
_symmetry_space_group_name_H-M   'P 1'
_cell_length_a   11.87800000
_cell_length_b   12.41900000
_cell_length_c   12.48900000
_cell_angle_alpha   90.00000000
_cell_angle_beta   98.63000000
_cell_angle_gamma   90.00000000
_symmetry_Int_Tables_number   1
_chemical_formula_structural   Tb2H24C26O17
_chemical_formula_sum   'Tb4 H48 C52 O34'
_cell_volume   1821.42990025
_cell_formula_units_Z   2
loop_
 _symmetry_equiv_pos_site_id
 _symmetry_equiv_pos_as_xyz
  1  'x, y, z'
loop_
 _atom_site_type_symbol
 _atom_site_label
 _atom_site_symmetry_multiplicity
 _atom_site_fract_x
 _atom_site_fract_y
 _atom_site_fract_z
 _atom_site_occupancy
 _atom_site_charge
  Tb  Tb1  1  0.628140  0.554390  0.868000  1.0  2.2514
  Tb  Tb2  1  0.361930  0.770530  0.814990  1.0  2.2648
  Tb  Tb3  1  0.371860  0.054390  0.132000  1.0  2.25
  Tb  Tb4  1  0.638070  0.270530  0.185010  1.0  2.2639
  H  H5  1  0.676600  0.598900  0.515600  1.0  0.1151
  H  H6  1  0.520900  0.669300  0.215200  1.0  0.1088
  H  H7  1  0.359500  0.723600  0.470800  1.0  0.1064
  H  H8  1  0.697800  0.693200  0.195500  1.0  0.0573
  H  H9  1  0.889300  0.661000  0.239600  1.0  0.1076
  H  H10  1  0.851300  0.614000  0.123300  1.0  0.1058
  H  H11  1  0.871400  0.536700  0.223600  1.0  0.1035
  H  H12  1  0.342200  0.634100  0.146500  1.0  0.0524
  H  H13  1  0.149800  0.644500  0.155500  1.0  0.0963
  H  H14  1  0.169800  0.687400  0.041800  1.0  0.1004
  H  H15  1  0.149400  0.768700  0.133000  1.0  0.1156
  H  H16  1  0.997300  0.462800  0.070300  1.0  0.1162
  H  H17  1  0.285500  0.396000  0.951000  1.0  0.0937
  H  H18  1  0.992400  0.436400  0.748200  1.0  0.1166
  H  H19  1  0.362400  0.379600  0.798200  1.0  0.0621
  H  H20  1  0.326000  0.350900  0.606300  1.0  0.1073
  H  H21  1  0.424400  0.434400  0.637800  1.0  0.0945
  H  H22  1  0.302000  0.474400  0.590100  1.0  0.1116
  H  H23  1  0.363900  0.447300  0.123000  1.0  0.0719
  H  H24  1  0.326400  0.488100  0.299800  1.0  0.0907
  H  H25  1  0.426000  0.404800  0.303100  1.0  0.0966
  H  H26  1  0.303800  0.365600  0.318100  1.0  0.1141
  H  H27  1  0.239100  0.896200  0.689500  1.0  0.4407
  H  H28  1  0.206200  0.844100  0.591500  1.0  0.4921
  H  H29  1  0.323400  0.098900  0.484400  1.0  0.1143
  H  H30  1  0.479100  0.169300  0.784800  1.0  0.1089
  H  H31  1  0.640500  0.223600  0.529200  1.0  0.107
  H  H32  1  0.302200  0.193200  0.804500  1.0  0.0561
  H  H33  1  0.110700  0.161000  0.760400  1.0  0.1079
  H  H34  1  0.148700  0.114000  0.876700  1.0  0.1059
  H  H35  1  0.128600  0.036700  0.776400  1.0  0.1034
  H  H36  1  0.657800  0.134100  0.853500  1.0  0.0527
  H  H37  1  0.850200  0.144500  0.844500  1.0  0.0961
  H  H38  1  0.830200  0.187400  0.958200  1.0  0.1
  H  H39  1  0.850600  0.268700  0.867000  1.0  0.1145
  H  H40  1  0.002700  0.962800  0.929700  1.0  0.1162
  H  H41  1  0.714500  0.896000  0.049000  1.0  0.092
  H  H42  1  0.007600  0.936400  0.251800  1.0  0.1158
  H  H43  1  0.637600  0.879600  0.201800  1.0  0.0622
  H  H44  1  0.674000  0.850900  0.393700  1.0  0.1082
  H  H45  1  0.575600  0.934400  0.362200  1.0  0.0921
  H  H46  1  0.698000  0.974400  0.409900  1.0  0.111
  H  H47  1  0.636100  0.947300  0.877000  1.0  0.0716
  H  H48  1  0.673600  0.988100  0.700200  1.0  0.0918
  H  H49  1  0.574000  0.904800  0.696900  1.0  0.0962
  H  H50  1  0.696200  0.865600  0.681900  1.0  0.113
  H  H51  1  0.760900  0.396200  0.310500  1.0  0.4418
  H  H52  1  0.793800  0.344100  0.408500  1.0  0.4928
  C  C53  1  0.517900  0.660500  0.511700  1.0  -0.1661
  C  C54  1  0.613600  0.625200  0.469900  1.0  -0.1088
  C  C55  1  0.613200  0.630000  0.359100  1.0  0.255
  C  C56  1  0.519400  0.665800  0.289400  1.0  -0.2051
  C  C57  1  0.422400  0.696400  0.332300  1.0  0.2273
  C  C58  1  0.422400  0.697900  0.442600  1.0  -0.1468
  C  C59  1  0.515100  0.659100  0.630900  1.0  0.6676
  C  C60  1  0.721300  0.618900  0.213100  1.0  0.0724
  C  C61  1  0.643500  0.542200  0.137400  1.0  0.6468
  C  C62  1  0.844500  0.606500  0.198600  1.0  -0.35
  C  C63  1  0.309900  0.705200  0.157200  1.0  0.0934
  C  C64  1  0.369400  0.788400  0.093900  1.0  0.6418
  C  C65  1  0.183200  0.701100  0.118400  1.0  -0.3369
  C  C66  1  0.977200  0.453200  0.907400  1.0  -0.1192
  C  C67  1  0.035400  0.450100  0.011600  1.0  -0.1468
  C  C68  1  0.150700  0.428100  0.028100  1.0  0.2907
  C  C69  1  0.207800  0.410200  0.940000  1.0  -0.1775
  C  C70  1  0.147700  0.413800  0.835700  1.0  0.2732
  C  C71  1  0.032500  0.434700  0.818200  1.0  -0.1642
  C  C72  1  0.852300  0.479700  0.889200  1.0  0.6536
  C  C73  1  0.313700  0.428500  0.750100  1.0  0.0859
  C  C74  1  0.331100  0.543600  0.791300  1.0  0.6771
  C  C75  1  0.344400  0.421400  0.635400  1.0  -0.3606
  C  C76  1  0.316600  0.400400  0.161000  1.0  0.0923
  C  C77  1  0.336400  0.282700  0.133800  1.0  0.6954
  C  C78  1  0.345800  0.416100  0.281400  1.0  -0.3531
  C  C79  1  0.482100  0.160500  0.488300  1.0  -0.1668
  C  C80  1  0.386400  0.125200  0.530100  1.0  -0.1075
  C  C81  1  0.386800  0.130000  0.640900  1.0  0.2551
  C  C82  1  0.480600  0.165800  0.710600  1.0  -0.2026
  C  C83  1  0.577600  0.196400  0.667700  1.0  0.2317
  C  C84  1  0.577600  0.197900  0.557400  1.0  -0.1473
  C  C85  1  0.484900  0.159100  0.369100  1.0  0.6667
  C  C86  1  0.278700  0.118900  0.786900  1.0  0.0702
  C  C87  1  0.356500  0.042200  0.862600  1.0  0.6461
  C  C88  1  0.155500  0.106500  0.801400  1.0  -0.3512
  C  C89  1  0.690100  0.205200  0.842800  1.0  0.0933
  C  C90  1  0.630600  0.288400  0.906100  1.0  0.6435
  C  C91  1  0.816800  0.201100  0.881600  1.0  -0.3376
  C  C92  1  0.022800  0.953200  0.092600  1.0  -0.117
  C  C93  1  0.964600  0.950100  0.988400  1.0  -0.1493
  C  C94  1  0.849300  0.928100  0.971900  1.0  0.2912
  C  C95  1  0.792200  0.910200  0.060000  1.0  -0.1761
  C  C96  1  0.852300  0.913800  0.164300  1.0  0.274
  C  C97  1  0.967500  0.934700  0.181800  1.0  -0.167
  C  C98  1  0.147700  0.979700  0.110800  1.0  0.6542
  C  C99  1  0.686300  0.928500  0.249900  1.0  0.0873
  C  C100  1  0.668900  0.043600  0.208700  1.0  0.6774
  C  C101  1  0.655600  0.921400  0.364600  1.0  -0.3572
  C  C102  1  0.683400  0.900400  0.839000  1.0  0.0923
  C  C103  1  0.663600  0.782700  0.866200  1.0  0.6969
  C  C104  1  0.654200  0.916100  0.718600  1.0  -0.3516
  O  O105  1  0.440400  0.715700  0.664700  1.0  -0.7185
  O  O106  1  0.587300  0.602000  0.688100  1.0  -0.6885
  O  O107  1  0.712400  0.599500  0.323300  1.0  -0.3283
  O  O108  1  0.618600  0.453100  0.171800  1.0  -0.6402
  O  O109  1  0.609900  0.578000  0.044700  1.0  -0.6744
  O  O110  1  0.323700  0.727000  0.270600  1.0  -0.3324
  O  O111  1  0.376400  0.762800  0.998800  1.0  -0.7137
  O  O112  1  0.407500  0.873200  0.140600  1.0  -0.6845
  O  O113  1  0.801300  0.504100  0.797700  1.0  -0.6335
  O  O114  1  0.799300  0.477900  0.971400  1.0  -0.6407
  O  O115  1  0.200300  0.428600  0.133400  1.0  -0.3081
  O  O116  1  0.257100  0.217400  0.121400  1.0  -0.6339
  O  O117  1  0.438100  0.255000  0.128000  1.0  -0.8002
  O  O118  1  0.198100  0.397100  0.744700  1.0  -0.3063
  O  O119  1  0.253300  0.611500  0.768400  1.0  -0.6381
  O  O120  1  0.426400  0.569300  0.844400  1.0  -0.784
  O  O121  1  0.246900  0.839400  0.653400  1.0  -0.8085
  O  O122  1  0.559600  0.215700  0.335300  1.0  -0.7181
  O  O123  1  0.412700  0.102000  0.311900  1.0  -0.6892
  O  O124  1  0.287600  0.099500  0.676700  1.0  -0.3291
  O  O125  1  0.381400  0.953100  0.828200  1.0  -0.6412
  O  O126  1  0.390100  0.078000  0.955300  1.0  -0.6737
  O  O127  1  0.676300  0.227000  0.729400  1.0  -0.3301
  O  O128  1  0.623600  0.262800  0.001200  1.0  -0.7137
  O  O129  1  0.592500  0.373200  0.859400  1.0  -0.6831
  O  O130  1  0.198700  0.004100  0.202300  1.0  -0.6347
  O  O131  1  0.200700  0.977900  0.028600  1.0  -0.6425
  O  O132  1  0.799700  0.928600  0.866600  1.0  -0.3087
  O  O133  1  0.742900  0.717400  0.878600  1.0  -0.6334
  O  O134  1  0.561900  0.755000  0.872000  1.0  -0.8002
  O  O135  1  0.801900  0.897100  0.255300  1.0  -0.3049
  O  O136  1  0.746700  0.111500  0.231600  1.0  -0.6372
  O  O137  1  0.573600  0.069300  0.155600  1.0  -0.7836
  O  O138  1  0.753100  0.339400  0.346600  1.0  -0.8084
