# generated using pymatgen
data_Eu2H24C26O17
_symmetry_space_group_name_H-M   'P 1'
_cell_length_a   11.93100000
_cell_length_b   12.48500000
_cell_length_c   12.54900000
_cell_angle_alpha   90.00000000
_cell_angle_beta   98.63000000
_cell_angle_gamma   90.00000000
_symmetry_Int_Tables_number   1
_chemical_formula_structural   Eu2H24C26O17
_chemical_formula_sum   'Eu4 H48 C52 O34'
_cell_volume   1848.11656478
_cell_formula_units_Z   2
loop_
 _symmetry_equiv_pos_site_id
 _symmetry_equiv_pos_as_xyz
  1  'x, y, z'
loop_
 _atom_site_type_symbol
 _atom_site_label
 _atom_site_symmetry_multiplicity
 _atom_site_fract_x
 _atom_site_fract_y
 _atom_site_fract_z
 _atom_site_occupancy
 _atom_site_charge
  Eu  Eu1  1  0.627800  0.554150  0.867760  1.0  2.1245
  Eu  Eu2  1  0.360230  0.770790  0.813380  1.0  2.1529
  Eu  Eu3  1  0.372200  0.054150  0.132240  1.0  2.1241
  Eu  Eu4  1  0.639770  0.270790  0.186620  1.0  2.1516
  H  H5  1  0.675100  0.598700  0.514700  1.0  0.1201
  H  H6  1  0.520700  0.671400  0.216200  1.0  0.1165
  H  H7  1  0.357400  0.721000  0.468800  1.0  0.1125
  H  H8  1  0.697700  0.693500  0.196700  1.0  0.0645
  H  H9  1  0.889300  0.658400  0.245500  1.0  0.1139
  H  H10  1  0.852700  0.619300  0.126700  1.0  0.1118
  H  H11  1  0.869600  0.536100  0.221300  1.0  0.1075
  H  H12  1  0.341700  0.634500  0.145800  1.0  0.064
  H  H13  1  0.148600  0.645400  0.156400  1.0  0.1012
  H  H14  1  0.167500  0.686500  0.042400  1.0  0.112
  H  H15  1  0.148200  0.768600  0.132400  1.0  0.1165
  H  H16  1  0.999000  0.465100  0.070400  1.0  0.117
  H  H17  1  0.286900  0.395800  0.953600  1.0  0.1061
  H  H18  1  0.993700  0.437300  0.750900  1.0  0.1237
  H  H19  1  0.362400  0.380200  0.800000  1.0  0.0712
  H  H20  1  0.322500  0.349400  0.609000  1.0  0.1141
  H  H21  1  0.421700  0.431600  0.639000  1.0  0.1012
  H  H22  1  0.299900  0.472400  0.592400  1.0  0.1209
  H  H23  1  0.364200  0.446800  0.124500  1.0  0.0778
  H  H24  1  0.322600  0.486800  0.301400  1.0  0.1017
  H  H25  1  0.426200  0.409100  0.304200  1.0  0.1005
  H  H26  1  0.307200  0.363800  0.319600  1.0  0.1189
  H  H27  1  0.237200  0.895900  0.687600  1.0  0.4436
  H  H28  1  0.204200  0.843700  0.589400  1.0  0.493
  H  H29  1  0.324900  0.098700  0.485300  1.0  0.1195
  H  H30  1  0.479300  0.171400  0.783800  1.0  0.1177
  H  H31  1  0.642600  0.221000  0.531200  1.0  0.1127
  H  H32  1  0.302300  0.193500  0.803300  1.0  0.0641
  H  H33  1  0.110700  0.158400  0.754500  1.0  0.1138
  H  H34  1  0.147300  0.119300  0.873300  1.0  0.1111
  H  H35  1  0.130400  0.036100  0.778700  1.0  0.1073
  H  H36  1  0.658300  0.134500  0.854200  1.0  0.0645
  H  H37  1  0.851400  0.145400  0.843600  1.0  0.1008
  H  H38  1  0.832500  0.186500  0.957600  1.0  0.1109
  H  H39  1  0.851800  0.268600  0.867600  1.0  0.1157
  H  H40  1  0.001000  0.965100  0.929600  1.0  0.1173
  H  H41  1  0.713100  0.895800  0.046400  1.0  0.1056
  H  H42  1  0.006300  0.937300  0.249100  1.0  0.1229
  H  H43  1  0.637600  0.880200  0.200000  1.0  0.0714
  H  H44  1  0.677500  0.849400  0.391000  1.0  0.1151
  H  H45  1  0.578300  0.931600  0.361000  1.0  0.1007
  H  H46  1  0.700100  0.972400  0.407600  1.0  0.12
  H  H47  1  0.635800  0.946800  0.875500  1.0  0.0771
  H  H48  1  0.677400  0.986800  0.698600  1.0  0.1015
  H  H49  1  0.573800  0.909100  0.695800  1.0  0.0992
  H  H50  1  0.692800  0.863800  0.680400  1.0  0.1178
  H  H51  1  0.762800  0.395900  0.312400  1.0  0.4455
  H  H52  1  0.795800  0.343700  0.410600  1.0  0.4935
  C  C53  1  0.515800  0.660800  0.510100  1.0  -0.1475
  C  C54  1  0.612600  0.625000  0.469000  1.0  -0.1083
  C  C55  1  0.612700  0.629900  0.358900  1.0  0.2605
  C  C56  1  0.518700  0.666400  0.289800  1.0  -0.1941
  C  C57  1  0.422400  0.695400  0.331200  1.0  0.2628
  C  C58  1  0.420900  0.696600  0.441300  1.0  -0.1338
  C  C59  1  0.514000  0.658700  0.628300  1.0  0.6862
  C  C60  1  0.720900  0.619500  0.214000  1.0  0.0968
  C  C61  1  0.643400  0.544100  0.138800  1.0  0.6492
  C  C62  1  0.844400  0.607200  0.200600  1.0  -0.3444
  C  C63  1  0.309700  0.705300  0.156500  1.0  0.102
  C  C64  1  0.369100  0.787000  0.095600  1.0  0.6748
  C  C65  1  0.181500  0.701100  0.118400  1.0  -0.3357
  C  C66  1  0.978500  0.452900  0.909200  1.0  -0.1017
  C  C67  1  0.036500  0.450800  0.012100  1.0  -0.1501
  C  C68  1  0.151600  0.427200  0.028700  1.0  0.2904
  C  C69  1  0.209300  0.409200  0.942400  1.0  -0.1846
  C  C70  1  0.148000  0.411600  0.837800  1.0  0.283
  C  C71  1  0.033500  0.434400  0.820500  1.0  -0.1529
  C  C72  1  0.854500  0.478800  0.891100  1.0  0.6538
  C  C73  1  0.312800  0.427700  0.751800  1.0  0.0941
  C  C74  1  0.328700  0.542300  0.790900  1.0  0.6709
  C  C75  1  0.341900  0.419500  0.637400  1.0  -0.3512
  C  C76  1  0.316900  0.400200  0.162200  1.0  0.0985
  C  C77  1  0.336900  0.284100  0.135400  1.0  0.6788
  C  C78  1  0.345900  0.416500  0.282900  1.0  -0.3532
  C  C79  1  0.484200  0.160800  0.489900  1.0  -0.1481
  C  C80  1  0.387400  0.125000  0.531000  1.0  -0.1094
  C  C81  1  0.387300  0.129900  0.641100  1.0  0.2599
  C  C82  1  0.481300  0.166400  0.710200  1.0  -0.195
  C  C83  1  0.577600  0.195400  0.668800  1.0  0.2658
  C  C84  1  0.579100  0.196600  0.558700  1.0  -0.1336
  C  C85  1  0.486000  0.158700  0.371700  1.0  0.6856
  C  C86  1  0.279100  0.119500  0.786000  1.0  0.0946
  C  C87  1  0.356600  0.044100  0.861200  1.0  0.6488
  C  C88  1  0.155600  0.107200  0.799400  1.0  -0.346
  C  C89  1  0.690300  0.205300  0.843500  1.0  0.1019
  C  C90  1  0.630900  0.287000  0.904400  1.0  0.674
  C  C91  1  0.818500  0.201100  0.881600  1.0  -0.3365
  C  C92  1  0.021500  0.952900  0.090800  1.0  -0.099
  C  C93  1  0.963500  0.950800  0.987900  1.0  -0.1502
  C  C94  1  0.848400  0.927200  0.971300  1.0  0.2908
  C  C95  1  0.790700  0.909200  0.057600  1.0  -0.1835
  C  C96  1  0.852000  0.911600  0.162200  1.0  0.2848
  C  C97  1  0.966500  0.934400  0.179500  1.0  -0.156
  C  C98  1  0.145500  0.978800  0.108900  1.0  0.6623
  C  C99  1  0.687200  0.927700  0.248200  1.0  0.096
  C  C100  1  0.671300  0.042300  0.209100  1.0  0.6722
  C  C101  1  0.658100  0.919500  0.362600  1.0  -0.3499
  C  C102  1  0.683100  0.900200  0.837800  1.0  0.0983
  C  C103  1  0.663100  0.784100  0.864600  1.0  0.6804
  C  C104  1  0.654100  0.916500  0.717100  1.0  -0.3513
  O  O105  1  0.437700  0.713600  0.662800  1.0  -0.7027
  O  O106  1  0.585600  0.602400  0.686400  1.0  -0.7399
  O  O107  1  0.711900  0.599900  0.323600  1.0  -0.3218
  O  O108  1  0.618700  0.454600  0.172500  1.0  -0.6592
  O  O109  1  0.610500  0.580000  0.045300  1.0  -0.6774
  O  O110  1  0.323300  0.726600  0.268800  1.0  -0.331
  O  O111  1  0.374400  0.762600  0.998900  1.0  -0.7354
  O  O112  1  0.406900  0.871100  0.140200  1.0  -0.7051
  O  O113  1  0.803500  0.502400  0.798800  1.0  -0.6273
  O  O114  1  0.801500  0.477400  0.972500  1.0  -0.6728
  O  O115  1  0.201200  0.428800  0.134300  1.0  -0.3023
  O  O116  1  0.257300  0.218100  0.123000  1.0  -0.6466
  O  O117  1  0.437900  0.254800  0.129800  1.0  -0.8118
  O  O118  1  0.198000  0.395100  0.747600  1.0  -0.3027
  O  O119  1  0.250700  0.608900  0.768000  1.0  -0.6412
  O  O120  1  0.424700  0.569400  0.844500  1.0  -0.7781
  O  O121  1  0.245000  0.838900  0.651500  1.0  -0.7989
  O  O122  1  0.562300  0.213600  0.337200  1.0  -0.7014
  O  O123  1  0.414400  0.102400  0.313600  1.0  -0.7419
  O  O124  1  0.288100  0.099900  0.676400  1.0  -0.3211
  O  O125  1  0.381300  0.954600  0.827500  1.0  -0.6606
  O  O126  1  0.389500  0.080000  0.954700  1.0  -0.6779
  O  O127  1  0.676700  0.226600  0.731200  1.0  -0.3296
  O  O128  1  0.625600  0.262600  0.001100  1.0  -0.7376
  O  O129  1  0.593100  0.371100  0.859800  1.0  -0.7043
  O  O130  1  0.196500  0.002400  0.201200  1.0  -0.63
  O  O131  1  0.198500  0.977400  0.027500  1.0  -0.674
  O  O132  1  0.798800  0.928800  0.865700  1.0  -0.3015
  O  O133  1  0.742700  0.718100  0.877000  1.0  -0.6474
  O  O134  1  0.562100  0.754800  0.870200  1.0  -0.8131
  O  O135  1  0.802000  0.895100  0.252400  1.0  -0.3009
  O  O136  1  0.749300  0.108900  0.232000  1.0  -0.6413
  O  O137  1  0.575300  0.069400  0.155500  1.0  -0.7783
  O  O138  1  0.755000  0.338900  0.348500  1.0  -0.7946
