# generated using pymatgen
data_Fe3C18O13
_symmetry_space_group_name_H-M   'P 1'
_cell_length_a   9.13500000
_cell_length_b   16.13700000
_cell_length_c   19.96800000
_cell_angle_alpha   90.00000000
_cell_angle_beta   90.00000000
_cell_angle_gamma   90.00000000
_symmetry_Int_Tables_number   1
_chemical_formula_structural   Fe3C18O13
_chemical_formula_sum   'Fe12 C72 O52'
_cell_volume   2943.51273216
_cell_formula_units_Z   4
loop_
 _symmetry_equiv_pos_site_id
 _symmetry_equiv_pos_as_xyz
  1  'x, y, z'
loop_
 _atom_site_type_symbol
 _atom_site_label
 _atom_site_symmetry_multiplicity
 _atom_site_fract_x
 _atom_site_fract_y
 _atom_site_fract_z
 _atom_site_occupancy
 _atom_site_charge
  Fe  Fe1  1  0.926000  0.660000  0.263000  1.0  1.1719
  Fe  Fe2  1  0.926000  0.840000  0.737000  1.0  1.1722
  Fe  Fe3  1  0.574000  0.840000  0.763000  1.0  1.1716
  Fe  Fe4  1  0.574000  0.660000  0.237000  1.0  1.1737
  Fe  Fe5  1  0.074000  0.340000  0.737000  1.0  1.1732
  Fe  Fe6  1  0.074000  0.160000  0.263000  1.0  1.173
  Fe  Fe7  1  0.426000  0.160000  0.237000  1.0  1.1717
  Fe  Fe8  1  0.426000  0.340000  0.763000  1.0  1.1709
  Fe  Fe9  1  0.750000  0.441000  0.250000  1.0  1.1397
  Fe  Fe10  1  0.750000  0.059000  0.750000  1.0  1.142
  Fe  Fe11  1  0.250000  0.559000  0.750000  1.0  1.142
  Fe  Fe12  1  0.250000  0.941000  0.250000  1.0  1.1397
  C  C13  1  0.924000  0.509000  0.371000  1.0  0.4649
  C  C14  1  0.663000  0.721000  0.346000  1.0  0.6356
  C  C15  1  0.507000  0.513000  0.351000  1.0  0.7913
  C  C16  1  0.530000  0.507000  0.469000  1.0  0.0876
  C  C17  1  0.437000  0.503000  0.413000  1.0  0.0653
  C  C18  1  0.038000  0.473000  0.414000  1.0  0.104
  C  C19  1  0.050000  0.475000  0.483000  1.0  0.0383
  C  C20  1  0.653000  0.767000  0.408000  1.0  0.0788
  C  C21  1  0.648000  0.727000  0.469000  1.0  0.0489
  C  C22  1  0.924000  0.991000  0.629000  1.0  0.4649
  C  C23  1  0.663000  0.779000  0.654000  1.0  0.6355
  C  C24  1  0.507000  0.987000  0.649000  1.0  0.7913
  C  C25  1  0.530000  0.993000  0.531000  1.0  0.0877
  C  C26  1  0.437000  0.997000  0.587000  1.0  0.0654
  C  C27  1  0.038000  0.027000  0.586000  1.0  0.1031
  C  C28  1  0.050000  0.025000  0.517000  1.0  0.0397
  C  C29  1  0.653000  0.733000  0.592000  1.0  0.0798
  C  C30  1  0.648000  0.773000  0.531000  1.0  0.0503
  C  C31  1  0.576000  0.991000  0.871000  1.0  0.4649
  C  C32  1  0.837000  0.779000  0.846000  1.0  0.6356
  C  C33  1  0.993000  0.987000  0.851000  1.0  0.7898
  C  C34  1  0.970000  0.993000  0.969000  1.0  0.0854
  C  C35  1  0.063000  0.997000  0.913000  1.0  0.072
  C  C36  1  0.462000  0.027000  0.914000  1.0  0.1004
  C  C37  1  0.450000  0.025000  0.983000  1.0  0.0375
  C  C38  1  0.847000  0.733000  0.908000  1.0  0.0805
  C  C39  1  0.852000  0.773000  0.969000  1.0  0.0491
  C  C40  1  0.576000  0.509000  0.129000  1.0  0.4653
  C  C41  1  0.837000  0.721000  0.154000  1.0  0.6348
  C  C42  1  0.993000  0.513000  0.149000  1.0  0.7906
  C  C43  1  0.970000  0.507000  0.031000  1.0  0.0848
  C  C44  1  0.063000  0.503000  0.087000  1.0  0.0718
  C  C45  1  0.462000  0.473000  0.086000  1.0  0.1009
  C  C46  1  0.450000  0.475000  0.017000  1.0  0.0391
  C  C47  1  0.847000  0.767000  0.092000  1.0  0.0789
  C  C48  1  0.852000  0.727000  0.031000  1.0  0.0491
  C  C49  1  0.076000  0.491000  0.629000  1.0  0.4654
  C  C50  1  0.337000  0.279000  0.654000  1.0  0.635
  C  C51  1  0.493000  0.487000  0.649000  1.0  0.79
  C  C52  1  0.470000  0.493000  0.531000  1.0  0.0857
  C  C53  1  0.563000  0.497000  0.587000  1.0  0.0719
  C  C54  1  0.962000  0.527000  0.586000  1.0  0.1002
  C  C55  1  0.950000  0.525000  0.517000  1.0  0.0383
  C  C56  1  0.347000  0.233000  0.592000  1.0  0.08
  C  C57  1  0.352000  0.273000  0.531000  1.0  0.0492
  C  C58  1  0.076000  0.009000  0.371000  1.0  0.4652
  C  C59  1  0.337000  0.221000  0.346000  1.0  0.6355
  C  C60  1  0.493000  0.013000  0.351000  1.0  0.7902
  C  C61  1  0.470000  0.007000  0.469000  1.0  0.0861
  C  C62  1  0.563000  0.003000  0.413000  1.0  0.0719
  C  C63  1  0.962000  0.973000  0.414000  1.0  0.1011
  C  C64  1  0.950000  0.975000  0.483000  1.0  0.037
  C  C65  1  0.347000  0.267000  0.408000  1.0  0.0789
  C  C66  1  0.352000  0.227000  0.469000  1.0  0.049
  C  C67  1  0.424000  0.009000  0.129000  1.0  0.4648
  C  C68  1  0.163000  0.221000  0.154000  1.0  0.6351
  C  C69  1  0.007000  0.013000  0.149000  1.0  0.7917
  C  C70  1  0.030000  0.007000  0.031000  1.0  0.0882
  C  C71  1  0.937000  0.003000  0.087000  1.0  0.0652
  C  C72  1  0.538000  0.973000  0.086000  1.0  0.1041
  C  C73  1  0.550000  0.975000  0.017000  1.0  0.0392
  C  C74  1  0.153000  0.267000  0.092000  1.0  0.0788
  C  C75  1  0.148000  0.227000  0.031000  1.0  0.0489
  C  C76  1  0.424000  0.491000  0.871000  1.0  0.4645
  C  C77  1  0.163000  0.279000  0.846000  1.0  0.6356
  C  C78  1  0.007000  0.487000  0.851000  1.0  0.7909
  C  C79  1  0.030000  0.493000  0.969000  1.0  0.0882
  C  C80  1  0.937000  0.497000  0.913000  1.0  0.0655
  C  C81  1  0.538000  0.527000  0.914000  1.0  0.1031
  C  C82  1  0.550000  0.525000  0.983000  1.0  0.0375
  C  C83  1  0.153000  0.233000  0.908000  1.0  0.0802
  C  C84  1  0.148000  0.273000  0.969000  1.0  0.0503
  O  O85  1  0.866000  0.445000  0.336000  1.0  -0.5853
  O  O86  1  0.973000  0.569000  0.334000  1.0  -0.6746
  O  O87  1  0.785000  0.690000  0.330000  1.0  -0.6333
  O  O88  1  0.582000  0.748000  0.299000  1.0  -0.551
  O  O89  1  0.516000  0.584000  0.324000  1.0  -0.6248
  O  O90  1  0.581000  0.452000  0.328000  1.0  -0.57
  O  O91  1  0.866000  0.055000  0.664000  1.0  -0.5859
  O  O92  1  0.973000  0.931000  0.666000  1.0  -0.6739
  O  O93  1  0.785000  0.810000  0.670000  1.0  -0.6355
  O  O94  1  0.582000  0.752000  0.701000  1.0  -0.5509
  O  O95  1  0.516000  0.916000  0.676000  1.0  -0.6233
  O  O96  1  0.581000  0.048000  0.672000  1.0  -0.5685
  O  O97  1  0.634000  0.055000  0.836000  1.0  -0.5859
  O  O98  1  0.527000  0.931000  0.834000  1.0  -0.6735
  O  O99  1  0.715000  0.810000  0.830000  1.0  -0.6333
  O  O100  1  0.918000  0.752000  0.799000  1.0  -0.5482
  O  O101  1  0.984000  0.916000  0.824000  1.0  -0.6247
  O  O102  1  0.919000  0.048000  0.828000  1.0  -0.5687
  O  O103  1  0.634000  0.445000  0.164000  1.0  -0.5851
  O  O104  1  0.527000  0.569000  0.166000  1.0  -0.6748
  O  O105  1  0.715000  0.690000  0.170000  1.0  -0.6329
  O  O106  1  0.918000  0.748000  0.201000  1.0  -0.549
  O  O107  1  0.984000  0.584000  0.176000  1.0  -0.6252
  O  O108  1  0.919000  0.452000  0.172000  1.0  -0.5708
  O  O109  1  0.134000  0.555000  0.664000  1.0  -0.5862
  O  O110  1  0.027000  0.431000  0.666000  1.0  -0.6735
  O  O111  1  0.215000  0.310000  0.670000  1.0  -0.6337
  O  O112  1  0.418000  0.252000  0.701000  1.0  -0.5492
  O  O113  1  0.484000  0.416000  0.676000  1.0  -0.6248
  O  O114  1  0.419000  0.548000  0.672000  1.0  -0.5689
  O  O115  1  0.134000  0.945000  0.336000  1.0  -0.5851
  O  O116  1  0.027000  0.069000  0.334000  1.0  -0.6753
  O  O117  1  0.215000  0.190000  0.330000  1.0  -0.6329
  O  O118  1  0.418000  0.248000  0.299000  1.0  -0.5486
  O  O119  1  0.484000  0.084000  0.324000  1.0  -0.6252
  O  O120  1  0.419000  0.952000  0.328000  1.0  -0.5706
  O  O121  1  0.366000  0.945000  0.164000  1.0  -0.5853
  O  O122  1  0.473000  0.069000  0.166000  1.0  -0.6742
  O  O123  1  0.285000  0.190000  0.170000  1.0  -0.6332
  O  O124  1  0.082000  0.248000  0.201000  1.0  -0.5513
  O  O125  1  0.016000  0.084000  0.176000  1.0  -0.6244
  O  O126  1  0.081000  0.952000  0.172000  1.0  -0.57
  O  O127  1  0.366000  0.555000  0.836000  1.0  -0.5855
  O  O128  1  0.473000  0.431000  0.834000  1.0  -0.6736
  O  O129  1  0.285000  0.310000  0.830000  1.0  -0.6352
  O  O130  1  0.082000  0.252000  0.799000  1.0  -0.5502
  O  O131  1  0.016000  0.416000  0.824000  1.0  -0.6236
  O  O132  1  0.081000  0.548000  0.828000  1.0  -0.5684
  O  O133  1  0.750000  0.570000  0.250000  1.0  -0.8426
  O  O134  1  0.750000  0.930000  0.750000  1.0  -0.8419
  O  O135  1  0.250000  0.430000  0.750000  1.0  -0.8419
  O  O136  1  0.250000  0.070000  0.250000  1.0  -0.8426
