# generated using pymatgen
data_Fe3C12O13
_symmetry_space_group_name_H-M   'P 1'
_cell_length_a   11.18400000
_cell_length_b   11.18400000
_cell_length_c   14.59100000
_cell_angle_alpha   90.00000000
_cell_angle_beta   90.00000000
_cell_angle_gamma   120.00000000
_symmetry_Int_Tables_number   1
_chemical_formula_structural   Fe3C12O13
_chemical_formula_sum   'Fe6 C24 O26'
_cell_volume   1580.55643020
_cell_formula_units_Z   2
loop_
 _symmetry_equiv_pos_site_id
 _symmetry_equiv_pos_as_xyz
  1  'x, y, z'
loop_
 _atom_site_type_symbol
 _atom_site_label
 _atom_site_symmetry_multiplicity
 _atom_site_fract_x
 _atom_site_fract_y
 _atom_site_fract_z
 _atom_site_occupancy
 _atom_site_charge
  Fe  Fe1  1  0.769000  0.237000  0.250000  1.0  1.1395
  Fe  Fe2  1  0.763000  0.532000  0.250000  1.0  1.1359
  Fe  Fe3  1  0.468000  0.231000  0.250000  1.0  1.1375
  Fe  Fe4  1  0.237000  0.769000  0.750000  1.0  1.1383
  Fe  Fe5  1  0.532000  0.763000  0.750000  1.0  1.141
  Fe  Fe6  1  0.231000  0.468000  0.750000  1.0  1.1402
  C  C7  1  0.919000  0.482000  0.114000  1.0  0.6685
  C  C8  1  0.935000  0.482000  0.019000  1.0  0.0661
  C  C9  1  0.518000  0.437000  0.114000  1.0  0.6674
  C  C10  1  0.518000  0.453000  0.019000  1.0  0.067
  C  C11  1  0.563000  0.081000  0.114000  1.0  0.6697
  C  C12  1  0.547000  0.065000  0.019000  1.0  0.0672
  C  C13  1  0.919000  0.482000  0.386000  1.0  0.6688
  C  C14  1  0.935000  0.482000  0.481000  1.0  0.0658
  C  C15  1  0.518000  0.437000  0.386000  1.0  0.6676
  C  C16  1  0.518000  0.453000  0.481000  1.0  0.0665
  C  C17  1  0.563000  0.081000  0.386000  1.0  0.67
  C  C18  1  0.547000  0.065000  0.481000  1.0  0.0663
  C  C19  1  0.482000  0.919000  0.886000  1.0  0.6672
  C  C20  1  0.482000  0.935000  0.981000  1.0  0.065
  C  C21  1  0.437000  0.518000  0.886000  1.0  0.6699
  C  C22  1  0.453000  0.518000  0.981000  1.0  0.0665
  C  C23  1  0.081000  0.563000  0.886000  1.0  0.668
  C  C24  1  0.065000  0.547000  0.981000  1.0  0.0676
  C  C25  1  0.482000  0.919000  0.614000  1.0  0.6668
  C  C26  1  0.482000  0.935000  0.519000  1.0  0.0656
  C  C27  1  0.437000  0.518000  0.614000  1.0  0.6693
  C  C28  1  0.453000  0.518000  0.519000  1.0  0.0673
  C  C29  1  0.081000  0.563000  0.614000  1.0  0.6671
  C  C30  1  0.065000  0.547000  0.519000  1.0  0.0684
  O  O31  1  0.893000  0.370000  0.151000  1.0  -0.5737
  O  O32  1  0.881000  0.559000  0.154000  1.0  -0.5474
  O  O33  1  0.630000  0.523000  0.151000  1.0  -0.5778
  O  O34  1  0.441000  0.322000  0.154000  1.0  -0.5475
  O  O35  1  0.477000  0.107000  0.151000  1.0  -0.5768
  O  O36  1  0.678000  0.119000  0.154000  1.0  -0.5458
  O  O37  1  0.893000  0.370000  0.349000  1.0  -0.573
  O  O38  1  0.881000  0.559000  0.346000  1.0  -0.547
  O  O39  1  0.630000  0.523000  0.349000  1.0  -0.577
  O  O40  1  0.441000  0.322000  0.346000  1.0  -0.5465
  O  O41  1  0.477000  0.107000  0.349000  1.0  -0.5762
  O  O42  1  0.678000  0.119000  0.346000  1.0  -0.5451
  O  O43  1  0.370000  0.893000  0.849000  1.0  -0.5761
  O  O44  1  0.559000  0.881000  0.846000  1.0  -0.546
  O  O45  1  0.523000  0.630000  0.849000  1.0  -0.5737
  O  O46  1  0.322000  0.441000  0.846000  1.0  -0.5475
  O  O47  1  0.107000  0.477000  0.849000  1.0  -0.5752
  O  O48  1  0.119000  0.678000  0.846000  1.0  -0.5482
  O  O49  1  0.370000  0.893000  0.651000  1.0  -0.5765
  O  O50  1  0.559000  0.881000  0.654000  1.0  -0.5456
  O  O51  1  0.523000  0.630000  0.651000  1.0  -0.5739
  O  O52  1  0.322000  0.441000  0.654000  1.0  -0.5476
  O  O53  1  0.107000  0.477000  0.651000  1.0  -0.576
  O  O54  1  0.119000  0.678000  0.654000  1.0  -0.548
  O  O55  1  0.666667  0.333333  0.250000  1.0  -1.0918
  O  O56  1  0.333333  0.666667  0.750000  1.0  -1.0918
