# generated using pymatgen
data_AgH6(CN2)3
_symmetry_space_group_name_H-M   'P 1'
_cell_length_a   6.56470000
_cell_length_b   6.56470000
_cell_length_c   11.34700000
_cell_angle_alpha   99.81670000
_cell_angle_beta   99.81670000
_cell_angle_gamma   102.91300000
_symmetry_Int_Tables_number   1
_chemical_formula_structural   AgH6(CN2)3
_chemical_formula_sum   'Ag2 H12 C6 N12'
_cell_volume   458.44579391
_cell_formula_units_Z   2
loop_
 _symmetry_equiv_pos_site_id
 _symmetry_equiv_pos_as_xyz
  1  'x, y, z'
loop_
 _atom_site_type_symbol
 _atom_site_label
 _atom_site_symmetry_multiplicity
 _atom_site_fract_x
 _atom_site_fract_y
 _atom_site_fract_z
 _atom_site_occupancy
 _atom_site_charge
  Ag  Ag1  1  0.738010  0.012310  0.746050  1.0  0.0563
  Ag  Ag2  1  0.012310  0.738010  0.246050  1.0  0.0565
  H  H3  1  0.665200  0.681200  0.518700  1.0  0.3271
  H  H4  1  0.726300  0.661100  0.397600  1.0  0.3264
  H  H5  1  0.185900  0.999100  0.880700  1.0  0.3373
  H  H6  1  0.414800  0.059000  0.872300  1.0  0.3375
  H  H7  1  0.414700  0.986100  0.374100  1.0  0.3082
  H  H8  1  0.584600  0.071400  0.488400  1.0  0.3116
  H  H9  1  0.681200  0.665200  0.018700  1.0  0.3279
  H  H10  1  0.661100  0.726300  0.897600  1.0  0.3265
  H  H11  1  0.999100  0.185900  0.380700  1.0  0.3359
  H  H12  1  0.059000  0.414800  0.372300  1.0  0.3329
  H  H13  1  0.986100  0.414700  0.874100  1.0  0.3105
  H  H14  1  0.071400  0.584600  0.988400  1.0  0.3153
  C  C15  1  0.963100  0.807900  0.531300  1.0  0.6719
  C  C16  1  0.217400  0.947200  0.704200  1.0  0.6408
  C  C17  1  0.308100  0.947900  0.519500  1.0  0.6782
  C  C18  1  0.807900  0.963100  0.031300  1.0  0.6718
  C  C19  1  0.947200  0.217400  0.204200  1.0  0.6396
  C  C20  1  0.947900  0.308100  0.019500  1.0  0.6789
  N  N21  1  0.011700  0.872900  0.652300  1.0  -0.6322
  N  N22  1  0.376200  0.984000  0.642500  1.0  -0.5846
  N  N23  1  0.108100  0.852700  0.460700  1.0  -0.548
  N  N24  1  0.760800  0.704400  0.476000  1.0  -0.7301
  N  N25  1  0.281500  0.010500  0.837200  1.0  -0.7786
  N  N26  1  0.453400  0.009200  0.452500  1.0  -0.7218
  N  N27  1  0.872900  0.011700  0.152300  1.0  -0.6281
  N  N28  1  0.984000  0.376200  0.142500  1.0  -0.5848
  N  N29  1  0.852700  0.108100  0.960700  1.0  -0.552
  N  N30  1  0.704400  0.760800  0.976000  1.0  -0.7297
  N  N31  1  0.010500  0.281500  0.337200  1.0  -0.7791
  N  N32  1  0.009200  0.453400  0.952500  1.0  -0.722
