# generated using pymatgen
data_ZnH10(C2N)4
_symmetry_space_group_name_H-M   'P 1'
_cell_length_a   14.59330000
_cell_length_b   14.59330000
_cell_length_c   14.59330000
_cell_angle_alpha   109.47120000
_cell_angle_beta   109.47120000
_cell_angle_gamma   109.47120000
_symmetry_Int_Tables_number   1
_chemical_formula_structural   ZnH10(C2N)4
_chemical_formula_sum   'Zn6 H60 C48 N24'
_cell_volume   2392.42852893
_cell_formula_units_Z   6
loop_
 _symmetry_equiv_pos_site_id
 _symmetry_equiv_pos_as_xyz
  1  'x, y, z'
loop_
 _atom_site_type_symbol
 _atom_site_label
 _atom_site_symmetry_multiplicity
 _atom_site_fract_x
 _atom_site_fract_y
 _atom_site_fract_z
 _atom_site_occupancy
 _atom_site_charge
  Zn  Zn1  1  0.500000  0.750000  0.250000  1.0  0.8291
  Zn  Zn2  1  0.500000  0.250000  0.750000  1.0  0.8163
  Zn  Zn3  1  0.250000  0.500000  0.750000  1.0  0.8053
  Zn  Zn4  1  0.750000  0.500000  0.250000  1.0  0.8058
  Zn  Zn5  1  0.750000  0.250000  0.500000  1.0  0.8001
  Zn  Zn6  1  0.250000  0.750000  0.500000  1.0  0.7997
  H  H7  1  0.465900  0.567700  0.334800  1.0  0.0968
  H  H8  1  0.232900  0.131100  0.665200  1.0  0.0992
  H  H9  1  0.767100  0.432300  0.898200  1.0  0.1015
  H  H10  1  0.534100  0.868900  0.101800  1.0  0.1092
  H  H11  1  0.334800  0.465900  0.567700  1.0  0.1018
  H  H12  1  0.665200  0.232900  0.131100  1.0  0.103
  H  H13  1  0.898200  0.767100  0.432300  1.0  0.0987
  H  H14  1  0.101800  0.534100  0.868900  1.0  0.0996
  H  H15  1  0.567700  0.334800  0.465900  1.0  0.1029
  H  H16  1  0.131100  0.665200  0.232900  1.0  0.1025
  H  H17  1  0.432300  0.898200  0.767100  1.0  0.1095
  H  H18  1  0.868900  0.101800  0.534100  1.0  0.0997
  H  H19  1  0.567700  0.465900  0.334800  1.0  0.0953
  H  H20  1  0.131100  0.232900  0.665200  1.0  0.1004
  H  H21  1  0.432300  0.767100  0.898200  1.0  0.1111
  H  H22  1  0.868900  0.534100  0.101800  1.0  0.1013
  H  H23  1  0.465900  0.334800  0.567700  1.0  0.1006
  H  H24  1  0.232900  0.665200  0.131100  1.0  0.1015
  H  H25  1  0.767100  0.898200  0.432300  1.0  0.1018
  H  H26  1  0.534100  0.101800  0.868900  1.0  0.0998
  H  H27  1  0.334800  0.567700  0.465900  1.0  0.1
  H  H28  1  0.665200  0.131100  0.232900  1.0  0.102
  H  H29  1  0.898200  0.432300  0.767100  1.0  0.1105
  H  H30  1  0.101800  0.868900  0.534100  1.0  0.0993
  H  H31  1  0.663060  0.617960  0.112670  1.0  0.1407
  H  H32  1  0.779430  0.734320  0.255340  1.0  0.1393
  H  H33  1  0.653590  0.743800  0.184000  1.0  0.1397
  H  H34  1  0.524090  0.478990  0.744660  1.0  0.1384
  H  H35  1  0.550400  0.505300  0.887330  1.0  0.1387
  H  H36  1  0.469590  0.559790  0.816000  1.0  0.1363
  H  H37  1  0.532500  0.312390  0.081070  1.0  0.1317
  H  H38  1  0.312390  0.532500  0.081070  1.0  0.1309
  H  H39  1  0.232560  0.701870  0.774730  1.0  0.1383
  H  H40  1  0.102100  0.627080  0.636710  1.0  0.1327
  H  H41  1  0.217340  0.767130  0.684640  1.0  0.1344
  H  H42  1  0.825180  0.471560  0.561200  1.0  0.1389
  H  H43  1  0.740520  0.518830  0.482720  1.0  0.1327
  H  H44  1  0.882300  0.553680  0.500150  1.0  0.1441
  H  H45  1  0.022470  0.481830  0.377600  1.0  0.1276
  H  H46  1  0.064420  0.528150  0.286500  1.0  0.1421
  H  H47  1  0.073620  0.299300  0.530900  1.0  0.1362
  H  H48  1  0.008330  0.372360  0.474350  1.0  0.1271
  H  H49  1  0.627080  0.102100  0.636710  1.0  0.1337
  H  H50  1  0.701870  0.232560  0.774730  1.0  0.1399
  H  H51  1  0.767130  0.217340  0.684640  1.0  0.1321
  H  H52  1  0.518830  0.740520  0.482720  1.0  0.1338
  H  H53  1  0.471560  0.825180  0.561200  1.0  0.1384
  H  H54  1  0.553680  0.882300  0.500150  1.0  0.1436
  H  H55  1  0.299300  0.073620  0.530900  1.0  0.1356
  H  H56  1  0.372360  0.008330  0.474350  1.0  0.1274
  H  H57  1  0.481830  0.022470  0.377600  1.0  0.1275
  H  H58  1  0.528150  0.064420  0.286500  1.0  0.1402
  H  H59  1  0.913110  0.445940  0.239820  1.0  0.1375
  H  H60  1  0.918050  0.232260  0.450680  1.0  0.1373
  H  H61  1  0.232260  0.918050  0.450680  1.0  0.1342
  H  H62  1  0.445940  0.913110  0.239820  1.0  0.1375
  H  H63  1  0.456410  0.226350  0.925220  1.0  0.1428
  H  H64  1  0.467010  0.365180  0.993710  1.0  0.128
  H  H65  1  0.226350  0.456410  0.925220  1.0  0.143
  H  H66  1  0.365180  0.467010  0.993710  1.0  0.1308
  C  C67  1  0.518800  0.575200  0.311600  1.0  -0.0198
  C  C68  1  0.263600  0.207200  0.688400  1.0  -0.0222
  C  C69  1  0.736400  0.424800  0.943600  1.0  -0.0181
  C  C70  1  0.481200  0.792800  0.056400  1.0  -0.0172
  C  C71  1  0.311600  0.518800  0.575200  1.0  -0.0205
  C  C72  1  0.688400  0.263600  0.207200  1.0  -0.0209
  C  C73  1  0.943600  0.736400  0.424800  1.0  -0.0173
  C  C74  1  0.056400  0.481200  0.792800  1.0  -0.019
  C  C75  1  0.575200  0.311600  0.518800  1.0  -0.0165
  C  C76  1  0.207200  0.688400  0.263600  1.0  -0.0165
  C  C77  1  0.424800  0.943600  0.736400  1.0  -0.0145
  C  C78  1  0.792800  0.056400  0.481200  1.0  -0.0118
  C  C79  1  0.575200  0.518800  0.311600  1.0  -0.0214
  C  C80  1  0.207200  0.263600  0.688400  1.0  -0.0206
  C  C81  1  0.424800  0.736400  0.943600  1.0  -0.0147
  C  C82  1  0.792800  0.481200  0.056400  1.0  -0.0184
  C  C83  1  0.518800  0.311600  0.575200  1.0  -0.0171
  C  C84  1  0.263600  0.688400  0.207200  1.0  -0.0201
  C  C85  1  0.736400  0.943600  0.424800  1.0  -0.016
  C  C86  1  0.481200  0.056400  0.792800  1.0  -0.0155
  C  C87  1  0.311600  0.575200  0.518800  1.0  -0.0167
  C  C88  1  0.688400  0.207200  0.263600  1.0  -0.0196
  C  C89  1  0.943600  0.424800  0.736400  1.0  -0.0143
  C  C90  1  0.056400  0.792800  0.481200  1.0  -0.0123
  C  C91  1  0.629300  0.629300  0.248000  1.0  0.3766
  C  C92  1  0.684600  0.684600  0.197000  1.0  -0.4623
  C  C93  1  0.381300  0.381300  0.752000  1.0  0.3766
  C  C94  1  0.487600  0.487600  0.803000  1.0  -0.4635
  C  C95  1  0.618700  0.370700  0.000000  1.0  0.3831
  C  C96  1  0.512400  0.315400  0.000000  1.0  -0.4784
  C  C97  1  0.370700  0.618700  0.000000  1.0  0.3742
  C  C98  1  0.315400  0.512400  0.000000  1.0  -0.4787
  C  C99  1  0.248000  0.629300  0.629300  1.0  0.3844
  C  C100  1  0.197000  0.684600  0.684600  1.0  -0.4782
  C  C101  1  0.752000  0.381300  0.381300  1.0  0.3727
  C  C102  1  0.803000  0.487600  0.487600  1.0  -0.4668
  C  C103  1  0.000000  0.618700  0.370700  1.0  0.3782
  C  C104  1  0.000000  0.512400  0.315400  1.0  -0.4704
  C  C105  1  0.000000  0.370700  0.618700  1.0  0.3773
  C  C106  1  0.000000  0.315400  0.512400  1.0  -0.4761
  C  C107  1  0.629300  0.248000  0.629300  1.0  0.3831
  C  C108  1  0.684600  0.197000  0.684600  1.0  -0.4788
  C  C109  1  0.381300  0.752000  0.381300  1.0  0.3735
  C  C110  1  0.487600  0.803000  0.487600  1.0  -0.4682
  C  C111  1  0.370700  0.000000  0.618700  1.0  0.3752
  C  C112  1  0.315400  0.000000  0.512400  1.0  -0.4768
  C  C113  1  0.618700  0.000000  0.370700  1.0  0.3774
  C  C114  1  0.512400  0.000000  0.315400  1.0  -0.4716
  N  N115  1  0.552600  0.647000  0.271000  1.0  -0.4549
  N  N116  1  0.376000  0.281600  0.729000  1.0  -0.4347
  N  N117  1  0.624000  0.353000  0.905600  1.0  -0.4423
  N  N118  1  0.447400  0.718400  0.094400  1.0  -0.4447
  N  N119  1  0.271000  0.552600  0.647000  1.0  -0.4424
  N  N120  1  0.729000  0.376000  0.281600  1.0  -0.4412
  N  N121  1  0.905600  0.624000  0.353000  1.0  -0.4289
  N  N122  1  0.094400  0.447400  0.718400  1.0  -0.4333
  N  N123  1  0.647000  0.271000  0.552600  1.0  -0.4485
  N  N124  1  0.281600  0.729000  0.376000  1.0  -0.4575
  N  N125  1  0.353000  0.905600  0.624000  1.0  -0.4409
  N  N126  1  0.718400  0.094400  0.447400  1.0  -0.444
  N  N127  1  0.647000  0.552600  0.271000  1.0  -0.4388
  N  N128  1  0.281600  0.376000  0.729000  1.0  -0.4465
  N  N129  1  0.353000  0.624000  0.905600  1.0  -0.4398
  N  N130  1  0.718400  0.447400  0.094400  1.0  -0.4636
  N  N131  1  0.552600  0.271000  0.647000  1.0  -0.4426
  N  N132  1  0.376000  0.729000  0.281600  1.0  -0.443
  N  N133  1  0.624000  0.905600  0.353000  1.0  -0.4286
  N  N134  1  0.447400  0.094400  0.718400  1.0  -0.4333
  N  N135  1  0.271000  0.647000  0.552600  1.0  -0.4458
  N  N136  1  0.729000  0.281600  0.376000  1.0  -0.4564
  N  N137  1  0.905600  0.353000  0.624000  1.0  -0.4436
  N  N138  1  0.094400  0.718400  0.447400  1.0  -0.4433
