# generated using pymatgen
data_ZnH10(C2N)4
_symmetry_space_group_name_H-M   'P 1'
_cell_length_a   14.71640000
_cell_length_b   14.71640000
_cell_length_c   14.71640000
_cell_angle_alpha   109.47120000
_cell_angle_beta   109.47120000
_cell_angle_gamma   109.47120000
_symmetry_Int_Tables_number   1
_chemical_formula_structural   ZnH10(C2N)4
_chemical_formula_sum   'Zn6 H60 C48 N24'
_cell_volume   2453.48378506
_cell_formula_units_Z   6
loop_
 _symmetry_equiv_pos_site_id
 _symmetry_equiv_pos_as_xyz
  1  'x, y, z'
loop_
 _atom_site_type_symbol
 _atom_site_label
 _atom_site_symmetry_multiplicity
 _atom_site_fract_x
 _atom_site_fract_y
 _atom_site_fract_z
 _atom_site_occupancy
 _atom_site_charge
  Zn  Zn1  1  0.500000  0.750000  0.250000  1.0  0.7772
  Zn  Zn2  1  0.500000  0.250000  0.750000  1.0  0.7936
  Zn  Zn3  1  0.250000  0.500000  0.750000  1.0  0.7713
  Zn  Zn4  1  0.750000  0.500000  0.250000  1.0  0.7717
  Zn  Zn5  1  0.750000  0.250000  0.500000  1.0  0.8
  Zn  Zn6  1  0.250000  0.750000  0.500000  1.0  0.8001
  H  H7  1  0.763100  0.899100  0.420000  1.0  0.1094
  H  H8  1  0.479100  0.343100  0.580000  1.0  0.1033
  H  H9  1  0.520900  0.100900  0.864000  1.0  0.1071
  H  H10  1  0.236900  0.656900  0.136000  1.0  0.1074
  H  H11  1  0.420000  0.763100  0.899100  1.0  0.1117
  H  H12  1  0.580000  0.479100  0.343100  1.0  0.1023
  H  H13  1  0.864000  0.520900  0.100900  1.0  0.1067
  H  H14  1  0.136000  0.236900  0.656900  1.0  0.1081
  H  H15  1  0.899100  0.420000  0.763100  1.0  0.1035
  H  H16  1  0.343100  0.580000  0.479100  1.0  0.1036
  H  H17  1  0.100900  0.864000  0.520900  1.0  0.1064
  H  H18  1  0.656900  0.136000  0.236900  1.0  0.1094
  H  H19  1  0.899100  0.763100  0.420000  1.0  0.1114
  H  H20  1  0.343100  0.479100  0.580000  1.0  0.1006
  H  H21  1  0.100900  0.520900  0.864000  1.0  0.1069
  H  H22  1  0.656900  0.236900  0.136000  1.0  0.1083
  H  H23  1  0.763100  0.420000  0.899100  1.0  0.1022
  H  H24  1  0.479100  0.580000  0.343100  1.0  0.1036
  H  H25  1  0.520900  0.864000  0.100900  1.0  0.1083
  H  H26  1  0.236900  0.136000  0.656900  1.0  0.1067
  H  H27  1  0.420000  0.899100  0.763100  1.0  0.1059
  H  H28  1  0.580000  0.343100  0.479100  1.0  0.104
  H  H29  1  0.864000  0.100900  0.520900  1.0  0.1098
  H  H30  1  0.136000  0.656900  0.236900  1.0  0.1082
  H  H31  1  0.528050  0.080670  0.316920  1.0  0.1331
  H  H32  1  0.612320  0.107380  0.657040  1.0  0.1391
  H  H33  1  0.730720  0.245820  0.775450  1.0  0.1349
  H  H34  1  0.738610  0.176600  0.649160  1.0  0.1404
  H  H35  1  0.316920  0.080670  0.528050  1.0  0.1334
  H  H36  1  0.484910  0.754180  0.529630  1.0  0.1366
  H  H37  1  0.504930  0.892620  0.549660  1.0  0.1355
  H  H38  1  0.562010  0.823400  0.472560  1.0  0.141
  H  H39  1  0.307930  0.526790  0.075920  1.0  0.1394
  H  H40  1  0.375940  0.472660  0.003000  1.0  0.1332
  H  H41  1  0.698650  0.770520  0.224190  1.0  0.1438
  H  H42  1  0.620870  0.631060  0.097200  1.0  0.1357
  H  H43  1  0.762120  0.680070  0.208420  1.0  0.1402
  H  H44  1  0.481880  0.383010  0.020810  1.0  0.1322
  H  H45  1  0.523140  0.291570  0.064940  1.0  0.1472
  H  H46  1  0.473010  0.562400  0.826350  1.0  0.1356
  H  H47  1  0.527980  0.486140  0.752760  1.0  0.1332
  H  H48  1  0.550850  0.503300  0.891100  1.0  0.1515
  H  H49  1  0.020810  0.383010  0.481880  1.0  0.1315
  H  H50  1  0.064940  0.291570  0.523140  1.0  0.1488
  H  H51  1  0.097200  0.631060  0.620870  1.0  0.1349
  H  H52  1  0.224190  0.770520  0.698650  1.0  0.1462
  H  H53  1  0.208420  0.680070  0.762120  1.0  0.138
  H  H54  1  0.075920  0.526790  0.307930  1.0  0.1382
  H  H55  1  0.003000  0.472660  0.375940  1.0  0.1328
  H  H56  1  0.752760  0.486140  0.527980  1.0  0.1325
  H  H57  1  0.826350  0.562400  0.473010  1.0  0.1368
  H  H58  1  0.891100  0.503300  0.550850  1.0  0.1516
  H  H59  1  0.914260  0.243780  0.443140  1.0  0.1446
  H  H60  1  0.921080  0.448700  0.234480  1.0  0.1387
  H  H61  1  0.452350  0.926200  0.230590  1.0  0.1432
  H  H62  1  0.467760  0.993130  0.370840  1.0  0.1317
  H  H63  1  0.230590  0.926200  0.452350  1.0  0.1442
  H  H64  1  0.370840  0.993130  0.467760  1.0  0.1266
  H  H65  1  0.234480  0.448700  0.921080  1.0  0.1403
  H  H66  1  0.443140  0.243780  0.914260  1.0  0.1452
  C  C67  1  0.731800  0.943900  0.414900  1.0  -0.0179
  C  C68  1  0.529000  0.316900  0.585100  1.0  -0.0179
  C  C69  1  0.471000  0.056100  0.787900  1.0  -0.016
  C  C70  1  0.268200  0.683100  0.212100  1.0  -0.0122
  C  C71  1  0.414900  0.731800  0.943900  1.0  -0.014
  C  C72  1  0.585100  0.529000  0.316900  1.0  -0.0162
  C  C73  1  0.787900  0.471000  0.056100  1.0  -0.018
  C  C74  1  0.212100  0.268200  0.683100  1.0  -0.0158
  C  C75  1  0.943900  0.414900  0.731800  1.0  -0.0167
  C  C76  1  0.316900  0.585100  0.529000  1.0  -0.0122
  C  C77  1  0.056100  0.787900  0.471000  1.0  -0.0188
  C  C78  1  0.683100  0.212100  0.268200  1.0  -0.0167
  C  C79  1  0.943900  0.731800  0.414900  1.0  -0.0161
  C  C80  1  0.316900  0.529000  0.585100  1.0  -0.0209
  C  C81  1  0.056100  0.471000  0.787900  1.0  -0.0163
  C  C82  1  0.683100  0.268200  0.212100  1.0  -0.0137
  C  C83  1  0.731800  0.414900  0.943900  1.0  -0.0173
  C  C84  1  0.529000  0.585100  0.316900  1.0  -0.0206
  C  C85  1  0.471000  0.787900  0.056100  1.0  -0.0181
  C  C86  1  0.268200  0.212100  0.683100  1.0  -0.0161
  C  C87  1  0.414900  0.943900  0.731800  1.0  -0.0164
  C  C88  1  0.585100  0.316900  0.529000  1.0  -0.0149
  C  C89  1  0.787900  0.056100  0.471000  1.0  -0.0137
  C  C90  1  0.212100  0.683100  0.268200  1.0  -0.0156
  C  C91  1  0.616600  0.000000  0.369800  1.0  0.3909
  C  C92  1  0.509800  0.000000  0.319000  1.0  -0.4717
  C  C93  1  0.630200  0.246800  0.630200  1.0  0.3953
  C  C94  1  0.681000  0.190800  0.681000  1.0  -0.456
  C  C95  1  0.369800  0.000000  0.616600  1.0  0.4056
  C  C96  1  0.319000  0.000000  0.509800  1.0  -0.4683
  C  C97  1  0.383400  0.753200  0.383400  1.0  0.3991
  C  C98  1  0.490200  0.809200  0.490200  1.0  -0.4643
  C  C99  1  0.369800  0.616600  0.000000  1.0  0.3974
  C  C100  1  0.319000  0.509800  0.000000  1.0  -0.4712
  C  C101  1  0.630200  0.630200  0.246800  1.0  0.4068
  C  C102  1  0.681000  0.681000  0.190800  1.0  -0.4696
  C  C103  1  0.616600  0.369800  0.000000  1.0  0.3989
  C  C104  1  0.509800  0.319000  0.000000  1.0  -0.4646
  C  C105  1  0.383400  0.383400  0.753200  1.0  0.3987
  C  C106  1  0.490200  0.490200  0.809200  1.0  -0.442
  C  C107  1  0.000000  0.369800  0.616600  1.0  0.3981
  C  C108  1  0.000000  0.319000  0.509800  1.0  -0.4628
  C  C109  1  0.246800  0.630200  0.630200  1.0  0.4053
  C  C110  1  0.190800  0.681000  0.681000  1.0  -0.4709
  C  C111  1  0.000000  0.616600  0.369800  1.0  0.399
  C  C112  1  0.000000  0.509800  0.319000  1.0  -0.472
  C  C113  1  0.753200  0.383400  0.383400  1.0  0.3978
  C  C114  1  0.809200  0.490200  0.490200  1.0  -0.4417
  N  N115  1  0.622200  0.906400  0.349600  1.0  -0.4478
  N  N116  1  0.556800  0.272600  0.650400  1.0  -0.4555
  N  N117  1  0.443200  0.093600  0.715800  1.0  -0.4703
  N  N118  1  0.377800  0.727400  0.284200  1.0  -0.4745
  N  N119  1  0.349600  0.622200  0.906400  1.0  -0.4614
  N  N120  1  0.650400  0.556800  0.272600  1.0  -0.4725
  N  N121  1  0.715800  0.443200  0.093600  1.0  -0.4602
  N  N122  1  0.284200  0.377800  0.727400  1.0  -0.4644
  N  N123  1  0.906400  0.349600  0.622200  1.0  -0.4649
  N  N124  1  0.272600  0.650400  0.556800  1.0  -0.4647
  N  N125  1  0.093600  0.715800  0.443200  1.0  -0.4762
  N  N126  1  0.727400  0.284200  0.377800  1.0  -0.4472
  N  N127  1  0.906400  0.622200  0.349600  1.0  -0.464
  N  N128  1  0.272600  0.556800  0.650400  1.0  -0.4698
  N  N129  1  0.093600  0.443200  0.715800  1.0  -0.4597
  N  N130  1  0.727400  0.377800  0.284200  1.0  -0.4629
  N  N131  1  0.622200  0.349600  0.906400  1.0  -0.4638
  N  N132  1  0.556800  0.650400  0.272600  1.0  -0.4639
  N  N133  1  0.443200  0.715800  0.093600  1.0  -0.4757
  N  N134  1  0.377800  0.284200  0.727400  1.0  -0.4476
  N  N135  1  0.349600  0.906400  0.622200  1.0  -0.4527
  N  N136  1  0.650400  0.272600  0.556800  1.0  -0.4758
  N  N137  1  0.715800  0.093600  0.443200  1.0  -0.4594
  N  N138  1  0.284200  0.727400  0.377800  1.0  -0.4507
