# generated using pymatgen
data_ZnH10(C2N)4
_symmetry_space_group_name_H-M   'P 1'
_cell_length_a   14.64640000
_cell_length_b   14.64640000
_cell_length_c   14.64640000
_cell_angle_alpha   109.47120000
_cell_angle_beta   109.47120000
_cell_angle_gamma   109.47120000
_symmetry_Int_Tables_number   1
_chemical_formula_structural   ZnH10(C2N)4
_chemical_formula_sum   'Zn6 H60 C48 N24'
_cell_volume   2418.63934409
_cell_formula_units_Z   6
loop_
 _symmetry_equiv_pos_site_id
 _symmetry_equiv_pos_as_xyz
  1  'x, y, z'
loop_
 _atom_site_type_symbol
 _atom_site_label
 _atom_site_symmetry_multiplicity
 _atom_site_fract_x
 _atom_site_fract_y
 _atom_site_fract_z
 _atom_site_occupancy
 _atom_site_charge
  Zn  Zn1  1  0.750000  0.250000  0.500000  1.0  0.766
  Zn  Zn2  1  0.250000  0.750000  0.500000  1.0  0.8393
  Zn  Zn3  1  0.500000  0.750000  0.250000  1.0  0.8384
  Zn  Zn4  1  0.500000  0.250000  0.750000  1.0  0.8384
  Zn  Zn5  1  0.250000  0.500000  0.750000  1.0  0.7844
  Zn  Zn6  1  0.750000  0.500000  0.250000  1.0  0.7672
  H  H7  1  0.898900  0.425600  0.765100  1.0  0.0919
  H  H8  1  0.660500  0.133800  0.234900  1.0  0.0929
  H  H9  1  0.339500  0.574400  0.473300  1.0  0.0903
  H  H10  1  0.101100  0.866200  0.526700  1.0  0.092
  H  H11  1  0.765100  0.898900  0.425600  1.0  0.0894
  H  H12  1  0.234900  0.660500  0.133800  1.0  0.0907
  H  H13  1  0.473300  0.339500  0.574400  1.0  0.0921
  H  H14  1  0.526700  0.101100  0.866200  1.0  0.0883
  H  H15  1  0.425600  0.765100  0.898900  1.0  0.0934
  H  H16  1  0.133800  0.234900  0.660500  1.0  0.0906
  H  H17  1  0.574400  0.473300  0.339500  1.0  0.092
  H  H18  1  0.866200  0.526700  0.101100  1.0  0.0876
  H  H19  1  0.425600  0.898900  0.765100  1.0  0.0904
  H  H20  1  0.133800  0.660500  0.234900  1.0  0.0911
  H  H21  1  0.574400  0.339500  0.473300  1.0  0.093
  H  H22  1  0.866200  0.101100  0.526700  1.0  0.0893
  H  H23  1  0.898900  0.765100  0.425600  1.0  0.0934
  H  H24  1  0.660500  0.234900  0.133800  1.0  0.0939
  H  H25  1  0.339500  0.473300  0.574400  1.0  0.0895
  H  H26  1  0.101100  0.526700  0.866200  1.0  0.0918
  H  H27  1  0.765100  0.425600  0.898900  1.0  0.0921
  H  H28  1  0.234900  0.133800  0.660500  1.0  0.0926
  H  H29  1  0.473300  0.574400  0.339500  1.0  0.0918
  H  H30  1  0.526700  0.866200  0.101100  1.0  0.091
  H  H31  1  0.044940  0.266370  0.517580  1.0  0.1307
  H  H32  1  0.044940  0.383550  0.493790  1.0  0.1236
  H  H33  1  0.864980  0.561680  0.487320  1.0  0.1288
  H  H34  1  0.854750  0.482330  0.563220  1.0  0.1243
  H  H35  1  0.738110  0.506350  0.499830  1.0  0.1218
  H  H36  1  0.145250  0.627580  0.708470  1.0  0.1285
  H  H37  1  0.135020  0.696700  0.622330  1.0  0.1299
  H  H38  1  0.261890  0.768240  0.761720  1.0  0.1232
  H  H39  1  0.044940  0.493790  0.383550  1.0  0.1234
  H  H40  1  0.044940  0.517580  0.266370  1.0  0.1308
  H  H41  1  0.518840  0.082290  0.370830  1.0  0.1295
  H  H42  1  0.563770  0.841680  0.477370  1.0  0.13
  H  H43  1  0.492570  0.740320  0.514350  1.0  0.1247
  H  H44  1  0.494020  0.875840  0.558640  1.0  0.1364
  H  H45  1  0.708180  0.144990  0.627430  1.0  0.1199
  H  H46  1  0.622440  0.135260  0.696990  1.0  0.1292
  H  H47  1  0.761900  0.261910  0.768100  1.0  0.1186
  H  H48  1  0.382850  0.038340  0.489960  1.0  0.1324
  H  H49  1  0.272520  0.051230  0.520110  1.0  0.1247
  H  H50  1  0.377550  0.512820  0.074550  1.0  0.1307
  H  H51  1  0.238100  0.500010  0.006200  1.0  0.1222
  H  H52  1  0.508070  0.498200  0.738380  1.0  0.1196
  H  H53  1  0.561140  0.488700  0.867460  1.0  0.1303
  H  H54  1  0.481160  0.563460  0.852000  1.0  0.1317
  H  H55  1  0.617150  0.655490  0.107110  1.0  0.1284
  H  H56  1  0.747890  0.658320  0.187460  1.0  0.1346
  H  H57  1  0.727480  0.778710  0.247590  1.0  0.1264
  H  H58  1  0.507430  0.247740  0.021780  1.0  0.1266
  H  H59  1  0.505980  0.381820  0.064630  1.0  0.1368
  H  H60  1  0.910120  0.257560  0.438280  1.0  0.1297
  H  H61  1  0.910120  0.438280  0.257550  1.0  0.1301
  H  H62  1  0.438860  0.927570  0.306330  1.0  0.1322
  H  H63  1  0.491930  0.990140  0.230320  1.0  0.1202
  H  H64  1  0.252110  0.910430  0.439570  1.0  0.1311
  H  H65  1  0.291820  0.436810  0.919250  1.0  0.1218
  H  H66  1  0.436230  0.277910  0.913600  1.0  0.1301
  C  C67  1  0.944200  0.419500  0.734300  1.0  -0.0332
  C  C68  1  0.685200  0.209900  0.265700  1.0  -0.0401
  C  C69  1  0.314800  0.580500  0.524700  1.0  -0.0362
  C  C70  1  0.055800  0.790100  0.475300  1.0  -0.0349
  C  C71  1  0.734300  0.944200  0.419500  1.0  -0.0422
  C  C72  1  0.265700  0.685200  0.209900  1.0  -0.0304
  C  C73  1  0.524700  0.314800  0.580500  1.0  -0.0265
  C  C74  1  0.475300  0.055800  0.790100  1.0  -0.0262
  C  C75  1  0.419500  0.734300  0.944200  1.0  -0.0312
  C  C76  1  0.209900  0.265700  0.685200  1.0  -0.0404
  C  C77  1  0.580500  0.524700  0.314800  1.0  -0.0257
  C  C78  1  0.790100  0.475300  0.055800  1.0  -0.0374
  C  C79  1  0.419500  0.944200  0.734300  1.0  -0.025
  C  C80  1  0.209900  0.685200  0.265700  1.0  -0.0425
  C  C81  1  0.580500  0.314800  0.524700  1.0  -0.0297
  C  C82  1  0.790100  0.055800  0.475300  1.0  -0.0378
  C  C83  1  0.944200  0.734300  0.419500  1.0  -0.0343
  C  C84  1  0.685200  0.265700  0.209900  1.0  -0.0353
  C  C85  1  0.314800  0.524700  0.580500  1.0  -0.035
  C  C86  1  0.055800  0.475300  0.790100  1.0  -0.0391
  C  C87  1  0.734300  0.419500  0.944200  1.0  -0.0277
  C  C88  1  0.265700  0.209900  0.685200  1.0  -0.0429
  C  C89  1  0.524700  0.580500  0.314800  1.0  -0.0278
  C  C90  1  0.475300  0.790100  0.055800  1.0  -0.0294
  C  C91  1  0.000000  0.369400  0.616400  1.0  0.4443
  C  C92  1  0.000000  0.316100  0.510300  1.0  -0.4742
  C  C93  1  0.753000  0.383600  0.383600  1.0  0.428
  C  C94  1  0.805800  0.489700  0.489700  1.0  -0.4825
  C  C95  1  0.247000  0.630600  0.630600  1.0  0.4288
  C  C96  1  0.194200  0.683900  0.683900  1.0  -0.4821
  C  C97  1  0.000000  0.616400  0.369400  1.0  0.4493
  C  C98  1  0.000000  0.510300  0.316100  1.0  -0.4759
  C  C99  1  0.616400  0.000000  0.369400  1.0  0.4254
  C  C100  1  0.510300  0.000000  0.316100  1.0  -0.4808
  C  C101  1  0.383600  0.753000  0.383600  1.0  0.4347
  C  C102  1  0.489700  0.805800  0.489700  1.0  -0.4869
  C  C103  1  0.630600  0.247000  0.630600  1.0  0.4301
  C  C104  1  0.683900  0.194200  0.683900  1.0  -0.4822
  C  C105  1  0.369400  0.000000  0.616400  1.0  0.4453
  C  C106  1  0.316100  0.000000  0.510300  1.0  -0.4889
  C  C107  1  0.369400  0.616400  0.000000  1.0  0.4347
  C  C108  1  0.316100  0.510300  0.000000  1.0  -0.481
  C  C109  1  0.383600  0.383600  0.753000  1.0  0.4305
  C  C110  1  0.489700  0.489700  0.805800  1.0  -0.4788
  C  C111  1  0.630600  0.630600  0.247000  1.0  0.4462
  C  C112  1  0.683900  0.683900  0.194200  1.0  -0.4884
  C  C113  1  0.616400  0.369400  0.000000  1.0  0.4331
  C  C114  1  0.510300  0.316100  0.000000  1.0  -0.4872
  N  N115  1  0.907200  0.351000  0.622600  1.0  -0.437
  N  N116  1  0.728400  0.284600  0.377400  1.0  -0.4358
  N  N117  1  0.271600  0.649000  0.556200  1.0  -0.4066
  N  N118  1  0.092800  0.715400  0.443800  1.0  -0.4248
  N  N119  1  0.622600  0.907200  0.351000  1.0  -0.4394
  N  N120  1  0.377400  0.728400  0.284600  1.0  -0.4198
  N  N121  1  0.556200  0.271600  0.649000  1.0  -0.407
  N  N122  1  0.443800  0.092800  0.715400  1.0  -0.4252
  N  N123  1  0.351000  0.622600  0.907200  1.0  -0.4313
  N  N124  1  0.284600  0.377400  0.728400  1.0  -0.4239
  N  N125  1  0.649000  0.556200  0.271600  1.0  -0.4265
  N  N126  1  0.715400  0.443800  0.092800  1.0  -0.4465
  N  N127  1  0.351000  0.907200  0.622600  1.0  -0.4266
  N  N128  1  0.284600  0.728400  0.377400  1.0  -0.4428
  N  N129  1  0.649000  0.271600  0.556200  1.0  -0.4323
  N  N130  1  0.715400  0.092800  0.443800  1.0  -0.4236
  N  N131  1  0.907200  0.622600  0.351000  1.0  -0.4204
  N  N132  1  0.728400  0.377400  0.284600  1.0  -0.4305
  N  N133  1  0.271600  0.556200  0.649000  1.0  -0.4265
  N  N134  1  0.092800  0.443800  0.715400  1.0  -0.4289
  N  N135  1  0.622600  0.351000  0.907200  1.0  -0.4198
  N  N136  1  0.377400  0.284600  0.728400  1.0  -0.44
  N  N137  1  0.556200  0.649000  0.271600  1.0  -0.425
  N  N138  1  0.443800  0.715400  0.092800  1.0  -0.4085
