# generated using pymatgen
data_ZnH10(C2N)4
_symmetry_space_group_name_H-M   'P 1'
_cell_length_a   14.73070000
_cell_length_b   14.73070000
_cell_length_c   14.73070000
_cell_angle_alpha   109.47100000
_cell_angle_beta   109.47100000
_cell_angle_gamma   109.47100000
_symmetry_Int_Tables_number   1
_chemical_formula_structural   ZnH10(C2N)4
_chemical_formula_sum   'Zn6 H60 C48 N24'
_cell_volume   2460.66114514
_cell_formula_units_Z   6
loop_
 _symmetry_equiv_pos_site_id
 _symmetry_equiv_pos_as_xyz
  1  'x, y, z'
loop_
 _atom_site_type_symbol
 _atom_site_label
 _atom_site_symmetry_multiplicity
 _atom_site_fract_x
 _atom_site_fract_y
 _atom_site_fract_z
 _atom_site_occupancy
 _atom_site_charge
  Zn  Zn1  1  0.250000  0.750000  0.500000  1.0  0.7653
  Zn  Zn2  1  0.750000  0.250000  0.500000  1.0  0.77
  Zn  Zn3  1  0.500000  0.750000  0.250000  1.0  0.7716
  Zn  Zn4  1  0.500000  0.250000  0.750000  1.0  0.7716
  Zn  Zn5  1  0.750000  0.500000  0.250000  1.0  0.7502
  Zn  Zn6  1  0.250000  0.500000  0.750000  1.0  0.8133
  H  H7  1  0.102490  0.881030  0.526320  1.0  0.0989
  H  H8  1  0.354710  0.576170  0.473680  1.0  0.1038
  H  H9  1  0.645290  0.118970  0.221460  1.0  0.1003
  H  H10  1  0.897510  0.423830  0.778540  1.0  0.1076
  H  H11  1  0.221460  0.645290  0.118970  1.0  0.1022
  H  H12  1  0.778540  0.897510  0.423830  1.0  0.0978
  H  H13  1  0.526320  0.102490  0.881030  1.0  0.097
  H  H14  1  0.473680  0.354710  0.576170  1.0  0.103
  H  H15  1  0.576170  0.473680  0.354710  1.0  0.0983
  H  H16  1  0.881030  0.526320  0.102490  1.0  0.1031
  H  H17  1  0.423830  0.778540  0.897510  1.0  0.0974
  H  H18  1  0.118970  0.221460  0.645290  1.0  0.0992
  H  H19  1  0.576170  0.354710  0.473680  1.0  0.1002
  H  H20  1  0.881030  0.102490  0.526320  1.0  0.1038
  H  H21  1  0.423830  0.897510  0.778540  1.0  0.0987
  H  H22  1  0.118970  0.645290  0.221460  1.0  0.0994
  H  H23  1  0.102490  0.526320  0.881030  1.0  0.1056
  H  H24  1  0.354710  0.473680  0.576170  1.0  0.0938
  H  H25  1  0.645290  0.221460  0.118970  1.0  0.1045
  H  H26  1  0.897510  0.778540  0.423830  1.0  0.1011
  H  H27  1  0.221460  0.118970  0.645290  1.0  0.0991
  H  H28  1  0.778540  0.423830  0.897510  1.0  0.1002
  H  H29  1  0.526320  0.881030  0.102490  1.0  0.1026
  H  H30  1  0.473680  0.576170  0.354710  1.0  0.1009
  H  H31  1  0.023570  0.503050  0.250870  1.0  0.1288
  H  H32  1  0.913570  0.434600  0.279380  1.0  0.1352
  H  H33  1  0.062860  0.504210  0.385340  1.0  0.1321
  H  H34  1  0.130390  0.619180  0.692860  1.0  0.1348
  H  H35  1  0.141120  0.705580  0.624940  1.0  0.1327
  H  H36  1  0.254760  0.759660  0.766610  1.0  0.1275
  H  H37  1  0.858880  0.564450  0.483820  1.0  0.1333
  H  H38  1  0.869610  0.488790  0.562460  1.0  0.1331
  H  H39  1  0.745240  0.504900  0.511860  1.0  0.1309
  H  H40  1  0.051370  0.386960  0.497270  1.0  0.1361
  H  H41  1  0.910990  0.266770  0.435140  1.0  0.1348
  H  H42  1  0.037640  0.261850  0.509450  1.0  0.1311
  H  H43  1  0.561830  0.872020  0.490090  1.0  0.1416
  H  H44  1  0.513550  0.745530  0.503290  1.0  0.126
  H  H45  1  0.482760  0.856180  0.564770  1.0  0.1303
  H  H46  1  0.501650  0.020580  0.248790  1.0  0.124
  H  H47  1  0.298740  0.921520  0.436100  1.0  0.1343
  H  H48  1  0.379060  0.076250  0.512990  1.0  0.135
  H  H49  1  0.237790  0.002220  0.492760  1.0  0.1322
  H  H50  1  0.741200  0.177430  0.651860  1.0  0.1369
  H  H51  1  0.613250  0.105530  0.655970  1.0  0.1394
  H  H52  1  0.729970  0.243310  0.776590  1.0  0.1321
  H  H53  1  0.620940  0.697200  0.133940  1.0  0.1348
  H  H54  1  0.701260  0.622780  0.137360  1.0  0.1305
  H  H55  1  0.762210  0.764430  0.254970  1.0  0.1325
  H  H56  1  0.486450  0.231970  0.989730  1.0  0.1285
  H  H57  1  0.438170  0.310190  0.928260  1.0  0.1419
  H  H58  1  0.517240  0.373420  0.082010  1.0  0.1309
  H  H59  1  0.386750  0.492290  0.042720  1.0  0.1387
  H  H60  1  0.258810  0.436230  0.910670  1.0  0.1435
  H  H61  1  0.270020  0.513340  0.046610  1.0  0.1333
  H  H62  1  0.498350  0.518930  0.747140  1.0  0.1243
  H  H63  1  0.565350  0.479750  0.847420  1.0  0.1334
  H  H64  1  0.494440  0.559460  0.879170  1.0  0.1334
  H  H65  1  0.505560  0.065020  0.384720  1.0  0.1335
  H  H66  1  0.434650  0.914400  0.282070  1.0  0.1369
  C  C67  1  0.055100  0.787300  0.467800  1.0  -0.064
  C  C68  1  0.319500  0.587300  0.532200  1.0  -0.0514
  C  C69  1  0.680500  0.212700  0.267800  1.0  -0.0397
  C  C70  1  0.944900  0.412700  0.732200  1.0  -0.0599
  C  C71  1  0.267800  0.680500  0.212700  1.0  -0.0516
  C  C72  1  0.732200  0.944900  0.412700  1.0  -0.0673
  C  C73  1  0.467800  0.055100  0.787300  1.0  -0.0612
  C  C74  1  0.532200  0.319500  0.587300  1.0  -0.0561
  C  C75  1  0.587300  0.532200  0.319500  1.0  -0.0545
  C  C76  1  0.787300  0.467800  0.055100  1.0  -0.0574
  C  C77  1  0.412700  0.732200  0.944900  1.0  -0.066
  C  C78  1  0.212700  0.267800  0.680500  1.0  -0.0509
  C  C79  1  0.587300  0.319500  0.532200  1.0  -0.066
  C  C80  1  0.787300  0.055100  0.467800  1.0  -0.0643
  C  C81  1  0.412700  0.944900  0.732200  1.0  -0.0607
  C  C82  1  0.212700  0.680500  0.267800  1.0  -0.0359
  C  C83  1  0.055100  0.467800  0.787300  1.0  -0.0636
  C  C84  1  0.319500  0.532200  0.587300  1.0  -0.0394
  C  C85  1  0.680500  0.267800  0.212700  1.0  -0.0538
  C  C86  1  0.944900  0.732200  0.412700  1.0  -0.0614
  C  C87  1  0.267800  0.212700  0.680500  1.0  -0.0556
  C  C88  1  0.732200  0.412700  0.944900  1.0  -0.0628
  C  C89  1  0.467800  0.787300  0.055100  1.0  -0.0595
  C  C90  1  0.532200  0.587300  0.319500  1.0  -0.0567
  C  C91  1  0.000000  0.614700  0.368100  1.0  0.4622
  C  C92  1  0.000000  0.507700  0.317900  1.0  -0.4744
  C  C93  1  0.246600  0.631900  0.631900  1.0  0.4452
  C  C94  1  0.189800  0.682100  0.682100  1.0  -0.4726
  C  C95  1  0.753400  0.385300  0.385300  1.0  0.4387
  C  C96  1  0.810200  0.492300  0.492300  1.0  -0.4705
  C  C97  1  0.000000  0.368100  0.614700  1.0  0.4591
  C  C98  1  0.000000  0.317900  0.507700  1.0  -0.4742
  C  C99  1  0.385300  0.753400  0.385300  1.0  0.4474
  C  C100  1  0.492300  0.810200  0.492300  1.0  -0.4683
  C  C101  1  0.614700  0.000000  0.368100  1.0  0.4425
  C  C102  1  0.507700  0.000000  0.317900  1.0  -0.4737
  C  C103  1  0.368100  0.000000  0.614700  1.0  0.4474
  C  C104  1  0.317900  0.000000  0.507700  1.0  -0.48
  C  C105  1  0.631900  0.246600  0.631900  1.0  0.4552
  C  C106  1  0.682100  0.189800  0.682100  1.0  -0.4766
  C  C107  1  0.631900  0.631900  0.246600  1.0  0.4446
  C  C108  1  0.682100  0.682100  0.189800  1.0  -0.4791
  C  C109  1  0.614700  0.368100  0.000000  1.0  0.4465
  C  C110  1  0.507700  0.317900  0.000000  1.0  -0.4678
  C  C111  1  0.368100  0.614700  0.000000  1.0  0.4557
  C  C112  1  0.317900  0.507700  0.000000  1.0  -0.4755
  C  C113  1  0.385300  0.385300  0.753400  1.0  0.4451
  C  C114  1  0.492300  0.492300  0.810200  1.0  -0.4712
  N  N115  1  0.092300  0.713600  0.440500  1.0  -0.4252
  N  N116  1  0.273100  0.651800  0.559500  1.0  -0.4252
  N  N117  1  0.726900  0.286400  0.378700  1.0  -0.422
  N  N118  1  0.907700  0.348200  0.621300  1.0  -0.4198
  N  N119  1  0.378700  0.726900  0.286400  1.0  -0.4295
  N  N120  1  0.621300  0.907700  0.348200  1.0  -0.4203
  N  N121  1  0.440500  0.092300  0.713600  1.0  -0.4296
  N  N122  1  0.559500  0.273100  0.651800  1.0  -0.4259
  N  N123  1  0.651800  0.559500  0.273100  1.0  -0.4278
  N  N124  1  0.713600  0.440500  0.092300  1.0  -0.4194
  N  N125  1  0.348200  0.621300  0.907700  1.0  -0.414
  N  N126  1  0.286400  0.378700  0.726900  1.0  -0.4368
  N  N127  1  0.651800  0.273100  0.559500  1.0  -0.4144
  N  N128  1  0.713600  0.092300  0.440500  1.0  -0.4329
  N  N129  1  0.348200  0.907700  0.621300  1.0  -0.4273
  N  N130  1  0.286400  0.726900  0.378700  1.0  -0.42
  N  N131  1  0.092300  0.440500  0.713600  1.0  -0.4318
  N  N132  1  0.273100  0.559500  0.651800  1.0  -0.4138
  N  N133  1  0.726900  0.378700  0.286400  1.0  -0.4318
  N  N134  1  0.907700  0.621300  0.348200  1.0  -0.4296
  N  N135  1  0.378700  0.286400  0.726900  1.0  -0.4217
  N  N136  1  0.621300  0.348200  0.907700  1.0  -0.4287
  N  N137  1  0.440500  0.713600  0.092300  1.0  -0.4267
  N  N138  1  0.559500  0.651800  0.273100  1.0  -0.4311
