# generated using pymatgen
data_Zn5H48C69(N3O2)6
_symmetry_space_group_name_H-M   'P 1'
_cell_length_a   21.31700000
_cell_length_b   23.14790000
_cell_length_c   38.65880000
_cell_angle_alpha   79.56820000
_cell_angle_beta   73.99580000
_cell_angle_gamma   62.58370000
_symmetry_Int_Tables_number   1
_chemical_formula_structural   Zn5H48C69(N3O2)6
_chemical_formula_sum   'Zn20 H192 C276 N72 O48'
_cell_volume   16244.33810321
_cell_formula_units_Z   4
loop_
 _symmetry_equiv_pos_site_id
 _symmetry_equiv_pos_as_xyz
  1  'x, y, z'
loop_
 _atom_site_type_symbol
 _atom_site_label
 _atom_site_symmetry_multiplicity
 _atom_site_fract_x
 _atom_site_fract_y
 _atom_site_fract_z
 _atom_site_occupancy
 _atom_site_charge
  Zn  Zn1  1  0.348840  0.484740  0.422200  1.0  0.7698
  Zn  Zn2  1  0.306840  0.457940  0.517720  1.0  0.9537
  Zn  Zn3  1  0.469270  0.327190  0.383310  1.0  0.9747
  Zn  Zn4  1  0.437520  0.589510  0.397720  1.0  0.9504
  Zn  Zn5  1  0.180340  0.559740  0.390260  1.0  0.906
  Zn  Zn6  1  0.744220  0.984740  0.922200  1.0  0.7693
  Zn  Zn7  1  0.717500  0.957940  0.017720  1.0  0.9561
  Zn  Zn8  1  0.820230  0.827190  0.883310  1.0  0.9739
  Zn  Zn9  1  0.575250  0.089510  0.897720  1.0  0.9485
  Zn  Zn10  1  0.869660  0.059740  0.890260  1.0  0.906
  Zn  Zn11  1  0.255780  0.015260  0.077800  1.0  0.7695
  Zn  Zn12  1  0.282500  0.042060  0.982280  1.0  0.954
  Zn  Zn13  1  0.179770  0.172810  0.116690  1.0  0.9749
  Zn  Zn14  1  0.424750  0.910490  0.102280  1.0  0.946
  Zn  Zn15  1  0.130340  0.940260  0.109740  1.0  0.9057
  Zn  Zn16  1  0.651160  0.515260  0.577800  1.0  0.769
  Zn  Zn17  1  0.693160  0.542060  0.482280  1.0  0.955
  Zn  Zn18  1  0.530730  0.672810  0.616690  1.0  0.9759
  Zn  Zn19  1  0.562480  0.410490  0.602280  1.0  0.9495
  Zn  Zn20  1  0.819660  0.440260  0.609740  1.0  0.9059
  H  H21  1  0.185100  0.489100  0.323100  1.0  0.1145
  H  H22  1  0.223000  0.407700  0.284700  1.0  0.1071
  H  H23  1  0.149800  0.714800  0.343800  1.0  0.0984
  H  H24  1  0.228500  0.281900  0.889100  1.0  0.1292
  H  H25  1  0.326100  0.310600  0.284600  1.0  0.1074
  H  H26  1  0.164700  0.809300  0.323500  1.0  0.1021
  H  H27  1  0.407800  0.297200  0.319600  1.0  0.1188
  H  H28  1  0.262800  0.818600  0.332400  1.0  0.0976
  H  H29  1  0.437800  0.177000  0.810400  1.0  0.0711
  H  H30  1  0.345600  0.734100  0.361700  1.0  0.1032
  H  H31  1  0.713300  0.444500  0.309100  1.0  0.1054
  H  H32  1  0.335900  0.235300  0.788900  1.0  0.1269
  H  H33  1  0.146100  0.439300  0.792300  1.0  0.0745
  H  H34  1  0.104900  0.419300  0.829300  1.0  0.0727
  H  H35  1  0.506800  0.135200  0.493400  1.0  0.1304
  H  H36  1  0.451500  0.185600  0.547400  1.0  0.104
  H  H37  1  0.077500  0.400800  0.744200  1.0  0.0728
  H  H38  1  0.142100  0.330900  0.737900  1.0  0.055
  H  H39  1  0.336400  0.221200  0.906400  1.0  0.0688
  H  H40  1  0.070000  0.328400  0.834400  1.0  0.06
  H  H41  1  0.019500  0.373300  0.807900  1.0  0.0651
  H  H42  1  0.178000  0.375800  0.619400  1.0  0.107
  H  H43  1  0.237000  0.326000  0.778000  1.0  0.0669
  H  H44  1  0.212300  0.270000  0.783400  1.0  0.0598
  H  H45  1  0.366000  0.529400  0.565000  1.0  0.1063
  H  H46  1  0.087600  0.522300  0.833900  1.0  0.1206
  H  H47  1  0.010600  0.130600  0.800600  1.0  0.1044
  H  H48  1  0.072200  0.193700  0.772700  1.0  0.1029
  H  H49  1  0.983200  0.304100  0.856700  1.0  0.1303
  H  H50  1  0.140000  0.361900  0.680100  1.0  0.1069
  H  H51  1  0.024900  0.620500  0.861500  1.0  0.1027
  H  H52  1  0.291900  0.460600  0.633400  1.0  0.0917
  H  H53  1  0.472600  0.641400  0.526800  1.0  0.0985
  H  H54  1  0.420400  0.588900  0.573100  1.0  0.0725
  H  H55  1  0.923400  0.567300  0.789700  1.0  0.0964
  H  H56  1  0.377400  0.297700  0.551100  1.0  0.1138
  H  H57  1  0.631600  0.314100  0.331700  1.0  0.1061
  H  H58  1  0.921800  0.240900  0.883300  1.0  0.0867
  H  H59  1  0.721000  0.345700  0.302900  1.0  0.0985
  H  H60  1  0.607600  0.526100  0.340500  1.0  0.105
  H  H61  1  0.859200  0.669000  0.815000  1.0  0.1058
  H  H62  1  0.505600  0.199400  0.440800  1.0  0.098
  H  H63  1  0.474800  0.632200  0.466600  1.0  0.1193
  H  H64  1  0.253300  0.450100  0.695900  1.0  0.1368
  H  H65  1  0.029700  0.605100  0.452500  1.0  0.1014
  H  H66  1  0.953000  0.616000  0.509200  1.0  0.0992
  H  H67  1  0.001000  0.575300  0.560300  1.0  0.1057
  H  H68  1  0.125600  0.524000  0.554600  1.0  0.105
  H  H69  1  0.002700  0.989100  0.823100  1.0  0.114
  H  H70  1  0.084600  0.907700  0.784700  1.0  0.1069
  H  H71  1  0.791600  0.214800  0.843800  1.0  0.0981
  H  H72  1  0.600500  0.781900  0.389100  1.0  0.1305
  H  H73  1  0.078700  0.810600  0.784600  1.0  0.1073
  H  H74  1  0.702500  0.309300  0.823500  1.0  0.1027
  H  H75  1  0.975400  0.797200  0.819600  1.0  0.1196
  H  H76  1  0.586200  0.318600  0.832400  1.0  0.0999
  H  H77  1  0.574800  0.677000  0.310400  1.0  0.0718
  H  H78  1  0.558600  0.234100  0.861700  1.0  0.1045
  H  H79  1  0.533100  0.944500  0.809100  1.0  0.1056
  H  H80  1  0.639900  0.735300  0.288900  1.0  0.1247
  H  H81  1  0.622300  0.939300  0.292300  1.0  0.0749
  H  H82  1  0.646500  0.919300  0.329300  1.0  0.0743
  H  H83  1  0.864600  0.635200  0.993400  1.0  0.1302
  H  H84  1  0.815500  0.685600  0.047400  1.0  0.1045
  H  H85  1  0.777500  0.900800  0.244200  1.0  0.0741
  H  H86  1  0.789100  0.830900  0.237900  1.0  0.053
  H  H87  1  0.536000  0.721200  0.406400  1.0  0.069
  H  H88  1  0.767200  0.828400  0.334400  1.0  0.0601
  H  H89  1  0.799300  0.873300  0.307900  1.0  0.0647
  H  H90  1  0.826800  0.875800  0.119400  1.0  0.1072
  H  H91  1  0.659000  0.826000  0.278000  1.0  0.067
  H  H92  1  0.734300  0.770000  0.283400  1.0  0.0591
  H  H93  1  0.539600  0.029400  0.065000  1.0  0.1093
  H  H94  1  0.556200  0.022300  0.333900  1.0  0.1206
  H  H95  1  0.058200  0.630600  0.300600  1.0  0.1044
  H  H96  1  0.961400  0.693700  0.272700  1.0  0.1032
  H  H97  1  0.856000  0.804100  0.356700  1.0  0.132
  H  H98  1  0.818000  0.861900  0.180100  1.0  0.1054
  H  H99  1  0.493100  0.120500  0.361500  1.0  0.1025
  H  H100  1  0.614100  0.960600  0.133400  1.0  0.0924
  H  H101  1  0.359200  0.141400  0.026800  1.0  0.0993
  H  H102  1  0.417600  0.088900  0.073100  1.0  0.0738
  H  H103  1  0.719600  0.067300  0.289700  1.0  0.0975
  H  H104  1  0.773800  0.797700  0.051100  1.0  0.1124
  H  H105  1  0.722600  0.814100  0.831700  1.0  0.1063
  H  H106  1  0.954000  0.740900  0.383300  1.0  0.0867
  H  H107  1  0.630400  0.845700  0.802900  1.0  0.0982
  H  H108  1  0.525800  0.026100  0.840500  1.0  0.1057
  H  H109  1  0.656800  0.169000  0.315000  1.0  0.1059
  H  H110  1  0.854200  0.699400  0.940800  1.0  0.0979
  H  H111  1  0.426400  0.132200  0.966600  1.0  0.1198
  H  H112  1  0.600700  0.950100  0.195900  1.0  0.1365
  H  H113  1  0.912700  0.105100  0.952500  1.0  0.1012
  H  H114  1  0.921800  0.116000  0.009200  1.0  0.0996
  H  H115  1  0.863400  0.075300  0.060300  1.0  0.1049
  H  H116  1  0.795800  0.024000  0.054600  1.0  0.1051
  H  H117  1  0.997300  0.010900  0.176900  1.0  0.1142
  H  H118  1  0.915400  0.092300  0.215300  1.0  0.1068
  H  H119  1  0.208400  0.785200  0.156200  1.0  0.0978
  H  H120  1  0.399500  0.218100  0.610900  1.0  0.1302
  H  H121  1  0.921300  0.189400  0.215400  1.0  0.1071
  H  H122  1  0.297500  0.690700  0.176500  1.0  0.1027
  H  H123  1  0.024600  0.202800  0.180400  1.0  0.1194
  H  H124  1  0.413800  0.681400  0.167600  1.0  0.1015
  H  H125  1  0.425200  0.323000  0.689600  1.0  0.071
  H  H126  1  0.441400  0.765900  0.138300  1.0  0.1025
  H  H127  1  0.466900  0.055500  0.190900  1.0  0.1057
  H  H128  1  0.360100  0.264700  0.711100  1.0  0.1246
  H  H129  1  0.377700  0.060700  0.707700  1.0  0.0757
  H  H130  1  0.353500  0.080700  0.670700  1.0  0.074
  H  H131  1  0.135400  0.364800  0.006600  1.0  0.1247
  H  H132  1  0.184500  0.314400  0.952600  1.0  0.1036
  H  H133  1  0.222500  0.099200  0.755800  1.0  0.0729
  H  H134  1  0.210900  0.169100  0.762100  1.0  0.0516
  H  H135  1  0.464000  0.278800  0.593600  1.0  0.0693
  H  H136  1  0.232800  0.171600  0.665600  1.0  0.0597
  H  H137  1  0.200700  0.126700  0.692100  1.0  0.0641
  H  H138  1  0.173200  0.124200  0.880600  1.0  0.107
  H  H139  1  0.341000  0.174000  0.722000  1.0  0.0655
  H  H140  1  0.265700  0.230000  0.716600  1.0  0.0593
  H  H141  1  0.460400  0.970600  0.935000  1.0  0.1091
  H  H142  1  0.443800  0.977700  0.666100  1.0  0.1211
  H  H143  1  0.941800  0.369400  0.699400  1.0  0.1044
  H  H144  1  0.038600  0.306300  0.727300  1.0  0.1021
  H  H145  1  0.144000  0.195900  0.643300  1.0  0.1322
  H  H146  1  0.182000  0.138100  0.819900  1.0  0.1058
  H  H147  1  0.506900  0.879500  0.638500  1.0  0.1026
  H  H148  1  0.385900  0.039400  0.866600  1.0  0.0926
  H  H149  1  0.640800  0.858600  0.973200  1.0  0.0986
  H  H150  1  0.582400  0.911100  0.926900  1.0  0.0731
  H  H151  1  0.280400  0.932700  0.710300  1.0  0.0976
  H  H152  1  0.226200  0.202300  0.948900  1.0  0.1138
  H  H153  1  0.277400  0.185900  0.168300  1.0  0.1056
  H  H154  1  0.046000  0.259100  0.616700  1.0  0.0856
  H  H155  1  0.369600  0.154300  0.197100  1.0  0.0992
  H  H156  1  0.474200  0.973900  0.159500  1.0  0.1057
  H  H157  1  0.343200  0.831000  0.685000  1.0  0.1058
  H  H158  1  0.145800  0.300600  0.059200  1.0  0.0978
  H  H159  1  0.573600  0.867800  0.033400  1.0  0.1207
  H  H160  1  0.399300  0.049900  0.804100  1.0  0.1355
  H  H161  1  0.087300  0.894900  0.047500  1.0  0.1008
  H  H162  1  0.078200  0.884000  0.990800  1.0  0.0998
  H  H163  1  0.136600  0.924700  0.939700  1.0  0.1049
  H  H164  1  0.204200  0.976000  0.945400  1.0  0.1048
  H  H165  1  0.814900  0.510900  0.676900  1.0  0.1152
  H  H166  1  0.777000  0.592300  0.715300  1.0  0.1076
  H  H167  1  0.850200  0.285200  0.656200  1.0  0.0989
  H  H168  1  0.771500  0.718100  0.110900  1.0  0.1295
  H  H169  1  0.673900  0.689400  0.715400  1.0  0.108
  H  H170  1  0.835300  0.190700  0.676500  1.0  0.1026
  H  H171  1  0.592200  0.702800  0.680400  1.0  0.1194
  H  H172  1  0.737200  0.181400  0.667600  1.0  0.0995
  H  H173  1  0.562200  0.823000  0.189600  1.0  0.0714
  H  H174  1  0.654400  0.265900  0.638300  1.0  0.1041
  H  H175  1  0.286700  0.555500  0.690900  1.0  0.1064
  H  H176  1  0.664100  0.764700  0.211100  1.0  0.1257
  H  H177  1  0.853900  0.560700  0.207700  1.0  0.0759
  H  H178  1  0.895100  0.580700  0.170700  1.0  0.0709
  H  H179  1  0.493200  0.864800  0.506600  1.0  0.1253
  H  H180  1  0.548500  0.814400  0.452600  1.0  0.1034
  H  H181  1  0.922500  0.599200  0.255800  1.0  0.0732
  H  H182  1  0.857900  0.669100  0.262100  1.0  0.0528
  H  H183  1  0.663600  0.778800  0.093600  1.0  0.0707
  H  H184  1  0.930000  0.671600  0.165600  1.0  0.0604
  H  H185  1  0.980500  0.626700  0.192100  1.0  0.0653
  H  H186  1  0.822000  0.624200  0.380600  1.0  0.1068
  H  H187  1  0.763000  0.674000  0.222000  1.0  0.0664
  H  H188  1  0.787700  0.730000  0.216600  1.0  0.0592
  H  H189  1  0.634000  0.470600  0.435000  1.0  0.1071
  H  H190  1  0.912400  0.477700  0.166100  1.0  0.1211
  H  H191  1  0.989400  0.869400  0.199400  1.0  0.1042
  H  H192  1  0.927800  0.806300  0.227300  1.0  0.1018
  H  H193  1  0.016800  0.695900  0.143300  1.0  0.1291
  H  H194  1  0.860000  0.638100  0.319900  1.0  0.1071
  H  H195  1  0.975100  0.379500  0.138500  1.0  0.1025
  H  H196  1  0.708100  0.539400  0.366600  1.0  0.0919
  H  H197  1  0.527400  0.358600  0.473200  1.0  0.099
  H  H198  1  0.579600  0.411100  0.426900  1.0  0.0738
  H  H199  1  0.076600  0.432700  0.210300  1.0  0.0971
  H  H200  1  0.622600  0.702300  0.448900  1.0  0.1138
  H  H201  1  0.368400  0.685900  0.668300  1.0  0.1056
  H  H202  1  0.078200  0.759100  0.116700  1.0  0.0863
  H  H203  1  0.279000  0.654300  0.697100  1.0  0.0984
  H  H204  1  0.392400  0.473900  0.659500  1.0  0.108
  H  H205  1  0.140800  0.331000  0.185000  1.0  0.1062
  H  H206  1  0.494400  0.800600  0.559200  1.0  0.0978
  H  H207  1  0.525200  0.367800  0.533400  1.0  0.1188
  H  H208  1  0.746700  0.549900  0.304100  1.0  0.1365
  H  H209  1  0.970300  0.394900  0.547500  1.0  0.1011
  H  H210  1  0.047000  0.384000  0.490800  1.0  0.0996
  H  H211  1  0.999000  0.424700  0.439700  1.0  0.1051
  H  H212  1  0.874400  0.476000  0.445400  1.0  0.1046
  C  C213  1  0.125490  0.361360  0.788460  1.0  -0.0498
  C  C214  1  0.228200  0.451270  0.322930  1.0  -0.1365
  C  C215  1  0.299850  0.672900  0.369800  1.0  0.1626
  C  C216  1  0.251700  0.401700  0.300500  1.0  -0.0994
  C  C217  1  0.239080  0.667440  0.364800  1.0  0.0761
  C  C218  1  0.189170  0.718450  0.347350  1.0  -0.0644
  C  C219  1  0.270890  0.261070  0.872150  1.0  -0.2751
  C  C220  1  0.315700  0.342800  0.299400  1.0  -0.0936
  C  C221  1  0.198060  0.775080  0.335200  1.0  -0.101
  C  C222  1  0.363400  0.333500  0.320900  1.0  -0.1141
  C  C223  1  0.274900  0.439410  0.345390  1.0  0.1407
  C  C224  1  0.256900  0.780690  0.340510  1.0  -0.0932
  C  C225  1  0.394860  0.199380  0.826700  1.0  -0.0643
  C  C226  1  0.306810  0.729640  0.357960  1.0  -0.1065
  C  C227  1  0.673600  0.435840  0.320360  1.0  -0.1112
  C  C228  1  0.334320  0.233460  0.813300  1.0  -0.2916
  C  C229  1  0.107890  0.425740  0.803500  1.0  0.0359
  C  C230  1  0.482360  0.180280  0.493600  1.0  -0.1213
  C  C231  1  0.446300  0.211700  0.526100  1.0  -0.1107
  C  C232  1  0.933200  0.658280  0.841720  1.0  -0.0859
  C  C233  1  0.126030  0.372180  0.747880  1.0  0.079
  C  C234  1  0.336500  0.224800  0.882000  1.0  -0.0705
  C  C235  1  0.558100  0.463670  0.356930  1.0  0.2012
  C  C236  1  0.390150  0.543660  0.509640  1.0  0.1416
  C  C237  1  0.191180  0.405410  0.693430  1.0  0.2706
  C  C238  1  0.067220  0.338720  0.809240  1.0  0.0769
  C  C239  1  0.193260  0.390560  0.634920  1.0  -0.0064
  C  C240  1  0.270940  0.264850  0.837270  1.0  0.3512
  C  C241  1  0.201430  0.311030  0.792130  1.0  0.0536
  C  C242  1  0.008860  0.533800  0.811080  1.0  0.2871
  C  C243  1  0.387850  0.549100  0.545600  1.0  -0.1187
  C  C244  1  0.238050  0.419290  0.621010  1.0  -0.1351
  C  C245  1  0.263330  0.425080  0.580260  1.0  0.6332
  C  C246  1  0.421260  0.575600  0.481080  1.0  0.1534
  C  C247  1  0.040990  0.550540  0.830880  1.0  -0.232
  C  C248  1  0.567800  0.400630  0.353370  1.0  0.1073
  C  C249  1  0.921000  0.138100  0.864100  1.0  0.6176
  C  C250  1  0.894490  0.724250  0.858370  1.0  0.6537
  C  C251  1  0.004730  0.165030  0.812310  1.0  -0.0538
  C  C252  1  0.959300  0.178900  0.845700  1.0  -0.1265
  C  C253  1  0.042610  0.202700  0.795680  1.0  -0.2184
  C  C254  1  0.989990  0.268900  0.845320  1.0  -0.2937
  C  C255  1  0.467300  0.153700  0.874700  1.0  0.4398
  C  C256  1  0.170090  0.382690  0.670930  1.0  -0.246
  C  C257  1  0.003180  0.610960  0.846880  1.0  -0.0587
  C  C258  1  0.404300  0.313400  0.495200  1.0  0.1268
  C  C259  1  0.260570  0.441200  0.643260  1.0  -0.0074
  C  C260  1  0.452090  0.616990  0.521630  1.0  -0.0921
  C  C261  1  0.419660  0.584970  0.549710  1.0  -0.1029
  C  C262  1  0.943600  0.577970  0.804630  1.0  -0.179
  C  C263  1  0.403290  0.278540  0.529280  1.0  -0.1111
  C  C264  1  0.627090  0.355310  0.333710  1.0  -0.103
  C  C265  1  0.953070  0.230400  0.860860  1.0  -0.0431
  C  C266  1  0.679010  0.374780  0.317200  1.0  -0.0812
  C  C267  1  0.612350  0.484460  0.339440  1.0  -0.1005
  C  C268  1  0.398390  0.195320  0.859900  1.0  -0.0055
  C  C269  1  0.904200  0.640520  0.819880  1.0  -0.0952
  C  C270  1  0.480100  0.218370  0.462630  1.0  -0.0858
  C  C271  1  0.339600  0.382910  0.344690  1.0  0.1357
  C  C272  1  0.440210  0.285680  0.462900  1.0  0.2168
  C  C273  1  0.453340  0.612040  0.485880  1.0  -0.1149
  C  C274  1  0.036640  0.251810  0.812510  1.0  0.3056
  C  C275  1  0.238100  0.435170  0.680430  1.0  -0.2116
  C  C276  1  0.152280  0.533730  0.500190  1.0  0.2158
  C  C277  1  0.123560  0.558080  0.469600  1.0  0.1066
  C  C278  1  0.048860  0.588890  0.472990  1.0  -0.0734
  C  C279  1  0.002970  0.595340  0.506960  1.0  -0.0922
  C  C280  1  0.031730  0.570990  0.537550  1.0  -0.0965
  C  C281  1  0.106420  0.540200  0.534160  1.0  -0.1235
  C  C282  1  0.724690  0.861360  0.288460  1.0  -0.05
  C  C283  1  0.997600  0.951270  0.822930  1.0  -0.1376
  C  C284  1  0.657450  0.172900  0.869800  1.0  0.1626
  C  C285  1  0.046100  0.901700  0.800500  1.0  -0.101
  C  C286  1  0.728680  0.167440  0.864800  1.0  0.0765
  C  C287  1  0.745030  0.218450  0.847350  1.0  -0.0653
  C  C288  1  0.595890  0.761070  0.372150  1.0  -0.2759
  C  C289  1  0.042100  0.842800  0.799400  1.0  -0.0944
  C  C290  1  0.691660  0.275080  0.835200  1.0  -0.0998
  C  C291  1  0.982200  0.833500  0.820900  1.0  -0.1173
  C  C292  1  0.940300  0.939410  0.845390  1.0  0.1411
  C  C293  1  0.621900  0.280690  0.840510  1.0  -0.0961
  C  C294  1  0.579060  0.699380  0.326700  1.0  -0.0664
  C  C295  1  0.605590  0.229640  0.857960  1.0  -0.1103
  C  C296  1  0.570200  0.935840  0.820360  1.0  -0.112
  C  C297  1  0.618920  0.733460  0.313300  1.0  -0.2903
  C  C298  1  0.662870  0.925740  0.303500  1.0  0.0365
  C  C299  1  0.843760  0.680280  0.993600  1.0  -0.1213
  C  C300  1  0.815900  0.711700  0.026100  1.0  -0.1114
  C  C301  1  0.566800  0.158280  0.341720  1.0  -0.0859
  C  C302  1  0.753910  0.872180  0.247880  1.0  0.0776
  C  C303  1  0.556700  0.724800  0.382000  1.0  -0.0718
  C  C304  1  0.621300  0.963670  0.856930  1.0  0.2022
  C  C305  1  0.556550  0.043660  0.009640  1.0  0.1395
  C  C306  1  0.709980  0.905410  0.193430  1.0  0.2696
  C  C307  1  0.784820  0.838720  0.309240  1.0  0.0701
  C  C308  1  0.781260  0.890560  0.134920  1.0  -0.0004
  C  C309  1  0.626940  0.764850  0.337270  1.0  0.3515
  C  C310  1  0.695410  0.811030  0.292130  1.0  0.0457
  C  C311  1  0.646260  0.033800  0.311080  1.0  0.2876
  C  C312  1  0.517450  0.049100  0.045600  1.0  -0.1181
  C  C313  1  0.721650  0.919290  0.121010  1.0  -0.1356
  C  C314  1  0.731330  0.925080  0.080260  1.0  0.6339
  C  C315  1  0.522060  0.075600  0.981080  1.0  0.1531
  C  C316  1  0.577590  0.050540  0.330880  1.0  -0.2328
  C  C317  1  0.678200  0.900630  0.853370  1.0  0.1084
  C  C318  1  0.076800  0.638100  0.364100  1.0  0.6178
  C  C319  1  0.522890  0.224250  0.358370  1.0  0.6538
  C  C320  1  0.017930  0.665030  0.312310  1.0  -0.0535
  C  C321  1  0.016100  0.678900  0.345700  1.0  -0.1265
  C  C322  1  0.959010  0.702700  0.295680  1.0  -0.2192
  C  C323  1  0.895790  0.768900  0.345320  1.0  -0.296
  C  C324  1  0.504300  0.653700  0.374700  1.0  0.4384
  C  C325  1  0.776290  0.882690  0.170930  1.0  -0.2435
  C  C326  1  0.538980  0.110960  0.346880  1.0  -0.0605
  C  C327  1  0.787100  0.813400  0.995200  1.0  0.1262
  C  C328  1  0.654970  0.941200  0.143260  1.0  -0.0062
  C  C329  1  0.409290  0.116990  0.021630  1.0  -0.0946
  C  C330  1  0.445660  0.084970  0.049710  1.0  -0.1055
  C  C331  1  0.673800  0.077970  0.304630  1.0  -0.1788
  C  C332  1  0.788890  0.778540  0.029280  1.0  -0.1093
  C  C333  1  0.683890  0.855310  0.833710  1.0  -0.1014
  C  C334  1  0.955670  0.730400  0.360860  1.0  -0.0456
  C  C335  1  0.629010  0.874780  0.817200  1.0  -0.08
  C  C336  1  0.563750  0.984460  0.839440  1.0  -0.0999
  C  C337  1  0.546390  0.695320  0.359900  1.0  -0.0045
  C  C338  1  0.635400  0.140520  0.319880  1.0  -0.0937
  C  C339  1  0.838900  0.718370  0.962630  1.0  -0.0851
  C  C340  1  0.932800  0.882910  0.844690  1.0  0.1365
  C  C341  1  0.811210  0.785680  0.962900  1.0  0.2174
  C  C342  1  0.448740  0.112040  0.985880  1.0  -0.1156
  C  C343  1  0.899040  0.751810  0.312510  1.0  0.3052
  C  C344  1  0.646300  0.935170  0.180430  1.0  -0.2134
  C  C345  1  0.813800  0.033730  0.000190  1.0  0.2174
  C  C346  1  0.848760  0.058080  0.969600  1.0  0.1075
  C  C347  1  0.889260  0.088890  0.972990  1.0  -0.0726
  C  C348  1  0.894730  0.095340  0.006960  1.0  -0.0916
  C  C349  1  0.859730  0.070990  0.037550  1.0  -0.0924
  C  C350  1  0.819220  0.040200  0.034160  1.0  -0.1234
  C  C351  1  0.275310  0.138640  0.711540  1.0  -0.0494
  C  C352  1  0.002400  0.048730  0.177070  1.0  -0.1368
  C  C353  1  0.342550  0.827100  0.130200  1.0  0.1626
  C  C354  1  0.953900  0.098300  0.199500  1.0  -0.1009
  C  C355  1  0.271320  0.832560  0.135200  1.0  0.0758
  C  C356  1  0.254970  0.781550  0.152650  1.0  -0.0673
  C  C357  1  0.404110  0.238930  0.627850  1.0  -0.276
  C  C358  1  0.957900  0.157200  0.200600  1.0  -0.0928
  C  C359  1  0.308340  0.724920  0.164800  1.0  -0.1013
  C  C360  1  0.017800  0.166500  0.179100  1.0  -0.1159
  C  C361  1  0.059700  0.060590  0.154610  1.0  0.141
  C  C362  1  0.378100  0.719310  0.159490  1.0  -0.0987
  C  C363  1  0.420940  0.300620  0.673300  1.0  -0.0589
  C  C364  1  0.394410  0.770360  0.142040  1.0  -0.1056
  C  C365  1  0.429800  0.064160  0.179640  1.0  -0.1112
  C  C366  1  0.381080  0.266540  0.686700  1.0  -0.2904
  C  C367  1  0.337130  0.074260  0.696500  1.0  0.0345
  C  C368  1  0.156240  0.319720  0.006400  1.0  -0.1172
  C  C369  1  0.184100  0.288300  0.973900  1.0  -0.1121
  C  C370  1  0.433200  0.841720  0.658280  1.0  -0.0861
  C  C371  1  0.246090  0.127820  0.752120  1.0  0.0796
  C  C372  1  0.443300  0.275200  0.618000  1.0  -0.0673
  C  C373  1  0.378700  0.036330  0.143070  1.0  0.2009
  C  C374  1  0.443450  0.956340  0.990360  1.0  0.1394
  C  C375  1  0.290020  0.094590  0.806570  1.0  0.2688
  C  C376  1  0.215180  0.161280  0.690760  1.0  0.0702
  C  C377  1  0.218740  0.109440  0.865080  1.0  -0.0022
  C  C378  1  0.373060  0.235150  0.662730  1.0  0.3528
  C  C379  1  0.304590  0.188970  0.707870  1.0  0.0473
  C  C380  1  0.353740  0.966200  0.688920  1.0  0.2866
  C  C381  1  0.482550  0.950900  0.954400  1.0  -0.117
  C  C382  1  0.278350  0.080710  0.878990  1.0  -0.1346
  C  C383  1  0.268670  0.074920  0.919740  1.0  0.6347
  C  C384  1  0.477940  0.924400  0.018920  1.0  0.154
  C  C385  1  0.422410  0.949460  0.669120  1.0  -0.2316
  C  C386  1  0.321800  0.099370  0.146630  1.0  0.1086
  C  C387  1  0.923200  0.361900  0.635900  1.0  0.6167
  C  C388  1  0.477110  0.775750  0.641630  1.0  0.6526
  C  C389  1  0.982070  0.334970  0.687690  1.0  -0.0537
  C  C390  1  0.983900  0.321100  0.654300  1.0  -0.1267
  C  C391  1  0.040990  0.297300  0.704320  1.0  -0.2199
  C  C392  1  0.104210  0.231100  0.654680  1.0  -0.2932
  C  C393  1  0.495700  0.346300  0.625300  1.0  0.4415
  C  C394  1  0.223710  0.117310  0.829070  1.0  -0.2431
  C  C395  1  0.461020  0.889040  0.653120  1.0  -0.0601
  C  C396  1  0.212900  0.186600  0.004800  1.0  0.128
  C  C397  1  0.345030  0.058800  0.856740  1.0  -0.0089
  C  C398  1  0.590710  0.883010  0.978370  1.0  -0.0926
  C  C399  1  0.554340  0.915030  0.950290  1.0  -0.1057
  C  C400  1  0.326200  0.922030  0.695370  1.0  -0.1765
  C  C401  1  0.211110  0.221460  0.970720  1.0  -0.1098
  C  C402  1  0.316110  0.144690  0.166290  1.0  -0.1041
  C  C403  1  0.044330  0.269600  0.639140  1.0  -0.0425
  C  C404  1  0.370990  0.125220  0.182800  1.0  -0.0806
  C  C405  1  0.436250  0.015540  0.160560  1.0  -0.0996
  C  C406  1  0.453610  0.304680  0.640100  1.0  -0.0052
  C  C407  1  0.364600  0.859480  0.680120  1.0  -0.0932
  C  C408  1  0.161100  0.281630  0.037370  1.0  -0.086
  C  C409  1  0.067200  0.117090  0.155310  1.0  0.1343
  C  C410  1  0.188790  0.214320  0.037100  1.0  0.2165
  C  C411  1  0.551260  0.887960  0.014120  1.0  -0.1178
  C  C412  1  0.100960  0.248190  0.687490  1.0  0.3048
  C  C413  1  0.353700  0.064830  0.819570  1.0  -0.2111
  C  C414  1  0.186200  0.966270  0.999810  1.0  0.2185
  C  C415  1  0.151240  0.941920  0.030400  1.0  0.1057
  C  C416  1  0.110740  0.911110  0.027010  1.0  -0.074
  C  C417  1  0.105270  0.904660  0.993040  1.0  -0.094
  C  C418  1  0.140270  0.929010  0.962450  1.0  -0.093
  C  C419  1  0.180780  0.959800  0.965840  1.0  -0.1229
  C  C420  1  0.874510  0.638640  0.211540  1.0  -0.0493
  C  C421  1  0.771800  0.548730  0.677070  1.0  -0.1365
  C  C422  1  0.700150  0.327100  0.630200  1.0  0.1609
  C  C423  1  0.748300  0.598300  0.699500  1.0  -0.1024
  C  C424  1  0.760920  0.332560  0.635200  1.0  0.0762
  C  C425  1  0.810830  0.281550  0.652650  1.0  -0.0632
  C  C426  1  0.729110  0.738930  0.127850  1.0  -0.2757
  C  C427  1  0.684300  0.657200  0.700600  1.0  -0.0929
  C  C428  1  0.801940  0.224920  0.664800  1.0  -0.1019
  C  C429  1  0.636600  0.666500  0.679100  1.0  -0.1159
  C  C430  1  0.725100  0.560590  0.654610  1.0  0.1416
  C  C431  1  0.743100  0.219310  0.659490  1.0  -0.0968
  C  C432  1  0.605140  0.800620  0.173300  1.0  -0.0647
  C  C433  1  0.693190  0.270360  0.642040  1.0  -0.107
  C  C434  1  0.326400  0.564160  0.679640  1.0  -0.1133
  C  C435  1  0.665680  0.766540  0.186700  1.0  -0.2897
  C  C436  1  0.892110  0.574260  0.196500  1.0  0.0348
  C  C437  1  0.517640  0.819720  0.506400  1.0  -0.1178
  C  C438  1  0.553700  0.788300  0.473900  1.0  -0.111
  C  C439  1  0.066800  0.341720  0.158280  1.0  -0.0866
  C  C440  1  0.873970  0.627820  0.252120  1.0  0.08
  C  C441  1  0.663500  0.775200  0.118000  1.0  -0.0712
  C  C442  1  0.441900  0.536330  0.643070  1.0  0.2004
  C  C443  1  0.609850  0.456340  0.490360  1.0  0.139
  C  C444  1  0.808820  0.594590  0.306570  1.0  0.2697
  C  C445  1  0.932780  0.661280  0.190760  1.0  0.0786
  C  C446  1  0.806740  0.609440  0.365080  1.0  -0.0062
  C  C447  1  0.729060  0.735150  0.162730  1.0  0.3498
  C  C448  1  0.798570  0.688970  0.207870  1.0  0.0528
  C  C449  1  0.991140  0.466200  0.188920  1.0  0.2864
  C  C450  1  0.612150  0.450900  0.454400  1.0  -0.1163
  C  C451  1  0.761950  0.580710  0.378990  1.0  -0.1345
  C  C452  1  0.736670  0.574920  0.419740  1.0  0.6345
  C  C453  1  0.578740  0.424400  0.518920  1.0  0.153
  C  C454  1  0.959010  0.449460  0.169120  1.0  -0.2334
  C  C455  1  0.432200  0.599370  0.646630  1.0  0.1085
  C  C456  1  0.079000  0.861900  0.135900  1.0  0.6167
  C  C457  1  0.105510  0.275750  0.141630  1.0  0.6531
  C  C458  1  0.995270  0.834970  0.187690  1.0  -0.0549
  C  C459  1  0.040700  0.821100  0.154300  1.0  -0.1263
  C  C460  1  0.957390  0.797300  0.204320  1.0  -0.2161
  C  C461  1  0.010010  0.731100  0.154680  1.0  -0.2949
  C  C462  1  0.532700  0.846300  0.125300  1.0  0.44
  C  C463  1  0.829910  0.617310  0.329070  1.0  -0.2465
  C  C464  1  0.996820  0.389040  0.153120  1.0  -0.0587
  C  C465  1  0.595700  0.686600  0.504800  1.0  0.1266
  C  C466  1  0.739430  0.558800  0.356740  1.0  -0.0091
  C  C467  1  0.547910  0.383010  0.478370  1.0  -0.092
  C  C468  1  0.580340  0.415030  0.450290  1.0  -0.1041
  C  C469  1  0.056400  0.422030  0.195370  1.0  -0.1749
  C  C470  1  0.596710  0.721460  0.470720  1.0  -0.1102
  C  C471  1  0.372910  0.644690  0.666290  1.0  -0.1038
  C  C472  1  0.046930  0.769600  0.139140  1.0  -0.0468
  C  C473  1  0.320990  0.625220  0.682800  1.0  -0.0798
  C  C474  1  0.387650  0.515540  0.660560  1.0  -0.1006
  C  C475  1  0.601610  0.804680  0.140100  1.0  -0.0097
  C  C476  1  0.095800  0.359480  0.180120  1.0  -0.0949
  C  C477  1  0.519900  0.781630  0.537370  1.0  -0.0872
  C  C478  1  0.660400  0.617090  0.655310  1.0  0.1361
  C  C479  1  0.559790  0.714320  0.537100  1.0  0.2157
  C  C480  1  0.546660  0.387960  0.514120  1.0  -0.1155
  C  C481  1  0.963360  0.748190  0.187490  1.0  0.3066
  C  C482  1  0.761900  0.564830  0.319570  1.0  -0.2101
  C  C483  1  0.847720  0.466270  0.499810  1.0  0.2165
  C  C484  1  0.876440  0.441920  0.530400  1.0  0.106
  C  C485  1  0.951140  0.411110  0.527010  1.0  -0.0758
  C  C486  1  0.997030  0.404660  0.493040  1.0  -0.0905
  C  C487  1  0.968270  0.429010  0.462450  1.0  -0.0951
  C  C488  1  0.893580  0.459800  0.465840  1.0  -0.1245
  N  N489  1  0.181030  0.545150  0.442790  1.0  -0.1733
  N  N490  1  0.362870  0.512730  0.495570  1.0  -0.2955
  N  N491  1  0.240880  0.512060  0.456680  1.0  -0.1297
  N  N492  1  0.225420  0.504260  0.492300  1.0  -0.2958
  N  N493  1  0.377100  0.524360  0.459480  1.0  -0.0791
  N  N494  1  0.412500  0.561080  0.450260  1.0  -0.2668
  N  N495  1  0.491800  0.499190  0.378410  1.0  -0.3948
  N  N496  1  0.460880  0.458620  0.387540  1.0  -0.1428
  N  N497  1  0.504280  0.399070  0.373170  1.0  -0.3034
  N  N498  1  0.373010  0.386000  0.368980  1.0  -0.2725
  N  N499  1  0.327820  0.442290  0.383870  1.0  -0.1529
  N  N500  1  0.267540  0.475230  0.370690  1.0  -0.2916
  N  N501  1  0.245710  0.609250  0.381730  1.0  -0.1757
  N  N502  1  0.309390  0.580820  0.392800  1.0  -0.0706
  N  N503  1  0.342830  0.618420  0.385520  1.0  -0.2096
  N  N504  1  0.370440  0.378600  0.488020  1.0  -0.3341
  N  N505  1  0.389330  0.386930  0.452610  1.0  -0.111
  N  N506  1  0.430750  0.331660  0.437000  1.0  -0.2611
  N  N507  1  0.831030  0.045150  0.942790  1.0  -0.1722
  N  N508  1  0.628830  0.012730  0.995570  1.0  -0.2928
  N  N509  1  0.790380  0.012060  0.956680  1.0  -0.1328
  N  N510  1  0.778020  0.004260  0.992300  1.0  -0.2947
  N  N511  1  0.639060  0.024360  0.959480  1.0  -0.0782
  N  N512  1  0.576160  0.061080  0.950260  1.0  -0.2664
  N  N513  1  0.630600  0.999190  0.878410  1.0  -0.395
  N  N514  1  0.692960  0.958620  0.887540  1.0  -0.1445
  N  N515  1  0.723480  0.899070  0.873170  1.0  -0.303
  N  N516  1  0.872010  0.886000  0.868980  1.0  -0.2725
  N  N517  1  0.846020  0.942290  0.883870  1.0  -0.1523
  N  N518  1  0.886540  0.975230  0.870690  1.0  -0.293
  N  N519  1  0.763310  0.109250  0.881730  1.0  -0.176
  N  N520  1  0.716990  0.080820  0.892800  1.0  -0.0714
  N  N521  1  0.653230  0.118420  0.885520  1.0  -0.2109
  N  N522  1  0.762940  0.878600  0.988020  1.0  -0.3346
  N  N523  1  0.771130  0.886930  0.952610  1.0  -0.1105
  N  N524  1  0.800590  0.831660  0.937000  1.0  -0.2605
  N  N525  1  0.168970  0.954850  0.057210  1.0  -0.1731
  N  N526  1  0.371170  0.987270  0.004430  1.0  -0.2962
  N  N527  1  0.209620  0.987940  0.043320  1.0  -0.1313
  N  N528  1  0.221980  0.995740  0.007700  1.0  -0.2955
  N  N529  1  0.360940  0.975640  0.040520  1.0  -0.0787
  N  N530  1  0.423840  0.938920  0.049740  1.0  -0.2666
  N  N531  1  0.369400  0.000810  0.121590  1.0  -0.392
  N  N532  1  0.307040  0.041380  0.112460  1.0  -0.1441
  N  N533  1  0.276520  0.100930  0.126830  1.0  -0.3033
  N  N534  1  0.127990  0.114000  0.131020  1.0  -0.2737
  N  N535  1  0.153980  0.057710  0.116130  1.0  -0.15
  N  N536  1  0.113460  0.024770  0.129310  1.0  -0.2917
  N  N537  1  0.236690  0.890750  0.118270  1.0  -0.1768
  N  N538  1  0.283010  0.919180  0.107200  1.0  -0.0715
  N  N539  1  0.346770  0.881580  0.114480  1.0  -0.2105
  N  N540  1  0.237060  0.121400  0.011980  1.0  -0.3349
  N  N541  1  0.228870  0.113070  0.047390  1.0  -0.1096
  N  N542  1  0.199410  0.168340  0.063000  1.0  -0.2633
  N  N543  1  0.818970  0.454850  0.557210  1.0  -0.1735
  N  N544  1  0.637130  0.487270  0.504430  1.0  -0.2954
  N  N545  1  0.759120  0.487940  0.543320  1.0  -0.1312
  N  N546  1  0.774580  0.495740  0.507700  1.0  -0.2981
  N  N547  1  0.622900  0.475640  0.540520  1.0  -0.0783
  N  N548  1  0.587500  0.438920  0.549740  1.0  -0.2674
  N  N549  1  0.508200  0.500810  0.621590  1.0  -0.3904
  N  N550  1  0.539120  0.541380  0.612460  1.0  -0.1431
  N  N551  1  0.495720  0.600930  0.626830  1.0  -0.3045
  N  N552  1  0.626990  0.614000  0.631020  1.0  -0.2729
  N  N553  1  0.672180  0.557710  0.616130  1.0  -0.1525
  N  N554  1  0.732460  0.524770  0.629310  1.0  -0.291
  N  N555  1  0.754290  0.390750  0.618270  1.0  -0.1748
  N  N556  1  0.690610  0.419180  0.607200  1.0  -0.0707
  N  N557  1  0.657170  0.381580  0.614480  1.0  -0.2099
  N  N558  1  0.629560  0.621400  0.511980  1.0  -0.335
  N  N559  1  0.610670  0.613070  0.547390  1.0  -0.111
  N  N560  1  0.569250  0.668340  0.563000  1.0  -0.2624
  O  O561  1  0.926040  0.093970  0.846150  1.0  -0.6146
  O  O562  1  0.885390  0.147460  0.893360  1.0  -0.5479
  O  O563  1  0.246680  0.402400  0.561040  1.0  -0.5667
  O  O564  1  0.299300  0.459190  0.569030  1.0  -0.584
  O  O565  1  0.470380  0.149730  0.903310  1.0  -0.5653
  O  O566  1  0.522500  0.135620  0.850180  1.0  -0.6102
  O  O567  1  0.920760  0.732550  0.879530  1.0  -0.5583
  O  O568  1  0.841400  0.763560  0.848840  1.0  -0.5501
  O  O569  1  0.039690  0.475730  0.796150  1.0  -0.2798
  O  O570  1  0.173680  0.400760  0.730500  1.0  -0.276
  O  O571  1  0.203780  0.302590  0.828490  1.0  -0.2805
  O  O572  1  0.079090  0.282070  0.793550  1.0  -0.2744
  O  O573  1  0.133840  0.593970  0.346150  1.0  -0.6108
  O  O574  1  0.073790  0.647460  0.393360  1.0  -0.549
  O  O575  1  0.789880  0.902400  0.061040  1.0  -0.5661
  O  O576  1  0.672480  0.959190  0.069030  1.0  -0.584
  O  O577  1  0.476580  0.649730  0.403310  1.0  -0.5666
  O  O578  1  0.491700  0.635620  0.350180  1.0  -0.609
  O  O579  1  0.467160  0.232550  0.379530  1.0  -0.5583
  O  O580  1  0.546200  0.263560  0.348840  1.0  -0.5526
  O  O581  1  0.688430  0.975730  0.296150  1.0  -0.2818
  O  O582  1  0.695060  0.900760  0.230500  1.0  -0.2771
  O  O583  1  0.665140  0.802590  0.328490  1.0  -0.2799
  O  O584  1  0.845290  0.782070  0.293550  1.0  -0.273
  O  O585  1  0.866160  0.406030  0.653850  1.0  -0.6108
  O  O586  1  0.926210  0.352540  0.606640  1.0  -0.5483
  O  O587  1  0.210120  0.097600  0.938960  1.0  -0.5664
  O  O588  1  0.327520  0.040810  0.930970  1.0  -0.5848
  O  O589  1  0.523420  0.350270  0.596690  1.0  -0.5653
  O  O590  1  0.508300  0.364380  0.649820  1.0  -0.6112
  O  O591  1  0.532840  0.767450  0.620470  1.0  -0.5592
  O  O592  1  0.453800  0.736440  0.651160  1.0  -0.5514
  O  O593  1  0.311570  0.024270  0.703850  1.0  -0.2805
  O  O594  1  0.304940  0.099240  0.769500  1.0  -0.2762
  O  O595  1  0.334860  0.197410  0.671510  1.0  -0.2801
  O  O596  1  0.154710  0.217930  0.706450  1.0  -0.2764
  O  O597  1  0.073960  0.906030  0.153850  1.0  -0.6159
  O  O598  1  0.114610  0.852540  0.106640  1.0  -0.5483
  O  O599  1  0.753320  0.597600  0.438960  1.0  -0.5662
  O  O600  1  0.700700  0.540810  0.430970  1.0  -0.5845
  O  O601  1  0.529620  0.850270  0.096690  1.0  -0.5646
  O  O602  1  0.477500  0.864380  0.149820  1.0  -0.6096
  O  O603  1  0.079240  0.267450  0.120470  1.0  -0.5577
  O  O604  1  0.158600  0.236440  0.151160  1.0  -0.5508
  O  O605  1  0.960310  0.524270  0.203850  1.0  -0.2806
  O  O606  1  0.826320  0.599240  0.269500  1.0  -0.2754
  O  O607  1  0.796220  0.697410  0.171510  1.0  -0.2792
  O  O608  1  0.920910  0.717930  0.206450  1.0  -0.2748
