# generated using pymatgen
data_Zn5H56C73(N9O8)2
_symmetry_space_group_name_H-M   'P 1'
_cell_length_a   20.04900000
_cell_length_b   20.28700000
_cell_length_c   20.83230000
_cell_angle_alpha   60.86220000
_cell_angle_beta   77.32120000
_cell_angle_gamma   63.20690000
_symmetry_Int_Tables_number   1
_chemical_formula_structural   Zn5H56C73(N9O8)2
_chemical_formula_sum   'Zn10 H112 C146 N36 O32'
_cell_volume   6606.36857972
_cell_formula_units_Z   2
loop_
 _symmetry_equiv_pos_site_id
 _symmetry_equiv_pos_as_xyz
  1  'x, y, z'
loop_
 _atom_site_type_symbol
 _atom_site_label
 _atom_site_symmetry_multiplicity
 _atom_site_fract_x
 _atom_site_fract_y
 _atom_site_fract_z
 _atom_site_occupancy
 _atom_site_charge
  Zn  Zn1  1  0.880330  0.840240  0.029820  1.0  0.9186
  Zn  Zn2  1  0.649960  0.032940  0.800520  1.0  0.9186
  Zn  Zn3  1  0.619670  0.129940  0.029820  1.0  0.9221
  Zn  Zn4  1  0.850040  0.166540  0.800520  1.0  0.9179
  Zn  Zn5  1  0.750000  0.041760  0.916480  1.0  0.6571
  Zn  Zn6  1  0.119670  0.159760  0.970180  1.0  0.9225
  Zn  Zn7  1  0.350040  0.967060  0.199480  1.0  0.9164
  Zn  Zn8  1  0.380330  0.870060  0.970180  1.0  0.9204
  Zn  Zn9  1  0.149960  0.833460  0.199480  1.0  0.9197
  Zn  Zn10  1  0.250000  0.958240  0.083520  1.0  0.6556
  H  H11  1  0.356000  0.102300  0.902400  1.0  0.0807
  H  H12  1  0.518900  0.005700  0.664400  1.0  0.098
  H  H13  1  0.068100  0.667800  0.210600  1.0  0.0932
  H  H14  1  0.435900  0.156800  0.023400  1.0  0.1016
  H  H15  1  0.468700  0.062600  0.847000  1.0  0.1122
  H  H16  1  0.638000  0.008700  0.215400  1.0  0.1003
  H  H17  1  0.464200  0.236500  0.627800  1.0  0.1117
  H  H18  1  0.339200  0.149400  0.982200  1.0  0.0783
  H  H19  1  0.376300  0.284400  0.542800  1.0  0.1034
  H  H20  1  0.890300  0.690300  0.992600  1.0  0.0975
  H  H21  1  0.706900  0.845900  0.809200  1.0  0.1055
  H  H22  1  0.860800  0.625900  0.943800  1.0  0.0949
  H  H23  1  0.772600  0.706000  0.847200  1.0  0.0908
  H  H24  1  0.696600  0.892600  0.324000  1.0  0.0821
  H  H25  1  0.452000  0.930300  0.583600  1.0  0.1059
  H  H26  1  0.519300  0.945500  0.591400  1.0  0.0818
  H  H27  1  0.460200  0.934200  0.654600  1.0  0.088
  H  H28  1  0.278200  0.310900  0.490600  1.0  0.0526
  H  H29  1  0.338200  0.311500  0.427400  1.0  0.0561
  H  H30  1  0.147700  0.540600  0.291200  1.0  0.0984
  H  H31  1  0.243700  0.410500  0.333800  1.0  0.0605
  H  H32  1  0.181700  0.414100  0.394800  1.0  0.0601
  H  H33  1  0.981700  0.564100  0.152600  1.0  0.1085
  H  H34  1  0.661800  0.130500  0.619400  1.0  0.2114
  H  H35  1  0.730500  0.203400  0.507400  1.0  0.1225
  H  H36  1  0.024000  0.353000  0.211800  1.0  0.1422
  H  H37  1  0.964700  0.434300  0.215600  1.0  0.117
  H  H38  1  0.019600  0.438800  0.148600  1.0  0.1128
  H  H39  1  0.144000  0.995300  0.902400  1.0  0.0851
  H  H40  1  0.981100  0.329900  0.664400  1.0  0.0967
  H  H41  1  0.431900  0.121600  0.210600  1.0  0.0919
  H  H42  1  0.064100  0.819800  0.023400  1.0  0.103
  H  H43  1  0.031300  0.090400  0.847000  1.0  0.1134
  H  H44  1  0.862000  0.775900  0.215400  1.0  0.098
  H  H45  1  0.035800  0.135700  0.627800  1.0  0.1111
  H  H46  1  0.160800  0.868400  0.982200  1.0  0.0774
  H  H47  1  0.123700  0.172800  0.542800  1.0  0.1038
  H  H48  1  0.609700  0.317100  0.992600  1.0  0.0977
  H  H49  1  0.793100  0.344900  0.809200  1.0  0.1032
  H  H50  1  0.639200  0.430300  0.943800  1.0  0.0949
  H  H51  1  0.727400  0.446800  0.847200  1.0  0.0908
  H  H52  1  0.803400  0.783400  0.324000  1.0  0.0815
  H  H53  1  0.048000  0.486100  0.583600  1.0  0.1057
  H  H54  1  0.980700  0.463100  0.591400  1.0  0.0819
  H  H55  1  0.039800  0.411200  0.654600  1.0  0.0875
  H  H56  1  0.221800  0.198500  0.490600  1.0  0.0545
  H  H57  1  0.161800  0.261100  0.427400  1.0  0.0543
  H  H58  1  0.352300  0.168200  0.291200  1.0  0.0977
  H  H59  1  0.256300  0.255700  0.333800  1.0  0.0624
  H  H60  1  0.318300  0.191100  0.394800  1.0  0.0595
  H  H61  1  0.518300  0.283300  0.152600  1.0  0.1093
  H  H62  1  0.838200  0.250100  0.619400  1.0  0.2133
  H  H63  1  0.769500  0.289200  0.507400  1.0  0.1234
  H  H64  1  0.476000  0.435200  0.211800  1.0  0.1414
  H  H65  1  0.535300  0.350100  0.215600  1.0  0.1192
  H  H66  1  0.480400  0.412600  0.148600  1.0  0.1163
  H  H67  1  0.644000  0.897700  0.097600  1.0  0.0813
  H  H68  1  0.481100  0.994300  0.335600  1.0  0.099
  H  H69  1  0.931900  0.332200  0.789400  1.0  0.0923
  H  H70  1  0.564100  0.843200  0.976600  1.0  0.1032
  H  H71  1  0.531300  0.937400  0.153000  1.0  0.1119
  H  H72  1  0.362000  0.991300  0.784600  1.0  0.1001
  H  H73  1  0.535800  0.763500  0.372200  1.0  0.1112
  H  H74  1  0.660800  0.850600  0.017800  1.0  0.0777
  H  H75  1  0.623700  0.715600  0.457200  1.0  0.1039
  H  H76  1  0.109700  0.309700  0.007400  1.0  0.0977
  H  H77  1  0.293100  0.154100  0.190800  1.0  0.1057
  H  H78  1  0.139200  0.374100  0.056200  1.0  0.0951
  H  H79  1  0.227400  0.294000  0.152800  1.0  0.0906
  H  H80  1  0.303400  0.107400  0.676000  1.0  0.0823
  H  H81  1  0.548000  0.069700  0.416400  1.0  0.106
  H  H82  1  0.480700  0.054500  0.408600  1.0  0.0808
  H  H83  1  0.539800  0.065800  0.345400  1.0  0.0888
  H  H84  1  0.721800  0.689100  0.509400  1.0  0.0535
  H  H85  1  0.661800  0.688500  0.572600  1.0  0.0587
  H  H86  1  0.852300  0.459400  0.708800  1.0  0.0974
  H  H87  1  0.756300  0.589500  0.666200  1.0  0.0619
  H  H88  1  0.818300  0.585900  0.605200  1.0  0.0607
  H  H89  1  0.018300  0.435900  0.847400  1.0  0.1082
  H  H90  1  0.338200  0.869500  0.380600  1.0  0.2124
  H  H91  1  0.269500  0.796600  0.492600  1.0  0.1246
  H  H92  1  0.976000  0.647000  0.788200  1.0  0.1413
  H  H93  1  0.035300  0.565700  0.784400  1.0  0.1182
  H  H94  1  0.980400  0.561200  0.851400  1.0  0.1144
  H  H95  1  0.856000  0.004700  0.097600  1.0  0.0838
  H  H96  1  0.018900  0.670100  0.335600  1.0  0.0983
  H  H97  1  0.568100  0.878400  0.789400  1.0  0.0918
  H  H98  1  0.935900  0.180200  0.976600  1.0  0.1023
  H  H99  1  0.968700  0.909600  0.153000  1.0  0.1127
  H  H100  1  0.138000  0.224100  0.784600  1.0  0.0985
  H  H101  1  0.964200  0.864300  0.372200  1.0  0.1115
  H  H102  1  0.839200  0.131600  0.017800  1.0  0.0778
  H  H103  1  0.876300  0.827200  0.457200  1.0  0.1047
  H  H104  1  0.390300  0.682900  0.007400  1.0  0.0976
  H  H105  1  0.206900  0.655100  0.190800  1.0  0.105
  H  H106  1  0.360800  0.569700  0.056200  1.0  0.0947
  H  H107  1  0.272600  0.553200  0.152800  1.0  0.0912
  H  H108  1  0.196600  0.216600  0.676000  1.0  0.081
  H  H109  1  0.952000  0.513900  0.416400  1.0  0.1064
  H  H110  1  0.019300  0.536900  0.408600  1.0  0.0827
  H  H111  1  0.960200  0.588800  0.345400  1.0  0.0884
  H  H112  1  0.778200  0.801500  0.509400  1.0  0.0539
  H  H113  1  0.838200  0.738900  0.572600  1.0  0.0557
  H  H114  1  0.647700  0.831800  0.708800  1.0  0.0988
  H  H115  1  0.743700  0.744300  0.666200  1.0  0.0608
  H  H116  1  0.681700  0.808900  0.605200  1.0  0.0605
  H  H117  1  0.481700  0.716700  0.847400  1.0  0.1082
  H  H118  1  0.161800  0.749900  0.380600  1.0  0.2139
  H  H119  1  0.230500  0.710800  0.492600  1.0  0.1253
  H  H120  1  0.524000  0.564800  0.788200  1.0  0.1413
  H  H121  1  0.464700  0.649900  0.784400  1.0  0.1193
  H  H122  1  0.519600  0.587400  0.851400  1.0  0.115
  C  C123  1  0.396400  0.105100  0.914400  1.0  -0.0778
  C  C124  1  0.512200  0.113000  0.954800  1.0  0.1617
  C  C125  1  0.522200  0.084400  0.903200  1.0  0.1028
  C  C126  1  0.490400  0.061970  0.639460  1.0  -0.2417
  C  C127  1  0.067000  0.620370  0.215260  1.0  -0.0915
  C  C128  1  0.443800  0.138200  0.988400  1.0  -0.0979
  C  C129  1  0.719200  0.958960  0.151280  1.0  0.0879
  C  C130  1  0.462600  0.080800  0.882000  1.0  -0.1307
  C  C131  1  0.811800  0.802300  0.936200  1.0  0.1903
  C  C132  1  0.499300  0.117500  0.653400  1.0  -0.1522
  C  C133  1  0.438500  0.091330  0.587940  1.0  0.1879
  C  C134  1  0.681500  0.964210  0.215380  1.0  -0.0871
  C  C135  1  0.457700  0.199750  0.617900  1.0  -0.0959
  C  C136  1  0.386900  0.132500  0.962800  1.0  -0.0731
  C  C137  1  0.405500  0.228130  0.566540  1.0  -0.1743
  C  C138  1  0.759200  0.848800  0.879200  1.0  0.1632
  C  C139  1  0.852500  0.720200  0.957800  1.0  -0.1434
  C  C140  1  0.742800  0.814500  0.846000  1.0  -0.159
  C  C141  1  0.836500  0.682700  0.927200  1.0  -0.0958
  C  C142  1  0.781600  0.731600  0.869200  1.0  -0.0972
  C  C143  1  0.717200  0.894400  0.279000  1.0  -0.127
  C  C144  1  0.467400  0.956100  0.602400  1.0  -0.0354
  C  C145  1  0.964600  0.709000  0.121200  1.0  0.5871
  C  C146  1  0.304800  0.285410  0.458180  1.0  0.076
  C  C147  1  0.395700  0.176010  0.549580  1.0  0.2233
  C  C148  1  0.114600  0.544190  0.263420  1.0  -0.1965
  C  C149  1  0.208700  0.386490  0.364020  1.0  0.0794
  C  C150  1  0.114000  0.474230  0.271140  1.0  0.2578
  C  C151  1  0.553300  0.089600  0.711600  1.0  0.6522
  C  C152  1  0.018300  0.626750  0.174300  1.0  -0.1268
  C  C153  1  0.015500  0.559400  0.180600  1.0  -0.1068
  C  C154  1  0.064600  0.480700  0.230200  1.0  0.2032
  C  C155  1  0.729100  0.138500  0.687400  1.0  0.0929
  C  C156  1  0.695700  0.150000  0.619600  1.0  -0.0401
  C  C157  1  0.732700  0.202300  0.552000  1.0  -0.0962
  C  C158  1  0.014500  0.408200  0.200600  1.0  -0.1216
  C  C159  1  0.103600  0.980500  0.914400  1.0  -0.0811
  C  C160  1  0.987800  0.932200  0.954800  1.0  0.1598
  C  C161  1  0.977800  0.012400  0.903200  1.0  0.1033
  C  C162  1  0.009600  0.298570  0.639460  1.0  -0.2395
  C  C163  1  0.433000  0.164370  0.215260  1.0  -0.0885
  C  C164  1  0.056200  0.873400  0.988400  1.0  -0.097
  C  C165  1  0.780800  0.889760  0.151280  1.0  0.0874
  C  C166  1  0.037400  0.037200  0.882000  1.0  -0.1315
  C  C167  1  0.688200  0.261500  0.936200  1.0  0.1894
  C  C168  1  0.000700  0.229100  0.653400  1.0  -0.1525
  C  C169  1  0.061500  0.320730  0.587940  1.0  0.1852
  C  C170  1  0.818500  0.820410  0.215380  1.0  -0.0856
  C  C171  1  0.042300  0.182350  0.617900  1.0  -0.0936
  C  C172  1  0.113100  0.904700  0.962800  1.0  -0.0778
  C  C173  1  0.094500  0.205330  0.566540  1.0  -0.173
  C  C174  1  0.740800  0.272000  0.879200  1.0  0.1621
  C  C175  1  0.647500  0.322000  0.957800  1.0  -0.1462
  C  C176  1  0.757200  0.339500  0.846000  1.0  -0.1572
  C  C177  1  0.663500  0.390100  0.927200  1.0  -0.1022
  C  C178  1  0.718400  0.399200  0.869200  1.0  -0.0933
  C  C179  1  0.782800  0.826600  0.279000  1.0  -0.128
  C  C180  1  0.032600  0.441500  0.602400  1.0  -0.0328
  C  C181  1  0.535400  0.169800  0.121200  1.0  0.5854
  C  C182  1  0.195200  0.256410  0.458180  1.0  0.0751
  C  C183  1  0.104300  0.274410  0.549580  1.0  0.2228
  C  C184  1  0.385400  0.192390  0.263420  1.0  -0.1956
  C  C185  1  0.291300  0.249490  0.364020  1.0  0.0777
  C  C186  1  0.386000  0.254630  0.271140  1.0  0.2584
  C  C187  1  0.946700  0.198800  0.711600  1.0  0.6523
  C  C188  1  0.481700  0.198950  0.174300  1.0  -0.1262
  C  C189  1  0.484500  0.260000  0.180600  1.0  -0.11
  C  C190  1  0.435400  0.289100  0.230200  1.0  0.2039
  C  C191  1  0.770900  0.174100  0.687400  1.0  0.0929
  C  C192  1  0.804300  0.230400  0.619600  1.0  -0.039
  C  C193  1  0.767300  0.245700  0.552000  1.0  -0.0968
  C  C194  1  0.485500  0.391200  0.200600  1.0  -0.1237
  C  C195  1  0.250000  0.294450  0.411100  1.0  -0.0354
  C  C196  1  0.603600  0.894900  0.085600  1.0  -0.078
  C  C197  1  0.487800  0.887000  0.045200  1.0  0.1616
  C  C198  1  0.477800  0.915600  0.096800  1.0  0.1028
  C  C199  1  0.509600  0.938030  0.360540  1.0  -0.2402
  C  C200  1  0.933000  0.379630  0.784740  1.0  -0.0921
  C  C201  1  0.556200  0.861800  0.011600  1.0  -0.0922
  C  C202  1  0.280800  0.041040  0.848720  1.0  0.0879
  C  C203  1  0.537400  0.919200  0.118000  1.0  -0.1316
  C  C204  1  0.188200  0.197700  0.063800  1.0  0.1917
  C  C205  1  0.500700  0.882500  0.346600  1.0  -0.1523
  C  C206  1  0.561500  0.908670  0.412060  1.0  0.1866
  C  C207  1  0.318500  0.035790  0.784620  1.0  -0.0859
  C  C208  1  0.542300  0.800250  0.382100  1.0  -0.0966
  C  C209  1  0.613100  0.867500  0.037200  1.0  -0.0734
  C  C210  1  0.594500  0.771870  0.433460  1.0  -0.1739
  C  C211  1  0.240800  0.151200  0.120800  1.0  0.1616
  C  C212  1  0.147500  0.279800  0.042200  1.0  -0.1435
  C  C213  1  0.257200  0.185500  0.154000  1.0  -0.1583
  C  C214  1  0.163500  0.317300  0.072800  1.0  -0.0949
  C  C215  1  0.218400  0.268400  0.130800  1.0  -0.0966
  C  C216  1  0.282800  0.105600  0.721000  1.0  -0.1278
  C  C217  1  0.532600  0.043900  0.397600  1.0  -0.0359
  C  C218  1  0.035400  0.291000  0.878800  1.0  0.5866
  C  C219  1  0.695200  0.714590  0.541820  1.0  0.0749
  C  C220  1  0.604300  0.823990  0.450420  1.0  0.2239
  C  C221  1  0.885400  0.455810  0.736580  1.0  -0.1951
  C  C222  1  0.791300  0.613510  0.635980  1.0  0.0793
  C  C223  1  0.886000  0.525770  0.728860  1.0  0.2568
  C  C224  1  0.446700  0.910400  0.288400  1.0  0.6528
  C  C225  1  0.981700  0.373250  0.825700  1.0  -0.125
  C  C226  1  0.984500  0.440600  0.819400  1.0  -0.1085
  C  C227  1  0.935400  0.519300  0.769800  1.0  0.2039
  C  C228  1  0.270900  0.861500  0.312600  1.0  0.0929
  C  C229  1  0.304300  0.850000  0.380400  1.0  -0.0389
  C  C230  1  0.267300  0.797700  0.448000  1.0  -0.0935
  C  C231  1  0.985500  0.591800  0.799400  1.0  -0.1223
  C  C232  1  0.896400  0.019500  0.085600  1.0  -0.0836
  C  C233  1  0.012200  0.067800  0.045200  1.0  0.1616
  C  C234  1  0.022200  0.987600  0.096800  1.0  0.1026
  C  C235  1  0.990400  0.701430  0.360540  1.0  -0.2381
  C  C236  1  0.567000  0.835630  0.784740  1.0  -0.0891
  C  C237  1  0.943800  0.126600  0.011600  1.0  -0.0985
  C  C238  1  0.219200  0.110240  0.848720  1.0  0.0876
  C  C239  1  0.962600  0.962800  0.118000  1.0  -0.1304
  C  C240  1  0.311800  0.738500  0.063800  1.0  0.1898
  C  C241  1  0.999300  0.770900  0.346600  1.0  -0.1511
  C  C242  1  0.938500  0.679270  0.412060  1.0  0.1861
  C  C243  1  0.181500  0.179590  0.784620  1.0  -0.0875
  C  C244  1  0.957700  0.817650  0.382100  1.0  -0.0918
  C  C245  1  0.886900  0.095300  0.037200  1.0  -0.0767
  C  C246  1  0.905500  0.794670  0.433460  1.0  -0.1743
  C  C247  1  0.259200  0.728000  0.120800  1.0  0.1607
  C  C248  1  0.352500  0.678000  0.042200  1.0  -0.1442
  C  C249  1  0.242800  0.660500  0.154000  1.0  -0.1566
  C  C250  1  0.336500  0.609900  0.072800  1.0  -0.1002
  C  C251  1  0.281600  0.600800  0.130800  1.0  -0.0944
  C  C252  1  0.217200  0.173400  0.721000  1.0  -0.1287
  C  C253  1  0.967400  0.558500  0.397600  1.0  -0.0328
  C  C254  1  0.464600  0.830200  0.878800  1.0  0.5862
  C  C255  1  0.804800  0.743590  0.541820  1.0  0.0776
  C  C256  1  0.895700  0.725590  0.450420  1.0  0.2226
  C  C257  1  0.614600  0.807610  0.736580  1.0  -0.1969
  C  C258  1  0.708700  0.750510  0.635980  1.0  0.078
  C  C259  1  0.614000  0.745370  0.728860  1.0  0.2574
  C  C260  1  0.053300  0.801200  0.288400  1.0  0.6523
  C  C261  1  0.518300  0.801050  0.825700  1.0  -0.1261
  C  C262  1  0.515500  0.740000  0.819400  1.0  -0.1081
  C  C263  1  0.564600  0.710900  0.769800  1.0  0.2028
  C  C264  1  0.229100  0.825900  0.312600  1.0  0.0911
  C  C265  1  0.195700  0.769600  0.380400  1.0  -0.0401
  C  C266  1  0.232700  0.754300  0.448000  1.0  -0.0926
  C  C267  1  0.514500  0.608800  0.799400  1.0  -0.1222
  C  C268  1  0.750000  0.705550  0.588900  1.0  -0.0349
  N  N269  1  0.628900  0.078170  0.918860  1.0  -0.1216
  N  N270  1  0.815600  0.854450  0.956100  1.0  -0.3226
  N  N271  1  0.765700  0.929620  0.913760  1.0  -0.0389
  N  N272  1  0.595300  0.063740  0.881920  1.0  -0.3072
  N  N273  1  0.581100  0.108790  0.964220  1.0  -0.3032
  N  N274  1  0.702800  0.014950  0.077700  1.0  -0.2711
  N  N275  1  0.732000  0.926390  0.867820  1.0  -0.2142
  N  N276  1  0.712600  0.094500  0.755600  1.0  -0.2853
  N  N277  1  0.871100  0.002970  0.918860  1.0  -0.1201
  N  N278  1  0.684400  0.189450  0.956100  1.0  -0.3216
  N  N279  1  0.734300  0.156620  0.913760  1.0  -0.0378
  N  N280  1  0.904700  0.054340  0.881920  1.0  -0.3083
  N  N281  1  0.918900  0.926990  0.964220  1.0  -0.3048
  N  N282  1  0.797200  0.907350  0.077700  1.0  -0.2711
  N  N283  1  0.768000  0.205790  0.867820  1.0  -0.2166
  N  N284  1  0.787400  0.149900  0.755600  1.0  -0.2838
  N  N285  1  0.750000  0.982130  0.035740  1.0  -0.1049
  N  N286  1  0.750000  0.101770  0.796460  1.0  -0.153
  N  N287  1  0.371100  0.921830  0.081140  1.0  -0.1222
  N  N288  1  0.184400  0.145550  0.043900  1.0  -0.3192
  N  N289  1  0.234300  0.070380  0.086240  1.0  -0.0387
  N  N290  1  0.404700  0.936260  0.118080  1.0  -0.3064
  N  N291  1  0.418900  0.891210  0.035780  1.0  -0.3022
  N  N292  1  0.297200  0.985050  0.922300  1.0  -0.2711
  N  N293  1  0.268000  0.073610  0.132180  1.0  -0.2141
  N  N294  1  0.287400  0.905500  0.244400  1.0  -0.2832
  N  N295  1  0.128900  0.997030  0.081140  1.0  -0.1207
  N  N296  1  0.315600  0.810550  0.043900  1.0  -0.3233
  N  N297  1  0.265700  0.843380  0.086240  1.0  -0.0389
  N  N298  1  0.095300  0.945660  0.118080  1.0  -0.3074
  N  N299  1  0.081100  0.073010  0.035780  1.0  -0.3033
  N  N300  1  0.202800  0.092650  0.922300  1.0  -0.2727
  N  N301  1  0.232000  0.794210  0.132180  1.0  -0.2152
  N  N302  1  0.212600  0.850100  0.244400  1.0  -0.2861
  N  N303  1  0.250000  0.017870  0.964260  1.0  -0.1063
  N  N304  1  0.250000  0.898230  0.203540  1.0  -0.1529
  O  O305  1  0.595600  0.015480  0.743440  1.0  -0.5892
  O  O306  1  0.921400  0.716370  0.084860  1.0  -0.5759
  O  O307  1  0.556600  0.141700  0.723800  1.0  -0.5605
  O  O308  1  0.424000  0.042650  0.569100  1.0  -0.2716
  O  O309  1  0.157750  0.395580  0.318640  1.0  -0.2615
  O  O310  1  0.346100  0.198510  0.500180  1.0  -0.2764
  O  O311  1  0.965900  0.771710  0.113580  1.0  -0.5893
  O  O312  1  0.069500  0.406380  0.240440  1.0  -0.3069
  O  O313  1  0.904400  0.241080  0.743440  1.0  -0.5886
  O  O314  1  0.578600  0.198770  0.084860  1.0  -0.5764
  O  O315  1  0.943400  0.134500  0.723800  1.0  -0.5587
  O  O316  1  0.076000  0.388250  0.569100  1.0  -0.2708
  O  O317  1  0.342250  0.285780  0.318640  1.0  -0.2621
  O  O318  1  0.153900  0.301310  0.500180  1.0  -0.2766
  O  O319  1  0.534100  0.114710  0.113580  1.0  -0.5864
  O  O320  1  0.430500  0.353180  0.240440  1.0  -0.3027
  O  O321  1  0.404400  0.984520  0.256560  1.0  -0.5895
  O  O322  1  0.078600  0.283630  0.915140  1.0  -0.5758
  O  O323  1  0.443400  0.858300  0.276200  1.0  -0.5605
  O  O324  1  0.576000  0.957350  0.430900  1.0  -0.2717
  O  O325  1  0.842250  0.604420  0.681360  1.0  -0.2628
  O  O326  1  0.653900  0.801490  0.499820  1.0  -0.2753
  O  O327  1  0.034100  0.228290  0.886420  1.0  -0.5883
  O  O328  1  0.930500  0.593620  0.759560  1.0  -0.3066
  O  O329  1  0.095600  0.758920  0.256560  1.0  -0.5889
  O  O330  1  0.421400  0.801230  0.915140  1.0  -0.5765
  O  O331  1  0.056600  0.865500  0.276200  1.0  -0.5588
  O  O332  1  0.924000  0.611750  0.430900  1.0  -0.2737
  O  O333  1  0.657750  0.714220  0.681360  1.0  -0.2619
  O  O334  1  0.846100  0.698690  0.499820  1.0  -0.2768
  O  O335  1  0.465900  0.885290  0.886420  1.0  -0.5861
  O  O336  1  0.569500  0.646820  0.759560  1.0  -0.3061
