# generated using pymatgen
data_Zn5H60C75(N3O2)6
_symmetry_space_group_name_H-M   'P 1'
_cell_length_a   19.56200000
_cell_length_b   20.85000000
_cell_length_c   23.57300000
_cell_angle_alpha   115.32100000
_cell_angle_beta   112.65400000
_cell_angle_gamma   92.84900000
_symmetry_Int_Tables_number   1
_chemical_formula_structural   Zn5H60C75(N3O2)6
_chemical_formula_sum   'Zn10 H120 C150 N36 O24'
_cell_volume   7750.89706004
_cell_formula_units_Z   2
loop_
 _symmetry_equiv_pos_site_id
 _symmetry_equiv_pos_as_xyz
  1  'x, y, z'
loop_
 _atom_site_type_symbol
 _atom_site_label
 _atom_site_symmetry_multiplicity
 _atom_site_fract_x
 _atom_site_fract_y
 _atom_site_fract_z
 _atom_site_occupancy
 _atom_site_charge
  Zn  Zn1  1  0.219200  0.585800  0.418200  1.0  0.7588
  Zn  Zn2  1  0.015100  0.527400  0.319700  1.0  0.9581
  Zn  Zn3  1  0.281300  0.509500  0.533200  1.0  0.8839
  Zn  Zn4  1  0.300900  0.523600  0.298600  1.0  0.9047
  Zn  Zn5  1  0.281600  0.785700  0.519700  1.0  0.8636
  Zn  Zn6  1  0.780800  0.414200  0.581800  1.0  0.7565
  Zn  Zn7  1  0.984900  0.472600  0.680300  1.0  0.9591
  Zn  Zn8  1  0.718700  0.490500  0.466800  1.0  0.8833
  Zn  Zn9  1  0.699100  0.476400  0.701400  1.0  0.9088
  Zn  Zn10  1  0.718400  0.214300  0.480300  1.0  0.862
  H  H11  1  0.926300  0.664700  0.364700  1.0  0.0992
  H  H12  1  0.911400  0.781700  0.420100  1.0  0.1095
  H  H13  1  0.140200  0.862700  0.521500  1.0  0.1074
  H  H14  1  0.062700  0.945400  0.530200  1.0  0.1253
  H  H15  1  0.990100  0.916600  0.457900  1.0  0.1082
  H  H16  1  0.981500  0.917900  0.521800  1.0  0.137
  H  H17  1  0.943800  0.425600  0.144000  1.0  0.0962
  H  H18  1  0.943500  0.355000  0.036500  1.0  0.1093
  H  H19  1  0.173600  0.419200  0.129700  1.0  0.1012
  H  H20  1  0.413200  0.862100  0.492500  1.0  0.1077
  H  H21  1  0.495500  0.874500  0.446400  1.0  0.1042
  H  H22  1  0.427900  0.656800  0.316000  1.0  0.1111
  H  H23  1  0.550900  0.824500  0.370700  1.0  0.118
  H  H24  1  0.562100  0.746700  0.359100  1.0  0.1202
  H  H25  1  0.497800  0.754400  0.298900  1.0  0.1303
  H  H26  1  0.410400  0.405000  0.512000  1.0  0.1081
  H  H27  1  0.505800  0.363500  0.380600  1.0  0.0992
  H  H28  1  0.431800  0.426600  0.331300  1.0  0.0978
  H  H29  1  0.510800  0.337000  0.518000  1.0  0.1237
  H  H30  1  0.507300  0.288700  0.444100  1.0  0.1165
  H  H31  1  0.570500  0.363000  0.498100  1.0  0.1086
  H  H32  1  0.385800  0.850800  0.682600  1.0  0.0922
  H  H33  1  0.468700  0.863000  0.790400  1.0  0.116
  H  H34  1  0.412200  0.643800  0.708700  1.0  0.1113
  H  H35  1  0.325800  0.509200  0.094000  1.0  0.1124
  H  H36  1  0.374700  0.460300  0.013900  1.0  0.1162
  H  H37  1  0.440400  0.320700  0.080800  1.0  0.1168
  H  H38  1  0.388400  0.368300  0.163000  1.0  0.1193
  H  H39  1  0.376700  0.366700  0.913500  1.0  0.0778
  H  H40  1  0.454700  0.425400  0.972100  1.0  0.0789
  H  H41  1  0.474900  0.466200  0.713400  1.0  0.0533
  H  H42  1  0.505300  0.428100  0.794900  1.0  0.1017
  H  H43  1  0.279400  0.350000  0.724900  1.0  0.1313
  H  H44  1  0.255000  0.403100  0.649900  1.0  0.0937
  H  H45  1  0.791100  0.558200  0.200600  1.0  0.1085
  H  H46  1  0.674500  0.528800  0.104900  1.0  0.106
  H  H47  1  0.676000  0.315900  0.024800  1.0  0.1132
  H  H48  1  0.792600  0.345300  0.120500  1.0  0.1072
  H  H49  1  0.580900  0.312400  0.925200  1.0  0.0733
  H  H50  1  0.550600  0.305900  0.975800  1.0  0.0672
  H  H51  1  0.506100  0.340000  0.832700  1.0  0.0687
  H  H52  1  0.507200  0.416400  0.889500  1.0  0.072
  H  H53  1  0.373700  0.247800  0.825000  1.0  0.0636
  H  H54  1  0.420100  0.230000  0.885500  1.0  0.0678
  H  H55  1  0.465700  0.007500  0.659600  1.0  0.1023
  H  H56  1  0.516000  0.130300  0.744600  1.0  0.1186
  H  H57  1  0.334800  0.124200  0.785100  1.0  0.108
  H  H58  1  0.284600  0.001400  0.700100  1.0  0.1066
  H  H59  1  0.135800  0.408800  0.534100  1.0  0.1078
  H  H60  1  0.013200  0.353600  0.506700  1.0  0.0936
  H  H61  1  0.923800  0.425600  0.367400  1.0  0.1116
  H  H62  1  0.840300  0.353200  0.384100  1.0  0.1265
  H  H63  1  0.876000  0.294800  0.402300  1.0  0.123
  H  H64  1  0.873600  0.366500  0.461400  1.0  0.1208
  H  H65  1  0.524200  0.813700  0.860700  1.0  0.12
  H  H66  1  0.469100  0.744400  0.844800  1.0  0.1046
  H  H67  1  0.536200  0.735400  0.823600  1.0  0.1151
  H  H68  1  0.109900  0.338500  0.009500  1.0  0.1143
  H  H69  1  0.037300  0.281800  0.988700  1.0  0.1215
  H  H70  1  0.027700  0.345200  0.969500  1.0  0.1223
  H  H71  1  0.073700  0.335300  0.635300  1.0  0.099
  H  H72  1  0.088600  0.218300  0.579900  1.0  0.1088
  H  H73  1  0.859800  0.137300  0.478500  1.0  0.1064
  H  H74  1  0.937300  0.054600  0.469800  1.0  0.1231
  H  H75  1  0.009900  0.083400  0.542100  1.0  0.1076
  H  H76  1  0.018500  0.082100  0.478200  1.0  0.1376
  H  H77  1  0.056200  0.574400  0.856000  1.0  0.0962
  H  H78  1  0.056500  0.645000  0.963500  1.0  0.1093
  H  H79  1  0.826400  0.580800  0.870300  1.0  0.1008
  H  H80  1  0.586800  0.137900  0.507500  1.0  0.1086
  H  H81  1  0.504500  0.125500  0.553600  1.0  0.1041
  H  H82  1  0.572100  0.343200  0.684000  1.0  0.1111
  H  H83  1  0.449100  0.175500  0.629300  1.0  0.1176
  H  H84  1  0.437900  0.253300  0.640900  1.0  0.1216
  H  H85  1  0.502200  0.245600  0.701100  1.0  0.1301
  H  H86  1  0.589600  0.595000  0.488000  1.0  0.1074
  H  H87  1  0.494200  0.636500  0.619400  1.0  0.0997
  H  H88  1  0.568200  0.573400  0.668700  1.0  0.0972
  H  H89  1  0.489200  0.663000  0.482000  1.0  0.1229
  H  H90  1  0.492700  0.711300  0.555900  1.0  0.1183
  H  H91  1  0.429500  0.637000  0.501900  1.0  0.1086
  H  H92  1  0.614200  0.149200  0.317400  1.0  0.0921
  H  H93  1  0.531300  0.137000  0.209600  1.0  0.1161
  H  H94  1  0.587800  0.356200  0.291300  1.0  0.1112
  H  H95  1  0.674200  0.490800  0.906000  1.0  0.112
  H  H96  1  0.625300  0.539700  0.986100  1.0  0.1161
  H  H97  1  0.559600  0.679300  0.919200  1.0  0.1147
  H  H98  1  0.611600  0.631700  0.837000  1.0  0.1186
  H  H99  1  0.623300  0.633300  0.086500  1.0  0.0793
  H  H100  1  0.545300  0.574600  0.027900  1.0  0.0772
  H  H101  1  0.525100  0.533800  0.286600  1.0  0.0538
  H  H102  1  0.494700  0.571900  0.205100  1.0  0.1001
  H  H103  1  0.720600  0.650000  0.275100  1.0  0.1322
  H  H104  1  0.745000  0.596900  0.350100  1.0  0.0934
  H  H105  1  0.208900  0.441800  0.799400  1.0  0.1085
  H  H106  1  0.325500  0.471200  0.895100  1.0  0.1056
  H  H107  1  0.324000  0.684100  0.975200  1.0  0.1128
  H  H108  1  0.207400  0.654700  0.879500  1.0  0.1073
  H  H109  1  0.419100  0.687600  0.074800  1.0  0.0733
  H  H110  1  0.449400  0.694100  0.024200  1.0  0.0683
  H  H111  1  0.493900  0.660000  0.167300  1.0  0.0684
  H  H112  1  0.492800  0.583600  0.110500  1.0  0.0723
  H  H113  1  0.626300  0.752200  0.175000  1.0  0.0643
  H  H114  1  0.579900  0.770000  0.114500  1.0  0.0687
  H  H115  1  0.534300  0.992500  0.340400  1.0  0.1024
  H  H116  1  0.484000  0.869700  0.255400  1.0  0.1184
  H  H117  1  0.665200  0.875800  0.214900  1.0  0.1084
  H  H118  1  0.715400  0.998600  0.299900  1.0  0.1063
  H  H119  1  0.864200  0.591200  0.465900  1.0  0.1076
  H  H120  1  0.986800  0.646400  0.493300  1.0  0.094
  H  H121  1  0.076200  0.574400  0.632600  1.0  0.1117
  H  H122  1  0.159700  0.646800  0.615900  1.0  0.1272
  H  H123  1  0.124000  0.705200  0.597700  1.0  0.1223
  H  H124  1  0.126400  0.633500  0.538600  1.0  0.1202
  H  H125  1  0.475800  0.186300  0.139300  1.0  0.119
  H  H126  1  0.530900  0.255600  0.155200  1.0  0.105
  H  H127  1  0.463800  0.264600  0.176400  1.0  0.1177
  H  H128  1  0.890100  0.661500  0.990500  1.0  0.1191
  H  H129  1  0.962700  0.718200  0.011300  1.0  0.1213
  H  H130  1  0.972300  0.654800  0.030500  1.0  0.1228
  C  C131  1  0.106200  0.753000  0.456800  1.0  0.1972
  C  C132  1  0.042000  0.693500  0.409900  1.0  0.1391
  C  C133  1  0.969000  0.704000  0.396000  1.0  -0.065
  C  C134  1  0.960200  0.774000  0.429000  1.0  -0.1235
  C  C135  1  0.024000  0.833800  0.476000  1.0  0.0726
  C  C136  1  0.097000  0.823000  0.490100  1.0  -0.1314
  C  C137  1  0.014000  0.910000  0.499000  1.0  -0.3982
  C  C138  1  0.128000  0.463000  0.197000  1.0  0.1279
  C  C139  1  0.059000  0.465000  0.201000  1.0  0.1389
  C  C140  1  0.990000  0.424000  0.141000  1.0  -0.154
  C  C141  1  0.990000  0.382000  0.077000  1.0  -0.1517
  C  C142  1  0.059000  0.380000  0.072000  1.0  0.077
  C  C143  1  0.128000  0.420000  0.133000  1.0  -0.0863
  C  C144  1  0.376000  0.690000  0.379000  1.0  0.1672
  C  C145  1  0.371000  0.752000  0.432000  1.0  0.1452
  C  C146  1  0.416000  0.821000  0.457000  1.0  -0.0944
  C  C147  1  0.465000  0.828000  0.430000  1.0  -0.1228
  C  C148  1  0.470000  0.767000  0.377000  1.0  0.0974
  C  C149  1  0.425000  0.698000  0.351000  1.0  -0.057
  C  C150  1  0.525000  0.774000  0.349000  1.0  -0.4208
  C  C151  1  0.377000  0.453600  0.392000  1.0  0.164
  C  C152  1  0.370300  0.447200  0.446200  1.0  0.1351
  C  C153  1  0.415000  0.409000  0.475800  1.0  -0.0511
  C  C154  1  0.465000  0.378000  0.451000  1.0  0.12
  C  C155  1  0.472000  0.384000  0.397000  1.0  -0.1687
  C  C156  1  0.428000  0.422000  0.367500  1.0  -0.0939
  C  C157  1  0.518000  0.338000  0.481000  1.0  -0.2892
  C  C158  1  0.349000  0.740000  0.631100  1.0  0.1468
  C  C159  1  0.391000  0.809000  0.688000  1.0  -0.1146
  C  C160  1  0.441000  0.817000  0.752000  1.0  -0.2003
  C  C161  1  0.449000  0.755000  0.760200  1.0  0.0978
  C  C162  1  0.407000  0.685000  0.703500  1.0  -0.0719
  C  C163  1  0.357000  0.678000  0.638900  1.0  0.0398
  C  C164  1  0.341000  0.481000  0.196000  1.0  0.5822
  C  C165  1  0.360000  0.448000  0.140000  1.0  0.0657
  C  C166  1  0.351000  0.472000  0.093000  1.0  -0.1061
  C  C167  1  0.377000  0.442000  0.044000  1.0  -0.2065
  C  C168  1  0.407000  0.385000  0.040000  1.0  0.3553
  C  C169  1  0.416000  0.358000  0.083000  1.0  -0.1421
  C  C170  1  0.388000  0.389000  0.135000  1.0  -0.1083
  C  C171  1  0.429000  0.373000  0.945000  1.0  0.0313
  C  C172  1  0.341000  0.468000  0.623000  1.0  0.6416
  C  C173  1  0.364000  0.439000  0.674000  1.0  -0.1676
  C  C174  1  0.435000  0.445000  0.717000  1.0  -0.0303
  C  C175  1  0.454000  0.422000  0.765000  1.0  -0.2356
  C  C176  1  0.394000  0.389000  0.768000  1.0  0.2889
  C  C177  1  0.319000  0.376000  0.725000  1.0  -0.1248
  C  C178  1  0.305000  0.406000  0.678000  1.0  -0.0087
  C  C179  1  0.803400  0.454700  0.170000  1.0  -0.1574
  C  C180  1  0.768100  0.509600  0.165300  1.0  -0.0532
  C  C181  1  0.698200  0.492000  0.108000  1.0  -0.2198
  C  C182  1  0.663700  0.419400  0.055300  1.0  0.2382
  C  C183  1  0.699100  0.364500  0.060000  1.0  -0.2565
  C  C184  1  0.769000  0.382100  0.117400  1.0  -0.0559
  C  C185  1  0.553000  0.334000  0.952000  1.0  0.035
  C  C186  1  0.472000  0.330000  0.903000  1.0  -0.0268
  C  C187  1  0.479000  0.365000  0.859000  1.0  0.043
  C  C188  1  0.425000  0.251000  0.857000  1.0  0.0687
  C  C189  1  0.336000  0.913000  0.615000  1.0  0.6994
  C  C190  1  0.370000  0.992300  0.671400  1.0  -0.1447
  C  C191  1  0.439000  0.031000  0.684700  1.0  -0.0382
  C  C192  1  0.469600  0.104000  0.736000  1.0  -0.1376
  C  C193  1  0.430000  0.139500  0.773300  1.0  0.3021
  C  C194  1  0.361000  0.101000  0.760000  1.0  -0.2456
  C  C195  1  0.331000  0.027000  0.709000  1.0  -0.0399
  C  C196  1  0.040000  0.455300  0.417200  1.0  0.1437
  C  C197  1  0.103200  0.450300  0.467000  1.0  0.1569
  C  C198  1  0.093000  0.412000  0.500700  1.0  -0.0884
  C  C199  1  0.020000  0.379100  0.484000  1.0  -0.165
  C  C200  1  0.956000  0.384100  0.434000  1.0  0.087
  C  C201  1  0.966300  0.422000  0.400800  1.0  -0.0657
  C  C202  1  0.880000  0.346000  0.419000  1.0  -0.3524
  C  C203  1  0.884000  0.483000  0.231000  1.0  0.5416
  C  C204  1  0.499000  0.763000  0.828000  1.0  -0.4057
  C  C205  1  0.058000  0.332000  0.004000  1.0  -0.4059
  C  C206  1  0.893800  0.247000  0.543200  1.0  0.1951
  C  C207  1  0.958000  0.306500  0.590100  1.0  0.1394
  C  C208  1  0.031000  0.296000  0.604000  1.0  -0.0665
  C  C209  1  0.039800  0.226000  0.571000  1.0  -0.1191
  C  C210  1  0.976000  0.166200  0.524000  1.0  0.0747
  C  C211  1  0.903000  0.177000  0.509900  1.0  -0.1317
  C  C212  1  0.986000  0.090000  0.501000  1.0  -0.4016
  C  C213  1  0.872000  0.537000  0.803000  1.0  0.1267
  C  C214  1  0.941000  0.535000  0.799000  1.0  0.1387
  C  C215  1  0.010000  0.576000  0.859000  1.0  -0.1518
  C  C216  1  0.010000  0.618000  0.923000  1.0  -0.1517
  C  C217  1  0.941000  0.620000  0.928000  1.0  0.0763
  C  C218  1  0.872000  0.580000  0.867000  1.0  -0.0871
  C  C219  1  0.624000  0.310000  0.621000  1.0  0.1688
  C  C220  1  0.629000  0.248000  0.568000  1.0  0.1482
  C  C221  1  0.584000  0.179000  0.543000  1.0  -0.0932
  C  C222  1  0.535000  0.172000  0.570000  1.0  -0.1259
  C  C223  1  0.530000  0.233000  0.623000  1.0  0.0991
  C  C224  1  0.575000  0.302000  0.649000  1.0  -0.0585
  C  C225  1  0.475000  0.226000  0.651000  1.0  -0.4188
  C  C226  1  0.623000  0.546400  0.608000  1.0  0.1615
  C  C227  1  0.629700  0.552800  0.553800  1.0  0.1332
  C  C228  1  0.585000  0.591000  0.524200  1.0  -0.0506
  C  C229  1  0.535000  0.622000  0.549000  1.0  0.1183
  C  C230  1  0.528000  0.616000  0.603000  1.0  -0.1676
  C  C231  1  0.572000  0.578000  0.632500  1.0  -0.0954
  C  C232  1  0.482000  0.662000  0.519000  1.0  -0.2893
  C  C233  1  0.651000  0.260000  0.368900  1.0  0.1461
  C  C234  1  0.609000  0.191000  0.312000  1.0  -0.1129
  C  C235  1  0.559000  0.183000  0.248000  1.0  -0.2062
  C  C236  1  0.551000  0.245000  0.239800  1.0  0.0993
  C  C237  1  0.593000  0.315000  0.296500  1.0  -0.073
  C  C238  1  0.643000  0.322000  0.361100  1.0  0.0411
  C  C239  1  0.659000  0.519000  0.804000  1.0  0.581
  C  C240  1  0.640000  0.552000  0.860000  1.0  0.0645
  C  C241  1  0.649000  0.528000  0.907000  1.0  -0.1041
  C  C242  1  0.623000  0.558000  0.956000  1.0  -0.2047
  C  C243  1  0.593000  0.615000  0.960000  1.0  0.3556
  C  C244  1  0.584000  0.642000  0.917000  1.0  -0.142
  C  C245  1  0.612000  0.611000  0.865000  1.0  -0.108
  C  C246  1  0.571000  0.627000  0.055000  1.0  0.031
  C  C247  1  0.659000  0.532000  0.377000  1.0  0.6425
  C  C248  1  0.636000  0.561000  0.326000  1.0  -0.1675
  C  C249  1  0.565000  0.555000  0.283000  1.0  -0.0298
  C  C250  1  0.546000  0.578000  0.235000  1.0  -0.2353
  C  C251  1  0.606000  0.611000  0.232000  1.0  0.2886
  C  C252  1  0.681000  0.624000  0.275000  1.0  -0.1242
  C  C253  1  0.695000  0.594000  0.322000  1.0  -0.0062
  C  C254  1  0.196600  0.545300  0.830000  1.0  -0.1566
  C  C255  1  0.231900  0.490400  0.834700  1.0  -0.0523
  C  C256  1  0.301800  0.508000  0.892000  1.0  -0.222
  C  C257  1  0.336300  0.580600  0.944700  1.0  0.2369
  C  C258  1  0.300900  0.635500  0.940000  1.0  -0.2572
  C  C259  1  0.231000  0.617900  0.882600  1.0  -0.0563
  C  C260  1  0.447000  0.666000  0.048000  1.0  0.0353
  C  C261  1  0.528000  0.670000  0.097000  1.0  -0.0272
  C  C262  1  0.521000  0.635000  0.141000  1.0  0.0433
  C  C263  1  0.575000  0.749000  0.143000  1.0  0.0659
  C  C264  1  0.664000  0.087000  0.385000  1.0  0.6975
  C  C265  1  0.630000  0.007700  0.328600  1.0  -0.1441
  C  C266  1  0.561000  0.969000  0.315300  1.0  -0.0393
  C  C267  1  0.530400  0.896000  0.264000  1.0  -0.1391
  C  C268  1  0.570000  0.860500  0.226700  1.0  0.3027
  C  C269  1  0.639000  0.899000  0.240000  1.0  -0.2426
  C  C270  1  0.669000  0.973000  0.291000  1.0  -0.0399
  C  C271  1  0.960000  0.544700  0.582800  1.0  0.1457
  C  C272  1  0.896800  0.549700  0.533000  1.0  0.1553
  C  C273  1  0.907000  0.588000  0.499300  1.0  -0.0919
  C  C274  1  0.980000  0.620900  0.516000  1.0  -0.166
  C  C275  1  0.044000  0.615900  0.566000  1.0  0.0847
  C  C276  1  0.033700  0.578000  0.599200  1.0  -0.0617
  C  C277  1  0.120000  0.654000  0.581000  1.0  -0.3528
  C  C278  1  0.116000  0.517000  0.769000  1.0  0.5428
  C  C279  1  0.501000  0.237000  0.172000  1.0  -0.4033
  C  C280  1  0.942000  0.668000  0.996000  1.0  -0.4097
  N  N281  1  0.167000  0.730000  0.466000  1.0  -0.3125
  N  N282  1  0.144000  0.657000  0.420600  1.0  -0.053
  N  N283  1  0.071000  0.636500  0.387000  1.0  -0.1263
  N  N284  1  0.075000  0.500000  0.266000  1.0  -0.2348
  N  N285  1  0.153000  0.523000  0.302000  1.0  -0.0579
  N  N286  1  0.185000  0.498000  0.262000  1.0  -0.2258
  N  N287  1  0.328000  0.633000  0.365000  1.0  -0.2472
  N  N288  1  0.296000  0.657000  0.409000  1.0  -0.078
  N  N289  1  0.320000  0.729000  0.448000  1.0  -0.2402
  N  N290  1  0.319100  0.484400  0.460800  1.0  -0.2977
  N  N291  1  0.293400  0.510300  0.413000  1.0  -0.1188
  N  N292  1  0.328000  0.492000  0.371000  1.0  -0.2964
  N  N293  1  0.162000  0.486000  0.469600  1.0  -0.3189
  N  N294  1  0.143700  0.516500  0.428900  1.0  -0.2752
  N  N295  1  0.067000  0.496000  0.395100  1.0  -0.2807
  N  N296  1  0.309000  0.620000  0.573000  1.0  -0.3521
  N  N297  1  0.285400  0.651000  0.534600  1.0  -0.2292
  N  N298  1  0.305000  0.722000  0.559000  1.0  -0.4587
  N  N299  1  0.833000  0.270000  0.534000  1.0  -0.313
  N  N300  1  0.856000  0.343000  0.579400  1.0  -0.0514
  N  N301  1  0.929000  0.363500  0.613000  1.0  -0.1286
  N  N302  1  0.925000  0.500000  0.734000  1.0  -0.2333
  N  N303  1  0.847000  0.477000  0.698000  1.0  -0.0587
  N  N304  1  0.815000  0.502000  0.738000  1.0  -0.2268
  N  N305  1  0.672000  0.367000  0.635000  1.0  -0.2501
  N  N306  1  0.704000  0.343000  0.591000  1.0  -0.0766
  N  N307  1  0.680000  0.271000  0.552000  1.0  -0.2403
  N  N308  1  0.680900  0.515600  0.539200  1.0  -0.2946
  N  N309  1  0.706600  0.489700  0.587000  1.0  -0.1185
  N  N310  1  0.672000  0.508000  0.629000  1.0  -0.2968
  N  N311  1  0.838000  0.514000  0.530400  1.0  -0.3169
  N  N312  1  0.856300  0.483500  0.571100  1.0  -0.2757
  N  N313  1  0.933000  0.504000  0.604900  1.0  -0.2802
  N  N314  1  0.691000  0.380000  0.427000  1.0  -0.3532
  N  N315  1  0.714600  0.349000  0.465400  1.0  -0.2273
  N  N316  1  0.695000  0.278000  0.441000  1.0  -0.4574
  O  O317  1  0.274000  0.461000  0.586000  1.0  -0.5992
  O  O318  1  0.391000  0.500000  0.620000  1.0  -0.5744
  O  O319  1  0.402300  0.358300  0.812300  1.0  -0.2966
  O  O320  1  0.909000  0.428000  0.236300  1.0  -0.6239
  O  O321  1  0.913000  0.541000  0.272000  1.0  -0.5515
  O  O322  1  0.592100  0.407000  0.002100  1.0  -0.2695
  O  O323  1  0.271000  0.881400  0.600300  1.0  -0.5939
  O  O324  1  0.374000  0.881000  0.587600  1.0  -0.5482
  O  O325  1  0.463200  0.212600  0.819200  1.0  -0.2803
  O  O326  1  0.430900  0.346100  0.990600  1.0  -0.2675
  O  O327  1  0.312000  0.538000  0.205000  1.0  -0.6501
  O  O328  1  0.344000  0.459000  0.239000  1.0  -0.5979
  O  O329  1  0.726000  0.539000  0.414000  1.0  -0.5991
  O  O330  1  0.609000  0.500000  0.380000  1.0  -0.5746
  O  O331  1  0.597700  0.641700  0.187700  1.0  -0.2942
  O  O332  1  0.091000  0.572000  0.763700  1.0  -0.626
  O  O333  1  0.087000  0.459000  0.728000  1.0  -0.5514
  O  O334  1  0.407900  0.593000  0.997900  1.0  -0.2682
  O  O335  1  0.729000  0.118600  0.399700  1.0  -0.5946
  O  O336  1  0.626000  0.119000  0.412400  1.0  -0.5485
  O  O337  1  0.536800  0.787400  0.180800  1.0  -0.2806
  O  O338  1  0.569100  0.653900  0.009400  1.0  -0.2669
  O  O339  1  0.688000  0.462000  0.795000  1.0  -0.6483
  O  O340  1  0.656000  0.541000  0.761000  1.0  -0.5978
