# generated using pymatgen
data_Zn5H80C97(N3O2)6
_symmetry_space_group_name_H-M   'P 1'
_cell_length_a   24.78900000
_cell_length_b   26.01920000
_cell_length_c   26.01920000
_cell_angle_alpha   96.04280000
_cell_angle_beta   116.15900000
_cell_angle_gamma   116.15900000
_symmetry_Int_Tables_number   1
_chemical_formula_structural   Zn5H80C97(N3O2)6
_chemical_formula_sum   'Zn10 H160 C194 N36 O24'
_cell_volume   12550.46003878
_cell_formula_units_Z   2
loop_
 _symmetry_equiv_pos_site_id
 _symmetry_equiv_pos_as_xyz
  1  'x, y, z'
loop_
 _atom_site_type_symbol
 _atom_site_label
 _atom_site_symmetry_multiplicity
 _atom_site_fract_x
 _atom_site_fract_y
 _atom_site_fract_z
 _atom_site_occupancy
 _atom_site_charge
  Zn  Zn1  1  0.664000  0.568500  0.950700  1.0  0.9184
  Zn  Zn2  1  0.555300  0.404500  0.897100  1.0  0.9517
  Zn  Zn3  1  0.782000  0.627100  0.115100  1.0  0.9464
  Zn  Zn4  1  0.764700  0.613800  0.881800  1.0  0.9786
  Zn  Zn5  1  0.551300  0.626800  0.909200  1.0  0.964
  Zn  Zn6  1  0.336000  0.049300  0.431500  1.0  0.9187
  Zn  Zn7  1  0.444700  0.102900  0.595500  1.0  0.9519
  Zn  Zn8  1  0.218000  0.884900  0.372900  1.0  0.9473
  Zn  Zn9  1  0.235300  0.118200  0.386200  1.0  0.9782
  Zn  Zn10  1  0.448700  0.090800  0.373200  1.0  0.9638
  H  H11  1  0.236100  0.828000  0.768600  1.0  0.0561
  H  H12  1  0.268500  0.852600  0.729800  1.0  0.0775
  H  H13  1  0.123400  0.767700  0.602500  1.0  0.0801
  H  H14  1  0.183200  0.835200  0.617200  1.0  0.0819
  H  H15  1  0.212900  0.910000  0.761800  1.0  0.0724
  H  H16  1  0.154100  0.904900  0.699300  1.0  0.0795
  H  H17  1  0.550200  0.762100  0.098700  1.0  0.1315
  H  H18  1  0.565800  0.747200  0.158600  1.0  0.1139
  H  H19  1  0.622600  0.809200  0.161800  1.0  0.1224
  H  H20  1  0.374000  0.638300  0.765500  1.0  0.1296
  H  H21  1  0.324800  0.815300  0.803700  1.0  0.1025
  H  H22  1  0.374200  0.520200  0.825800  1.0  0.1041
  H  H23  1  0.379900  0.341600  0.823200  1.0  0.0892
  H  H24  1  0.678700  0.779000  0.248400  1.0  0.1033
  H  H25  1  0.695000  0.728000  0.259600  1.0  0.1338
  H  H26  1  0.754700  0.792100  0.268900  1.0  0.1187
  H  H27  1  0.258700  0.630400  0.679400  1.0  0.0797
  H  H28  1  0.431200  0.821900  0.891500  1.0  0.1364
  H  H29  1  0.511500  0.779000  0.925800  1.0  0.111
  H  H30  1  0.181000  0.663700  0.645700  1.0  0.1108
  H  H31  1  0.253000  0.004800  0.788600  1.0  0.1605
  H  H32  1  0.095900  0.799200  0.419200  1.0  0.1144
  H  H33  1  0.449000  0.207500  0.792500  1.0  0.1058
  H  H34  1  0.636100  0.313400  0.147200  1.0  0.1067
  H  H35  1  0.561900  0.296100  0.091900  1.0  0.1205
  H  H36  1  0.610900  0.281600  0.079400  1.0  0.1258
  H  H37  1  0.988800  0.726700  0.688700  1.0  0.088
  H  H38  1  0.966600  0.753500  0.510900  1.0  0.0835
  H  H39  1  0.149000  0.841400  0.524200  1.0  0.1029
  H  H40  1  0.328500  0.999500  0.678700  1.0  0.1067
  H  H41  1  0.084200  0.748600  0.680200  1.0  0.0549
  H  H42  1  0.063100  0.797400  0.672800  1.0  0.0571
  H  H43  1  0.292300  0.111900  0.851300  1.0  0.1217
  H  H44  1  0.403200  0.104300  0.719100  1.0  0.0886
  H  H45  1  0.377800  0.224700  0.899700  1.0  0.1272
  H  H46  1  0.771900  0.459100  0.246900  1.0  0.1172
  H  H47  1  0.695100  0.403000  0.223200  1.0  0.1117
  H  H48  1  0.748600  0.392100  0.214900  1.0  0.1234
  H  H49  1  0.198700  0.308900  0.733500  1.0  0.1016
  H  H50  1  0.237000  0.277900  0.723900  1.0  0.118
  H  H51  1  0.235300  0.286200  0.783600  1.0  0.1307
  H  H52  1  0.149600  0.832200  0.853600  1.0  0.0976
  H  H53  1  0.202300  0.371000  0.741200  1.0  0.0524
  H  H54  1  0.231000  0.434600  0.787000  1.0  0.1331
  H  H55  1  0.230900  0.430700  0.726500  1.0  0.1325
  H  H56  1  0.076000  0.797100  0.901100  1.0  0.1112
  H  H57  1  0.670800  0.341600  0.690600  1.0  0.1026
  H  H58  1  0.681100  0.400400  0.674800  1.0  0.1292
  H  H59  1  0.745500  0.404400  0.730800  1.0  0.1351
  H  H60  1  0.575100  0.259800  0.735400  1.0  0.1212
  H  H61  1  0.576000  0.281100  0.681500  1.0  0.1014
  H  H62  1  0.644800  0.287700  0.734300  1.0  0.1273
  H  H63  1  0.678200  0.790000  0.720800  1.0  0.1073
  H  H64  1  0.752100  0.799500  0.767100  1.0  0.1354
  H  H65  1  0.695400  0.741500  0.705500  1.0  0.1218
  H  H66  1  0.598300  0.793300  0.727300  1.0  0.1252
  H  H67  1  0.530600  0.746600  0.726400  1.0  0.126
  H  H68  1  0.594500  0.806200  0.785400  1.0  0.12
  H  H69  1  0.124200  0.801600  0.106600  1.0  0.112
  H  H70  1  0.084200  0.752300  0.041100  1.0  0.1432
  H  H71  1  0.072300  0.806400  0.047800  1.0  0.1362
  H  H72  1  0.125200  0.798100  0.200900  1.0  0.1102
  H  H73  1  0.075600  0.806800  0.217800  1.0  0.1128
  H  H74  1  0.078400  0.747800  0.217400  1.0  0.0852
  H  H75  1  0.582600  0.333500  0.810100  1.0  0.102
  H  H76  1  0.725600  0.495400  0.775800  1.0  0.0983
  H  H77  1  0.564400  0.710900  0.819500  1.0  0.1024
  H  H78  1  0.733200  0.700400  0.793600  1.0  0.0982
  H  H79  1  0.959900  0.721200  0.167800  1.0  0.1092
  H  H80  1  0.942400  0.695400  0.980600  1.0  0.1009
  H  H81  1  0.564900  0.705100  0.030500  1.0  0.1038
  H  H82  1  0.748800  0.709800  0.197000  1.0  0.1001
  H  H83  1  0.792700  0.652300  0.300100  1.0  0.0985
  H  H84  1  0.852100  0.691700  0.406700  1.0  0.115
  H  H85  1  0.982100  0.731600  0.314800  1.0  0.1086
  H  H86  1  0.963800  0.725900  0.879700  1.0  0.1019
  H  H87  1  0.860100  0.651600  0.668200  1.0  0.1083
  H  H88  1  0.790700  0.612600  0.708800  1.0  0.117
  H  H89  1  0.770800  0.518500  0.183900  1.0  0.1064
  H  H90  1  0.579000  0.343200  0.009200  1.0  0.1082
  H  H91  1  0.763900  0.231400  0.172000  1.0  0.0524
  H  H92  1  0.731500  0.270200  0.147400  1.0  0.0724
  H  H93  1  0.876600  0.397500  0.232300  1.0  0.0809
  H  H94  1  0.816800  0.382800  0.164800  1.0  0.0842
  H  H95  1  0.787100  0.238200  0.090000  1.0  0.0706
  H  H96  1  0.845900  0.300700  0.095100  1.0  0.0785
  H  H97  1  0.449800  0.901300  0.237900  1.0  0.1346
  H  H98  1  0.434200  0.841400  0.252800  1.0  0.1097
  H  H99  1  0.377400  0.838200  0.190800  1.0  0.1233
  H  H100  1  0.626000  0.234500  0.361700  1.0  0.1297
  H  H101  1  0.675200  0.196300  0.184700  1.0  0.1031
  H  H102  1  0.625800  0.174200  0.479800  1.0  0.1047
  H  H103  1  0.620100  0.176800  0.658400  1.0  0.0903
  H  H104  1  0.321300  0.751600  0.221000  1.0  0.1045
  H  H105  1  0.305000  0.740400  0.272000  1.0  0.133
  H  H106  1  0.245300  0.731100  0.207900  1.0  0.1187
  H  H107  1  0.741300  0.320600  0.369600  1.0  0.0785
  H  H108  1  0.568800  0.108500  0.178100  1.0  0.1362
  H  H109  1  0.488500  0.074200  0.221000  1.0  0.1117
  H  H110  1  0.819000  0.354300  0.336300  1.0  0.111
  H  H111  1  0.747000  0.211400  0.995200  1.0  0.1595
  H  H112  1  0.904100  0.580800  0.200800  1.0  0.1151
  H  H113  1  0.551000  0.207500  0.792500  1.0  0.1049
  H  H114  1  0.363900  0.852800  0.686600  1.0  0.1057
  H  H115  1  0.438100  0.908100  0.703900  1.0  0.1217
  H  H116  1  0.389100  0.920600  0.718400  1.0  0.1274
  H  H117  1  0.011200  0.311300  0.273300  1.0  0.0831
  H  H118  1  0.033400  0.489100  0.246500  1.0  0.082
  H  H119  1  0.851000  0.475800  0.158600  1.0  0.1052
  H  H120  1  0.671500  0.321300  0.000500  1.0  0.1064
  H  H121  1  0.915800  0.319800  0.251400  1.0  0.0606
  H  H122  1  0.936900  0.327200  0.202600  1.0  0.0603
  H  H123  1  0.707700  0.148700  0.888100  1.0  0.1219
  H  H124  1  0.596800  0.280900  0.895700  1.0  0.0881
  H  H125  1  0.622200  0.100300  0.775300  1.0  0.1263
  H  H126  1  0.228100  0.753100  0.540900  1.0  0.1177
  H  H127  1  0.304900  0.776800  0.597000  1.0  0.1112
  H  H128  1  0.251400  0.785100  0.607900  1.0  0.1252
  H  H129  1  0.801300  0.266500  0.691100  1.0  0.1017
  H  H130  1  0.763000  0.276100  0.722100  1.0  0.1185
  H  H131  1  0.764700  0.216400  0.713800  1.0  0.1324
  H  H132  1  0.850400  0.146400  0.167800  1.0  0.0977
  H  H133  1  0.797700  0.258800  0.629000  1.0  0.0517
  H  H134  1  0.769000  0.213000  0.565400  1.0  0.1335
  H  H135  1  0.769100  0.273500  0.569300  1.0  0.1325
  H  H136  1  0.924000  0.098900  0.202900  1.0  0.1112
  H  H137  1  0.329200  0.309400  0.658400  1.0  0.1014
  H  H138  1  0.318900  0.325200  0.599600  1.0  0.1279
  H  H139  1  0.254500  0.269200  0.595600  1.0  0.1329
  H  H140  1  0.424900  0.264600  0.740200  1.0  0.1246
  H  H141  1  0.424000  0.318500  0.718900  1.0  0.1017
  H  H142  1  0.355200  0.265700  0.712300  1.0  0.1216
  H  H143  1  0.321800  0.279200  0.210000  1.0  0.1076
  H  H144  1  0.247900  0.232900  0.200500  1.0  0.1319
  H  H145  1  0.304600  0.294500  0.258500  1.0  0.122
  H  H146  1  0.401700  0.272700  0.206700  1.0  0.1265
  H  H147  1  0.469400  0.273600  0.253400  1.0  0.1283
  H  H148  1  0.405500  0.214600  0.193800  1.0  0.1215
  H  H149  1  0.875800  0.893400  0.198400  1.0  0.1123
  H  H150  1  0.915800  0.958900  0.247700  1.0  0.1432
  H  H151  1  0.927700  0.952200  0.193600  1.0  0.1342
  H  H152  1  0.874800  0.799100  0.201900  1.0  0.1125
  H  H153  1  0.924400  0.782200  0.193200  1.0  0.1123
  H  H154  1  0.921600  0.782600  0.252200  1.0  0.0854
  H  H155  1  0.417400  0.189900  0.666500  1.0  0.1015
  H  H156  1  0.274400  0.224200  0.504600  1.0  0.0983
  H  H157  1  0.435600  0.180500  0.289100  1.0  0.1036
  H  H158  1  0.266800  0.206400  0.299600  1.0  0.0964
  H  H159  1  0.040100  0.832200  0.278800  1.0  0.1044
  H  H160  1  0.057600  0.019400  0.304600  1.0  0.0998
  H  H161  1  0.435100  0.969500  0.294900  1.0  0.1025
  H  H162  1  0.251200  0.803000  0.290200  1.0  0.101
  H  H163  1  0.207300  0.699900  0.347700  1.0  0.0986
  H  H164  1  0.147900  0.593300  0.308300  1.0  0.1163
  H  H165  1  0.017900  0.685200  0.268400  1.0  0.1076
  H  H166  1  0.036200  0.120300  0.274100  1.0  0.1013
  H  H167  1  0.139900  0.331800  0.348400  1.0  0.1084
  H  H168  1  0.209300  0.291200  0.387400  1.0  0.1172
  H  H169  1  0.229200  0.816100  0.481500  1.0  0.1052
  H  H170  1  0.421000  0.990800  0.656800  1.0  0.108
  C  C171  1  0.164000  0.830000  0.690000  1.0  0.0049
  C  C172  1  0.379000  0.123000  0.781000  1.0  -0.0679
  C  C173  1  0.226000  0.823000  0.727000  1.0  0.0396
  C  C174  1  0.142000  0.811000  0.619000  1.0  0.0158
  C  C175  1  0.192000  0.898000  0.718000  1.0  0.0672
  C  C176  1  0.444000  0.702000  0.852000  1.0  -0.1644
  C  C177  1  0.436000  0.432000  0.848000  1.0  0.2776
  C  C178  1  0.587000  0.767000  0.137000  1.0  -0.349
  C  C179  1  0.384000  0.673000  0.791000  1.0  -0.0388
  C  C180  1  0.313000  0.778000  0.780000  1.0  -0.1791
  C  C181  1  0.373000  0.484000  0.824000  1.0  -0.0746
  C  C182  1  0.377000  0.376000  0.820000  1.0  -0.0971
  C  C183  1  0.434000  0.481000  0.851000  1.0  0.1581
  C  C184  1  0.704000  0.761000  0.245000  1.0  -0.3981
  C  C185  1  0.271000  0.666000  0.706000  1.0  -0.0199
  C  C186  1  0.357000  0.753000  0.805000  1.0  0.0031
  C  C187  1  0.419000  0.786000  0.866000  1.0  -0.0703
  C  C188  1  0.468000  0.758000  0.888000  1.0  -0.0575
  C  C189  1  0.255000  0.745000  0.725000  1.0  0.15
  C  C190  1  0.225000  0.685000  0.683000  1.0  -0.1554
  C  C191  1  0.291000  0.995000  0.733000  1.0  0.1957
  C  C192  1  0.327000  0.095000  0.797000  1.0  -0.0388
  C  C193  1  0.283000  0.026000  0.776000  1.0  -0.1383
  C  C194  1  0.059000  0.799000  0.525000  1.0  0.2438
  C  C195  1  0.068000  0.790000  0.436000  1.0  -0.1609
  C  C196  1  0.419000  0.188000  0.806000  1.0  -0.0703
  C  C197  1  0.420000  0.223000  0.847000  1.0  -0.1333
  C  C198  1  0.611000  0.310000  0.106000  1.0  -0.3185
  C  C199  1  0.006000  0.740000  0.730000  1.0  -0.085
  C  C200  1  0.992000  0.762000  0.492000  1.0  -0.0755
  C  C201  1  0.073000  0.780000  0.768000  1.0  0.1964
  C  C202  1  0.099000  0.814000  0.498000  1.0  -0.151
  C  C203  1  0.333000  0.695000  0.763000  1.0  -0.1028
  C  C204  1  0.842000  0.658000  0.224000  1.0  0.6024
  C  C205  1  0.331000  0.023000  0.711000  1.0  -0.2242
  C  C206  1  0.102000  0.792000  0.696000  1.0  0.0499
  C  C207  1  0.820000  0.637000  0.825000  1.0  0.4602
  C  C208  1  0.312000  0.427000  0.793000  1.0  0.0867
  C  C209  1  0.325000  0.131000  0.841000  1.0  -0.0313
  C  C210  1  0.375000  0.086000  0.734000  1.0  -0.1259
  C  C211  1  0.376000  0.200000  0.870000  1.0  -0.0741
  C  C212  1  0.732000  0.419000  0.215000  1.0  -0.3742
  C  C213  1  0.238000  0.304000  0.754000  1.0  -0.3695
  C  C214  1  0.309000  0.367000  0.787000  1.0  0.0105
  C  C215  1  0.101000  0.802000  0.828000  1.0  -0.0799
  C  C216  1  0.237000  0.415000  0.759000  1.0  -0.3242
  C  C217  1  0.057000  0.781000  0.859000  1.0  -0.132
  C  C218  1  0.695000  0.386000  0.708000  1.0  -0.339
  C  C219  1  0.604000  0.289000  0.725000  1.0  -0.3236
  C  C220  1  0.702000  0.770000  0.738000  1.0  -0.3727
  C  C221  1  0.582000  0.775000  0.751000  1.0  -0.3023
  C  C222  1  0.080000  0.778000  0.066000  1.0  -0.3427
  C  C223  1  0.080000  0.778000  0.198000  1.0  -0.3076
  C  C224  1  0.679000  0.474000  0.824000  1.0  0.2081
  C  C225  1  0.636000  0.426000  0.834000  1.0  0.211
  C  C226  1  0.611000  0.366300  0.803700  1.0  -0.1677
  C  C227  1  0.629000  0.354000  0.762000  1.0  0.0436
  C  C228  1  0.672000  0.403000  0.751000  1.0  0.0546
  C  C229  1  0.697000  0.463000  0.783000  1.0  -0.1244
  C  C230  1  0.628000  0.677000  0.843000  1.0  0.1294
  C  C231  1  0.598000  0.709000  0.815000  1.0  -0.0044
  C  C232  1  0.619000  0.737000  0.779000  1.0  -0.0228
  C  C233  1  0.670000  0.734000  0.770000  1.0  0.1188
  C  C234  1  0.699000  0.703000  0.799000  1.0  -0.1334
  C  C235  1  0.679000  0.675000  0.835000  1.0  0.0977
  C  C236  1  0.889000  0.681000  0.075000  1.0  0.1803
  C  C237  1  0.956000  0.716000  0.130000  1.0  -0.1809
  C  C238  1  0.018000  0.743000  0.129000  1.0  -0.0141
  C  C239  1  0.013000  0.735000  0.073000  1.0  -0.0094
  C  C240  1  0.946000  0.700000  0.018000  1.0  -0.0813
  C  C241  1  0.884000  0.673000  0.019000  1.0  0.1767
  C  C242  1  0.467000  0.294000  0.872000  1.0  0.593
  C  C243  1  0.691000  0.681000  0.103000  1.0  0.1158
  C  C244  1  0.636000  0.680000  0.054000  1.0  0.1923
  C  C245  1  0.602000  0.706000  0.064000  1.0  -0.0614
  C  C246  1  0.623000  0.734000  0.124000  1.0  0.0592
  C  C247  1  0.678000  0.735000  0.173000  1.0  -0.026
  C  C248  1  0.712000  0.708600  0.163400  1.0  -0.044
  C  C249  1  0.881000  0.688000  0.296000  1.0  -0.0648
  C  C250  1  0.843000  0.676000  0.324000  1.0  -0.0474
  C  C251  1  0.878000  0.700000  0.388000  1.0  -0.1321
  C  C252  1  0.953000  0.735000  0.425000  1.0  0.0136
  C  C253  1  0.992000  0.747000  0.397000  1.0  0.03
  C  C254  1  0.956000  0.723000  0.333000  1.0  -0.0697
  C  C255  1  0.870000  0.666000  0.798000  1.0  -0.1616
  C  C256  1  0.943000  0.711000  0.837000  1.0  -0.1212
  C  C257  1  0.985000  0.735000  0.813000  1.0  0.0051
  C  C258  1  0.954000  0.712000  0.750000  1.0  -0.0179
  C  C259  1  0.881000  0.667000  0.711000  1.0  -0.0723
  C  C260  1  0.839000  0.643000  0.735000  1.0  -0.086
  C  C261  1  0.480000  0.667000  0.875000  1.0  0.3474
  C  C262  1  0.703000  0.488300  0.091700  1.0  -0.0484
  C  C263  1  0.732000  0.483000  0.149000  1.0  -0.0914
  C  C264  1  0.704000  0.426100  0.153900  1.0  0.0471
  C  C265  1  0.647000  0.374000  0.102000  1.0  0.0529
  C  C266  1  0.617000  0.378000  0.044000  1.0  -0.058
  C  C267  1  0.646000  0.435200  0.038800  1.0  0.1593
  C  C268  1  0.836000  0.310000  0.170000  1.0  0.0043
  C  C269  1  0.621000  0.219000  0.877000  1.0  -0.0685
  C  C270  1  0.774000  0.273000  0.177000  1.0  0.0403
  C  C271  1  0.858000  0.381000  0.189000  1.0  0.0214
  C  C272  1  0.808000  0.282000  0.102000  1.0  0.0657
  C  C273  1  0.556000  0.148000  0.298000  1.0  -0.1654
  C  C274  1  0.564000  0.152000  0.568000  1.0  0.2764
  C  C275  1  0.413000  0.863000  0.233000  1.0  -0.3505
  C  C276  1  0.616000  0.209000  0.327000  1.0  -0.0427
  C  C277  1  0.687000  0.220000  0.222000  1.0  -0.1783
  C  C278  1  0.627000  0.176000  0.516000  1.0  -0.0717
  C  C279  1  0.623000  0.180000  0.624000  1.0  -0.0958
  C  C280  1  0.566000  0.149000  0.519000  1.0  0.1578
  C  C281  1  0.296000  0.755000  0.239000  1.0  -0.3957
  C  C282  1  0.729000  0.294000  0.334000  1.0  -0.0175
  C  C283  1  0.643000  0.195000  0.247000  1.0  0.0052
  C  C284  1  0.581000  0.134000  0.214000  1.0  -0.0713
  C  C285  1  0.532000  0.112000  0.242000  1.0  -0.0566
  C  C286  1  0.745000  0.275000  0.255000  1.0  0.1465
  C  C287  1  0.775000  0.317000  0.315000  1.0  -0.1548
  C  C288  1  0.709000  0.267000  0.005000  1.0  0.1973
  C  C289  1  0.673000  0.203000  0.905000  1.0  -0.0395
  C  C290  1  0.717000  0.224000  0.974000  1.0  -0.1332
  C  C291  1  0.941000  0.475000  0.201000  1.0  0.2378
  C  C292  1  0.932000  0.564000  0.210000  1.0  -0.1595
  C  C293  1  0.581000  0.194000  0.812000  1.0  -0.0701
  C  C294  1  0.580000  0.153000  0.777000  1.0  -0.1335
  C  C295  1  0.389000  0.894000  0.690000  1.0  -0.319
  C  C296  1  0.994000  0.270000  0.260000  1.0  -0.0871
  C  C297  1  0.008000  0.508000  0.238000  1.0  -0.0762
  C  C298  1  0.927000  0.232000  0.220000  1.0  0.1928
  C  C299  1  0.901000  0.502000  0.186000  1.0  -0.1507
  C  C300  1  0.667000  0.237000  0.305000  1.0  -0.1022
  C  C301  1  0.158000  0.776000  0.342000  1.0  0.6032
  C  C302  1  0.669000  0.289000  0.977000  1.0  -0.2236
  C  C303  1  0.898000  0.304000  0.208000  1.0  0.0471
  C  C304  1  0.180000  0.175000  0.363000  1.0  0.4561
  C  C305  1  0.688000  0.207000  0.573000  1.0  0.0862
  C  C306  1  0.675000  0.159000  0.869000  1.0  -0.0323
  C  C307  1  0.625000  0.266000  0.914000  1.0  -0.1244
  C  C308  1  0.624000  0.130000  0.800000  1.0  -0.073
  C  C309  1  0.268000  0.785000  0.581000  1.0  -0.3775
  C  C310  1  0.762000  0.246000  0.696000  1.0  -0.3709
  C  C311  1  0.691000  0.213000  0.633000  1.0  0.0081
  C  C312  1  0.899000  0.172000  0.198000  1.0  -0.08
  C  C313  1  0.763000  0.241000  0.585000  1.0  -0.3264
  C  C314  1  0.943000  0.141000  0.219000  1.0  -0.1355
  C  C315  1  0.305000  0.292000  0.614000  1.0  -0.3384
  C  C316  1  0.396000  0.275000  0.711000  1.0  -0.3192
  C  C317  1  0.298000  0.262000  0.230000  1.0  -0.3707
  C  C318  1  0.418000  0.249000  0.225000  1.0  -0.3037
  C  C319  1  0.920000  0.934000  0.222000  1.0  -0.3432
  C  C320  1  0.920000  0.802000  0.222000  1.0  -0.3067
  C  C321  1  0.321000  0.176000  0.526000  1.0  0.2078
  C  C322  1  0.364000  0.166000  0.574000  1.0  0.2081
  C  C323  1  0.389000  0.196300  0.633700  1.0  -0.1668
  C  C324  1  0.371000  0.238000  0.646000  1.0  0.0477
  C  C325  1  0.328000  0.249000  0.597000  1.0  0.0554
  C  C326  1  0.303000  0.217000  0.537000  1.0  -0.1239
  C  C327  1  0.372000  0.157000  0.323000  1.0  0.1298
  C  C328  1  0.402000  0.185000  0.291000  1.0  -0.0065
  C  C329  1  0.381000  0.221000  0.263000  1.0  -0.0222
  C  C330  1  0.330000  0.230000  0.266000  1.0  0.1191
  C  C331  1  0.301000  0.201000  0.297000  1.0  -0.1335
  C  C332  1  0.321000  0.165000  0.325000  1.0  0.0963
  C  C333  1  0.111000  0.925000  0.319000  1.0  0.1759
  C  C334  1  0.044000  0.870000  0.284000  1.0  -0.1839
  C  C335  1  0.982000  0.871000  0.257000  1.0  -0.0141
  C  C336  1  0.987000  0.927000  0.265000  1.0  -0.0116
  C  C337  1  0.054000  0.982000  0.300000  1.0  -0.0805
  C  C338  1  0.116000  0.981000  0.327000  1.0  0.1779
  C  C339  1  0.533000  0.128000  0.706000  1.0  0.5967
  C  C340  1  0.309000  0.897000  0.319000  1.0  0.1147
  C  C341  1  0.364000  0.946000  0.320000  1.0  0.1923
  C  C342  1  0.398000  0.936000  0.294000  1.0  -0.0618
  C  C343  1  0.377000  0.876000  0.266000  1.0  0.0622
  C  C344  1  0.322000  0.827000  0.265000  1.0  -0.0236
  C  C345  1  0.288000  0.836600  0.291400  1.0  -0.0421
  C  C346  1  0.119000  0.704000  0.312000  1.0  -0.0635
  C  C347  1  0.157000  0.676000  0.324000  1.0  -0.0421
  C  C348  1  0.122000  0.612000  0.300000  1.0  -0.1333
  C  C349  1  0.047000  0.575000  0.265000  1.0  0.0129
  C  C350  1  0.008000  0.603000  0.253000  1.0  0.0298
  C  C351  1  0.044000  0.667000  0.277000  1.0  -0.072
  C  C352  1  0.130000  0.202000  0.334000  1.0  -0.1626
  C  C353  1  0.057000  0.163000  0.289000  1.0  -0.1166
  C  C354  1  0.015000  0.187000  0.265000  1.0  0.0038
  C  C355  1  0.046000  0.250000  0.288000  1.0  -0.0169
  C  C356  1  0.119000  0.289000  0.333000  1.0  -0.0677
  C  C357  1  0.161000  0.265000  0.357000  1.0  -0.0857
  C  C358  1  0.520000  0.125000  0.333000  1.0  0.3516
  C  C359  1  0.297000  0.908300  0.511700  1.0  -0.0493
  C  C360  1  0.268000  0.851000  0.517000  1.0  -0.085
  C  C361  1  0.296000  0.846100  0.573900  1.0  0.0449
  C  C362  1  0.353000  0.898000  0.626000  1.0  0.0564
  C  C363  1  0.383000  0.956000  0.622000  1.0  -0.0603
  C  C364  1  0.354000  0.961200  0.564800  1.0  0.1591
  N  N365  1  0.657000  0.623000  0.893000  1.0  -0.139
  N  N366  1  0.666000  0.630000  0.016000  1.0  -0.051
  N  N367  1  0.709000  0.650000  0.078000  1.0  -0.2309
  N  N368  1  0.823000  0.647000  0.067000  1.0  -0.3963
  N  N369  1  0.783000  0.625000  0.005000  1.0  -0.2057
  N  N370  1  0.668000  0.508000  0.006000  1.0  -0.1034
  N  N371  1  0.623000  0.446000  0.984000  1.0  -0.3649
  N  N372  1  0.621000  0.445000  0.867000  1.0  -0.2082
  N  N373  1  0.662000  0.508000  0.890000  1.0  -0.2535
  N  N374  1  0.506000  0.448000  0.878000  1.0  -0.297
  N  N375  1  0.544000  0.509000  0.899000  1.0  -0.1404
  N  N376  1  0.621000  0.647000  0.999000  1.0  -0.2743
  N  N377  1  0.699000  0.525000  0.861000  1.0  -0.2307
  N  N378  1  0.696000  0.638000  0.866000  1.0  -0.2696
  N  N379  1  0.619000  0.649000  0.883000  1.0  -0.2714
  N  N380  1  0.506000  0.535000  0.883000  1.0  -0.339
  N  N381  1  0.816000  0.640000  0.972000  1.0  -0.347
  N  N382  1  0.716000  0.530000  0.060000  1.0  -0.2399
  N  N383  1  0.343000  0.107000  0.377000  1.0  -0.1403
  N  N384  1  0.334000  0.984000  0.370000  1.0  -0.0506
  N  N385  1  0.291000  0.922000  0.350000  1.0  -0.2311
  N  N386  1  0.177000  0.933000  0.353000  1.0  -0.3959
  N  N387  1  0.217000  0.995000  0.375000  1.0  -0.2053
  N  N388  1  0.332000  0.994000  0.492000  1.0  -0.1043
  N  N389  1  0.377000  0.016000  0.554000  1.0  -0.3659
  N  N390  1  0.379000  0.133000  0.555000  1.0  -0.2091
  N  N391  1  0.338000  0.110000  0.492000  1.0  -0.2531
  N  N392  1  0.494000  0.122000  0.552000  1.0  -0.2965
  N  N393  1  0.456000  0.101000  0.491000  1.0  -0.139
  N  N394  1  0.379000  0.001000  0.353000  1.0  -0.2731
  N  N395  1  0.301000  0.139000  0.475000  1.0  -0.2298
  N  N396  1  0.304000  0.134000  0.362000  1.0  -0.2702
  N  N397  1  0.381000  0.117000  0.351000  1.0  -0.2718
  N  N398  1  0.494000  0.117000  0.465000  1.0  -0.339
  N  N399  1  0.184000  0.028000  0.360000  1.0  -0.349
  N  N400  1  0.284000  0.940000  0.470000  1.0  -0.241
  O  O401  1  0.091000  0.823000  0.589000  1.0  -0.3725
  O  O402  1  0.245000  0.932000  0.706000  1.0  -0.2722
  O  O403  1  0.206000  0.764000  0.698000  1.0  -0.2837
  O  O404  1  0.458000  0.624000  0.840000  1.0  -0.5985
  O  O405  1  0.778000  0.628000  0.200000  1.0  -0.5904
  O  O406  1  0.876000  0.671000  0.201000  1.0  -0.5323
  O  O407  1  0.841000  0.657000  0.871000  1.0  -0.5735
  O  O408  1  0.750000  0.600000  0.774000  1.0  -0.5715
  O  O409  1  0.123000  0.809000  0.755000  1.0  -0.3017
  O  O410  1  0.536000  0.705000  0.923000  1.0  -0.6503
  O  O411  1  0.463000  0.324000  0.910000  1.0  -0.6064
  O  O412  1  0.514000  0.316000  0.858000  1.0  -0.591
  O  O413  1  0.909000  0.411000  0.177000  1.0  -0.3687
  O  O414  1  0.755000  0.294000  0.068000  1.0  -0.2714
  O  O415  1  0.794000  0.302000  0.236000  1.0  -0.2839
  O  O416  1  0.542000  0.160000  0.376000  1.0  -0.599
  O  O417  1  0.222000  0.800000  0.372000  1.0  -0.5906
  O  O418  1  0.124000  0.799000  0.329000  1.0  -0.5325
  O  O419  1  0.159000  0.129000  0.343000  1.0  -0.5732
  O  O420  1  0.250000  0.226000  0.400000  1.0  -0.571
  O  O421  1  0.877000  0.245000  0.191000  1.0  -0.3012
  O  O422  1  0.464000  0.077000  0.295000  1.0  -0.6517
  O  O423  1  0.537000  0.090000  0.676000  1.0  -0.6067
  O  O424  1  0.486000  0.142000  0.684000  1.0  -0.5896
