# generated using pymatgen
data_Co2H8C12N5ClO4
_symmetry_space_group_name_H-M   'P 1'
_cell_length_a   12.17200000
_cell_length_b   16.39740000
_cell_length_c   16.39740000
_cell_angle_alpha   65.91060000
_cell_angle_beta   75.67400000
_cell_angle_gamma   104.32600000
_symmetry_Int_Tables_number   1
_chemical_formula_structural   Co2H8C12N5ClO4
_chemical_formula_sum   'Co12 H48 C72 N30 Cl6 O24'
_cell_volume   2660.74656686
_cell_formula_units_Z   6
loop_
 _symmetry_equiv_pos_site_id
 _symmetry_equiv_pos_as_xyz
  1  'x, y, z'
loop_
 _atom_site_type_symbol
 _atom_site_label
 _atom_site_symmetry_multiplicity
 _atom_site_fract_x
 _atom_site_fract_y
 _atom_site_fract_z
 _atom_site_occupancy
 _atom_site_charge
  Co  Co1  1  0.377480  0.400590  0.552760  1.0  1.0075
  Co  Co2  1  0.604130  0.353220  0.606970  1.0  0.9223
  Co  Co3  1  0.930240  0.552760  0.046650  1.0  1.0059
  Co  Co4  1  0.211100  0.606970  0.039810  1.0  0.9232
  Co  Co5  1  0.976890  0.046650  0.400590  1.0  1.0046
  Co  Co6  1  0.250910  0.039810  0.353220  1.0  0.9254
  Co  Co7  1  0.622520  0.599410  0.447240  1.0  1.0075
  Co  Co8  1  0.395870  0.646780  0.393030  1.0  0.9249
  Co  Co9  1  0.069760  0.447240  0.953350  1.0  1.0058
  Co  Co10  1  0.788900  0.393030  0.960190  1.0  0.9236
  Co  Co11  1  0.023110  0.953350  0.599410  1.0  1.0081
  Co  Co12  1  0.749090  0.960190  0.646780  1.0  0.9224
  H  H13  1  0.248000  0.563700  0.230500  1.0  0.0813
  H  H14  1  0.437100  0.386100  0.144700  1.0  0.1092
  H  H15  1  0.202500  0.121700  0.594300  1.0  0.0721
  H  H16  1  0.160000  0.850300  0.712600  1.0  0.0787
  H  H17  1  0.439400  0.043800  0.706900  1.0  0.1182
  H  H18  1  0.422000  0.383200  0.290000  1.0  0.1026
  H  H19  1  0.327800  0.885000  0.749700  1.0  0.1102
  H  H20  1  0.353900  0.475300  0.049100  1.0  0.0725
  H  H21  1  0.478500  0.230500  0.205800  1.0  0.0826
  H  H22  1  0.581800  0.144700  0.469200  1.0  0.1106
  H  H23  1  0.796800  0.594300  0.284000  1.0  0.0716
  H  H24  1  0.872600  0.712600  0.437100  1.0  0.0783
  H  H25  1  0.146300  0.706900  0.249300  1.0  0.1173
  H  H26  1  0.712000  0.290000  0.326800  1.0  0.1026
  H  H27  1  0.077500  0.749700  0.365300  1.0  0.1102
  H  H28  1  0.403000  0.049100  0.475600  1.0  0.0715
  H  H29  1  0.684300  0.205800  0.563700  1.0  0.0826
  H  H30  1  0.051000  0.469200  0.386100  1.0  0.11
  H  H31  1  0.080800  0.284000  0.121700  1.0  0.0715
  H  H32  1  0.309700  0.437100  0.850300  1.0  0.0772
  H  H33  1  0.395600  0.249300  0.043800  1.0  0.1205
  H  H34  1  0.038800  0.326800  0.383200  1.0  0.1025
  H  H35  1  0.442800  0.365300  0.885000  1.0  0.1101
  H  H36  1  0.878600  0.475600  0.475300  1.0  0.0717
  H  H37  1  0.752000  0.436300  0.769500  1.0  0.0821
  H  H38  1  0.562900  0.613900  0.855300  1.0  0.1098
  H  H39  1  0.797500  0.878300  0.405700  1.0  0.0721
  H  H40  1  0.840000  0.149700  0.287400  1.0  0.0782
  H  H41  1  0.560600  0.956200  0.293100  1.0  0.118
  H  H42  1  0.578000  0.616800  0.710000  1.0  0.1023
  H  H43  1  0.672200  0.115000  0.250300  1.0  0.1105
  H  H44  1  0.646100  0.524700  0.950900  1.0  0.0723
  H  H45  1  0.521500  0.769500  0.794200  1.0  0.0826
  H  H46  1  0.418200  0.855300  0.530800  1.0  0.1111
  H  H47  1  0.203200  0.405700  0.716000  1.0  0.0713
  H  H48  1  0.127400  0.287400  0.562900  1.0  0.0786
  H  H49  1  0.853700  0.293100  0.750700  1.0  0.1196
  H  H50  1  0.288000  0.710000  0.673200  1.0  0.1024
  H  H51  1  0.922500  0.250300  0.634700  1.0  0.1103
  H  H52  1  0.597000  0.950900  0.524400  1.0  0.0721
  H  H53  1  0.315700  0.794200  0.436300  1.0  0.0829
  H  H54  1  0.949000  0.530800  0.613900  1.0  0.1101
  H  H55  1  0.919200  0.716000  0.878300  1.0  0.0718
  H  H56  1  0.690300  0.562900  0.149700  1.0  0.078
  H  H57  1  0.604400  0.750700  0.956200  1.0  0.1201
  H  H58  1  0.961200  0.673200  0.616800  1.0  0.1024
  H  H59  1  0.557200  0.634700  0.115000  1.0  0.1119
  H  H60  1  0.121400  0.524400  0.524700  1.0  0.0713
  C  C61  1  0.334400  0.474600  0.274300  1.0  -0.2037
  C  C62  1  0.286200  0.527200  0.213200  1.0  0.1945
  C  C63  1  0.332600  0.099600  0.643900  1.0  -0.2086
  C  C64  1  0.398400  0.421500  0.163900  1.0  -0.1771
  C  C65  1  0.230000  0.073900  0.624200  1.0  0.203
  C  C66  1  0.204400  0.914400  0.694200  1.0  0.1847
  C  C67  1  0.327100  0.480000  0.366400  1.0  0.6906
  C  C68  1  0.371000  0.028800  0.691900  1.0  0.038
  C  C69  1  0.390300  0.420000  0.249700  1.0  0.0548
  C  C70  1  0.398100  0.205200  0.613000  1.0  0.6994
  C  C71  1  0.304400  0.934600  0.717100  1.0  -0.1794
  C  C72  1  0.348500  0.475500  0.106600  1.0  0.1813
  C  C73  1  0.608700  0.274300  0.251100  1.0  -0.2054
  C  C74  1  0.499400  0.213200  0.259600  1.0  0.1972
  C  C75  1  0.976500  0.643900  0.256500  1.0  -0.2026
  C  C76  1  0.562300  0.163900  0.414600  1.0  -0.1764
  C  C77  1  0.854200  0.624200  0.301900  1.0  0.2018
  C  C78  1  0.898600  0.694200  0.391400  1.0  0.1862
  C  C79  1  0.693500  0.366400  0.153600  1.0  0.6883
  C  C80  1  0.062900  0.691900  0.279300  1.0  0.0331
  C  C81  1  0.640000  0.249700  0.330300  1.0  0.0526
  C  C82  1  0.011100  0.613000  0.181800  1.0  0.7037
  C  C83  1  0.021500  0.717100  0.348300  1.0  -0.1807
  C  C84  1  0.455100  0.106600  0.417900  1.0  0.1798
  C  C85  1  0.859800  0.251100  0.474600  1.0  -0.2056
  C  C86  1  0.759000  0.259600  0.527200  1.0  0.1963
  C  C87  1  0.233000  0.256500  0.099600  1.0  -0.2041
  C  C88  1  0.976900  0.414600  0.421500  1.0  -0.1771
  C  C89  1  0.156100  0.301900  0.073900  1.0  0.2032
  C  C90  1  0.290000  0.391400  0.914400  1.0  0.1868
  C  C91  1  0.847100  0.153600  0.480000  1.0  0.6889
  C  C92  1  0.342200  0.279300  0.028800  1.0  0.0331
  C  C93  1  0.970300  0.330300  0.420000  1.0  0.0532
  C  C94  1  0.192900  0.181800  0.205200  1.0  0.699
  C  C95  1  0.369800  0.348300  0.934600  1.0  -0.1824
  C  C96  1  0.873000  0.417900  0.475500  1.0  0.1795
  C  C97  1  0.665600  0.525400  0.725700  1.0  -0.2027
  C  C98  1  0.713800  0.472800  0.786800  1.0  0.195
  C  C99  1  0.667400  0.900400  0.356100  1.0  -0.2124
  C  C100  1  0.601600  0.578500  0.836100  1.0  -0.179
  C  C101  1  0.770000  0.926100  0.375800  1.0  0.2039
  C  C102  1  0.795600  0.085600  0.305800  1.0  0.1855
  C  C103  1  0.672900  0.520000  0.633600  1.0  0.6898
  C  C104  1  0.629000  0.971200  0.308100  1.0  0.0372
  C  C105  1  0.609700  0.580000  0.750300  1.0  0.0544
  C  C106  1  0.601900  0.794800  0.387000  1.0  0.7004
  C  C107  1  0.695600  0.065400  0.282900  1.0  -0.1811
  C  C108  1  0.651500  0.524500  0.893400  1.0  0.1802
  C  C109  1  0.391300  0.725700  0.748900  1.0  -0.2044
  C  C110  1  0.500600  0.786800  0.740400  1.0  0.1959
  C  C111  1  0.023500  0.356100  0.743500  1.0  -0.2014
  C  C112  1  0.437700  0.836100  0.585400  1.0  -0.1763
  C  C113  1  0.145800  0.375800  0.698100  1.0  0.203
  C  C114  1  0.101400  0.305800  0.608600  1.0  0.1862
  C  C115  1  0.306500  0.633600  0.846400  1.0  0.6875
  C  C116  1  0.937100  0.308100  0.720700  1.0  0.0317
  C  C117  1  0.360000  0.750300  0.669700  1.0  0.0561
  C  C118  1  0.988900  0.387000  0.818200  1.0  0.7047
  C  C119  1  0.978500  0.282900  0.651700  1.0  -0.1821
  C  C120  1  0.544900  0.893400  0.582100  1.0  0.1805
  C  C121  1  0.140200  0.748900  0.525400  1.0  -0.2049
  C  C122  1  0.241000  0.740400  0.472800  1.0  0.1955
  C  C123  1  0.767000  0.743500  0.900400  1.0  -0.2044
  C  C124  1  0.023100  0.585400  0.578500  1.0  -0.1779
  C  C125  1  0.843900  0.698100  0.926100  1.0  0.2026
  C  C126  1  0.710000  0.608600  0.085600  1.0  0.186
  C  C127  1  0.152900  0.846400  0.520000  1.0  0.6884
  C  C128  1  0.657800  0.720700  0.971200  1.0  0.0336
  C  C129  1  0.029700  0.669700  0.580000  1.0  0.0553
  C  C130  1  0.807100  0.818200  0.794800  1.0  0.699
  C  C131  1  0.630200  0.651700  0.065400  1.0  -0.1835
  C  C132  1  0.127000  0.582100  0.524500  1.0  0.1783
  N  N133  1  0.292900  0.527500  0.130400  1.0  -0.3647
  N  N134  1  0.168200  0.983100  0.645900  1.0  -0.3565
  N  N135  1  0.578600  0.449300  0.482100  1.0  -0.8475
  N  N136  1  0.603500  0.431900  0.414600  1.0  0.579
  N  N137  1  0.624000  0.418200  0.352600  1.0  -0.27
  N  N138  1  0.423300  0.130400  0.342100  1.0  -0.3676
  N  N139  1  0.814100  0.645900  0.371000  1.0  -0.3562
  N  N140  1  0.060700  0.482100  0.068600  1.0  -0.8493
  N  N141  1  0.018100  0.414600  0.153500  1.0  0.5786
  N  N142  1  0.976600  0.352600  0.229200  1.0  -0.2693
  N  N143  1  0.765400  0.342100  0.527500  1.0  -0.3652
  N  N144  1  0.185100  0.371000  0.983100  1.0  -0.356
  N  N145  1  0.129300  0.068600  0.449300  1.0  -0.8506
  N  N146  1  0.171600  0.153500  0.431900  1.0  0.578
  N  N147  1  0.205800  0.229200  0.418200  1.0  -0.2713
  N  N148  1  0.707100  0.472500  0.869600  1.0  -0.3644
  N  N149  1  0.831800  0.016900  0.354100  1.0  -0.3568
  N  N150  1  0.421400  0.550700  0.517900  1.0  -0.8522
  N  N151  1  0.396500  0.568100  0.585400  1.0  0.5786
  N  N152  1  0.376000  0.581800  0.647400  1.0  -0.2689
  N  N153  1  0.576700  0.869600  0.657900  1.0  -0.3689
  N  N154  1  0.185900  0.354100  0.629000  1.0  -0.3565
  N  N155  1  0.939300  0.517900  0.931400  1.0  -0.8491
  N  N156  1  0.981900  0.585400  0.846500  1.0  0.5783
  N  N157  1  0.023400  0.647400  0.770800  1.0  -0.2715
  N  N158  1  0.234600  0.657900  0.472500  1.0  -0.3658
  N  N159  1  0.814900  0.629000  0.016900  1.0  -0.3566
  N  N160  1  0.870700  0.931400  0.550700  1.0  -0.8497
  N  N161  1  0.828400  0.846500  0.568100  1.0  0.5784
  N  N162  1  0.794200  0.770800  0.581800  1.0  -0.2705
  Cl  Cl163  1  0.413520  0.356150  0.705090  1.0  -0.5277
  Cl  Cl164  1  0.118610  0.705090  0.938760  1.0  -0.5278
  Cl  Cl165  1  0.057370  0.938760  0.356150  1.0  -0.5291
  Cl  Cl166  1  0.586480  0.643850  0.294910  1.0  -0.5276
  Cl  Cl167  1  0.881390  0.294910  0.061240  1.0  -0.5281
  Cl  Cl168  1  0.942630  0.061240  0.643850  1.0  -0.5297
  O  O169  1  0.347000  0.260800  0.581300  1.0  -0.5681
  O  O170  1  0.358700  0.423400  0.423200  1.0  -0.558
  O  O171  1  0.499500  0.227100  0.620800  1.0  -0.6079
  O  O172  1  0.292700  0.543200  0.375000  1.0  -0.6203
  O  O173  1  0.928300  0.581300  0.157900  1.0  -0.569
  O  O174  1  0.781900  0.423200  0.153400  1.0  -0.558
  O  O175  1  0.120300  0.620800  0.152100  1.0  -0.6052
  O  O176  1  0.667700  0.375000  0.081800  1.0  -0.6205
  O  O177  1  0.086200  0.157900  0.260800  1.0  -0.5785
  O  O178  1  0.935300  0.153400  0.423400  1.0  -0.5573
  O  O179  1  0.272400  0.152100  0.227100  1.0  -0.6075
  O  O180  1  0.749500  0.081800  0.543200  1.0  -0.6204
  O  O181  1  0.653000  0.739200  0.418700  1.0  -0.5695
  O  O182  1  0.641300  0.576600  0.576800  1.0  -0.5577
  O  O183  1  0.500500  0.772900  0.379200  1.0  -0.6085
  O  O184  1  0.707300  0.456800  0.625000  1.0  -0.6221
  O  O185  1  0.071700  0.418700  0.842100  1.0  -0.5706
  O  O186  1  0.218100  0.576800  0.846600  1.0  -0.5582
  O  O187  1  0.879700  0.379200  0.847900  1.0  -0.6058
  O  O188  1  0.332300  0.625000  0.918200  1.0  -0.6215
  O  O189  1  0.913800  0.842100  0.739200  1.0  -0.5794
  O  O190  1  0.064700  0.846600  0.576600  1.0  -0.558
  O  O191  1  0.727600  0.847900  0.772900  1.0  -0.6082
  O  O192  1  0.250500  0.918200  0.456800  1.0  -0.6208
