# generated using pymatgen
data_AgH12C10S4N4ClO4
_symmetry_space_group_name_H-M   'P 1'
_cell_length_a   8.41500000
_cell_length_b   12.50300000
_cell_length_c   12.68200000
_cell_angle_alpha   62.90800000
_cell_angle_beta   87.26100000
_cell_angle_gamma   71.41600000
_symmetry_Int_Tables_number   1
_chemical_formula_structural   AgH12C10S4N4ClO4
_chemical_formula_sum   'Ag2 H24 C20 S8 N8 Cl2 O8'
_cell_volume   1118.44442279
_cell_formula_units_Z   2
loop_
 _symmetry_equiv_pos_site_id
 _symmetry_equiv_pos_as_xyz
  1  'x, y, z'
loop_
 _atom_site_type_symbol
 _atom_site_label
 _atom_site_symmetry_multiplicity
 _atom_site_fract_x
 _atom_site_fract_y
 _atom_site_fract_z
 _atom_site_occupancy
 _atom_site_charge
  Ag  Ag1  1  0.756640  0.485940  0.485610  1.0  0.3464
  Ag  Ag2  1  0.243360  0.514060  0.514390  1.0  0.3464
  H  H3  1  0.494500  0.813000  0.446800  1.0  0.1574
  H  H4  1  0.472900  0.771600  0.581900  1.0  0.1517
  H  H5  1  0.508200  0.671700  0.533900  1.0  0.1393
  H  H6  1  0.021300  0.866600  0.689400  1.0  0.142
  H  H7  1  0.209900  0.861100  0.681100  1.0  0.1437
  H  H8  1  0.152800  0.951000  0.468100  1.0  0.0982
  H  H9  1  0.783100  0.706500  0.224000  1.0  0.1495
  H  H10  1  0.693700  0.751800  0.098000  1.0  0.1674
  H  H11  1  0.764700  0.606100  0.188100  1.0  0.1536
  H  H12  1  0.872600  0.020600  0.175700  1.0  0.1482
  H  H13  1  0.061400  0.012600  0.160900  1.0  0.1451
  H  H14  1  0.891900  0.931500  0.039200  1.0  0.1051
  H  H15  1  0.505500  0.187000  0.553200  1.0  0.1587
  H  H16  1  0.527100  0.228400  0.418100  1.0  0.1512
  H  H17  1  0.491800  0.328300  0.466100  1.0  0.1379
  H  H18  1  0.978700  0.133400  0.310600  1.0  0.1408
  H  H19  1  0.790100  0.138900  0.318900  1.0  0.1431
  H  H20  1  0.847200  0.049000  0.531900  1.0  0.0985
  H  H21  1  0.216900  0.293500  0.776000  1.0  0.1503
  H  H22  1  0.306300  0.248200  0.902000  1.0  0.1679
  H  H23  1  0.235300  0.393900  0.811900  1.0  0.1538
  H  H24  1  0.127400  0.979400  0.824300  1.0  0.1479
  H  H25  1  0.938600  0.987400  0.839100  1.0  0.1455
  H  H26  1  0.108100  0.068500  0.960800  1.0  0.1044
  C  C27  1  0.531600  0.744900  0.526600  1.0  -0.4024
  C  C28  1  0.715200  0.711900  0.553100  1.0  0.2253
  C  C29  1  0.991300  0.692700  0.608500  1.0  0.0568
  C  C30  1  0.117200  0.853400  0.645700  1.0  -0.1363
  C  C31  1  0.072700  0.953600  0.520800  1.0  -0.13
  C  C32  1  0.711700  0.689900  0.180600  1.0  -0.3797
  C  C33  1  0.545000  0.698100  0.230400  1.0  0.1822
  C  C34  1  0.261700  0.753000  0.273100  1.0  0.0387
  C  C35  1  0.980200  0.971400  0.163300  1.0  -0.1482
  C  C36  1  0.962000  0.972500  0.046900  1.0  -0.1171
  C  C37  1  0.468400  0.255100  0.473400  1.0  -0.399
  C  C38  1  0.284800  0.288100  0.446900  1.0  0.2212
  C  C39  1  0.008700  0.307300  0.391500  1.0  0.0571
  C  C40  1  0.882800  0.146600  0.354300  1.0  -0.1399
  C  C41  1  0.927300  0.046400  0.479200  1.0  -0.1322
  C  C42  1  0.288300  0.310100  0.819400  1.0  -0.3792
  C  C43  1  0.455000  0.301900  0.769600  1.0  0.1922
  C  C44  1  0.738300  0.247000  0.726900  1.0  0.0274
  C  C45  1  0.019800  0.028600  0.836700  1.0  -0.1487
  C  C46  1  0.038000  0.027500  0.953100  1.0  -0.1113
  S  S47  1  0.793720  0.789220  0.608340  1.0  0.1592
  S  S48  1  0.178020  0.692080  0.661640  1.0  -0.0049
  S  S49  1  0.363390  0.822150  0.153260  1.0  0.1633
  S  S50  1  0.048530  0.811730  0.288230  1.0  0.0228
  S  S51  1  0.206280  0.210780  0.391660  1.0  0.1591
  S  S52  1  0.821980  0.307920  0.338360  1.0  -0.006
  S  S53  1  0.636610  0.177850  0.846740  1.0  0.1636
  S  S54  1  0.951470  0.188270  0.711770  1.0  0.0223
  N  N55  1  0.830900  0.623500  0.537600  1.0  -0.1946
  N  N56  1  0.991900  0.613300  0.569200  1.0  -0.1765
  N  N57  1  0.524300  0.615000  0.333200  1.0  -0.2082
  N  N58  1  0.358600  0.646000  0.358300  1.0  -0.1776
  N  N59  1  0.169100  0.376500  0.462400  1.0  -0.1946
  N  N60  1  0.008100  0.386700  0.430800  1.0  -0.1772
  N  N61  1  0.475700  0.385000  0.666800  1.0  -0.2076
  N  N62  1  0.641400  0.354000  0.641700  1.0  -0.1779
  Cl  Cl63  1  0.522300  0.934900  0.783210  1.0  1.5797
  Cl  Cl64  1  0.477700  0.065100  0.216790  1.0  1.5806
  O  O65  1  0.673500  0.962700  0.747700  1.0  -0.6234
  O  O66  1  0.465600  0.899100  0.709600  1.0  -0.5918
  O  O67  1  0.560000  0.830000  0.899000  1.0  -0.6075
  O  O68  1  0.399400  0.043800  0.778600  1.0  -0.5767
  O  O69  1  0.326500  0.037300  0.252300  1.0  -0.6227
  O  O70  1  0.534400  0.100900  0.290400  1.0  -0.5906
  O  O71  1  0.440000  0.170000  0.101000  1.0  -0.607
  O  O72  1  0.600600  0.956200  0.221400  1.0  -0.5766
