# generated using pymatgen
data_LaMo2H5C7NO9
_symmetry_space_group_name_H-M   'P 1'
_cell_length_a   11.55200000
_cell_length_b   12.74200000
_cell_length_c   14.58900000
_cell_angle_alpha   94.22000000
_cell_angle_beta   109.01000000
_cell_angle_gamma   115.57000000
_symmetry_Int_Tables_number   1
_chemical_formula_structural   LaMo2H5C7NO9
_chemical_formula_sum   'La4 Mo8 H20 C28 N4 O36'
_cell_volume   1772.77554645
_cell_formula_units_Z   4
loop_
 _symmetry_equiv_pos_site_id
 _symmetry_equiv_pos_as_xyz
  1  'x, y, z'
loop_
 _atom_site_type_symbol
 _atom_site_label
 _atom_site_symmetry_multiplicity
 _atom_site_fract_x
 _atom_site_fract_y
 _atom_site_fract_z
 _atom_site_occupancy
 _atom_site_charge
  La  La1  1  0.118490  0.548300  0.168890  1.0  2.1526
  La  La2  1  0.265510  0.475620  0.556310  1.0  2.0344
  La  La3  1  0.881510  0.451700  0.831110  1.0  2.1522
  La  La4  1  0.734490  0.524380  0.443690  1.0  2.0347
  Mo  Mo5  1  0.127230  0.073030  0.271910  1.0  0.6971
  Mo  Mo6  1  0.121980  0.874320  0.115590  1.0  1.2769
  Mo  Mo7  1  0.150750  0.240700  0.113960  1.0  1.2731
  Mo  Mo8  1  0.146300  0.043560  0.961910  1.0  1.1918
  Mo  Mo9  1  0.872770  0.926970  0.728090  1.0  0.6985
  Mo  Mo10  1  0.878020  0.125680  0.884410  1.0  1.2765
  Mo  Mo11  1  0.849250  0.759300  0.886040  1.0  1.2715
  Mo  Mo12  1  0.853700  0.956440  0.038090  1.0  1.1928
  H  H13  1  0.386500  0.660100  0.443200  1.0  0.4639
  H  H14  1  0.417400  0.588200  0.470100  1.0  0.3944
  H  H15  1  0.094100  0.623800  0.462300  1.0  0.4155
  H  H16  1  0.123400  0.584800  0.562300  1.0  0.3518
  H  H17  1  0.786500  0.167300  0.294300  1.0  0.1203
  H  H18  1  0.581900  0.071700  0.148500  1.0  0.1109
  H  H19  1  0.576800  0.150000  0.009300  1.0  0.1146
  H  H20  1  0.452300  0.612700  0.097400  1.0  0.1186
  H  H21  1  0.614700  0.656000  0.024700  1.0  0.0996
  H  H22  1  0.811200  0.634300  0.101300  1.0  0.1219
  H  H23  1  0.613500  0.339900  0.556800  1.0  0.4634
  H  H24  1  0.582600  0.411800  0.529900  1.0  0.4003
  H  H25  1  0.905900  0.376200  0.537700  1.0  0.417
  H  H26  1  0.876600  0.415200  0.437700  1.0  0.3498
  H  H27  1  0.213500  0.832700  0.705700  1.0  0.1204
  H  H28  1  0.418100  0.928300  0.851500  1.0  0.1129
  H  H29  1  0.423200  0.850000  0.990700  1.0  0.1147
  H  H30  1  0.547700  0.387300  0.902600  1.0  0.1174
  H  H31  1  0.385300  0.344000  0.975300  1.0  0.0997
  H  H32  1  0.188800  0.365700  0.898700  1.0  0.1219
  C  C33  1  0.892300  0.301300  0.239600  1.0  0.1301
  C  C34  1  0.780600  0.197900  0.238000  1.0  -0.1026
  C  C35  1  0.659400  0.140400  0.151100  1.0  -0.059
  C  C36  1  0.656200  0.187100  0.068800  1.0  -0.1184
  C  C37  1  0.772800  0.290000  0.075800  1.0  0.1375
  C  C38  1  0.026100  0.372900  0.331300  1.0  0.6851
  C  C39  1  0.781200  0.347600  0.991100  1.0  0.6433
  C  C40  1  0.561200  0.576900  0.218700  1.0  0.1022
  C  C41  1  0.533700  0.608100  0.128300  1.0  -0.0788
  C  C42  1  0.629700  0.632600  0.084500  1.0  -0.0464
  C  C43  1  0.747300  0.621700  0.130500  1.0  -0.0687
  C  C44  1  0.767700  0.591200  0.222100  1.0  0.1143
  C  C45  1  0.466100  0.551600  0.275100  1.0  0.7141
  C  C46  1  0.897900  0.585100  0.281200  1.0  0.6999
  C  C47  1  0.107700  0.698700  0.760400  1.0  0.1312
  C  C48  1  0.219400  0.802100  0.762000  1.0  -0.1053
  C  C49  1  0.340600  0.859600  0.848900  1.0  -0.0625
  C  C50  1  0.343800  0.812900  0.931200  1.0  -0.1187
  C  C51  1  0.227200  0.710000  0.924200  1.0  0.1369
  C  C52  1  0.973900  0.627100  0.668700  1.0  0.6858
  C  C53  1  0.218800  0.652400  0.008900  1.0  0.6442
  C  C54  1  0.438800  0.423100  0.781300  1.0  0.1036
  C  C55  1  0.466300  0.391900  0.871700  1.0  -0.0783
  C  C56  1  0.370300  0.367400  0.915500  1.0  -0.0461
  C  C57  1  0.252700  0.378300  0.869500  1.0  -0.0683
  C  C58  1  0.232300  0.408800  0.777900  1.0  0.1137
  C  C59  1  0.533900  0.448400  0.724900  1.0  0.7158
  C  C60  1  0.102100  0.414900  0.718800  1.0  0.6997
  N  N61  1  0.889500  0.346700  0.160000  1.0  -0.4079
  N  N62  1  0.677800  0.569400  0.265000  1.0  -0.5243
  N  N63  1  0.110500  0.653300  0.840000  1.0  -0.4082
  N  N64  1  0.322200  0.430600  0.735000  1.0  -0.528
  O  O65  1  0.125400  0.458400  0.322500  1.0  -0.7318
  O  O66  1  0.030600  0.344900  0.412700  1.0  -0.7073
  O  O67  1  0.883700  0.452300  0.012070  1.0  -0.749
  O  O68  1  0.308200  0.707000  0.095900  1.0  -0.6218
  O  O69  1  0.908700  0.561900  0.365200  1.0  -0.6993
  O  O70  1  0.987300  0.605700  0.245600  1.0  -0.7155
  O  O71  1  0.506300  0.523600  0.356100  1.0  -0.7315
  O  O72  1  0.358300  0.560100  0.239000  1.0  -0.6924
  O  O73  1  0.118600  0.360100  0.103000  1.0  -0.6766
  O  O74  1  0.104200  0.047300  0.097220  1.0  -0.8398
  O  O75  1  0.084700  0.910400  0.227570  1.0  -0.6567
  O  O76  1  0.111400  0.206900  0.227400  1.0  -0.65
  O  O77  1  0.894500  0.983500  0.166400  1.0  -0.5482
  O  O78  1  0.077000  0.726000  0.108100  1.0  -0.6747
  O  O79  1  0.885700  0.818500  0.026510  1.0  -0.6933
  O  O80  1  0.092400  0.880500  0.974470  1.0  -0.7151
  O  O81  1  0.427800  0.645600  0.494400  1.0  -0.8531
  O  O82  1  0.165600  0.620300  0.513000  1.0  -0.806
  O  O83  1  0.874600  0.541600  0.677500  1.0  -0.7322
  O  O84  1  0.969400  0.655100  0.587300  1.0  -0.698
  O  O85  1  0.116300  0.547700  0.987930  1.0  -0.7508
  O  O86  1  0.691800  0.293000  0.904100  1.0  -0.6255
  O  O87  1  0.091300  0.438100  0.634800  1.0  -0.7006
  O  O88  1  0.012700  0.394300  0.754400  1.0  -0.7212
  O  O89  1  0.493700  0.476400  0.643900  1.0  -0.7302
  O  O90  1  0.641700  0.439900  0.761000  1.0  -0.6921
  O  O91  1  0.881400  0.639900  0.897000  1.0  -0.6772
  O  O92  1  0.895800  0.952700  0.902780  1.0  -0.8414
  O  O93  1  0.915300  0.089600  0.772430  1.0  -0.6516
  O  O94  1  0.888600  0.793100  0.772600  1.0  -0.6508
  O  O95  1  0.105500  0.016500  0.833600  1.0  -0.547
  O  O96  1  0.923000  0.274000  0.891900  1.0  -0.6735
  O  O97  1  0.114300  0.181500  0.973490  1.0  -0.6924
  O  O98  1  0.907600  0.119500  0.025530  1.0  -0.7066
  O  O99  1  0.572200  0.354400  0.505600  1.0  -0.8521
  O  O100  1  0.834400  0.379700  0.487000  1.0  -0.8116
