# generated using pymatgen
data_Cu3H12C28(NO4)4
_symmetry_space_group_name_H-M   'P 1'
_cell_length_a   13.66800000
_cell_length_b   17.52500000
_cell_length_c   19.05900000
_cell_angle_alpha   90.00000000
_cell_angle_beta   90.00000000
_cell_angle_gamma   90.00000000
_symmetry_Int_Tables_number   1
_chemical_formula_structural   Cu3H12C28(NO4)4
_chemical_formula_sum   'Cu12 H48 C112 N16 O64'
_cell_volume   4565.23467030
_cell_formula_units_Z   4
loop_
 _symmetry_equiv_pos_site_id
 _symmetry_equiv_pos_as_xyz
  1  'x, y, z'
loop_
 _atom_site_type_symbol
 _atom_site_label
 _atom_site_symmetry_multiplicity
 _atom_site_fract_x
 _atom_site_fract_y
 _atom_site_fract_z
 _atom_site_occupancy
 _atom_site_charge
  Cu  Cu1  1  0.430010  0.139770  0.609770  1.0  0.7446
  Cu  Cu2  1  0.069990  0.860230  0.109770  1.0  0.7449
  Cu  Cu3  1  0.569990  0.639770  0.890230  1.0  0.7448
  Cu  Cu4  1  0.930010  0.360230  0.390230  1.0  0.7448
  Cu  Cu5  1  0.569990  0.860230  0.390230  1.0  0.745
  Cu  Cu6  1  0.930010  0.139770  0.890230  1.0  0.7448
  Cu  Cu7  1  0.430010  0.360230  0.109770  1.0  0.7447
  Cu  Cu8  1  0.069990  0.639770  0.609770  1.0  0.7447
  Cu  Cu9  1  0.500000  0.000000  0.000000  1.0  0.5952
  Cu  Cu10  1  0.000000  0.000000  0.500000  1.0  0.5953
  Cu  Cu11  1  0.500000  0.500000  0.500000  1.0  0.5953
  Cu  Cu12  1  0.000000  0.500000  0.000000  1.0  0.5952
  H  H13  1  0.732800  0.077600  0.904600  1.0  0.1016
  H  H14  1  0.753200  0.091200  0.666667  1.0  0.1297
  H  H15  1  0.883200  0.124000  0.735900  1.0  0.1199
  H  H16  1  0.113600  0.083200  0.939900  1.0  0.1076
  H  H17  1  0.135800  0.324900  0.026400  1.0  0.1291
  H  H18  1  0.999300  0.284900  0.967900  1.0  0.1028
  H  H19  1  0.767200  0.922400  0.404600  1.0  0.1015
  H  H20  1  0.746800  0.908800  0.166700  1.0  0.1296
  H  H21  1  0.616800  0.876000  0.235900  1.0  0.1192
  H  H22  1  0.386400  0.916800  0.439900  1.0  0.1069
  H  H23  1  0.364200  0.675100  0.526400  1.0  0.1283
  H  H24  1  0.500700  0.715100  0.467900  1.0  0.1029
  H  H25  1  0.267200  0.577600  0.595400  1.0  0.1015
  H  H26  1  0.246800  0.591200  0.833300  1.0  0.1289
  H  H27  1  0.116800  0.624000  0.764100  1.0  0.1199
  H  H28  1  0.886400  0.583200  0.560100  1.0  0.1073
  H  H29  1  0.864200  0.824900  0.473600  1.0  0.129
  H  H30  1  0.000700  0.784900  0.532100  1.0  0.1033
  H  H31  1  0.232800  0.422400  0.095400  1.0  0.1016
  H  H32  1  0.253200  0.408800  0.333333  1.0  0.1293
  H  H33  1  0.383200  0.376000  0.264100  1.0  0.1201
  H  H34  1  0.613600  0.416800  0.060100  1.0  0.1066
  H  H35  1  0.635800  0.175100  0.973600  1.0  0.129
  H  H36  1  0.499300  0.215100  0.032100  1.0  0.1033
  H  H37  1  0.267200  0.922400  0.095400  1.0  0.1018
  H  H38  1  0.246800  0.908800  0.333333  1.0  0.1296
  H  H39  1  0.116800  0.876000  0.264100  1.0  0.1197
  H  H40  1  0.886400  0.916800  0.060100  1.0  0.1067
  H  H41  1  0.864200  0.675100  0.973600  1.0  0.1286
  H  H42  1  0.000700  0.715100  0.032100  1.0  0.1031
  H  H43  1  0.232800  0.077600  0.595400  1.0  0.1014
  H  H44  1  0.253200  0.091200  0.833300  1.0  0.1288
  H  H45  1  0.383200  0.124000  0.764100  1.0  0.1202
  H  H46  1  0.613600  0.083200  0.560100  1.0  0.1073
  H  H47  1  0.635800  0.324900  0.473600  1.0  0.1295
  H  H48  1  0.499300  0.284900  0.532100  1.0  0.103
  H  H49  1  0.732800  0.422400  0.404600  1.0  0.1015
  H  H50  1  0.753200  0.408800  0.166700  1.0  0.1294
  H  H51  1  0.883200  0.376000  0.235900  1.0  0.1196
  H  H52  1  0.113600  0.416800  0.439900  1.0  0.1067
  H  H53  1  0.135800  0.175100  0.526400  1.0  0.1288
  H  H54  1  0.999300  0.215100  0.467900  1.0  0.103
  H  H55  1  0.767200  0.577600  0.904600  1.0  0.1017
  H  H56  1  0.746800  0.591200  0.666667  1.0  0.1301
  H  H57  1  0.616800  0.624000  0.735900  1.0  0.1195
  H  H58  1  0.386400  0.583200  0.939900  1.0  0.1076
  H  H59  1  0.364200  0.824900  0.026400  1.0  0.1285
  H  H60  1  0.500700  0.784900  0.967900  1.0  0.1033
  C  C61  1  0.735600  0.082110  0.856020  1.0  0.2207
  C  C62  1  0.652500  0.064050  0.817990  1.0  -0.1516
  C  C63  1  0.561800  0.040400  0.857820  1.0  0.7272
  C  C64  1  0.657600  0.068040  0.744650  1.0  0.012
  C  C65  1  0.572300  0.056800  0.694950  1.0  0.6747
  C  C66  1  0.746600  0.089600  0.715250  1.0  -0.0791
  C  C67  1  0.825000  0.108700  0.756880  1.0  0.1686
  C  C68  1  0.118700  0.132500  0.957710  1.0  0.2158
  C  C69  1  0.203600  0.151700  0.993740  1.0  -0.0936
  C  C70  1  0.283100  0.091200  0.996960  1.0  0.6848
  C  C71  1  0.211000  0.225800  0.020480  1.0  0.0164
  C  C72  1  0.296600  0.252400  0.065440  1.0  0.6579
  C  C73  1  0.132800  0.275200  0.009490  1.0  -0.083
  C  C74  1  0.051110  0.251050  0.973740  1.0  0.1896
  C  C75  1  0.764400  0.917890  0.356020  1.0  0.2203
  C  C76  1  0.847500  0.935950  0.317990  1.0  -0.1496
  C  C77  1  0.938200  0.959600  0.357820  1.0  0.727
  C  C78  1  0.842400  0.931960  0.244650  1.0  0.0125
  C  C79  1  0.927700  0.943200  0.194950  1.0  0.6716
  C  C80  1  0.753400  0.910400  0.215250  1.0  -0.0761
  C  C81  1  0.675000  0.891300  0.256880  1.0  0.1683
  C  C82  1  0.381300  0.867500  0.457710  1.0  0.2163
  C  C83  1  0.296400  0.848300  0.493740  1.0  -0.0936
  C  C84  1  0.216900  0.908800  0.496960  1.0  0.6858
  C  C85  1  0.289000  0.774200  0.520480  1.0  0.0159
  C  C86  1  0.203400  0.747600  0.565440  1.0  0.6575
  C  C87  1  0.367200  0.724800  0.509490  1.0  -0.0831
  C  C88  1  0.448890  0.748950  0.473740  1.0  0.1909
  C  C89  1  0.264400  0.582110  0.643980  1.0  0.2202
  C  C90  1  0.347500  0.564050  0.682010  1.0  -0.1502
  C  C91  1  0.438200  0.540400  0.642180  1.0  0.7264
  C  C92  1  0.342400  0.568040  0.755350  1.0  0.0133
  C  C93  1  0.427700  0.556800  0.805050  1.0  0.6738
  C  C94  1  0.253400  0.589600  0.784750  1.0  -0.0787
  C  C95  1  0.175000  0.608700  0.743120  1.0  0.1671
  C  C96  1  0.881300  0.632500  0.542290  1.0  0.2167
  C  C97  1  0.796400  0.651700  0.506260  1.0  -0.096
  C  C98  1  0.716900  0.591200  0.503040  1.0  0.6859
  C  C99  1  0.789000  0.725800  0.479520  1.0  0.016
  C  C100  1  0.703400  0.752400  0.434560  1.0  0.6573
  C  C101  1  0.867200  0.775200  0.490510  1.0  -0.0837
  C  C102  1  0.948890  0.751050  0.526260  1.0  0.1896
  C  C103  1  0.235600  0.417890  0.143980  1.0  0.2207
  C  C104  1  0.152500  0.435950  0.182010  1.0  -0.1496
  C  C105  1  0.061800  0.459600  0.142180  1.0  0.7268
  C  C106  1  0.157600  0.431960  0.255350  1.0  0.0123
  C  C107  1  0.072300  0.443200  0.305050  1.0  0.6723
  C  C108  1  0.246600  0.410400  0.284750  1.0  -0.0805
  C  C109  1  0.325000  0.391300  0.243120  1.0  0.168
  C  C110  1  0.618700  0.367500  0.042290  1.0  0.2167
  C  C111  1  0.703600  0.348300  0.006260  1.0  -0.0946
  C  C112  1  0.783100  0.408800  0.003040  1.0  0.6842
  C  C113  1  0.711000  0.274200  0.979520  1.0  0.0165
  C  C114  1  0.796600  0.247600  0.934560  1.0  0.6561
  C  C115  1  0.632800  0.224800  0.990510  1.0  -0.0837
  C  C116  1  0.551110  0.248950  0.026260  1.0  0.1905
  C  C117  1  0.264400  0.917890  0.143980  1.0  0.2202
  C  C118  1  0.347500  0.935950  0.182010  1.0  -0.1495
  C  C119  1  0.438200  0.959600  0.142180  1.0  0.7262
  C  C120  1  0.342400  0.931960  0.255350  1.0  0.0121
  C  C121  1  0.427700  0.943200  0.305050  1.0  0.6711
  C  C122  1  0.253400  0.910400  0.284750  1.0  -0.0805
  C  C123  1  0.175000  0.891300  0.243120  1.0  0.1678
  C  C124  1  0.881300  0.867500  0.042290  1.0  0.2171
  C  C125  1  0.796400  0.848300  0.006260  1.0  -0.0953
  C  C126  1  0.716900  0.908800  0.003040  1.0  0.6855
  C  C127  1  0.789000  0.774200  0.979520  1.0  0.016
  C  C128  1  0.703400  0.747600  0.934560  1.0  0.657
  C  C129  1  0.867200  0.724800  0.990510  1.0  -0.0839
  C  C130  1  0.948890  0.748950  0.026260  1.0  0.1908
  C  C131  1  0.235600  0.082110  0.643980  1.0  0.2208
  C  C132  1  0.152500  0.064050  0.682010  1.0  -0.1515
  C  C133  1  0.061800  0.040400  0.642180  1.0  0.7266
  C  C134  1  0.157600  0.068040  0.755350  1.0  0.0122
  C  C135  1  0.072300  0.056800  0.805050  1.0  0.6745
  C  C136  1  0.246600  0.089600  0.784750  1.0  -0.0788
  C  C137  1  0.325000  0.108700  0.743120  1.0  0.1679
  C  C138  1  0.618700  0.132500  0.542290  1.0  0.2163
  C  C139  1  0.703600  0.151700  0.506260  1.0  -0.0945
  C  C140  1  0.783100  0.091200  0.503040  1.0  0.6845
  C  C141  1  0.711000  0.225800  0.479520  1.0  0.0164
  C  C142  1  0.796600  0.252400  0.434560  1.0  0.6565
  C  C143  1  0.632800  0.275200  0.490510  1.0  -0.0834
  C  C144  1  0.551110  0.251050  0.526260  1.0  0.1895
  C  C145  1  0.735600  0.417890  0.356020  1.0  0.2207
  C  C146  1  0.652500  0.435950  0.317990  1.0  -0.1497
  C  C147  1  0.561800  0.459600  0.357820  1.0  0.7271
  C  C148  1  0.657600  0.431960  0.244650  1.0  0.0122
  C  C149  1  0.572300  0.443200  0.194950  1.0  0.6725
  C  C150  1  0.746600  0.410400  0.215250  1.0  -0.0772
  C  C151  1  0.825000  0.391300  0.256880  1.0  0.1683
  C  C152  1  0.118700  0.367500  0.457710  1.0  0.2164
  C  C153  1  0.203600  0.348300  0.493740  1.0  -0.0936
  C  C154  1  0.283100  0.408800  0.496960  1.0  0.6845
  C  C155  1  0.211000  0.274200  0.520480  1.0  0.0164
  C  C156  1  0.296600  0.247600  0.565440  1.0  0.6571
  C  C157  1  0.132800  0.224800  0.509490  1.0  -0.0829
  C  C158  1  0.051110  0.248950  0.473740  1.0  0.1906
  C  C159  1  0.764400  0.582110  0.856020  1.0  0.2203
  C  C160  1  0.847500  0.564050  0.817990  1.0  -0.1503
  C  C161  1  0.938200  0.540400  0.857820  1.0  0.7273
  C  C162  1  0.842400  0.568040  0.744650  1.0  0.0129
  C  C163  1  0.927700  0.556800  0.694950  1.0  0.6734
  C  C164  1  0.753400  0.589600  0.715250  1.0  -0.0781
  C  C165  1  0.675000  0.608700  0.756880  1.0  0.168
  C  C166  1  0.381300  0.632500  0.957710  1.0  0.2161
  C  C167  1  0.296400  0.651700  0.993740  1.0  -0.0944
  C  C168  1  0.216900  0.591200  0.996960  1.0  0.6863
  C  C169  1  0.289000  0.725800  0.020480  1.0  0.0159
  C  C170  1  0.203400  0.752400  0.065440  1.0  0.6582
  C  C171  1  0.367200  0.775200  0.009490  1.0  -0.0832
  C  C172  1  0.448890  0.751050  0.973740  1.0  0.1898
  N  N173  1  0.819600  0.105640  0.827280  1.0  -0.3033
  N  N174  1  0.043400  0.180520  0.947020  1.0  -0.3094
  N  N175  1  0.680400  0.894360  0.327280  1.0  -0.3036
  N  N176  1  0.456600  0.819480  0.447020  1.0  -0.3086
  N  N177  1  0.180400  0.605640  0.672720  1.0  -0.3037
  N  N178  1  0.956600  0.680520  0.552980  1.0  -0.3077
  N  N179  1  0.319600  0.394360  0.172720  1.0  -0.3036
  N  N180  1  0.543400  0.319480  0.052980  1.0  -0.3086
  N  N181  1  0.180400  0.894360  0.172720  1.0  -0.3041
  N  N182  1  0.956600  0.819480  0.052980  1.0  -0.308
  N  N183  1  0.319600  0.105640  0.672720  1.0  -0.3038
  N  N184  1  0.543400  0.180520  0.552980  1.0  -0.3089
  N  N185  1  0.819600  0.394360  0.327280  1.0  -0.3029
  N  N186  1  0.043400  0.319480  0.447020  1.0  -0.3088
  N  N187  1  0.680400  0.605640  0.827280  1.0  -0.3035
  N  N188  1  0.456600  0.680520  0.947020  1.0  -0.3085
  O  O189  1  0.524010  0.117730  0.685300  1.0  -0.5855
  O  O190  1  0.562100  0.995700  0.663800  1.0  -0.4852
  O  O191  1  0.569420  0.048480  0.923710  1.0  -0.576
  O  O192  1  0.490200  0.016120  0.825260  1.0  -0.5284
  O  O193  1  0.337320  0.313840  0.043370  1.0  -0.5629
  O  O194  1  0.316400  0.218480  0.119410  1.0  -0.4591
  O  O195  1  0.252700  0.022860  0.994330  1.0  -0.4998
  O  O196  1  0.369700  0.111690  0.997230  1.0  -0.5827
  O  O197  1  0.975990  0.882270  0.185300  1.0  -0.5856
  O  O198  1  0.937900  0.004300  0.163800  1.0  -0.4842
  O  O199  1  0.930580  0.951520  0.423710  1.0  -0.5752
  O  O200  1  0.009800  0.983880  0.325260  1.0  -0.5281
  O  O201  1  0.162680  0.686160  0.543370  1.0  -0.5622
  O  O202  1  0.183600  0.781520  0.619410  1.0  -0.4595
  O  O203  1  0.247300  0.977140  0.494330  1.0  -0.5011
  O  O204  1  0.130300  0.888310  0.497230  1.0  -0.5823
  O  O205  1  0.475990  0.617730  0.814700  1.0  -0.5863
  O  O206  1  0.437900  0.495700  0.836200  1.0  -0.4854
  O  O207  1  0.430580  0.548480  0.576290  1.0  -0.5745
  O  O208  1  0.509800  0.516120  0.674740  1.0  -0.5289
  O  O209  1  0.662680  0.813840  0.456630  1.0  -0.5616
  O  O210  1  0.683600  0.718480  0.380590  1.0  -0.459
  O  O211  1  0.747300  0.522860  0.505670  1.0  -0.5019
  O  O212  1  0.630300  0.611690  0.502770  1.0  -0.5827
  O  O213  1  0.024010  0.382270  0.314700  1.0  -0.5867
  O  O214  1  0.062100  0.504300  0.336200  1.0  -0.4854
  O  O215  1  0.069420  0.451520  0.076290  1.0  -0.5763
  O  O216  1  0.990200  0.483880  0.174740  1.0  -0.5286
  O  O217  1  0.837320  0.186160  0.956630  1.0  -0.5614
  O  O218  1  0.816400  0.281520  0.880590  1.0  -0.4579
  O  O219  1  0.752700  0.477140  0.005670  1.0  -0.4988
  O  O220  1  0.869700  0.388310  0.002770  1.0  -0.5823
  O  O221  1  0.475990  0.882270  0.314700  1.0  -0.5868
  O  O222  1  0.437900  0.004300  0.336200  1.0  -0.4863
  O  O223  1  0.430580  0.951520  0.076290  1.0  -0.5747
  O  O224  1  0.509800  0.983880  0.174740  1.0  -0.5293
  O  O225  1  0.662680  0.686160  0.956630  1.0  -0.561
  O  O226  1  0.683600  0.781520  0.880590  1.0  -0.4582
  O  O227  1  0.747300  0.977140  0.005670  1.0  -0.501
  O  O228  1  0.630300  0.888310  0.002770  1.0  -0.5823
  O  O229  1  0.024010  0.117730  0.814700  1.0  -0.5861
  O  O230  1  0.062100  0.995700  0.836200  1.0  -0.4862
  O  O231  1  0.069420  0.048480  0.576290  1.0  -0.5761
  O  O232  1  0.990200  0.016120  0.674740  1.0  -0.529
  O  O233  1  0.837320  0.313840  0.456630  1.0  -0.5619
  O  O234  1  0.816400  0.218480  0.380590  1.0  -0.4585
  O  O235  1  0.752700  0.022860  0.505670  1.0  -0.5002
  O  O236  1  0.869700  0.111690  0.502770  1.0  -0.5825
  O  O237  1  0.524010  0.382270  0.185300  1.0  -0.5854
  O  O238  1  0.562100  0.504300  0.163800  1.0  -0.485
  O  O239  1  0.569420  0.451520  0.423710  1.0  -0.5765
  O  O240  1  0.490200  0.483880  0.325260  1.0  -0.5281
  O  O241  1  0.337320  0.186160  0.543370  1.0  -0.5625
  O  O242  1  0.316400  0.281520  0.619410  1.0  -0.4592
  O  O243  1  0.252700  0.477140  0.494330  1.0  -0.499
  O  O244  1  0.369700  0.388310  0.497230  1.0  -0.5823
  O  O245  1  0.975990  0.617730  0.685300  1.0  -0.5857
  O  O246  1  0.937900  0.495700  0.663800  1.0  -0.4859
  O  O247  1  0.930580  0.548480  0.923710  1.0  -0.5747
  O  O248  1  0.009800  0.516120  0.825260  1.0  -0.5277
  O  O249  1  0.162680  0.813840  0.043370  1.0  -0.5625
  O  O250  1  0.183600  0.718480  0.119410  1.0  -0.4594
  O  O251  1  0.247300  0.522860  0.994330  1.0  -0.5018
  O  O252  1  0.130300  0.611690  0.997230  1.0  -0.5829
