# generated using pymatgen
data_Cu2PH24(C4O)12
_symmetry_space_group_name_H-M   'P 1'
_cell_length_a   24.46160000
_cell_length_b   24.46160000
_cell_length_c   39.88210000
_cell_angle_alpha   72.14110000
_cell_angle_beta   72.14110000
_cell_angle_gamma   90.00000000
_symmetry_Int_Tables_number   1
_chemical_formula_structural   Cu2PH24(C4O)12
_chemical_formula_sum   'Cu8 P4 H96 C192 O48'
_cell_volume   21503.02687102
_cell_formula_units_Z   4
loop_
 _symmetry_equiv_pos_site_id
 _symmetry_equiv_pos_as_xyz
  1  'x, y, z'
loop_
 _atom_site_type_symbol
 _atom_site_label
 _atom_site_symmetry_multiplicity
 _atom_site_fract_x
 _atom_site_fract_y
 _atom_site_fract_z
 _atom_site_occupancy
 _atom_site_charge
  Cu  Cu1  1  0.903000  0.899460  0.273560  1.0  0.9403
  Cu  Cu2  1  0.823440  0.826980  0.273560  1.0  0.9426
  Cu  Cu3  1  0.649460  0.073440  0.773560  1.0  0.938
  Cu  Cu4  1  0.576980  0.153000  0.773560  1.0  0.9408
  Cu  Cu5  1  0.926560  0.350540  0.226440  1.0  0.9381
  Cu  Cu6  1  0.847000  0.423020  0.226440  1.0  0.941
  Cu  Cu7  1  0.173020  0.176560  0.726440  1.0  0.9405
  Cu  Cu8  1  0.100540  0.097000  0.726440  1.0  0.9434
  P  P9  1  0.663010  0.336990  0.000000  1.0  1.4233
  P  P10  1  0.336990  0.663010  0.000000  1.0  1.4241
  P  P11  1  0.086990  0.586990  0.500000  1.0  1.4259
  P  P12  1  0.413010  0.913010  0.500000  1.0  1.4258
  H  H13  1  0.705200  0.088900  0.862800  1.0  0.1274
  H  H14  1  0.656500  0.261400  0.885200  1.0  0.1385
  H  H15  1  0.060000  0.228200  0.815800  1.0  0.1239
  H  H16  1  0.877600  0.129400  0.858400  1.0  0.1345
  H  H17  1  0.623100  0.230000  0.845600  1.0  0.0976
  H  H18  1  0.986400  0.243900  0.868000  1.0  0.1374
  H  H19  1  0.730600  0.113900  0.909000  1.0  0.1175
  H  H20  1  0.948900  0.115800  0.809000  1.0  0.118
  H  H21  1  0.643100  0.223400  0.951600  1.0  0.1131
  H  H22  1  0.862400  0.226100  0.974400  1.0  0.1213
  H  H23  1  0.933600  0.211000  0.926000  1.0  0.1293
  H  H24  1  0.808600  0.188600  0.881800  1.0  0.1062
  H  H25  1  0.432000  0.048300  0.862800  1.0  0.128
  H  H26  1  0.458300  0.853400  0.885200  1.0  0.139
  H  H27  1  0.124200  0.956000  0.815800  1.0  0.1226
  H  H28  1  0.264000  0.012200  0.858400  1.0  0.1345
  H  H29  1  0.531300  0.924400  0.845600  1.0  0.0972
  H  H30  1  0.145600  0.888100  0.868000  1.0  0.1381
  H  H31  1  0.360400  0.977100  0.909000  1.0  0.119
  H  H32  1  0.242100  0.075200  0.809000  1.0  0.118
  H  H33  1  0.405300  0.825000  0.951600  1.0  0.1117
  H  H34  1  0.163200  0.799500  0.974400  1.0  0.1203
  H  H35  1  0.140400  0.863000  0.926000  1.0  0.1302
  H  H36  1  0.309600  0.929600  0.881800  1.0  0.1058
  H  H37  1  0.838900  0.682000  0.362800  1.0  0.1271
  H  H38  1  0.011400  0.708300  0.385200  1.0  0.1386
  H  H39  1  0.978200  0.374200  0.315800  1.0  0.1229
  H  H40  1  0.879400  0.514000  0.358400  1.0  0.1331
  H  H41  1  0.980000  0.781300  0.345600  1.0  0.0993
  H  H42  1  0.993900  0.395600  0.368000  1.0  0.1364
  H  H43  1  0.863900  0.610400  0.409000  1.0  0.1174
  H  H44  1  0.865800  0.492100  0.309000  1.0  0.1178
  H  H45  1  0.973400  0.655300  0.451600  1.0  0.11
  H  H46  1  0.976100  0.413200  0.474400  1.0  0.1192
  H  H47  1  0.961000  0.390400  0.426000  1.0  0.1308
  H  H48  1  0.938600  0.559600  0.381800  1.0  0.1054
  H  H49  1  0.798300  0.955200  0.362800  1.0  0.1275
  H  H50  1  0.603400  0.906500  0.385200  1.0  0.1397
  H  H51  1  0.706000  0.310000  0.315800  1.0  0.1239
  H  H52  1  0.762200  0.127600  0.358400  1.0  0.1342
  H  H53  1  0.674400  0.873100  0.345600  1.0  0.0976
  H  H54  1  0.638100  0.236400  0.368000  1.0  0.1373
  H  H55  1  0.727100  0.980600  0.409000  1.0  0.1177
  H  H56  1  0.825200  0.198900  0.309000  1.0  0.1173
  H  H57  1  0.575000  0.893100  0.451600  1.0  0.1106
  H  H58  1  0.549500  0.112400  0.474400  1.0  0.119
  H  H59  1  0.613000  0.183600  0.426000  1.0  0.1306
  H  H60  1  0.679600  0.058600  0.381800  1.0  0.1053
  H  H61  1  0.318000  0.161100  0.637200  1.0  0.1275
  H  H62  1  0.291700  0.988600  0.614800  1.0  0.1377
  H  H63  1  0.625800  0.021800  0.684200  1.0  0.123
  H  H64  1  0.486000  0.120600  0.641600  1.0  0.1338
  H  H65  1  0.218700  0.020000  0.654400  1.0  0.0987
  H  H66  1  0.604400  0.006100  0.632000  1.0  0.1361
  H  H67  1  0.389600  0.136100  0.591000  1.0  0.117
  H  H68  1  0.507900  0.134200  0.691000  1.0  0.1174
  H  H69  1  0.344700  0.026600  0.548400  1.0  0.1122
  H  H70  1  0.586800  0.023900  0.525600  1.0  0.1201
  H  H71  1  0.609600  0.039000  0.574000  1.0  0.1308
  H  H72  1  0.440400  0.061400  0.618200  1.0  0.1061
  H  H73  1  0.044800  0.201700  0.637200  1.0  0.1281
  H  H74  1  0.093500  0.396600  0.614800  1.0  0.1386
  H  H75  1  0.690000  0.294000  0.684200  1.0  0.1223
  H  H76  1  0.872400  0.237800  0.641600  1.0  0.1342
  H  H77  1  0.126900  0.325600  0.654400  1.0  0.0974
  H  H78  1  0.763600  0.361900  0.632000  1.0  0.1391
  H  H79  1  0.019400  0.272900  0.591000  1.0  0.1178
  H  H80  1  0.801100  0.174800  0.691000  1.0  0.117
  H  H81  1  0.106900  0.425000  0.548400  1.0  0.1108
  H  H82  1  0.887600  0.450500  0.525600  1.0  0.1196
  H  H83  1  0.816400  0.387000  0.574000  1.0  0.131
  H  H84  1  0.941400  0.320400  0.618200  1.0  0.1065
  H  H85  1  0.951700  0.568000  0.137200  1.0  0.1272
  H  H86  1  0.146600  0.541700  0.114800  1.0  0.1394
  H  H87  1  0.044000  0.875800  0.184200  1.0  0.1225
  H  H88  1  0.987800  0.736000  0.141600  1.0  0.1333
  H  H89  1  0.075600  0.468700  0.154400  1.0  0.0972
  H  H90  1  0.111900  0.854400  0.132000  1.0  0.1378
  H  H91  1  0.022900  0.639600  0.091000  1.0  0.1181
  H  H92  1  0.924800  0.757900  0.191000  1.0  0.1182
  H  H93  1  0.175000  0.594700  0.048400  1.0  0.1115
  H  H94  1  0.200500  0.836800  0.025600  1.0  0.1204
  H  H95  1  0.137000  0.859600  0.074000  1.0  0.1301
  H  H96  1  0.070400  0.690400  0.118200  1.0  0.1065
  H  H97  1  0.911100  0.294800  0.137200  1.0  0.1278
  H  H98  1  0.738600  0.343500  0.114800  1.0  0.1393
  H  H99  1  0.771800  0.940000  0.184200  1.0  0.1229
  H  H100  1  0.870600  0.122400  0.141600  1.0  0.1337
  H  H101  1  0.770000  0.376900  0.154400  1.0  0.0964
  H  H102  1  0.756100  0.013600  0.132000  1.0  0.1372
  H  H103  1  0.886100  0.269400  0.091000  1.0  0.1178
  H  H104  1  0.884200  0.051100  0.191000  1.0  0.1178
  H  H105  1  0.776600  0.356900  0.048400  1.0  0.1091
  H  H106  1  0.773900  0.137600  0.025600  1.0  0.1205
  H  H107  1  0.789000  0.066400  0.074000  1.0  0.1306
  H  H108  1  0.811400  0.191400  0.118200  1.0  0.1061
  C  C109  1  0.639580  0.141660  0.821240  1.0  0.6912
  C  C110  1  0.660630  0.158530  0.850140  1.0  -0.1581
  C  C111  1  0.694340  0.122480  0.868120  1.0  -0.0526
  C  C112  1  0.665420  0.226540  0.881160  1.0  -0.1776
  C  C113  1  0.751360  0.238060  0.983080  1.0  0.0142
  C  C114  1  0.700280  0.188480  0.899640  1.0  0.0817
  C  C115  1  0.023330  0.208460  0.824480  1.0  -0.0127
  C  C116  1  0.914070  0.149650  0.849700  1.0  -0.1523
  C  C117  1  0.057110  0.157690  0.775300  1.0  0.6825
  C  C118  1  0.011770  0.170170  0.807460  1.0  -0.1465
  C  C119  1  0.646710  0.207720  0.857360  1.0  -0.0205
  C  C120  1  0.979080  0.218940  0.856040  1.0  -0.1085
  C  C121  1  0.776680  0.209290  0.928440  1.0  -0.0131
  C  C122  1  0.711390  0.138820  0.894760  1.0  -0.1237
  C  C123  1  0.957010  0.141350  0.820380  1.0  -0.0172
  C  C124  1  0.681200  0.224100  0.951400  1.0  -0.0481
  C  C125  1  0.720420  0.209320  0.925360  1.0  0.0476
  C  C126  1  0.791830  0.222430  0.957140  1.0  0.0535
  C  C127  1  0.925950  0.188350  0.866100  1.0  0.0755
  C  C128  1  0.852060  0.220350  0.955080  1.0  -0.123
  C  C129  1  0.895390  0.210440  0.926380  1.0  -0.1901
  C  C130  1  0.878340  0.198870  0.896520  1.0  0.022
  C  C131  1  0.819770  0.197730  0.899860  1.0  -0.1496
  C  C132  1  0.696160  0.241860  0.980080  1.0  0.0356
  C  C133  1  0.539180  0.037100  0.821240  1.0  0.691
  C  C134  1  0.489230  0.991330  0.850140  1.0  -0.1572
  C  C135  1  0.437540  0.009400  0.868120  1.0  -0.0496
  C  C136  1  0.453420  0.892300  0.881160  1.0  -0.1771
  C  C137  1  0.265560  0.778860  0.983080  1.0  0.0144
  C  C138  1  0.400080  0.911880  0.899640  1.0  0.0821
  C  C139  1  0.152190  0.967060  0.824480  1.0  -0.0144
  C  C140  1  0.236230  0.000650  0.849700  1.0  -0.1533
  C  C141  1  0.167590  0.067010  0.775300  1.0  0.6837
  C  C142  1  0.180770  0.022370  0.807460  1.0  -0.1461
  C  C143  1  0.495930  0.934920  0.857360  1.0  -0.0182
  C  C144  1  0.164880  0.925020  0.856040  1.0  -0.1107
  C  C145  1  0.294880  0.862270  0.928440  1.0  -0.0128
  C  C146  1  0.393850  0.966420  0.894760  1.0  -0.127
  C  C147  1  0.222610  0.038270  0.820380  1.0  -0.0167
  C  C148  1  0.367400  0.824500  0.951400  1.0  -0.047
  C  C149  1  0.354220  0.865320  0.925360  1.0  0.0461
  C  C150  1  0.251030  0.820430  0.957140  1.0  0.0526
  C  C151  1  0.207950  0.945550  0.866100  1.0  0.0748
  C  C152  1  0.192860  0.824570  0.955080  1.0  -0.1202
  C  C153  1  0.178230  0.863180  0.926380  1.0  -0.1949
  C  C154  1  0.225140  0.904610  0.896520  1.0  0.0225
  C  C155  1  0.280370  0.902410  0.899860  1.0  -0.1487
  C  C156  1  0.323760  0.778060  0.980080  1.0  0.0422
  C  C157  1  0.891660  0.789180  0.321240  1.0  0.6911
  C  C158  1  0.908530  0.739230  0.350140  1.0  -0.1562
  C  C159  1  0.872480  0.687540  0.368120  1.0  -0.0513
  C  C160  1  0.976540  0.703420  0.381160  1.0  -0.1792
  C  C161  1  0.988060  0.515560  0.483080  1.0  0.0138
  C  C162  1  0.938480  0.650080  0.399640  1.0  0.0819
  C  C163  1  0.958460  0.402190  0.324480  1.0  -0.0143
  C  C164  1  0.899650  0.486230  0.349700  1.0  -0.1522
  C  C165  1  0.907690  0.417590  0.275300  1.0  0.684
  C  C166  1  0.920170  0.430770  0.307460  1.0  -0.1449
  C  C167  1  0.957720  0.745930  0.357360  1.0  -0.0184
  C  C168  1  0.968940  0.414880  0.356040  1.0  -0.1066
  C  C169  1  0.959290  0.544880  0.428440  1.0  -0.0132
  C  C170  1  0.888820  0.643850  0.394760  1.0  -0.1211
  C  C171  1  0.891350  0.472610  0.320380  1.0  -0.0157
  C  C172  1  0.974100  0.617400  0.451400  1.0  -0.0461
  C  C173  1  0.959320  0.604220  0.425360  1.0  0.047
  C  C174  1  0.972430  0.501030  0.457140  1.0  0.0527
  C  C175  1  0.938350  0.457950  0.366100  1.0  0.0767
  C  C176  1  0.970350  0.442860  0.455080  1.0  -0.1246
  C  C177  1  0.960440  0.428230  0.426380  1.0  -0.1859
  C  C178  1  0.948870  0.475140  0.396520  1.0  0.0223
  C  C179  1  0.947730  0.530370  0.399860  1.0  -0.1478
  C  C180  1  0.991860  0.573760  0.480080  1.0  0.0361
  C  C181  1  0.787100  0.889580  0.321240  1.0  0.6895
  C  C182  1  0.741330  0.910630  0.350140  1.0  -0.1556
  C  C183  1  0.759400  0.944340  0.368120  1.0  -0.0505
  C  C184  1  0.642300  0.915420  0.381160  1.0  -0.1808
  C  C185  1  0.528860  0.001360  0.483080  1.0  0.0124
  C  C186  1  0.661880  0.950280  0.399640  1.0  0.08
  C  C187  1  0.717060  0.273330  0.324480  1.0  -0.0146
  C  C188  1  0.750650  0.164070  0.349700  1.0  -0.1509
  C  C189  1  0.817010  0.307110  0.275300  1.0  0.6834
  C  C190  1  0.772370  0.261770  0.307460  1.0  -0.1438
  C  C191  1  0.684920  0.896710  0.357360  1.0  -0.0225
  C  C192  1  0.675020  0.229080  0.356040  1.0  -0.1131
  C  C193  1  0.612270  0.026680  0.428440  1.0  -0.0133
  C  C194  1  0.716420  0.961390  0.394760  1.0  -0.1205
  C  C195  1  0.788270  0.207010  0.320380  1.0  -0.0136
  C  C196  1  0.574500  0.931200  0.451400  1.0  -0.0427
  C  C197  1  0.615320  0.970420  0.425360  1.0  0.0481
  C  C198  1  0.570430  0.041830  0.457140  1.0  0.0536
  C  C199  1  0.695550  0.175950  0.366100  1.0  0.0767
  C  C200  1  0.574570  0.102060  0.455080  1.0  -0.1283
  C  C201  1  0.613180  0.145390  0.426380  1.0  -0.1919
  C  C202  1  0.654610  0.128340  0.396520  1.0  0.0233
  C  C203  1  0.652410  0.069770  0.399860  1.0  -0.1482
  C  C204  1  0.528060  0.946160  0.480080  1.0  0.0367
  C  C205  1  0.210820  0.108340  0.678760  1.0  0.6898
  C  C206  1  0.260770  0.091470  0.649860  1.0  -0.1569
  C  C207  1  0.312460  0.127520  0.631880  1.0  -0.0511
  C  C208  1  0.296580  0.023460  0.618840  1.0  -0.1779
  C  C209  1  0.484440  0.011940  0.516920  1.0  0.0143
  C  C210  1  0.349920  0.061520  0.600360  1.0  0.0813
  C  C211  1  0.597810  0.041540  0.675520  1.0  -0.0135
  C  C212  1  0.513770  0.100350  0.650300  1.0  -0.1527
  C  C213  1  0.582410  0.092310  0.724700  1.0  0.6833
  C  C214  1  0.569230  0.079830  0.692540  1.0  -0.1442
  C  C215  1  0.254070  0.042280  0.642640  1.0  -0.0205
  C  C216  1  0.585120  0.031060  0.643960  1.0  -0.1081
  C  C217  1  0.455120  0.040710  0.571560  1.0  -0.0133
  C  C218  1  0.356150  0.111180  0.605240  1.0  -0.1227
  C  C219  1  0.527390  0.108650  0.679620  1.0  -0.016
  C  C220  1  0.382600  0.025900  0.548600  1.0  -0.046
  C  C221  1  0.395780  0.040680  0.574640  1.0  0.0464
  C  C222  1  0.498970  0.027570  0.542860  1.0  0.0523
  C  C223  1  0.542050  0.061650  0.633900  1.0  0.0755
  C  C224  1  0.557140  0.029650  0.544920  1.0  -0.1198
  C  C225  1  0.571770  0.039560  0.573620  1.0  -0.1903
  C  C226  1  0.524860  0.051130  0.603480  1.0  0.0217
  C  C227  1  0.469630  0.052270  0.600140  1.0  -0.1484
  C  C228  1  0.426240  0.008140  0.519920  1.0  0.038
  C  C229  1  0.110420  0.212900  0.678760  1.0  0.6919
  C  C230  1  0.089370  0.258670  0.649860  1.0  -0.1563
  C  C231  1  0.055660  0.240600  0.631880  1.0  -0.0516
  C  C232  1  0.084580  0.357700  0.618840  1.0  -0.1792
  C  C233  1  0.998640  0.471140  0.516920  1.0  0.0144
  C  C234  1  0.049720  0.338120  0.600360  1.0  0.0823
  C  C235  1  0.726670  0.282940  0.675520  1.0  -0.0155
  C  C236  1  0.835930  0.249350  0.650300  1.0  -0.1532
  C  C237  1  0.692890  0.182990  0.724700  1.0  0.6834
  C  C238  1  0.738230  0.227630  0.692540  1.0  -0.1449
  C  C239  1  0.103290  0.315080  0.642640  1.0  -0.0202
  C  C240  1  0.770920  0.324980  0.643960  1.0  -0.1088
  C  C241  1  0.973320  0.387730  0.571560  1.0  -0.0129
  C  C242  1  0.038610  0.283580  0.605240  1.0  -0.126
  C  C243  1  0.792990  0.211730  0.679620  1.0  -0.0169
  C  C244  1  0.068800  0.425500  0.548600  1.0  -0.0472
  C  C245  1  0.029580  0.384680  0.574640  1.0  0.0466
  C  C246  1  0.958170  0.429570  0.542860  1.0  0.0532
  C  C247  1  0.824050  0.304450  0.633900  1.0  0.0759
  C  C248  1  0.897940  0.425430  0.544920  1.0  -0.1247
  C  C249  1  0.854610  0.386820  0.573620  1.0  -0.1947
  C  C250  1  0.871660  0.345390  0.603480  1.0  0.0223
  C  C251  1  0.930230  0.347590  0.600140  1.0  -0.1478
  C  C252  1  0.053840  0.471940  0.519920  1.0  0.0353
  C  C253  1  0.962900  0.460820  0.178760  1.0  0.69
  C  C254  1  0.008670  0.510770  0.149860  1.0  -0.1567
  C  C255  1  0.990600  0.562460  0.131880  1.0  -0.0517
  C  C256  1  0.107700  0.546580  0.118840  1.0  -0.1797
  C  C257  1  0.221140  0.734440  0.016920  1.0  0.0143
  C  C258  1  0.088120  0.599920  0.100360  1.0  0.0805
  C  C259  1  0.032940  0.847810  0.175520  1.0  -0.0143
  C  C260  1  0.999350  0.763770  0.150300  1.0  -0.1509
  C  C261  1  0.932990  0.832410  0.224700  1.0  0.6831
  C  C262  1  0.977630  0.819230  0.192540  1.0  -0.1458
  C  C263  1  0.065080  0.504070  0.142640  1.0  -0.021
  C  C264  1  0.074980  0.835120  0.143960  1.0  -0.1074
  C  C265  1  0.137730  0.705120  0.071560  1.0  -0.0131
  C  C266  1  0.033580  0.606150  0.105240  1.0  -0.1243
  C  C267  1  0.961730  0.777390  0.179620  1.0  -0.0141
  C  C268  1  0.175500  0.632600  0.048600  1.0  -0.0457
  C  C269  1  0.134680  0.645780  0.074640  1.0  0.0472
  C  C270  1  0.179570  0.748970  0.042860  1.0  0.0532
  C  C271  1  0.054450  0.792050  0.133900  1.0  0.0766
  C  C272  1  0.175430  0.807140  0.044920  1.0  -0.1236
  C  C273  1  0.136820  0.821770  0.073620  1.0  -0.1887
  C  C274  1  0.095390  0.774860  0.103480  1.0  0.0231
  C  C275  1  0.097590  0.719630  0.100140  1.0  -0.1475
  C  C276  1  0.221940  0.676240  0.019920  1.0  0.0384
  C  C277  1  0.858340  0.360420  0.178760  1.0  0.6921
  C  C278  1  0.841470  0.339370  0.149860  1.0  -0.1565
  C  C279  1  0.877520  0.305660  0.131880  1.0  -0.0463
  C  C280  1  0.773460  0.334580  0.118840  1.0  -0.1778
  C  C281  1  0.761940  0.248640  0.016920  1.0  0.0133
  C  C282  1  0.811520  0.299720  0.100360  1.0  0.0827
  C  C283  1  0.791540  0.976670  0.175520  1.0  -0.0154
  C  C284  1  0.850350  0.085930  0.150300  1.0  -0.1508
  C  C285  1  0.842310  0.942890  0.224700  1.0  0.6839
  C  C286  1  0.829830  0.988230  0.192540  1.0  -0.1435
  C  C287  1  0.792280  0.353290  0.142640  1.0  -0.0203
  C  C288  1  0.781060  0.020920  0.143960  1.0  -0.1127
  C  C289  1  0.790710  0.223320  0.071560  1.0  -0.0133
  C  C290  1  0.861180  0.288610  0.105240  1.0  -0.1205
  C  C291  1  0.858650  0.042990  0.179620  1.0  -0.0147
  C  C292  1  0.775900  0.318800  0.048600  1.0  -0.0456
  C  C293  1  0.790680  0.279580  0.074640  1.0  0.0483
  C  C294  1  0.777570  0.208170  0.042860  1.0  0.0521
  C  C295  1  0.811650  0.074050  0.133900  1.0  0.0767
  C  C296  1  0.779650  0.147940  0.044920  1.0  -0.1258
  C  C297  1  0.789560  0.104610  0.073620  1.0  -0.1879
  C  C298  1  0.801130  0.121660  0.103480  1.0  0.0218
  C  C299  1  0.802270  0.180230  0.100140  1.0  -0.1474
  C  C300  1  0.758140  0.303840  0.019920  1.0  0.0364
  O  O301  1  0.662040  0.096950  0.814160  1.0  -0.5642
  O  O302  1  0.606820  0.170660  0.809020  1.0  -0.5257
  O  O303  1  0.044580  0.122110  0.762020  1.0  -0.5465
  O  O304  1  0.105830  0.185280  0.767400  1.0  -0.5816
  O  O305  1  0.653860  0.262980  0.006040  1.0  -0.5524
  O  O306  1  0.629590  0.341850  0.036780  1.0  -0.5546
  O  O307  1  0.523800  0.088890  0.814160  1.0  -0.564
  O  O308  1  0.584160  0.020320  0.809020  1.0  -0.5262
  O  O309  1  0.193400  0.115870  0.762020  1.0  -0.5461
  O  O310  1  0.126770  0.047320  0.767400  1.0  -0.5816
  O  O311  1  0.340100  0.730980  0.006040  1.0  -0.556
  O  O312  1  0.333630  0.621370  0.036780  1.0  -0.5659
  O  O313  1  0.846950  0.773800  0.314160  1.0  -0.5651
  O  O314  1  0.920660  0.834160  0.309020  1.0  -0.5252
  O  O315  1  0.872110  0.443400  0.262020  1.0  -0.546
  O  O316  1  0.935280  0.376770  0.267400  1.0  -0.5802
  O  O317  1  0.012980  0.590100  0.506040  1.0  -0.5579
  O  O318  1  0.091850  0.583630  0.536780  1.0  -0.5564
  O  O319  1  0.838890  0.912040  0.314160  1.0  -0.5647
  O  O320  1  0.770320  0.856820  0.309020  1.0  -0.525
  O  O321  1  0.865870  0.294580  0.262020  1.0  -0.5463
  O  O322  1  0.797320  0.355830  0.267400  1.0  -0.5802
  O  O323  1  0.480980  0.903860  0.506040  1.0  -0.5556
  O  O324  1  0.371370  0.879590  0.536780  1.0  -0.5661
  O  O325  1  0.226200  0.153050  0.685840  1.0  -0.5643
  O  O326  1  0.165840  0.079340  0.690980  1.0  -0.5247
  O  O327  1  0.556600  0.127890  0.737980  1.0  -0.5464
  O  O328  1  0.623230  0.064720  0.732600  1.0  -0.5813
  O  O329  1  0.409900  0.987020  0.493960  1.0  -0.557
  O  O330  1  0.416370  0.908150  0.463220  1.0  -0.563
  O  O331  1  0.087960  0.161110  0.685840  1.0  -0.5642
  O  O332  1  0.143180  0.229680  0.690980  1.0  -0.5262
  O  O333  1  0.705420  0.134130  0.737980  1.0  -0.5464
  O  O334  1  0.644170  0.202680  0.732600  1.0  -0.5807
  O  O335  1  0.096140  0.519020  0.493960  1.0  -0.5532
  O  O336  1  0.120410  0.628630  0.463220  1.0  -0.5634
  O  O337  1  0.911110  0.476200  0.185840  1.0  -0.5653
  O  O338  1  0.979680  0.415840  0.190980  1.0  -0.5256
  O  O339  1  0.884130  0.806600  0.237980  1.0  -0.5446
  O  O340  1  0.952680  0.873230  0.232600  1.0  -0.5812
  O  O341  1  0.269020  0.659900  0.993960  1.0  -0.5528
  O  O342  1  0.378630  0.666370  0.963220  1.0  -0.5618
  O  O343  1  0.903050  0.337960  0.185840  1.0  -0.5652
  O  O344  1  0.829340  0.393180  0.190980  1.0  -0.5256
  O  O345  1  0.877890  0.955420  0.237980  1.0  -0.5461
  O  O346  1  0.814720  0.894170  0.232600  1.0  -0.5801
  O  O347  1  0.737020  0.346140  0.993960  1.0  -0.5521
  O  O348  1  0.658150  0.370410  0.963220  1.0  -0.5559
