# generated using pymatgen
data_AlPO4
_symmetry_space_group_name_H-M   'P 1'
_cell_length_a   10.33250000
_cell_length_b   14.64050000
_cell_length_c   9.51120000
_cell_angle_alpha   90.00000000
_cell_angle_beta   90.00000000
_cell_angle_gamma   90.00000000
_symmetry_Int_Tables_number   1
_chemical_formula_structural   AlPO4
_chemical_formula_sum   'Al12 P12 O48'
_cell_volume   1438.78743660
_cell_formula_units_Z   12
loop_
 _symmetry_equiv_pos_site_id
 _symmetry_equiv_pos_as_xyz
  1  'x, y, z'
loop_
 _atom_site_type_symbol
 _atom_site_label
 _atom_site_symmetry_multiplicity
 _atom_site_fract_x
 _atom_site_fract_y
 _atom_site_fract_z
 _atom_site_occupancy
 _atom_site_charge
  Al  Al1  1  0.354000  0.608000  0.387000  1.0  1.8102
  Al  Al2  1  0.366000  0.896000  0.383000  1.0  1.8003
  Al  Al3  1  0.651000  0.751000  0.139000  1.0  1.9034
  Al  Al4  1  0.646000  0.392000  0.387000  1.0  1.8108
  Al  Al5  1  0.634000  0.104000  0.383000  1.0  1.8002
  Al  Al6  1  0.349000  0.249000  0.139000  1.0  1.9042
  Al  Al7  1  0.146000  0.108000  0.613000  1.0  1.8116
  Al  Al8  1  0.134000  0.396000  0.617000  1.0  1.7995
  Al  Al9  1  0.849000  0.251000  0.861000  1.0  1.904
  Al  Al10  1  0.854000  0.892000  0.613000  1.0  1.8114
  Al  Al11  1  0.866000  0.604000  0.617000  1.0  1.8009
  Al  Al12  1  0.151000  0.749000  0.861000  1.0  1.9037
  P  P13  1  0.339000  0.770000  0.157000  1.0  1.5968
  P  P14  1  0.146000  0.612000  0.632000  1.0  1.6925
  P  P15  1  0.343000  0.415000  0.369000  1.0  1.9386
  P  P16  1  0.661000  0.230000  0.157000  1.0  1.5977
  P  P17  1  0.854000  0.388000  0.632000  1.0  1.693
  P  P18  1  0.657000  0.585000  0.369000  1.0  1.94
  P  P19  1  0.161000  0.270000  0.843000  1.0  1.5968
  P  P20  1  0.354000  0.112000  0.368000  1.0  1.6933
  P  P21  1  0.157000  0.915000  0.631000  1.0  1.9403
  P  P22  1  0.839000  0.730000  0.843000  1.0  1.5959
  P  P23  1  0.646000  0.888000  0.368000  1.0  1.6922
  P  P24  1  0.843000  0.085000  0.631000  1.0  1.9397
  O  O25  1  0.338000  0.696000  0.272000  1.0  -0.9775
  O  O26  1  0.311000  0.864000  0.218000  1.0  -0.8031
  O  O27  1  0.482000  0.758000  0.086000  1.0  -0.8491
  O  O28  1  0.249000  0.764000  0.018000  1.0  -0.8937
  O  O29  1  0.182000  0.637000  0.790000  1.0  -0.7707
  O  O30  1  0.130000  0.512000  0.619000  1.0  -0.9468
  O  O31  1  0.015000  0.668000  0.588000  1.0  -0.8211
  O  O32  1  0.256000  0.643000  0.534000  1.0  -0.9254
  O  O33  1  0.300000  0.506000  0.317000  1.0  -0.8042
  O  O34  1  0.337000  0.349000  0.242000  1.0  -0.9828
  O  O35  1  0.482000  0.412000  0.425000  1.0  -0.9611
  O  O36  1  0.254000  0.381000  0.488000  1.0  -1.0075
  O  O37  1  0.662000  0.304000  0.272000  1.0  -0.9774
  O  O38  1  0.689000  0.136000  0.218000  1.0  -0.8036
  O  O39  1  0.518000  0.242000  0.086000  1.0  -0.8495
  O  O40  1  0.751000  0.236000  0.018000  1.0  -0.8929
  O  O41  1  0.818000  0.363000  0.790000  1.0  -0.7709
  O  O42  1  0.870000  0.488000  0.619000  1.0  -0.9464
  O  O43  1  0.985000  0.332000  0.588000  1.0  -0.8214
  O  O44  1  0.744000  0.357000  0.534000  1.0  -0.9265
  O  O45  1  0.700000  0.494000  0.317000  1.0  -0.8056
  O  O46  1  0.663000  0.651000  0.242000  1.0  -0.9823
  O  O47  1  0.518000  0.588000  0.425000  1.0  -0.9611
  O  O48  1  0.746000  0.619000  0.488000  1.0  -1.0074
  O  O49  1  0.162000  0.196000  0.728000  1.0  -0.9762
  O  O50  1  0.189000  0.364000  0.782000  1.0  -0.8031
  O  O51  1  0.018000  0.258000  0.914000  1.0  -0.8499
  O  O52  1  0.251000  0.264000  0.982000  1.0  -0.8924
  O  O53  1  0.318000  0.137000  0.210000  1.0  -0.7698
  O  O54  1  0.370000  0.012000  0.381000  1.0  -0.9465
  O  O55  1  0.485000  0.168000  0.412000  1.0  -0.821
  O  O56  1  0.244000  0.143000  0.466000  1.0  -0.927
  O  O57  1  0.200000  0.006000  0.683000  1.0  -0.8067
  O  O58  1  0.163000  0.849000  0.758000  1.0  -0.9822
  O  O59  1  0.018000  0.912000  0.575000  1.0  -0.96
  O  O60  1  0.246000  0.881000  0.512000  1.0  -1.0077
  O  O61  1  0.838000  0.804000  0.728000  1.0  -0.9769
  O  O62  1  0.811000  0.636000  0.782000  1.0  -0.8033
  O  O63  1  0.982000  0.742000  0.914000  1.0  -0.8497
  O  O64  1  0.749000  0.736000  0.982000  1.0  -0.8929
  O  O65  1  0.682000  0.863000  0.210000  1.0  -0.7712
  O  O66  1  0.630000  0.988000  0.381000  1.0  -0.9461
  O  O67  1  0.515000  0.832000  0.412000  1.0  -0.8219
  O  O68  1  0.756000  0.857000  0.466000  1.0  -0.9259
  O  O69  1  0.800000  0.994000  0.683000  1.0  -0.8066
  O  O70  1  0.837000  0.151000  0.758000  1.0  -0.9824
  O  O71  1  0.982000  0.088000  0.575000  1.0  -0.961
  O  O72  1  0.754000  0.119000  0.512000  1.0  -1.0086
