# generated using pymatgen
data_Zn4H90C144Cl3O19
_symmetry_space_group_name_H-M   'P 1'
_cell_length_a   10.91750000
_cell_length_b   21.46990000
_cell_length_c   21.46990000
_cell_angle_alpha   62.81250000
_cell_angle_beta   80.24120000
_cell_angle_gamma   99.75880000
_symmetry_Int_Tables_number   1
_chemical_formula_structural   Zn4H90C144Cl3O19
_chemical_formula_sum   'Zn4 H90 C144 Cl3 O19'
_cell_volume   4233.05291518
_cell_formula_units_Z   1
loop_
 _symmetry_equiv_pos_site_id
 _symmetry_equiv_pos_as_xyz
  1  'x, y, z'
loop_
 _atom_site_type_symbol
 _atom_site_label
 _atom_site_symmetry_multiplicity
 _atom_site_fract_x
 _atom_site_fract_y
 _atom_site_fract_z
 _atom_site_occupancy
 _atom_site_charge
  Zn  Zn1  1  0.276280  0.000160  0.086220  1.0  1.1955
  Zn  Zn2  1  0.362500  0.086220  0.913620  1.0  1.1879
  Zn  Zn3  1  0.276120  0.913620  0.000160  1.0  1.1778
  Zn  Zn4  1  0.539270  0.000000  0.000000  1.0  1.066
  H  H5  1  0.842100  0.000000  0.243500  1.0  0.1126
  H  H6  1  0.488300  0.993500  0.345900  1.0  0.0694
  H  H7  1  0.411700  0.999600  0.248500  1.0  0.1114
  H  H8  1  0.765500  0.006300  0.146000  1.0  0.1148
  H  H9  1  0.687400  0.896300  0.427200  1.0  0.1215
  H  H10  1  0.971100  0.129300  0.447200  1.0  0.1162
  H  H11  1  0.989400  0.242600  0.347200  1.0  0.1089
  H  H12  1  0.783100  0.140600  0.263200  1.0  0.1138
  H  H13  1  0.177700  0.998200  0.570800  1.0  0.1091
  H  H14  1  0.668700  0.009300  0.556700  1.0  0.1065
  H  H15  1  0.550700  0.011400  0.657200  1.0  0.1178
  H  H16  1  0.862200  0.004600  0.736800  1.0  0.1186
  H  H17  1  0.029700  0.888100  0.756200  1.0  0.1123
  H  H18  1  0.152600  0.109100  0.641500  1.0  0.1214
  H  H19  1  0.252400  0.109000  0.729900  1.0  0.108
  H  H20  1  0.129600  0.888100  0.844400  1.0  0.1079
  H  H21  1  0.234700  0.009500  0.395800  1.0  0.1095
  H  H22  1  0.177100  0.939700  0.477800  1.0  0.0356
  H  H23  1  0.557900  0.975400  0.393200  1.0  0.0529
  H  H24  1  0.519700  0.087500  0.322900  1.0  0.1145
  H  H25  1  0.359300  0.123400  0.374700  1.0  0.1071
  H  H26  1  0.275400  0.935200  0.566900  1.0  0.0813
  H  H27  1  0.435700  0.899200  0.515300  1.0  0.1084
  H  H28  1  0.917400  0.895500  0.574600  1.0  0.0375
  H  H29  1  0.982500  0.874200  0.517600  1.0  0.0425
  H  H30  1  0.021100  0.782600  0.635400  1.0  0.0757
  H  H31  1  0.687500  0.769900  0.577100  1.0  0.1024
  H  H32  1  0.781100  0.743000  0.489300  1.0  0.103
  H  H33  1  0.994800  0.736100  0.474300  1.0  0.1005
  H  H34  1  0.114700  0.755700  0.547600  1.0  0.1187
  H  H35  1  0.085600  0.243500  0.756500  1.0  0.1121
  H  H36  1  0.834200  0.345900  0.660600  1.0  0.0731
  H  H37  1  0.660200  0.248500  0.751900  1.0  0.1116
  H  H38  1  0.911500  0.146000  0.847700  1.0  0.1156
  H  H39  1  0.114600  0.427200  0.676500  1.0  0.1199
  H  H40  1  0.418300  0.447200  0.423500  1.0  0.1157
  H  H41  1  0.336600  0.347200  0.410200  1.0  0.1071
  H  H42  1  0.046300  0.263200  0.596200  1.0  0.1125
  H  H43  1  0.748500  0.570800  0.431000  1.0  0.1111
  H  H44  1  0.225400  0.556700  0.434000  1.0  0.1067
  H  H45  1  0.207900  0.657200  0.331400  1.0  0.118
  H  H46  1  0.599000  0.736800  0.258600  1.0  0.119
  H  H47  1  0.785900  0.756200  0.355700  1.0  0.1133
  H  H48  1  0.794100  0.641500  0.249400  1.0  0.1203
  H  H49  1  0.982300  0.729900  0.161100  1.0  0.1091
  H  H50  1  0.974000  0.844400  0.267500  1.0  0.1071
  H  H51  1  0.630500  0.395800  0.594700  1.0  0.0932
  H  H52  1  0.654900  0.477800  0.582500  1.0  0.0463
  H  H53  1  0.951100  0.393200  0.631400  1.0  0.0514
  H  H54  1  0.842600  0.322900  0.589600  1.0  0.1152
  H  H55  1  0.734000  0.374700  0.501900  1.0  0.1092
  H  H56  1  0.842300  0.566900  0.497900  1.0  0.0768
  H  H57  1  0.951000  0.515300  0.585500  1.0  0.1083
  H  H58  1  0.492000  0.574600  0.529900  1.0  0.0331
  H  H59  1  0.500100  0.517600  0.608200  1.0  0.0416
  H  H60  1  0.656500  0.635400  0.582000  1.0  0.0769
  H  H61  1  0.264600  0.577100  0.653000  1.0  0.1044
  H  H62  1  0.270400  0.489300  0.767700  1.0  0.1005
  H  H63  1  0.469100  0.474300  0.789600  1.0  0.1011
  H  H64  1  0.662300  0.547600  0.696700  1.0  0.1182
  H  H65  1  0.842100  0.756500  0.000000  1.0  0.1121
  H  H66  1  0.494800  0.660600  0.993500  1.0  0.0722
  H  H67  1  0.412100  0.751900  0.999600  1.0  0.1119
  H  H68  1  0.759200  0.847700  0.006300  1.0  0.1146
  H  H69  1  0.791100  0.676500  0.896300  1.0  0.1215
  H  H70  1  0.841800  0.423500  0.129300  1.0  0.115
  H  H71  1  0.746800  0.410200  0.242600  1.0  0.1089
  H  H72  1  0.642500  0.596200  0.140600  1.0  0.112
  H  H73  1  0.179500  0.431000  0.998200  1.0  0.1077
  H  H74  1  0.659400  0.434000  0.009300  1.0  0.1051
  H  H75  1  0.539300  0.331400  0.011400  1.0  0.1169
  H  H76  1  0.857600  0.258600  0.004600  1.0  0.1188
  H  H77  1  0.141600  0.355700  0.888100  1.0  0.1121
  H  H78  1  0.043500  0.249400  0.109100  1.0  0.1203
  H  H79  1  0.143400  0.161100  0.109000  1.0  0.1096
  H  H80  1  0.241500  0.267500  0.888100  1.0  0.1074
  H  H81  1  0.225200  0.594700  0.009500  1.0  0.1
  H  H82  1  0.237400  0.582500  0.939700  1.0  0.0412
  H  H83  1  0.582500  0.631400  0.975400  1.0  0.0518
  H  H84  1  0.432200  0.589600  0.087500  1.0  0.115
  H  H85  1  0.235900  0.501900  0.123400  1.0  0.1092
  H  H86  1  0.340200  0.497900  0.935200  1.0  0.0825
  H  H87  1  0.536500  0.585500  0.899200  1.0  0.1057
  H  H88  1  0.021900  0.529900  0.895500  1.0  0.0368
  H  H89  1  0.108300  0.608200  0.874200  1.0  0.0417
  H  H90  1  0.238500  0.582000  0.782600  1.0  0.0756
  H  H91  1  0.917600  0.653000  0.769900  1.0  0.1053
  H  H92  1  0.038100  0.767700  0.743000  1.0  0.1018
  H  H93  1  0.258700  0.789600  0.736100  1.0  0.1009
  H  H94  1  0.359000  0.696700  0.755700  1.0  0.1192
  C  C95  1  0.755000  0.000000  0.245000  1.0  -0.1262
  C  C96  1  0.672000  0.996000  0.304000  1.0  0.0275
  C  C97  1  0.544600  0.996100  0.305300  1.0  -0.1256
  C  C98  1  0.499100  0.999700  0.247400  1.0  -0.0737
  C  C99  1  0.581200  0.003600  0.188000  1.0  -0.1407
  C  C100  1  0.710000  0.004000  0.186000  1.0  -0.0529
  C  C101  1  0.505300  0.001000  0.131100  1.0  0.6725
  C  C102  1  0.254000  0.999000  0.841000  1.0  0.8487
  C  C103  1  0.856000  0.001000  0.474000  1.0  -0.1815
  C  C104  1  0.789000  0.937000  0.479000  1.0  0.2329
  C  C105  1  0.734000  0.941000  0.423000  1.0  -0.2601
  C  C106  1  0.744000  0.008000  0.364000  1.0  0.032
  C  C107  1  0.811000  0.072000  0.359000  1.0  0.0163
  C  C108  1  0.866400  0.068400  0.414200  1.0  0.058
  C  C109  1  0.933000  0.132000  0.410000  1.0  -0.137
  C  C110  1  0.944000  0.199000  0.351000  1.0  -0.0791
  C  C111  1  0.888000  0.203000  0.295000  1.0  -0.0939
  C  C112  1  0.822000  0.139000  0.300000  1.0  -0.0961
  C  C113  1  0.905200  0.004200  0.527600  1.0  -0.0504
  C  C114  1  0.033200  0.001200  0.521600  1.0  0.2295
  C  C115  1  0.091000  0.000000  0.575000  1.0  -0.2495
  C  C116  1  0.020800  0.001800  0.634400  1.0  0.0098
  C  C117  1  0.892500  0.004200  0.640700  1.0  0.0312
  C  C118  1  0.836000  0.006000  0.587000  1.0  0.042
  C  C119  1  0.708000  0.009000  0.593000  1.0  -0.109
  C  C120  1  0.638000  0.009000  0.653000  1.0  -0.1321
  C  C121  1  0.695000  0.008000  0.706000  1.0  0.1152
  C  C122  1  0.822700  0.004700  0.700600  1.0  -0.131
  C  C123  1  0.075000  0.932900  0.750900  1.0  -0.1528
  C  C124  1  0.082400  0.999400  0.690200  1.0  0.1064
  C  C125  1  0.147800  0.064800  0.682400  1.0  -0.1854
  C  C126  1  0.207000  0.064200  0.735200  1.0  0.0002
  C  C127  1  0.200000  0.998500  0.795500  1.0  -0.158
  C  C128  1  0.134500  0.932800  0.803300  1.0  -0.0122
  C  C129  1  0.202000  0.993000  0.448000  1.0  0.2026
  C  C130  1  0.494000  0.991000  0.413000  1.0  0.0827
  C  C131  1  0.470000  0.056000  0.373000  1.0  -0.1847
  C  C132  1  0.379000  0.079000  0.402000  1.0  0.0594
  C  C133  1  0.302000  0.033000  0.476000  1.0  -0.4519
  C  C134  1  0.325000  0.966000  0.517000  1.0  0.061
  C  C135  1  0.420000  0.945000  0.487000  1.0  -0.217
  C  C136  1  0.899000  0.867000  0.550000  1.0  0.1609
  C  C137  1  0.970000  0.775000  0.605000  1.0  0.0652
  C  C138  1  0.848000  0.779000  0.615000  1.0  -0.4947
  C  C139  1  0.774000  0.766000  0.572000  1.0  0.0758
  C  C140  1  0.830000  0.750000  0.520000  1.0  -0.1464
  C  C141  1  0.953000  0.748000  0.509000  1.0  -0.0267
  C  C142  1  0.028000  0.759000  0.553000  1.0  -0.1832
  C  C143  1  0.000000  0.245000  0.755000  1.0  -0.1266
  C  C144  1  0.976000  0.304000  0.700000  1.0  0.0345
  C  C145  1  0.849900  0.305300  0.698600  1.0  -0.125
  C  C146  1  0.746500  0.247400  0.752900  1.0  -0.0724
  C  C147  1  0.769200  0.188000  0.808400  1.0  -0.14
  C  C148  1  0.896000  0.186000  0.810000  1.0  -0.052
  C  C149  1  0.636400  0.131100  0.867900  1.0  0.6701
  C  C150  1  0.095000  0.841000  0.160000  1.0  0.851
  C  C151  1  0.330000  0.474000  0.525000  1.0  -0.1816
  C  C152  1  0.268000  0.479000  0.584000  1.0  0.2356
  C  C153  1  0.157000  0.423000  0.636000  1.0  -0.2455
  C  C154  1  0.108000  0.364000  0.628000  1.0  0.0327
  C  C155  1  0.170000  0.359000  0.569000  1.0  0.0165
  C  C156  1  0.280600  0.414200  0.517400  1.0  0.0568
  C  C157  1  0.343000  0.410000  0.458000  1.0  -0.1382
  C  C158  1  0.295000  0.351000  0.450000  1.0  -0.0855
  C  C159  1  0.183000  0.295000  0.502000  1.0  -0.0883
  C  C160  1  0.122000  0.300000  0.561000  1.0  -0.095
  C  C161  1  0.432800  0.527600  0.468200  1.0  -0.048
  C  C162  1  0.554800  0.521600  0.477200  1.0  0.2314
  C  C163  1  0.666000  0.575000  0.425000  1.0  -0.2516
  C  C164  1  0.655200  0.634400  0.363800  1.0  0.0105
  C  C165  1  0.533200  0.640700  0.355100  1.0  0.0322
  C  C166  1  0.423000  0.587000  0.407000  1.0  0.0378
  C  C167  1  0.301000  0.593000  0.398000  1.0  -0.1137
  C  C168  1  0.291000  0.653000  0.338000  1.0  -0.1322
  C  C169  1  0.401000  0.706000  0.286000  1.0  0.1243
  C  C170  1  0.523300  0.700600  0.294700  1.0  -0.1343
  C  C171  1  0.825900  0.750900  0.316200  1.0  -0.1499
  C  C172  1  0.772600  0.690200  0.310400  1.0  0.1053
  C  C173  1  0.830200  0.682400  0.252800  1.0  -0.1833
  C  C174  1  0.942200  0.735200  0.200600  1.0  -0.005
  C  C175  1  0.995500  0.795500  0.206000  1.0  -0.1974
  C  C176  1  0.937800  0.803300  0.263900  1.0  -0.0119
  C  C177  1  0.650000  0.448000  0.559000  1.0  0.2057
  C  C178  1  0.907000  0.413000  0.596000  1.0  0.0898
  C  C179  1  0.843000  0.373000  0.571000  1.0  -0.1872
  C  C180  1  0.781000  0.402000  0.519000  1.0  0.0568
  C  C181  1  0.778000  0.476000  0.491000  1.0  -0.4481
  C  C182  1  0.842000  0.517000  0.517000  1.0  0.0839
  C  C183  1  0.907000  0.487000  0.568000  1.0  -0.214
  C  C184  1  0.449000  0.550000  0.583000  1.0  0.1612
  C  C185  1  0.575000  0.605000  0.620000  1.0  0.0801
  C  C186  1  0.463000  0.615000  0.606000  1.0  -0.4942
  C  C187  1  0.346000  0.572000  0.662000  1.0  0.0765
  C  C188  1  0.350000  0.520000  0.730000  1.0  -0.1458
  C  C189  1  0.462000  0.509000  0.743000  1.0  -0.0274
  C  C190  1  0.581000  0.553000  0.688000  1.0  -0.1771
  C  C191  1  0.755000  0.755000  0.000000  1.0  -0.1286
  C  C192  1  0.676000  0.700000  0.996000  1.0  0.0303
  C  C193  1  0.548500  0.698600  0.996100  1.0  -0.1237
  C  C194  1  0.499400  0.752900  0.999700  1.0  -0.0721
  C  C195  1  0.577600  0.808400  0.003600  1.0  -0.1413
  C  C196  1  0.706000  0.810000  0.004000  1.0  -0.0529
  C  C197  1  0.504300  0.867900  0.001000  1.0  0.6703
  C  C198  1  0.255000  0.160000  0.999000  1.0  0.8527
  C  C199  1  0.855000  0.525000  0.001000  1.0  -0.181
  C  C200  1  0.852000  0.584000  0.937000  1.0  0.2343
  C  C201  1  0.793000  0.636000  0.941000  1.0  -0.2624
  C  C202  1  0.736000  0.628000  0.008000  1.0  0.0327
  C  C203  1  0.739000  0.569000  0.072000  1.0  0.0204
  C  C204  1  0.798000  0.517400  0.068400  1.0  0.0576
  C  C205  1  0.801000  0.458000  0.132000  1.0  -0.1371
  C  C206  1  0.745000  0.450000  0.199000  1.0  -0.0859
  C  C207  1  0.685000  0.502000  0.203000  1.0  -0.0909
  C  C208  1  0.683000  0.561000  0.139000  1.0  -0.0904
  C  C209  1  0.901000  0.468200  0.004200  1.0  -0.0515
  C  C210  1  0.032000  0.477200  0.001200  1.0  0.2308
  C  C211  1  0.091000  0.425000  0.000000  1.0  -0.2526
  C  C212  1  0.019000  0.363800  0.001800  1.0  0.0101
  C  C213  1  0.888300  0.355100  0.004200  1.0  0.0318
  C  C214  1  0.830000  0.407000  0.006000  1.0  0.0408
  C  C215  1  0.699000  0.398000  0.009000  1.0  -0.1134
  C  C216  1  0.629000  0.338000  0.009000  1.0  -0.135
  C  C217  1  0.687000  0.286000  0.008000  1.0  0.1231
  C  C218  1  0.818000  0.294700  0.004700  1.0  -0.1353
  C  C219  1  0.142100  0.316200  0.932900  1.0  -0.151
  C  C220  1  0.083000  0.310400  0.999400  1.0  0.1061
  C  C221  1  0.083000  0.252800  0.064800  1.0  -0.186
  C  C222  1  0.142800  0.200600  0.064200  1.0  -0.0031
  C  C223  1  0.201500  0.206000  0.998500  1.0  -0.1985
  C  C224  1  0.201700  0.263900  0.932800  1.0  -0.0144
  C  C225  1  0.209000  0.559000  0.993000  1.0  0.2016
  C  C226  1  0.503000  0.596000  0.991000  1.0  0.0827
  C  C227  1  0.414000  0.571000  0.056000  1.0  -0.1862
  C  C228  1  0.300000  0.519000  0.079000  1.0  0.061
  C  C229  1  0.269000  0.491000  0.033000  1.0  -0.4475
  C  C230  1  0.359000  0.517000  0.966000  1.0  0.0462
  C  C231  1  0.475000  0.568000  0.945000  1.0  -0.213
  C  C232  1  0.032000  0.583000  0.867000  1.0  0.1588
  C  C233  1  0.195000  0.620000  0.775000  1.0  0.0721
  C  C234  1  0.069000  0.606000  0.779000  1.0  -0.4836
  C  C235  1  0.008000  0.662000  0.766000  1.0  0.0728
  C  C236  1  0.080000  0.730000  0.750000  1.0  -0.15
  C  C237  1  0.205000  0.743000  0.748000  1.0  -0.0238
  C  C238  1  0.269000  0.688000  0.759000  1.0  -0.1775
  Cl  Cl239  1  0.578000  0.995000  0.795000  1.0  -0.1686
  Cl  Cl240  1  0.373000  0.795000  0.210000  1.0  -0.1661
  Cl  Cl241  1  0.583000  0.210000  0.995000  1.0  -0.1695
  O  O242  1  0.398200  0.000300  0.142700  1.0  -0.542
  O  O243  1  0.585400  0.999500  0.081300  1.0  -0.6005
  O  O244  1  0.249300  0.101600  0.051700  1.0  -0.7293
  O  O245  1  0.301800  0.154400  0.947000  1.0  -0.7224
  O  O246  1  0.116000  0.018000  0.461000  1.0  -0.1798
  O  O247  1  0.829000  0.892000  0.512000  1.0  -0.0218
  O  O248  1  0.540900  0.142700  0.857000  1.0  -0.5409
  O  O249  1  0.666667  0.081300  0.919200  1.0  -0.6014
  O  O250  1  0.301000  0.051700  0.846700  1.0  -0.7296
  O  O251  1  0.248800  0.947000  0.898600  1.0  -0.7264
  O  O252  1  0.577000  0.461000  0.521000  1.0  -0.1771
  O  O253  1  0.341000  0.512000  0.596000  1.0  -0.0195
  O  O254  1  0.397900  0.857000  0.000300  1.0  -0.5407
  O  O255  1  0.585900  0.919200  0.999500  1.0  -0.5976
  O  O256  1  0.147700  0.846700  0.101600  1.0  -0.7234
  O  O257  1  0.147400  0.898600  0.154400  1.0  -0.7294
  O  O258  1  0.098000  0.521000  0.018000  1.0  -0.1838
  O  O259  1  0.937000  0.596000  0.892000  1.0  -0.0194
  O  O260  1  0.364670  0.000000  0.000000  1.0  -1.2458
