# generated using pymatgen
data_ZnH4C8(N2O)2
_symmetry_space_group_name_H-M   'P 1'
_cell_length_a   6.79100000
_cell_length_b   9.60400000
_cell_length_c   17.72200000
_cell_angle_alpha   101.82600000
_cell_angle_beta   96.50000000
_cell_angle_gamma   106.42500000
_symmetry_Int_Tables_number   1
_chemical_formula_structural   ZnH4C8(N2O)2
_chemical_formula_sum   'Zn4 H16 C32 N16 O8'
_cell_volume   1066.95666022
_cell_formula_units_Z   4
loop_
 _symmetry_equiv_pos_site_id
 _symmetry_equiv_pos_as_xyz
  1  'x, y, z'
loop_
 _atom_site_type_symbol
 _atom_site_label
 _atom_site_symmetry_multiplicity
 _atom_site_fract_x
 _atom_site_fract_y
 _atom_site_fract_z
 _atom_site_occupancy
 _atom_site_charge
  Zn  Zn1  1  0.076510  0.537160  0.249260  1.0  0.9008
  Zn  Zn2  1  0.158570  0.190340  0.250680  1.0  0.9269
  Zn  Zn3  1  0.923490  0.462840  0.750740  1.0  0.9011
  Zn  Zn4  1  0.841430  0.809660  0.749320  1.0  0.9284
  H  H5  1  0.808700  0.061700  0.018500  1.0  0.113
  H  H6  1  0.218200  0.458000  0.017900  1.0  0.1101
  H  H7  1  0.147700  0.393500  0.881700  1.0  0.1036
  H  H8  1  0.735500  0.000800  0.882600  1.0  0.1019
  H  H9  1  0.353600  0.701600  0.478800  1.0  0.11
  H  H10  1  0.129800  0.274500  0.487600  1.0  0.1205
  H  H11  1  0.430000  0.778700  0.615900  1.0  0.1219
  H  H12  1  0.187000  0.349100  0.622300  1.0  0.1095
  H  H13  1  0.191300  0.938300  0.981500  1.0  0.1123
  H  H14  1  0.781800  0.542000  0.982100  1.0  0.1103
  H  H15  1  0.852300  0.606500  0.118300  1.0  0.1033
  H  H16  1  0.264500  0.999200  0.117400  1.0  0.1015
  H  H17  1  0.646400  0.298400  0.521200  1.0  0.1105
  H  H18  1  0.870200  0.725500  0.512400  1.0  0.1197
  H  H19  1  0.570000  0.221300  0.384100  1.0  0.1208
  H  H20  1  0.813000  0.650900  0.377700  1.0  0.1082
  C  C21  1  0.939000  0.190700  0.870500  1.0  -0.0484
  C  C22  1  0.060900  0.307800  0.119300  1.0  0.6782
  C  C23  1  0.022000  0.267900  0.033200  1.0  -0.1477
  C  C24  1  0.876000  0.128600  0.991400  1.0  -0.0114
  C  C25  1  0.122000  0.365900  0.991000  1.0  -0.018
  C  C26  1  0.080700  0.327600  0.909500  1.0  -0.0627
  C  C27  1  0.834000  0.091400  0.910100  1.0  -0.0567
  C  C28  1  0.892000  0.150200  0.783000  1.0  0.3226
  C  C29  1  0.190800  0.432600  0.382800  1.0  0.6739
  C  C30  1  0.363400  0.617800  0.718000  1.0  0.3661
  C  C31  1  0.323300  0.631100  0.508300  1.0  -0.0113
  C  C32  1  0.187100  0.375600  0.513300  1.0  -0.0296
  C  C33  1  0.368300  0.677900  0.590400  1.0  -0.0998
  C  C34  1  0.235000  0.482100  0.471200  1.0  -0.1467
  C  C35  1  0.224700  0.420200  0.593600  1.0  -0.059
  C  C36  1  0.318600  0.570400  0.632600  1.0  -0.0456
  C  C37  1  0.061000  0.809300  0.129500  1.0  -0.0483
  C  C38  1  0.939100  0.692200  0.880700  1.0  0.6785
  C  C39  1  0.978000  0.732100  0.966800  1.0  -0.1481
  C  C40  1  0.124000  0.871400  0.008600  1.0  -0.0127
  C  C41  1  0.878000  0.634100  0.009000  1.0  -0.0171
  C  C42  1  0.919300  0.672400  0.090500  1.0  -0.0626
  C  C43  1  0.166000  0.908600  0.089900  1.0  -0.0579
  C  C44  1  0.108000  0.849800  0.217000  1.0  0.329
  C  C45  1  0.809200  0.567400  0.617200  1.0  0.6747
  C  C46  1  0.636600  0.382200  0.282000  1.0  0.364
  C  C47  1  0.676700  0.368900  0.491700  1.0  -0.0106
  C  C48  1  0.812900  0.624400  0.486700  1.0  -0.0288
  C  C49  1  0.631700  0.322100  0.409600  1.0  -0.1007
  C  C50  1  0.765000  0.517900  0.528800  1.0  -0.1456
  C  C51  1  0.775300  0.579800  0.406400  1.0  -0.0591
  C  C52  1  0.681400  0.429600  0.367400  1.0  -0.0455
  N  N53  1  0.884000  0.245000  0.738500  1.0  -0.2685
  N  N54  1  0.229200  0.571700  0.763400  1.0  -0.3455
  N  N55  1  0.517500  0.722400  0.839400  1.0  -0.0722
  N  N56  1  0.329600  0.639900  0.840200  1.0  -0.0825
  N  N57  1  0.835000  0.164400  0.665400  1.0  -0.1085
  N  N58  1  0.815000  0.028300  0.666667  1.0  -0.1331
  N  N59  1  0.546200  0.711500  0.763200  1.0  -0.3563
  N  N60  1  0.847000  0.012700  0.738300  1.0  -0.3032
  N  N61  1  0.116000  0.755000  0.261500  1.0  -0.2724
  N  N62  1  0.770800  0.428300  0.236600  1.0  -0.3452
  N  N63  1  0.482500  0.277600  0.160600  1.0  -0.0674
  N  N64  1  0.670400  0.360100  0.159800  1.0  -0.083
  N  N65  1  0.165000  0.835600  0.334600  1.0  -0.0788
  N  N66  1  0.185000  0.971700  0.333400  1.0  -0.1212
  N  N67  1  0.453800  0.288500  0.236800  1.0  -0.3566
  N  N68  1  0.153000  0.987300  0.261700  1.0  -0.3007
  O  O69  1  0.009000  0.202600  0.152700  1.0  -0.5991
  O  O70  1  0.147800  0.444600  0.153500  1.0  -0.5903
  O  O71  1  0.228500  0.534900  0.348300  1.0  -0.5894
  O  O72  1  0.121900  0.293900  0.351200  1.0  -0.5973
  O  O73  1  0.991000  0.797400  0.847300  1.0  -0.5992
  O  O74  1  0.852200  0.555400  0.846500  1.0  -0.5905
  O  O75  1  0.771500  0.465100  0.651700  1.0  -0.5891
  O  O76  1  0.878100  0.706100  0.648800  1.0  -0.5972
