# generated using pymatgen
data_Zn8H35(C36O13)2
_symmetry_space_group_name_H-M   'P 1'
_cell_length_a   18.62650000
_cell_length_b   23.57930000
_cell_length_c   30.12270000
_cell_angle_alpha   93.22300000
_cell_angle_beta   90.00000000
_cell_angle_gamma   90.00000000
_symmetry_Int_Tables_number   1
_chemical_formula_structural   Zn8H35(C36O13)2
_chemical_formula_sum   'Zn32 H140 C288 O104'
_cell_volume   13208.95873060
_cell_formula_units_Z   4
loop_
 _symmetry_equiv_pos_site_id
 _symmetry_equiv_pos_as_xyz
  1  'x, y, z'
loop_
 _atom_site_type_symbol
 _atom_site_label
 _atom_site_symmetry_multiplicity
 _atom_site_fract_x
 _atom_site_fract_y
 _atom_site_fract_z
 _atom_site_occupancy
 _atom_site_charge
  Zn  Zn1  1  0.579390  0.649940  0.619860  1.0  1.0904
  Zn  Zn2  1  0.420000  0.657490  0.200940  1.0  1.067
  Zn  Zn3  1  0.505870  0.589590  0.698670  1.0  1.0719
  Zn  Zn4  1  0.505570  0.721930  0.697600  1.0  1.0619
  Zn  Zn5  1  0.007940  0.219590  0.618890  1.0  1.1502
  Zn  Zn6  1  0.006070  0.084720  0.624130  1.0  1.0259
  Zn  Zn7  1  0.586860  0.657690  0.192100  1.0  1.06
  Zn  Zn8  1  0.402420  0.650000  0.630420  1.0  1.1157
  Zn  Zn9  1  0.920610  0.149940  0.119860  1.0  1.0906
  Zn  Zn10  1  0.080000  0.157490  0.700940  1.0  1.0666
  Zn  Zn11  1  0.994130  0.089590  0.198670  1.0  1.0719
  Zn  Zn12  1  0.994430  0.221930  0.197600  1.0  1.0619
  Zn  Zn13  1  0.492060  0.719590  0.118890  1.0  1.1513
  Zn  Zn14  1  0.493930  0.584720  0.124130  1.0  1.0262
  Zn  Zn15  1  0.913140  0.157690  0.692100  1.0  1.0603
  Zn  Zn16  1  0.097580  0.150000  0.130420  1.0  1.1195
  Zn  Zn17  1  0.079390  0.850060  0.880140  1.0  1.0918
  Zn  Zn18  1  0.920000  0.842510  0.299060  1.0  1.0671
  Zn  Zn19  1  0.005870  0.910410  0.801330  1.0  1.0728
  Zn  Zn20  1  0.005570  0.778070  0.802400  1.0  1.0615
  Zn  Zn21  1  0.507940  0.280410  0.881110  1.0  1.1521
  Zn  Zn22  1  0.506070  0.415280  0.875870  1.0  1.0261
  Zn  Zn23  1  0.086860  0.842310  0.307900  1.0  1.0606
  Zn  Zn24  1  0.902420  0.850000  0.869580  1.0  1.1155
  Zn  Zn25  1  0.420610  0.350060  0.380140  1.0  1.092
  Zn  Zn26  1  0.580000  0.342510  0.799060  1.0  1.0667
  Zn  Zn27  1  0.494130  0.410410  0.301330  1.0  1.0727
  Zn  Zn28  1  0.494430  0.278070  0.302400  1.0  1.0616
  Zn  Zn29  1  0.992060  0.780410  0.381110  1.0  1.1533
  Zn  Zn30  1  0.993930  0.915280  0.375870  1.0  1.0264
  Zn  Zn31  1  0.413140  0.342310  0.807900  1.0  1.061
  Zn  Zn32  1  0.597580  0.350000  0.369580  1.0  1.1194
  H  H33  1  0.521300  0.584000  0.837800  1.0  0.1061
  H  H34  1  0.880500  0.936100  0.626400  1.0  0.0848
  H  H35  1  0.585100  0.669600  0.480400  1.0  0.1118
  H  H36  1  0.654100  0.459100  0.703300  1.0  0.1158
  H  H37  1  0.363000  0.627900  0.415600  1.0  0.1001
  H  H38  1  0.109700  0.381300  0.197100  1.0  0.1056
  H  H39  1  0.418300  0.640000  0.340400  1.0  0.0968
  H  H40  1  0.638900  0.684400  0.406500  1.0  0.1275
  H  H41  1  0.645300  0.855800  0.696700  1.0  0.1111
  H  H42  1  0.772100  0.292000  0.721800  1.0  0.1021
  H  H43  1  0.700400  0.368800  0.730200  1.0  0.0991
  H  H44  1  0.343100  0.454200  0.120900  1.0  0.1027
  H  H45  1  0.212300  0.876000  0.253200  1.0  0.0938
  H  H46  1  0.858500  0.351500  0.611500  1.0  0.1109
  H  H47  1  0.291100  0.799400  0.245600  1.0  0.1202
  H  H48  1  0.528500  0.536500  0.909600  1.0  0.1074
  H  H49  1  0.152900  0.478600  0.219700  1.0  0.114
  H  H50  1  0.236800  0.547900  0.215400  1.0  0.1002
  H  H51  1  0.731100  0.515200  0.589000  1.0  0.1064
  H  H52  1  0.676400  0.956800  0.713700  1.0  0.1089
  H  H53  1  0.374700  0.634000  0.491000  1.0  0.1061
  H  H54  1  0.753300  0.031900  0.707400  1.0  0.1053
  H  H55  1  0.768100  0.760500  0.612000  1.0  0.1111
  H  H56  1  0.498500  0.711000  0.986100  1.0  0.108
  H  H57  1  0.848400  0.833100  0.607300  1.0  0.1016
  H  H58  1  0.302400  0.356100  0.099600  1.0  0.115
  H  H59  1  0.804700  0.438500  0.580100  1.0  0.1191
  H  H60  1  0.330900  0.836900  0.119600  1.0  0.1102
  H  H61  1  0.494000  0.759500  0.913300  1.0  0.1126
  H  H62  1  0.145700  0.953700  0.220300  1.0  0.1171
  H  H63  1  0.625900  0.683000  0.330700  1.0  0.0956
  H  H64  1  0.490800  0.752700  0.838500  1.0  0.1056
  H  H65  1  0.194000  0.993600  0.096000  1.0  0.1099
  H  H66  1  0.272200  0.920600  0.089100  1.0  0.1156
  H  H67  1  0.219000  0.286700  0.104400  1.0  0.1082
  H  H68  1  0.978700  0.084000  0.337800  1.0  0.1062
  H  H69  1  0.619500  0.436100  0.126400  1.0  0.0854
  H  H70  1  0.914900  0.169600  0.980400  1.0  0.1116
  H  H71  1  0.845900  0.959100  0.203300  1.0  0.1156
  H  H72  1  0.137000  0.127900  0.915600  1.0  0.1
  H  H73  1  0.390300  0.881300  0.697100  1.0  0.1064
  H  H74  1  0.081700  0.140000  0.840400  1.0  0.0964
  H  H75  1  0.861100  0.184400  0.906500  1.0  0.1276
  H  H76  1  0.854700  0.355800  0.196700  1.0  0.111
  H  H77  1  0.727900  0.792000  0.221800  1.0  0.1019
  H  H78  1  0.799600  0.868800  0.230200  1.0  0.0991
  H  H79  1  0.156900  0.954200  0.620900  1.0  0.1026
  H  H80  1  0.287700  0.376000  0.753200  1.0  0.0941
  H  H81  1  0.641500  0.851500  0.111500  1.0  0.1106
  H  H82  1  0.208900  0.299400  0.745600  1.0  0.1207
  H  H83  1  0.971500  0.036500  0.409600  1.0  0.1077
  H  H84  1  0.347100  0.978600  0.719700  1.0  0.1138
  H  H85  1  0.263200  0.047900  0.715400  1.0  0.1
  H  H86  1  0.768900  0.015200  0.089000  1.0  0.106
  H  H87  1  0.823600  0.456800  0.213700  1.0  0.1091
  H  H88  1  0.125300  0.134000  0.991000  1.0  0.1064
  H  H89  1  0.746700  0.531900  0.207400  1.0  0.105
  H  H90  1  0.731900  0.260500  0.112000  1.0  0.1112
  H  H91  1  0.001500  0.211000  0.486100  1.0  0.1078
  H  H92  1  0.651600  0.333100  0.107300  1.0  0.1021
  H  H93  1  0.197600  0.856100  0.599600  1.0  0.1154
  H  H94  1  0.695300  0.938500  0.080100  1.0  0.1184
  H  H95  1  0.169100  0.336900  0.619600  1.0  0.1095
  H  H96  1  0.006000  0.259500  0.413300  1.0  0.1124
  H  H97  1  0.354300  0.453700  0.720300  1.0  0.1171
  H  H98  1  0.874100  0.183000  0.830700  1.0  0.096
  H  H99  1  0.009200  0.252700  0.338500  1.0  0.1054
  H  H100  1  0.306000  0.493600  0.596000  1.0  0.1096
  H  H101  1  0.227800  0.420600  0.589100  1.0  0.1154
  H  H102  1  0.281000  0.786700  0.604400  1.0  0.1086
  H  H103  1  0.021300  0.916000  0.662200  1.0  0.1067
  H  H104  1  0.380500  0.563900  0.873600  1.0  0.0853
  H  H105  1  0.085100  0.830400  0.019600  1.0  0.1113
  H  H106  1  0.154100  0.040900  0.796700  1.0  0.1148
  H  H107  1  0.863000  0.872100  0.084400  1.0  0.0994
  H  H108  1  0.609700  0.118700  0.302900  1.0  0.1059
  H  H109  1  0.918300  0.860000  0.159600  1.0  0.0969
  H  H110  1  0.138900  0.815600  0.093500  1.0  0.1269
  H  H111  1  0.145300  0.644200  0.803300  1.0  0.1112
  H  H112  1  0.272100  0.208000  0.778200  1.0  0.1014
  H  H113  1  0.200400  0.131200  0.769800  1.0  0.099
  H  H114  1  0.843100  0.045800  0.379100  1.0  0.1028
  H  H115  1  0.712300  0.624000  0.246800  1.0  0.094
  H  H116  1  0.358500  0.148500  0.888500  1.0  0.1112
  H  H117  1  0.791100  0.700600  0.254400  1.0  0.1199
  H  H118  1  0.028500  0.963500  0.590400  1.0  0.1076
  H  H119  1  0.652900  0.021400  0.280300  1.0  0.114
  H  H120  1  0.736800  0.952100  0.284600  1.0  0.1002
  H  H121  1  0.231100  0.984800  0.911000  1.0  0.1061
  H  H122  1  0.176400  0.543200  0.786300  1.0  0.1098
  H  H123  1  0.874700  0.866000  0.009000  1.0  0.106
  H  H124  1  0.253300  0.468100  0.792600  1.0  0.1055
  H  H125  1  0.268100  0.739500  0.888000  1.0  0.1112
  H  H126  1  0.998500  0.789000  0.513900  1.0  0.1073
  H  H127  1  0.348400  0.666900  0.892700  1.0  0.1014
  H  H128  1  0.802400  0.143900  0.400400  1.0  0.1154
  H  H129  1  0.304700  0.061500  0.919900  1.0  0.1185
  H  H130  1  0.830900  0.663100  0.380400  1.0  0.1099
  H  H131  1  0.994000  0.740500  0.586700  1.0  0.1123
  H  H132  1  0.645700  0.546300  0.279700  1.0  0.1166
  H  H133  1  0.125900  0.817000  0.169300  1.0  0.0956
  H  H134  1  0.990800  0.747300  0.661500  1.0  0.106
  H  H135  1  0.694000  0.506400  0.404000  1.0  0.1102
  H  H136  1  0.772200  0.579400  0.410900  1.0  0.1149
  H  H137  1  0.719000  0.213300  0.395600  1.0  0.1083
  H  H138  1  0.478700  0.416000  0.162200  1.0  0.1065
  H  H139  1  0.119500  0.063900  0.373600  1.0  0.0856
  H  H140  1  0.414900  0.330400  0.519600  1.0  0.1114
  H  H141  1  0.345900  0.540900  0.296700  1.0  0.1149
  H  H142  1  0.637000  0.372100  0.584400  1.0  0.0998
  H  H143  1  0.890300  0.618700  0.802900  1.0  0.1067
  H  H144  1  0.581700  0.360000  0.659600  1.0  0.0969
  H  H145  1  0.361100  0.315600  0.593500  1.0  0.1273
  H  H146  1  0.354700  0.144200  0.303300  1.0  0.1109
  H  H147  1  0.227900  0.708000  0.278200  1.0  0.1012
  H  H148  1  0.299600  0.631200  0.269800  1.0  0.099
  H  H149  1  0.656900  0.545800  0.879100  1.0  0.1026
  H  H150  1  0.787700  0.124000  0.746800  1.0  0.0943
  H  H151  1  0.141500  0.648500  0.388500  1.0  0.1107
  H  H152  1  0.708900  0.200600  0.754400  1.0  0.12
  H  H153  1  0.471500  0.463500  0.090400  1.0  0.1079
  H  H154  1  0.847100  0.521400  0.780300  1.0  0.1136
  H  H155  1  0.763200  0.452100  0.784600  1.0  0.1001
  H  H156  1  0.268900  0.484800  0.411000  1.0  0.1063
  H  H157  1  0.323600  0.043200  0.286300  1.0  0.109
  H  H158  1  0.625300  0.366000  0.509000  1.0  0.1065
  H  H159  1  0.246700  0.968100  0.292600  1.0  0.1054
  H  H160  1  0.231900  0.239500  0.388000  1.0  0.1112
  H  H161  1  0.501500  0.289000  0.013900  1.0  0.1074
  H  H162  1  0.151600  0.166900  0.392700  1.0  0.1019
  H  H163  1  0.697600  0.643900  0.900400  1.0  0.1158
  H  H164  1  0.195300  0.561500  0.419900  1.0  0.1188
  H  H165  1  0.669100  0.163100  0.880400  1.0  0.1102
  H  H166  1  0.506000  0.240500  0.086700  1.0  0.1122
  H  H167  1  0.854300  0.046300  0.779700  1.0  0.1167
  H  H168  1  0.374100  0.317000  0.669300  1.0  0.0954
  H  H169  1  0.509200  0.247300  0.161500  1.0  0.1059
  H  H170  1  0.806000  0.006400  0.904000  1.0  0.1102
  H  H171  1  0.727800  0.079400  0.910900  1.0  0.1153
  H  H172  1  0.781000  0.713300  0.895600  1.0  0.1085
  C  C173  1  0.513500  0.657500  0.279100  1.0  0.7679
  C  C174  1  0.515600  0.622000  0.900100  1.0  0.024
  C  C175  1  0.516500  0.619100  0.853200  1.0  -0.0521
  C  C176  1  0.466900  0.650300  0.400200  1.0  0.0183
  C  C177  1  0.519700  0.660700  0.327800  1.0  -0.15
  C  C178  1  0.794900  0.892700  0.647400  1.0  0.0256
  C  C179  1  0.840300  0.939500  0.644600  1.0  -0.03
  C  C180  1  0.481900  0.651000  0.493600  1.0  -0.1576
  C  C181  1  0.194600  0.422400  0.172400  1.0  0.0315
  C  C182  1  0.697400  0.801700  0.654900  1.0  -0.1548
  C  C183  1  0.684600  0.494800  0.646300  1.0  -0.1705
  C  C184  1  0.540600  0.662400  0.467200  1.0  -0.0147
  C  C185  1  0.731300  0.407600  0.674500  1.0  0.026
  C  C186  1  0.533300  0.663000  0.420600  1.0  0.0433
  C  C187  1  0.684600  0.454700  0.678900  1.0  -0.0867
  C  C188  1  0.407100  0.637600  0.428300  1.0  -0.1137
  C  C189  1  0.147000  0.377200  0.176600  1.0  -0.0405
  C  C190  1  0.462000  0.649000  0.353900  1.0  -0.0566
  C  C191  1  0.778000  0.401800  0.637400  1.0  0.0378
  C  C192  1  0.594700  0.675700  0.393400  1.0  -0.123
  C  C193  1  0.684800  0.852300  0.677800  1.0  -0.0664
  C  C194  1  0.878900  0.038400  0.663600  1.0  0.7227
  C  C195  1  0.773500  0.319400  0.700900  1.0  -0.0526
  C  C196  1  0.518500  0.575800  0.969300  1.0  0.0474
  C  C197  1  0.730900  0.365000  0.705800  1.0  -0.1462
  C  C198  1  0.730500  0.899800  0.673400  1.0  0.0274
  C  C199  1  0.305300  0.458600  0.141000  1.0  -0.0365
  C  C200  1  0.236100  0.868100  0.226400  1.0  -0.125
  C  C201  1  0.153300  0.327400  0.151800  1.0  -0.1399
  C  C202  1  0.319300  0.812700  0.180900  1.0  -0.16
  C  C203  1  0.824700  0.354400  0.634300  1.0  -0.0448
  C  C204  1  0.828100  0.988900  0.667200  1.0  -0.1683
  C  C205  1  0.283200  0.822600  0.222200  1.0  -0.0507
  C  C206  1  0.300700  0.507000  0.167900  1.0  -0.1351
  C  C207  1  0.522000  0.571700  0.924500  1.0  -0.0022
  C  C208  1  0.253800  0.415300  0.143000  1.0  0.0903
  C  C209  1  0.224000  0.902400  0.190200  1.0  -0.0047
  C  C210  1  0.510300  0.667400  0.829800  1.0  -0.1188
  C  C211  1  0.103300  0.278900  0.156100  1.0  0.7253
  C  C212  1  0.190800  0.473400  0.199800  1.0  -0.0858
  C  C213  1  0.241000  0.514600  0.197600  1.0  -0.0664
  C  C214  1  0.730800  0.488000  0.610200  1.0  -0.0416
  C  C215  1  0.260200  0.892400  0.151300  1.0  0.0236
  C  C216  1  0.717300  0.952300  0.696100  1.0  -0.0825
  C  C217  1  0.414600  0.639900  0.473300  1.0  -0.0473
  C  C218  1  0.107600  0.027700  0.163000  1.0  0.7044
  C  C219  1  0.763400  0.996900  0.693000  1.0  -0.0769
  C  C220  1  0.759700  0.794900  0.627800  1.0  -0.0565
  C  C221  1  0.503800  0.676200  0.970300  1.0  -0.074
  C  C222  1  0.807300  0.838600  0.624600  1.0  -0.0953
  C  C223  1  0.160600  0.980100  0.158400  1.0  -0.1409
  C  C224  1  0.262800  0.361900  0.118100  1.0  -0.1261
  C  C225  1  0.507300  0.674800  0.923700  1.0  0.0147
  C  C226  1  0.371600  0.764100  0.177400  1.0  0.7316
  C  C227  1  0.775500  0.442700  0.605100  1.0  -0.1181
  C  C228  1  0.307800  0.845200  0.146600  1.0  -0.0879
  C  C229  1  0.499100  0.724100  0.898400  1.0  -0.1222
  C  C230  1  0.171600  0.947100  0.194200  1.0  -0.1336
  C  C231  1  0.586800  0.674600  0.348400  1.0  -0.042
  C  C232  1  0.498700  0.720300  0.853900  1.0  -0.0407
  C  C233  1  0.508000  0.628800  0.992400  1.0  -0.0324
  C  C234  1  0.200300  0.970200  0.119500  1.0  -0.0264
  C  C235  1  0.821100  0.312400  0.664000  1.0  -0.1348
  C  C236  1  0.247500  0.927400  0.115600  1.0  -0.1248
  C  C237  1  0.870900  0.263600  0.660700  1.0  0.557
  C  C238  1  0.504300  0.631300  0.042200  1.0  0.7119
  C  C239  1  0.356700  0.551900  0.165600  1.0  0.7366
  C  C240  1  0.644900  0.754100  0.658100  1.0  0.7333
  C  C241  1  0.510700  0.663400  0.780400  1.0  0.711
  C  C242  1  0.490500  0.649900  0.543300  1.0  0.7226
  C  C243  1  0.634600  0.544500  0.651700  1.0  0.7296
  C  C244  1  0.213900  0.320400  0.121600  1.0  -0.0567
  C  C245  1  0.986500  0.157500  0.779100  1.0  0.7683
  C  C246  1  0.984400  0.122000  0.400100  1.0  0.023
  C  C247  1  0.983500  0.119100  0.353200  1.0  -0.052
  C  C248  1  0.033100  0.150300  0.900200  1.0  0.018
  C  C249  1  0.980300  0.160700  0.827800  1.0  -0.1503
  C  C250  1  0.705100  0.392700  0.147400  1.0  0.0254
  C  C251  1  0.659700  0.439500  0.144600  1.0  -0.0321
  C  C252  1  0.018100  0.151000  0.993600  1.0  -0.1576
  C  C253  1  0.305400  0.922400  0.672400  1.0  0.0279
  C  C254  1  0.802600  0.301700  0.154900  1.0  -0.1547
  C  C255  1  0.815400  0.994800  0.146300  1.0  -0.1709
  C  C256  1  0.959400  0.162400  0.967200  1.0  -0.0167
  C  C257  1  0.768700  0.907600  0.174500  1.0  0.026
  C  C258  1  0.966700  0.163000  0.920600  1.0  0.0444
  C  C259  1  0.815400  0.954700  0.178900  1.0  -0.0851
  C  C260  1  0.092900  0.137600  0.928300  1.0  -0.1144
  C  C261  1  0.353000  0.877200  0.676600  1.0  -0.039
  C  C262  1  0.038000  0.149000  0.853900  1.0  -0.0546
  C  C263  1  0.722000  0.901800  0.137400  1.0  0.0407
  C  C264  1  0.905300  0.175700  0.893400  1.0  -0.1211
  C  C265  1  0.815200  0.352300  0.177800  1.0  -0.0651
  C  C266  1  0.621100  0.538400  0.163600  1.0  0.7225
  C  C267  1  0.726500  0.819400  0.200900  1.0  -0.0527
  C  C268  1  0.981500  0.075800  0.469300  1.0  0.0473
  C  C269  1  0.769100  0.865000  0.205800  1.0  -0.1458
  C  C270  1  0.769500  0.399800  0.173400  1.0  0.0272
  C  C271  1  0.194700  0.958600  0.641000  1.0  -0.0364
  C  C272  1  0.263900  0.368100  0.726400  1.0  -0.1265
  C  C273  1  0.346700  0.827400  0.651800  1.0  -0.1405
  C  C274  1  0.180700  0.312700  0.680900  1.0  -0.1602
  C  C275  1  0.675300  0.854400  0.134300  1.0  -0.0464
  C  C276  1  0.671900  0.488900  0.167200  1.0  -0.168
  C  C277  1  0.216800  0.322600  0.722200  1.0  -0.0503
  C  C278  1  0.199300  0.007000  0.667900  1.0  -0.1347
  C  C279  1  0.978000  0.071700  0.424500  1.0  -0.003
  C  C280  1  0.246200  0.915300  0.643000  1.0  0.0911
  C  C281  1  0.276000  0.402400  0.690200  1.0  -0.0044
  C  C282  1  0.989700  0.167400  0.329800  1.0  -0.1178
  C  C283  1  0.396700  0.778900  0.656100  1.0  0.7254
  C  C284  1  0.309200  0.973400  0.699800  1.0  -0.0959
  C  C285  1  0.259000  0.014600  0.697600  1.0  -0.0659
  C  C286  1  0.769200  0.988000  0.110200  1.0  -0.0413
  C  C287  1  0.239800  0.392400  0.651300  1.0  0.0249
  C  C288  1  0.782700  0.452300  0.196100  1.0  -0.0803
  C  C289  1  0.085400  0.139900  0.973300  1.0  -0.0469
  C  C290  1  0.392400  0.527700  0.663000  1.0  0.7046
  C  C291  1  0.736600  0.496900  0.193000  1.0  -0.0761
  C  C292  1  0.740300  0.294900  0.127800  1.0  -0.0571
  C  C293  1  0.996200  0.176200  0.470300  1.0  -0.074
  C  C294  1  0.692700  0.338600  0.124600  1.0  -0.0948
  C  C295  1  0.339400  0.480100  0.658400  1.0  -0.1401
  C  C296  1  0.237200  0.861900  0.618100  1.0  -0.1252
  C  C297  1  0.992700  0.174800  0.423700  1.0  0.0149
  C  C298  1  0.128400  0.264100  0.677400  1.0  0.7311
  C  C299  1  0.724500  0.942700  0.105100  1.0  -0.1168
  C  C300  1  0.192200  0.345200  0.646600  1.0  -0.0861
  C  C301  1  0.000900  0.224100  0.398400  1.0  -0.1214
  C  C302  1  0.328400  0.447100  0.694200  1.0  -0.1346
  C  C303  1  0.913200  0.174600  0.848400  1.0  -0.0429
  C  C304  1  0.001300  0.220300  0.353900  1.0  -0.04
  C  C305  1  0.992000  0.128800  0.492400  1.0  -0.0323
  C  C306  1  0.299700  0.470200  0.619500  1.0  -0.0266
  C  C307  1  0.678900  0.812400  0.164000  1.0  -0.1347
  C  C308  1  0.252500  0.427400  0.615600  1.0  -0.1254
  C  C309  1  0.629100  0.763600  0.160700  1.0  0.5566
  C  C310  1  0.995700  0.131300  0.542200  1.0  0.7119
  C  C311  1  0.143300  0.051900  0.665600  1.0  0.7379
  C  C312  1  0.855100  0.254100  0.158100  1.0  0.7323
  C  C313  1  0.989300  0.163400  0.280400  1.0  0.7106
  C  C314  1  0.009500  0.149900  0.043300  1.0  0.7226
  C  C315  1  0.865400  0.044500  0.151700  1.0  0.728
  C  C316  1  0.286100  0.820400  0.621600  1.0  -0.0572
  C  C317  1  0.013500  0.842500  0.220900  1.0  0.7696
  C  C318  1  0.015600  0.878000  0.599900  1.0  0.0242
  C  C319  1  0.016500  0.880900  0.646800  1.0  -0.0514
  C  C320  1  0.966900  0.849700  0.099800  1.0  0.0184
  C  C321  1  0.019700  0.839300  0.172200  1.0  -0.1493
  C  C322  1  0.294900  0.607300  0.852600  1.0  0.0253
  C  C323  1  0.340300  0.560500  0.855400  1.0  -0.0303
  C  C324  1  0.981900  0.849000  0.006400  1.0  -0.1575
  C  C325  1  0.694600  0.077600  0.327600  1.0  0.0288
  C  C326  1  0.197400  0.698300  0.845100  1.0  -0.1543
  C  C327  1  0.184600  0.005200  0.853700  1.0  -0.171
  C  C328  1  0.040600  0.837600  0.032800  1.0  -0.0144
  C  C329  1  0.231300  0.092400  0.825500  1.0  0.0263
  C  C330  1  0.033300  0.837000  0.079400  1.0  0.0428
  C  C331  1  0.184600  0.045300  0.821100  1.0  -0.0857
  C  C332  1  0.907100  0.862400  0.071700  1.0  -0.1141
  C  C333  1  0.647000  0.122800  0.323400  1.0  -0.0399
  C  C334  1  0.962000  0.851000  0.146100  1.0  -0.0558
  C  C335  1  0.278000  0.098200  0.862600  1.0  0.0368
  C  C336  1  0.094700  0.824300  0.106600  1.0  -0.1241
  C  C337  1  0.184800  0.647700  0.822200  1.0  -0.0666
  C  C338  1  0.378900  0.461600  0.836400  1.0  0.7231
  C  C339  1  0.273500  0.180600  0.799100  1.0  -0.0509
  C  C340  1  0.018500  0.924200  0.530700  1.0  0.0442
  C  C341  1  0.230900  0.135000  0.794200  1.0  -0.1467
  C  C342  1  0.230500  0.600200  0.826600  1.0  0.0269
  C  C343  1  0.805300  0.041400  0.359000  1.0  -0.0362
  C  C344  1  0.736100  0.631900  0.273600  1.0  -0.1264
  C  C345  1  0.653300  0.172600  0.348200  1.0  -0.1399
  C  C346  1  0.819300  0.687300  0.319100  1.0  -0.1608
  C  C347  1  0.324700  0.145600  0.865700  1.0  -0.0446
  C  C348  1  0.328100  0.511100  0.832800  1.0  -0.1702
  C  C349  1  0.783200  0.677400  0.277800  1.0  -0.0512
  C  C350  1  0.800700  0.993000  0.332100  1.0  -0.1365
  C  C351  1  0.022000  0.928300  0.575500  1.0  -0.0019
  C  C352  1  0.753800  0.084700  0.357000  1.0  0.0923
  C  C353  1  0.724000  0.597600  0.309800  1.0  -0.0044
  C  C354  1  0.010300  0.832600  0.670200  1.0  -0.1218
  C  C355  1  0.603300  0.221100  0.343900  1.0  0.7248
  C  C356  1  0.690800  0.026600  0.300200  1.0  -0.0956
  C  C357  1  0.741000  0.985400  0.302400  1.0  -0.0657
  C  C358  1  0.230800  0.012000  0.889800  1.0  -0.0407
  C  C359  1  0.760200  0.607600  0.348700  1.0  0.0235
  C  C360  1  0.217300  0.547700  0.803900  1.0  -0.0779
  C  C361  1  0.914600  0.860100  0.026700  1.0  -0.0465
  C  C362  1  0.607600  0.472300  0.337000  1.0  0.7033
  C  C363  1  0.263400  0.503100  0.807000  1.0  -0.077
  C  C364  1  0.259700  0.705100  0.872200  1.0  -0.0556
  C  C365  1  0.003800  0.823800  0.529700  1.0  -0.0736
  C  C366  1  0.307300  0.661400  0.875400  1.0  -0.0956
  C  C367  1  0.660600  0.519900  0.341600  1.0  -0.1412
  C  C368  1  0.762800  0.138100  0.381900  1.0  -0.1273
  C  C369  1  0.007300  0.825200  0.576300  1.0  0.0147
  C  C370  1  0.871600  0.735900  0.322600  1.0  0.7326
  C  C371  1  0.275500  0.057300  0.894900  1.0  -0.1178
  C  C372  1  0.807800  0.654800  0.353400  1.0  -0.087
  C  C373  1  0.999100  0.775900  0.601600  1.0  -0.1248
  C  C374  1  0.671600  0.552900  0.305800  1.0  -0.1347
  C  C375  1  0.086800  0.825400  0.151600  1.0  -0.0424
  C  C376  1  0.998700  0.779700  0.646100  1.0  -0.0456
  C  C377  1  0.008000  0.871200  0.507600  1.0  -0.0329
  C  C378  1  0.700300  0.529800  0.380500  1.0  -0.025
  C  C379  1  0.321100  0.187600  0.836000  1.0  -0.1355
  C  C380  1  0.747500  0.572600  0.384400  1.0  -0.1249
  C  C381  1  0.370900  0.236400  0.839300  1.0  0.558
  C  C382  1  0.004300  0.868700  0.457800  1.0  0.712
  C  C383  1  0.856700  0.948100  0.334400  1.0  0.7361
  C  C384  1  0.144900  0.745900  0.841900  1.0  0.7322
  C  C385  1  0.010700  0.836600  0.719600  1.0  0.7124
  C  C386  1  0.990500  0.850100  0.956700  1.0  0.7208
  C  C387  1  0.134600  0.955500  0.848300  1.0  0.7291
  C  C388  1  0.713900  0.179600  0.378400  1.0  -0.0551
  C  C389  1  0.486500  0.342500  0.720900  1.0  0.7704
  C  C390  1  0.484400  0.378000  0.099900  1.0  0.023
  C  C391  1  0.483500  0.380900  0.146800  1.0  -0.0514
  C  C392  1  0.533100  0.349700  0.599800  1.0  0.0179
  C  C393  1  0.480300  0.339300  0.672200  1.0  -0.1503
  C  C394  1  0.205100  0.107300  0.352600  1.0  0.0248
  C  C395  1  0.159700  0.060500  0.355400  1.0  -0.0321
  C  C396  1  0.518100  0.349000  0.506400  1.0  -0.1575
  C  C397  1  0.805400  0.577600  0.827600  1.0  0.0324
  C  C398  1  0.302600  0.198300  0.345100  1.0  -0.1545
  C  C399  1  0.315400  0.505200  0.353700  1.0  -0.1714
  C  C400  1  0.459400  0.337600  0.532800  1.0  -0.0162
  C  C401  1  0.268700  0.592400  0.325500  1.0  0.0258
  C  C402  1  0.466700  0.337000  0.579400  1.0  0.0437
  C  C403  1  0.315400  0.545300  0.321100  1.0  -0.085
  C  C404  1  0.592900  0.362400  0.571700  1.0  -0.1152
  C  C405  1  0.853000  0.622800  0.823400  1.0  -0.0382
  C  C406  1  0.538000  0.351000  0.646100  1.0  -0.0536
  C  C407  1  0.222000  0.598200  0.362600  1.0  0.0407
  C  C408  1  0.405300  0.324300  0.606600  1.0  -0.1221
  C  C409  1  0.315200  0.147700  0.322200  1.0  -0.0659
  C  C410  1  0.121100  0.961600  0.336400  1.0  0.7228
  C  C411  1  0.226500  0.680600  0.299100  1.0  -0.0514
  C  C412  1  0.481500  0.424200  0.030700  1.0  0.0443
  C  C413  1  0.269100  0.635000  0.294200  1.0  -0.1458
  C  C414  1  0.269500  0.100200  0.326600  1.0  0.027
  C  C415  1  0.694700  0.541400  0.859000  1.0  -0.0371
  C  C416  1  0.763900  0.131900  0.773600  1.0  -0.1275
  C  C417  1  0.846700  0.672600  0.848200  1.0  -0.1413
  C  C418  1  0.680700  0.187300  0.819100  1.0  -0.1608
  C  C419  1  0.175300  0.645600  0.365700  1.0  -0.0472
  C  C420  1  0.171900  0.011100  0.332800  1.0  -0.1698
  C  C421  1  0.716800  0.177400  0.777800  1.0  -0.0499
  C  C422  1  0.699300  0.493000  0.832100  1.0  -0.1361
  C  C423  1  0.478000  0.428300  0.075500  1.0  -0.0025
  C  C424  1  0.746200  0.584700  0.857000  1.0  0.09
  C  C425  1  0.776000  0.097600  0.809800  1.0  -0.0048
  C  C426  1  0.489700  0.332600  0.170200  1.0  -0.1207
  C  C427  1  0.896700  0.721100  0.843900  1.0  0.725
  C  C428  1  0.809200  0.526600  0.800200  1.0  -0.0859
  C  C429  1  0.759000  0.485400  0.802400  1.0  -0.0667
  C  C430  1  0.269200  0.512000  0.389800  1.0  -0.0401
  C  C431  1  0.739800  0.107600  0.848700  1.0  0.0266
  C  C432  1  0.282700  0.047700  0.303900  1.0  -0.0816
  C  C433  1  0.585400  0.360100  0.526700  1.0  -0.0467
  C  C434  1  0.892400  0.972300  0.837000  1.0  0.7038
  C  C435  1  0.236600  0.003100  0.307000  1.0  -0.0783
  C  C436  1  0.240300  0.205100  0.372200  1.0  -0.0559
  C  C437  1  0.496200  0.323800  0.029700  1.0  -0.0733
  C  C438  1  0.192700  0.161400  0.375400  1.0  -0.095
  C  C439  1  0.839400  0.019900  0.841600  1.0  -0.1406
  C  C440  1  0.737200  0.638100  0.881900  1.0  -0.1266
  C  C441  1  0.492700  0.325200  0.076300  1.0  0.0143
  C  C442  1  0.628400  0.235900  0.822600  1.0  0.7319
  C  C443  1  0.224500  0.557300  0.394900  1.0  -0.1173
  C  C444  1  0.692200  0.154800  0.853400  1.0  -0.0869
  C  C445  1  0.500900  0.275900  0.101600  1.0  -0.1242
  C  C446  1  0.828400  0.052900  0.805800  1.0  -0.1365
  C  C447  1  0.413200  0.325400  0.651600  1.0  -0.0434
  C  C448  1  0.501300  0.279700  0.146100  1.0  -0.0449
  C  C449  1  0.492000  0.371200  0.007600  1.0  -0.0326
  C  C450  1  0.799700  0.029800  0.880500  1.0  -0.0254
  C  C451  1  0.178900  0.687600  0.336000  1.0  -0.1348
  C  C452  1  0.752500  0.072600  0.884400  1.0  -0.1254
  C  C453  1  0.129100  0.736400  0.339300  1.0  0.5579
  C  C454  1  0.495700  0.368700  0.957800  1.0  0.7121
  C  C455  1  0.643300  0.448100  0.834400  1.0  0.7373
  C  C456  1  0.355100  0.245900  0.341900  1.0  0.7316
  C  C457  1  0.489300  0.336600  0.219600  1.0  0.7117
  C  C458  1  0.509500  0.350100  0.456700  1.0  0.7202
  C  C459  1  0.365400  0.455500  0.348300  1.0  0.7279
  C  C460  1  0.786100  0.679600  0.878400  1.0  -0.0551
  O  O461  1  0.436200  0.642300  0.564600  1.0  -0.6013
  O  O462  1  0.568200  0.664400  0.256900  1.0  -0.6141
  O  O463  1  0.351800  0.594600  0.192000  1.0  -0.6056
  O  O464  1  0.509400  0.709900  0.761100  1.0  -0.6177
  O  O465  1  0.598000  0.760000  0.687400  1.0  -0.6245
  O  O466  1  0.931700  0.030200  0.639600  1.0  -0.5908
  O  O467  1  0.364000  0.726300  0.205400  1.0  -0.6004
  O  O468  1  0.452600  0.648400  0.262300  1.0  -0.6
  O  O469  1  0.495200  0.584800  0.060200  1.0  -0.5644
  O  O470  1  0.060800  0.282500  0.188200  1.0  -0.5956
  O  O471  1  0.065800  0.030300  0.196100  1.0  -0.5893
  O  O472  1  0.919100  0.264300  0.629800  1.0  -0.6376
  O  O473  1  0.850500  0.220000  0.684600  1.0  -0.593
  O  O474  1  0.862000  0.085000  0.684900  1.0  -0.6153
  O  O475  1  0.510100  0.677700  0.062500  1.0  -0.6755
  O  O476  1  0.595900  0.548100  0.685700  1.0  -0.6112
  O  O477  1  0.413600  0.761400  0.146300  1.0  -0.666
  O  O478  1  0.500200  0.653200  0.660500  1.0  -1.2252
  O  O479  1  0.497900  0.655900  0.158800  1.0  -1.2543
  O  O480  1  0.513500  0.614700  0.761500  1.0  -0.6167
  O  O481  1  0.635900  0.579900  0.622000  1.0  -0.5946
  O  O482  1  0.650400  0.711900  0.631300  1.0  -0.5965
  O  O483  1  0.405500  0.543100  0.137400  1.0  -0.6151
  O  O484  1  0.554200  0.657400  0.558000  1.0  -0.6103
  O  O485  1  0.106900  0.237900  0.129100  1.0  -0.6091
  O  O486  1  0.109100  0.062300  0.133500  1.0  -0.625
  O  O487  1  0.063800  0.142300  0.064600  1.0  -0.6009
  O  O488  1  0.931800  0.164400  0.756900  1.0  -0.6131
  O  O489  1  0.148200  0.094600  0.692000  1.0  -0.6058
  O  O490  1  0.990600  0.209900  0.261100  1.0  -0.6178
  O  O491  1  0.902000  0.260000  0.187400  1.0  -0.625
  O  O492  1  0.568300  0.530200  0.139600  1.0  -0.5915
  O  O493  1  0.136000  0.226300  0.705400  1.0  -0.6006
  O  O494  1  0.047400  0.148400  0.762300  1.0  -0.5995
  O  O495  1  0.004800  0.084800  0.560200  1.0  -0.5638
  O  O496  1  0.439200  0.782500  0.688200  1.0  -0.5957
  O  O497  1  0.434200  0.530300  0.696100  1.0  -0.5898
  O  O498  1  0.580900  0.764300  0.129800  1.0  -0.6385
  O  O499  1  0.649500  0.720000  0.184600  1.0  -0.5932
  O  O500  1  0.638000  0.585000  0.184900  1.0  -0.615
  O  O501  1  0.989900  0.177700  0.562500  1.0  -0.6764
  O  O502  1  0.904100  0.048100  0.185700  1.0  -0.6114
  O  O503  1  0.086400  0.261400  0.646300  1.0  -0.6666
  O  O504  1  0.999800  0.153200  0.160500  1.0  -1.2263
  O  O505  1  0.002100  0.155900  0.658800  1.0  -1.255
  O  O506  1  0.986500  0.114700  0.261500  1.0  -0.6166
  O  O507  1  0.864100  0.079900  0.122000  1.0  -0.5943
  O  O508  1  0.849600  0.211900  0.131300  1.0  -0.5964
  O  O509  1  0.094500  0.043100  0.637400  1.0  -0.6152
  O  O510  1  0.945800  0.157400  0.058000  1.0  -0.6113
  O  O511  1  0.393100  0.737900  0.629100  1.0  -0.6093
  O  O512  1  0.390900  0.562300  0.633500  1.0  -0.6261
  O  O513  1  0.936200  0.857700  0.935400  1.0  -0.6012
  O  O514  1  0.068200  0.835600  0.243100  1.0  -0.6143
  O  O515  1  0.851800  0.905400  0.308000  1.0  -0.6063
  O  O516  1  0.009400  0.790100  0.738900  1.0  -0.6172
  O  O517  1  0.098000  0.740000  0.812600  1.0  -0.6241
  O  O518  1  0.431700  0.469800  0.860400  1.0  -0.5899
  O  O519  1  0.864000  0.773700  0.294600  1.0  -0.6013
  O  O520  1  0.952600  0.851600  0.237700  1.0  -0.5997
  O  O521  1  0.995200  0.915200  0.439800  1.0  -0.5655
  O  O522  1  0.560800  0.217500  0.311800  1.0  -0.5945
  O  O523  1  0.565800  0.469700  0.303900  1.0  -0.5877
  O  O524  1  0.419100  0.235700  0.870200  1.0  -0.638
  O  O525  1  0.350500  0.280000  0.815400  1.0  -0.5954
  O  O526  1  0.362000  0.415000  0.815100  1.0  -0.617
  O  O527  1  0.010100  0.822300  0.437500  1.0  -0.6733
  O  O528  1  0.095900  0.951900  0.814300  1.0  -0.6123
  O  O529  1  0.913600  0.738600  0.353700  1.0  -0.6665
  O  O530  1  0.000200  0.846800  0.839500  1.0  -1.2248
  O  O531  1  0.997900  0.844100  0.341200  1.0  -1.2541
  O  O532  1  0.013500  0.885300  0.738500  1.0  -0.6169
  O  O533  1  0.135900  0.920100  0.878000  1.0  -0.5964
  O  O534  1  0.150400  0.788100  0.868700  1.0  -0.5976
  O  O535  1  0.905500  0.956900  0.362600  1.0  -0.6152
  O  O536  1  0.054200  0.842600  0.942000  1.0  -0.6106
  O  O537  1  0.606900  0.262100  0.370900  1.0  -0.6097
  O  O538  1  0.609100  0.437700  0.366500  1.0  -0.6225
  O  O539  1  0.563800  0.357700  0.435400  1.0  -0.6015
  O  O540  1  0.431800  0.335600  0.743100  1.0  -0.6139
  O  O541  1  0.648200  0.405400  0.808000  1.0  -0.6051
  O  O542  1  0.490600  0.290100  0.238900  1.0  -0.6174
  O  O543  1  0.402000  0.240000  0.312600  1.0  -0.6246
  O  O544  1  0.068300  0.969800  0.360400  1.0  -0.5907
  O  O545  1  0.636000  0.273700  0.794600  1.0  -0.6015
  O  O546  1  0.547400  0.351600  0.737700  1.0  -0.5991
  O  O547  1  0.504800  0.415200  0.939800  1.0  -0.565
  O  O548  1  0.939200  0.717500  0.811800  1.0  -0.5949
  O  O549  1  0.934200  0.969700  0.803900  1.0  -0.5891
  O  O550  1  0.080900  0.735700  0.370200  1.0  -0.6393
  O  O551  1  0.149500  0.780000  0.315400  1.0  -0.5955
  O  O552  1  0.138000  0.915000  0.315100  1.0  -0.616
  O  O553  1  0.489900  0.322300  0.937500  1.0  -0.6738
  O  O554  1  0.404100  0.451900  0.314300  1.0  -0.6129
  O  O555  1  0.586400  0.238600  0.853700  1.0  -0.6672
  O  O556  1  0.499800  0.346800  0.339500  1.0  -1.2258
  O  O557  1  0.502100  0.344100  0.841200  1.0  -1.2548
  O  O558  1  0.486500  0.385300  0.238500  1.0  -0.6166
  O  O559  1  0.364100  0.420100  0.378000  1.0  -0.5968
  O  O560  1  0.349600  0.288100  0.368700  1.0  -0.5977
  O  O561  1  0.594500  0.456900  0.862600  1.0  -0.6152
  O  O562  1  0.445800  0.342600  0.442000  1.0  -0.6117
  O  O563  1  0.893100  0.762100  0.870900  1.0  -0.6097
  O  O564  1  0.890900  0.937700  0.866500  1.0  -0.6242
