# generated using pymatgen
data_LaH15(C9O2)3
_symmetry_space_group_name_H-M   'P 1'
_cell_length_a   16.54280000
_cell_length_b   16.54280000
_cell_length_c   24.39880000
_cell_angle_alpha   90.00000000
_cell_angle_beta   90.00000000
_cell_angle_gamma   120.00000000
_symmetry_Int_Tables_number   1
_chemical_formula_structural   LaH15(C9O2)3
_chemical_formula_sum   'La6 H90 C162 O36'
_cell_volume   5782.51991567
_cell_formula_units_Z   6
loop_
 _symmetry_equiv_pos_site_id
 _symmetry_equiv_pos_as_xyz
  1  'x, y, z'
loop_
 _atom_site_type_symbol
 _atom_site_label
 _atom_site_symmetry_multiplicity
 _atom_site_fract_x
 _atom_site_fract_y
 _atom_site_fract_z
 _atom_site_occupancy
 _atom_site_charge
  La  La1  1  0.080980  0.080980  0.000000  1.0  2.0158
  La  La2  1  0.000000  0.919020  0.333333  1.0  2.0155
  La  La3  1  0.919020  0.000000  0.666667  1.0  2.0169
  La  La4  1  0.919020  0.919020  0.500000  1.0  2.0162
  La  La5  1  0.000000  0.080980  0.833330  1.0  2.0164
  La  La6  1  0.080980  0.000000  0.166670  1.0  2.0154
  H  H7  1  0.983100  0.322100  0.001900  1.0  0.1071
  H  H8  1  0.887300  0.387400  0.992300  1.0  0.117
  H  H9  1  0.719700  0.175200  0.892500  1.0  0.1149
  H  H10  1  0.810900  0.106300  0.906500  1.0  0.1187
  H  H11  1  0.849800  0.471100  0.938800  1.0  0.1088
  H  H12  1  0.874800  0.606600  0.983400  1.0  0.1306
  H  H13  1  0.958500  0.768300  0.982000  1.0  0.1125
  H  H14  1  0.339000  0.016900  0.335230  1.0  0.1064
  H  H15  1  0.500100  0.112700  0.325630  1.0  0.1173
  H  H16  1  0.455500  0.280300  0.225830  1.0  0.1146
  H  H17  1  0.295400  0.189100  0.239830  1.0  0.119
  H  H18  1  0.621300  0.150200  0.272130  1.0  0.1098
  H  H19  1  0.731800  0.125200  0.316730  1.0  0.1303
  H  H20  1  0.809800  0.041500  0.315330  1.0  0.1119
  H  H21  1  0.677900  0.661000  0.668570  1.0  0.1069
  H  H22  1  0.612600  0.499900  0.658970  1.0  0.1172
  H  H23  1  0.824800  0.544500  0.559170  1.0  0.1151
  H  H24  1  0.893700  0.704600  0.573170  1.0  0.1189
  H  H25  1  0.528900  0.378700  0.605470  1.0  0.109
  H  H26  1  0.393400  0.268200  0.650070  1.0  0.1295
  H  H27  1  0.231700  0.190200  0.648670  1.0  0.1127
  H  H28  1  0.016900  0.677900  0.501900  1.0  0.1069
  H  H29  1  0.112700  0.612600  0.492300  1.0  0.1174
  H  H30  1  0.280300  0.824800  0.392500  1.0  0.1154
  H  H31  1  0.189100  0.893700  0.406500  1.0  0.1194
  H  H32  1  0.150200  0.528900  0.438800  1.0  0.1093
  H  H33  1  0.125200  0.393400  0.483400  1.0  0.1305
  H  H34  1  0.041500  0.231700  0.482000  1.0  0.1125
  H  H35  1  0.661000  0.983100  0.835230  1.0  0.1058
  H  H36  1  0.499900  0.887300  0.825630  1.0  0.1172
  H  H37  1  0.544500  0.719700  0.725830  1.0  0.1144
  H  H38  1  0.704600  0.810900  0.739830  1.0  0.1183
  H  H39  1  0.378700  0.849800  0.772130  1.0  0.1092
  H  H40  1  0.268200  0.874800  0.816730  1.0  0.1305
  H  H41  1  0.190200  0.958500  0.815330  1.0  0.1111
  H  H42  1  0.322100  0.339000  0.168570  1.0  0.1065
  H  H43  1  0.387400  0.500100  0.158970  1.0  0.117
  H  H44  1  0.175200  0.455500  0.059170  1.0  0.1151
  H  H45  1  0.106300  0.295400  0.073170  1.0  0.1191
  H  H46  1  0.471100  0.621300  0.105470  1.0  0.1095
  H  H47  1  0.606600  0.731800  0.150070  1.0  0.1298
  H  H48  1  0.768300  0.809800  0.148670  1.0  0.113
  H  H49  1  0.661000  0.677900  0.331430  1.0  0.107
  H  H50  1  0.499900  0.612600  0.341030  1.0  0.117
  H  H51  1  0.544500  0.824800  0.440830  1.0  0.1152
  H  H52  1  0.704600  0.893700  0.426830  1.0  0.119
  H  H53  1  0.378700  0.528900  0.394530  1.0  0.1092
  H  H54  1  0.268200  0.393400  0.349930  1.0  0.1302
  H  H55  1  0.190200  0.231700  0.351330  1.0  0.1126
  H  H56  1  0.322100  0.983100  0.998100  1.0  0.1065
  H  H57  1  0.387400  0.887300  0.007700  1.0  0.117
  H  H58  1  0.175200  0.719700  0.107500  1.0  0.1148
  H  H59  1  0.106300  0.810900  0.093500  1.0  0.119
  H  H60  1  0.471100  0.849800  0.061200  1.0  0.1093
  H  H61  1  0.606600  0.874800  0.016600  1.0  0.1302
  H  H62  1  0.768300  0.958500  0.018000  1.0  0.1121
  H  H63  1  0.016900  0.339000  0.664770  1.0  0.1068
  H  H64  1  0.112700  0.500100  0.674370  1.0  0.1168
  H  H65  1  0.280300  0.455500  0.774170  1.0  0.1153
  H  H66  1  0.189100  0.295400  0.760170  1.0  0.1189
  H  H67  1  0.150200  0.621300  0.727870  1.0  0.1095
  H  H68  1  0.125200  0.731800  0.683270  1.0  0.1296
  H  H69  1  0.041500  0.809800  0.684670  1.0  0.1128
  H  H70  1  0.339000  0.322100  0.831430  1.0  0.1072
  H  H71  1  0.500100  0.387400  0.841030  1.0  0.1169
  H  H72  1  0.455500  0.175200  0.940830  1.0  0.1154
  H  H73  1  0.295400  0.106300  0.926830  1.0  0.1189
  H  H74  1  0.621300  0.471100  0.894530  1.0  0.109
  H  H75  1  0.731800  0.606600  0.849930  1.0  0.1299
  H  H76  1  0.809800  0.768300  0.851330  1.0  0.1129
  H  H77  1  0.677900  0.016900  0.498100  1.0  0.1061
  H  H78  1  0.612600  0.112700  0.507700  1.0  0.1169
  H  H79  1  0.824800  0.280300  0.607500  1.0  0.1146
  H  H80  1  0.893700  0.189100  0.593500  1.0  0.1186
  H  H81  1  0.528900  0.150200  0.561200  1.0  0.1098
  H  H82  1  0.393400  0.125200  0.516600  1.0  0.1301
  H  H83  1  0.231700  0.041500  0.518000  1.0  0.1118
  H  H84  1  0.983100  0.661000  0.164770  1.0  0.1071
  H  H85  1  0.887300  0.499900  0.174370  1.0  0.1167
  H  H86  1  0.719700  0.544500  0.274170  1.0  0.1152
  H  H87  1  0.810900  0.704600  0.260170  1.0  0.1191
  H  H88  1  0.849800  0.378700  0.227870  1.0  0.109
  H  H89  1  0.874800  0.268200  0.183270  1.0  0.1294
  H  H90  1  0.958500  0.190200  0.184670  1.0  0.1133
  H  H91  1  0.613800  0.227600  0.916670  1.0  0.1079
  H  H92  1  0.613800  0.386200  0.250000  1.0  0.1093
  H  H93  1  0.772400  0.386200  0.583330  1.0  0.1093
  H  H94  1  0.386200  0.772400  0.416670  1.0  0.1082
  H  H95  1  0.386200  0.613800  0.750000  1.0  0.1097
  H  H96  1  0.227600  0.613800  0.083330  1.0  0.1098
  C  C97  1  0.974000  0.173400  0.960900  1.0  0.7081
  C  C98  1  0.907300  0.209300  0.955200  1.0  -0.1388
  C  C99  1  0.929800  0.292300  0.980300  1.0  -0.039
  C  C100  1  0.872700  0.332600  0.973800  1.0  -0.1468
  C  C101  1  0.794500  0.291100  0.939600  1.0  0.0569
  C  C102  1  0.772300  0.204900  0.914700  1.0  -0.1138
  C  C103  1  0.827300  0.163400  0.922700  1.0  -0.1077
  C  C104  1  0.740500  0.338500  0.927600  1.0  0.0268
  C  C105  1  0.787100  0.437900  0.929000  1.0  -0.09
  C  C106  1  0.862800  0.639000  0.956500  1.0  -0.1327
  C  C107  1  0.912200  0.736000  0.956000  1.0  -0.0497
  C  C108  1  0.199400  0.026000  0.294230  1.0  0.7097
  C  C109  1  0.302000  0.092700  0.288530  1.0  -0.1414
  C  C110  1  0.362500  0.070200  0.313630  1.0  -0.0391
  C  C111  1  0.459900  0.127300  0.307130  1.0  -0.1449
  C  C112  1  0.496600  0.205500  0.272930  1.0  0.0565
  C  C113  1  0.432600  0.227700  0.248030  1.0  -0.1122
  C  C114  1  0.336100  0.172700  0.256030  1.0  -0.1088
  C  C115  1  0.598000  0.259500  0.260930  1.0  0.0257
  C  C116  1  0.650800  0.212900  0.262330  1.0  -0.0849
  C  C117  1  0.776200  0.137200  0.289830  1.0  -0.1325
  C  C118  1  0.823800  0.087800  0.289330  1.0  -0.0509
  C  C119  1  0.826600  0.800600  0.627570  1.0  0.7088
  C  C120  1  0.790700  0.698000  0.621870  1.0  -0.1407
  C  C121  1  0.707700  0.637500  0.646970  1.0  -0.0398
  C  C122  1  0.667400  0.540100  0.640470  1.0  -0.1454
  C  C123  1  0.708900  0.503400  0.606270  1.0  0.0566
  C  C124  1  0.795100  0.567400  0.581370  1.0  -0.1151
  C  C125  1  0.836600  0.663900  0.589370  1.0  -0.1093
  C  C126  1  0.661500  0.402000  0.594270  1.0  0.0506
  C  C127  1  0.562100  0.349200  0.595670  1.0  -0.0902
  C  C128  1  0.361000  0.223800  0.623170  1.0  -0.1309
  C  C129  1  0.264000  0.176200  0.622670  1.0  -0.0518
  C  C130  1  0.026000  0.826600  0.460900  1.0  0.7092
  C  C131  1  0.092700  0.790700  0.455200  1.0  -0.1387
  C  C132  1  0.070200  0.707700  0.480300  1.0  -0.039
  C  C133  1  0.127300  0.667400  0.473800  1.0  -0.1448
  C  C134  1  0.205500  0.708900  0.439600  1.0  0.0562
  C  C135  1  0.227700  0.795100  0.414700  1.0  -0.1141
  C  C136  1  0.172700  0.836600  0.422700  1.0  -0.1076
  C  C137  1  0.259500  0.661500  0.427600  1.0  0.0266
  C  C138  1  0.212900  0.562100  0.429000  1.0  -0.089
  C  C139  1  0.137200  0.361000  0.456500  1.0  -0.133
  C  C140  1  0.087800  0.264000  0.456000  1.0  -0.0497
  C  C141  1  0.800600  0.974000  0.794230  1.0  0.7086
  C  C142  1  0.698000  0.907300  0.788530  1.0  -0.1402
  C  C143  1  0.637500  0.929800  0.813630  1.0  -0.0385
  C  C144  1  0.540100  0.872700  0.807130  1.0  -0.1456
  C  C145  1  0.503400  0.794500  0.772930  1.0  0.0568
  C  C146  1  0.567400  0.772300  0.748030  1.0  -0.1119
  C  C147  1  0.663900  0.827300  0.756030  1.0  -0.1081
  C  C148  1  0.402000  0.740500  0.760930  1.0  0.0263
  C  C149  1  0.349200  0.787100  0.762330  1.0  -0.0862
  C  C150  1  0.223800  0.862800  0.789830  1.0  -0.1324
  C  C151  1  0.176200  0.912200  0.789330  1.0  -0.0495
  C  C152  1  0.173400  0.199400  0.127570  1.0  0.7102
  C  C153  1  0.209300  0.302000  0.121870  1.0  -0.1407
  C  C154  1  0.292300  0.362500  0.146970  1.0  -0.0391
  C  C155  1  0.332600  0.459900  0.140470  1.0  -0.1447
  C  C156  1  0.291100  0.496600  0.106270  1.0  0.0566
  C  C157  1  0.204900  0.432600  0.081370  1.0  -0.1144
  C  C158  1  0.163400  0.336100  0.089370  1.0  -0.1078
  C  C159  1  0.338500  0.598000  0.094270  1.0  0.0504
  C  C160  1  0.437900  0.650800  0.095670  1.0  -0.0887
  C  C161  1  0.639000  0.776200  0.123170  1.0  -0.1314
  C  C162  1  0.736000  0.823800  0.122670  1.0  -0.0509
  C  C163  1  0.800600  0.826600  0.372430  1.0  0.7076
  C  C164  1  0.698000  0.790700  0.378130  1.0  -0.1384
  C  C165  1  0.637500  0.707700  0.353030  1.0  -0.0402
  C  C166  1  0.540100  0.667400  0.359530  1.0  -0.1452
  C  C167  1  0.503400  0.708900  0.393730  1.0  0.0569
  C  C168  1  0.567400  0.795100  0.418630  1.0  -0.1143
  C  C169  1  0.663900  0.836600  0.410630  1.0  -0.1074
  C  C170  1  0.402000  0.661500  0.405730  1.0  0.0489
  C  C171  1  0.349200  0.562100  0.404330  1.0  -0.0893
  C  C172  1  0.223800  0.361000  0.376830  1.0  -0.1326
  C  C173  1  0.176200  0.264000  0.377330  1.0  -0.0504
  C  C174  1  0.173400  0.974000  0.039100  1.0  0.7088
  C  C175  1  0.209300  0.907300  0.044800  1.0  -0.1412
  C  C176  1  0.292300  0.929800  0.019700  1.0  -0.0383
  C  C177  1  0.332600  0.872700  0.026200  1.0  -0.1451
  C  C178  1  0.291100  0.794500  0.060400  1.0  0.0568
  C  C179  1  0.204900  0.772300  0.085300  1.0  -0.1121
  C  C180  1  0.163400  0.827300  0.077300  1.0  -0.1085
  C  C181  1  0.338500  0.740500  0.072400  1.0  0.0258
  C  C182  1  0.437900  0.787100  0.071000  1.0  -0.0851
  C  C183  1  0.639000  0.862800  0.043500  1.0  -0.1318
  C  C184  1  0.736000  0.912200  0.044000  1.0  -0.0492
  C  C185  1  0.026000  0.199400  0.705770  1.0  0.7092
  C  C186  1  0.092700  0.302000  0.711470  1.0  -0.1404
  C  C187  1  0.070200  0.362500  0.686370  1.0  -0.0397
  C  C188  1  0.127300  0.459900  0.692870  1.0  -0.145
  C  C189  1  0.205500  0.496600  0.727070  1.0  0.0567
  C  C190  1  0.227700  0.432600  0.751970  1.0  -0.1146
  C  C191  1  0.172700  0.336100  0.743970  1.0  -0.1087
  C  C192  1  0.259500  0.598000  0.739070  1.0  0.0286
  C  C193  1  0.212900  0.650800  0.737670  1.0  -0.0889
  C  C194  1  0.137200  0.776200  0.710170  1.0  -0.1313
  C  C195  1  0.087800  0.823800  0.710670  1.0  -0.0503
  C  C196  1  0.199400  0.173400  0.872430  1.0  0.7086
  C  C197  1  0.302000  0.209300  0.878130  1.0  -0.1391
  C  C198  1  0.362500  0.292300  0.853030  1.0  -0.039
  C  C199  1  0.459900  0.332600  0.859530  1.0  -0.1461
  C  C200  1  0.496600  0.291100  0.893730  1.0  0.0563
  C  C201  1  0.432600  0.204900  0.918630  1.0  -0.1141
  C  C202  1  0.336100  0.163400  0.910630  1.0  -0.1078
  C  C203  1  0.598000  0.338500  0.905730  1.0  0.0479
  C  C204  1  0.650800  0.437900  0.904330  1.0  -0.0888
  C  C205  1  0.776200  0.639000  0.876830  1.0  -0.1314
  C  C206  1  0.823800  0.736000  0.877330  1.0  -0.0489
  C  C207  1  0.826600  0.026000  0.539100  1.0  0.7084
  C  C208  1  0.790700  0.092700  0.544800  1.0  -0.1399
  C  C209  1  0.707700  0.070200  0.519700  1.0  -0.0392
  C  C210  1  0.667400  0.127300  0.526200  1.0  -0.144
  C  C211  1  0.708900  0.205500  0.560400  1.0  0.0569
  C  C212  1  0.795100  0.227700  0.585300  1.0  -0.1117
  C  C213  1  0.836600  0.172700  0.577300  1.0  -0.1083
  C  C214  1  0.661500  0.259500  0.572400  1.0  0.0262
  C  C215  1  0.562100  0.212900  0.571000  1.0  -0.0845
  C  C216  1  0.361000  0.137200  0.543500  1.0  -0.1321
  C  C217  1  0.264000  0.087800  0.544000  1.0  -0.0488
  C  C218  1  0.974000  0.800600  0.205770  1.0  0.7085
  C  C219  1  0.907300  0.698000  0.211470  1.0  -0.141
  C  C220  1  0.929800  0.637500  0.186370  1.0  -0.0397
  C  C221  1  0.872700  0.540100  0.192870  1.0  -0.1442
  C  C222  1  0.794500  0.503400  0.227070  1.0  0.0568
  C  C223  1  0.772300  0.567400  0.251970  1.0  -0.1142
  C  C224  1  0.827300  0.663900  0.243970  1.0  -0.1083
  C  C225  1  0.740500  0.402000  0.239070  1.0  0.0289
  C  C226  1  0.787100  0.349200  0.237670  1.0  -0.0884
  C  C227  1  0.862800  0.223800  0.210170  1.0  -0.1328
  C  C228  1  0.912200  0.176200  0.210670  1.0  -0.0504
  C  C229  1  0.646200  0.292400  0.916670  1.0  -0.0784
  C  C230  1  0.742300  0.484600  0.916670  1.0  0.0681
  C  C231  1  0.795300  0.590600  0.916670  1.0  0.0675
  C  C232  1  0.892700  0.785400  0.916670  1.0  -0.1098
  C  C233  1  0.944900  0.889800  0.916670  1.0  0.7099
  C  C234  1  0.646200  0.353800  0.250000  1.0  -0.0846
  C  C235  1  0.742300  0.257700  0.250000  1.0  0.0665
  C  C236  1  0.795300  0.204700  0.250000  1.0  0.0669
  C  C237  1  0.892700  0.107300  0.250000  1.0  -0.1128
  C  C238  1  0.944900  0.055100  0.250000  1.0  0.7055
  C  C239  1  0.707600  0.353800  0.583330  1.0  -0.0813
  C  C240  1  0.515400  0.257700  0.583330  1.0  0.0655
  C  C241  1  0.409400  0.204700  0.583330  1.0  0.0667
  C  C242  1  0.214600  0.107300  0.583330  1.0  -0.1136
  C  C243  1  0.110200  0.055100  0.583330  1.0  0.7079
  C  C244  1  0.353800  0.707600  0.416670  1.0  -0.0788
  C  C245  1  0.257700  0.515400  0.416670  1.0  0.0674
  C  C246  1  0.204700  0.409400  0.416670  1.0  0.0679
  C  C247  1  0.107300  0.214600  0.416670  1.0  -0.1103
  C  C248  1  0.055100  0.110200  0.416670  1.0  0.7079
  C  C249  1  0.353800  0.646200  0.750000  1.0  -0.0828
  C  C250  1  0.257700  0.742300  0.750000  1.0  0.0659
  C  C251  1  0.204700  0.795300  0.750000  1.0  0.0668
  C  C252  1  0.107300  0.892700  0.750000  1.0  -0.1135
  C  C253  1  0.055100  0.944900  0.750000  1.0  0.7084
  C  C254  1  0.292400  0.646200  0.083330  1.0  -0.0826
  C  C255  1  0.484600  0.742300  0.083330  1.0  0.0668
  C  C256  1  0.590600  0.795300  0.083330  1.0  0.0669
  C  C257  1  0.785400  0.892700  0.083330  1.0  -0.1118
  C  C258  1  0.889800  0.944900  0.083330  1.0  0.7062
  O  O259  1  0.964100  0.105900  0.930200  1.0  -0.7915
  O  O260  1  0.037000  0.208500  0.995600  1.0  -0.6653
  O  O261  1  0.001600  0.929800  0.955100  1.0  -0.7222
  O  O262  1  0.141800  0.035900  0.263530  1.0  -0.79
  O  O263  1  0.171500  0.963000  0.328930  1.0  -0.6667
  O  O264  1  0.928200  0.998400  0.288430  1.0  -0.7223
  O  O265  1  0.894100  0.858200  0.596870  1.0  -0.7929
  O  O266  1  0.791500  0.828500  0.662270  1.0  -0.6681
  O  O267  1  0.070200  0.071800  0.621770  1.0  -0.719
  O  O268  1  0.035900  0.894100  0.430200  1.0  -0.7912
  O  O269  1  0.963000  0.791500  0.495600  1.0  -0.6653
  O  O270  1  0.998400  0.070200  0.455100  1.0  -0.7211
  O  O271  1  0.858200  0.964100  0.763530  1.0  -0.7913
  O  O272  1  0.828500  0.037000  0.828930  1.0  -0.6686
  O  O273  1  0.071800  0.001600  0.788430  1.0  -0.7224
  O  O274  1  0.105900  0.141800  0.096870  1.0  -0.793
  O  O275  1  0.208500  0.171500  0.162270  1.0  -0.6675
  O  O276  1  0.929800  0.928200  0.121770  1.0  -0.7193
  O  O277  1  0.858200  0.894100  0.403130  1.0  -0.7908
  O  O278  1  0.828500  0.791500  0.337730  1.0  -0.6661
  O  O279  1  0.071800  0.070200  0.378230  1.0  -0.7215
  O  O280  1  0.105900  0.964100  0.069800  1.0  -0.7895
  O  O281  1  0.208500  0.037000  0.004400  1.0  -0.6676
  O  O282  1  0.929800  0.001600  0.044900  1.0  -0.7226
  O  O283  1  0.035900  0.141800  0.736470  1.0  -0.7921
  O  O284  1  0.963000  0.171500  0.671070  1.0  -0.6685
  O  O285  1  0.998400  0.928200  0.711570  1.0  -0.7188
  O  O286  1  0.141800  0.105900  0.903130  1.0  -0.7912
  O  O287  1  0.171500  0.208500  0.837730  1.0  -0.6659
  O  O288  1  0.928200  0.929800  0.878230  1.0  -0.7217
  O  O289  1  0.894100  0.035900  0.569800  1.0  -0.7911
  O  O290  1  0.791500  0.963000  0.504400  1.0  -0.6686
  O  O291  1  0.070200  0.998400  0.544900  1.0  -0.7222
  O  O292  1  0.964100  0.858200  0.236470  1.0  -0.7927
  O  O293  1  0.037000  0.828500  0.171070  1.0  -0.6693
  O  O294  1  0.001600  0.071800  0.211570  1.0  -0.7197
