# generated using pymatgen
data_Cu4H20C37O20
_symmetry_space_group_name_H-M   'P 1'
_cell_length_a   12.10000000
_cell_length_b   26.16200000
_cell_length_c   26.16200000
_cell_angle_alpha   90.00000000
_cell_angle_beta   90.00000000
_cell_angle_gamma   90.00000000
_symmetry_Int_Tables_number   1
_chemical_formula_structural   Cu4H20C37O20
_chemical_formula_sum   'Cu16 H80 C148 O80'
_cell_volume   8281.84795240
_cell_formula_units_Z   4
loop_
 _symmetry_equiv_pos_site_id
 _symmetry_equiv_pos_as_xyz
  1  'x, y, z'
loop_
 _atom_site_type_symbol
 _atom_site_label
 _atom_site_symmetry_multiplicity
 _atom_site_fract_x
 _atom_site_fract_y
 _atom_site_fract_z
 _atom_site_occupancy
 _atom_site_charge
  Cu  Cu1  1  0.076210  0.993930  0.035570  1.0  0.9198
  Cu  Cu2  1  0.923790  0.006070  0.535570  1.0  0.9185
  Cu  Cu3  1  0.923790  0.493930  0.464430  1.0  0.9187
  Cu  Cu4  1  0.076210  0.506070  0.964430  1.0  0.9178
  Cu  Cu5  1  0.923790  0.006070  0.964430  1.0  0.9189
  Cu  Cu6  1  0.076210  0.993930  0.464430  1.0  0.9178
  Cu  Cu7  1  0.076210  0.506070  0.535570  1.0  0.919
  Cu  Cu8  1  0.923790  0.493930  0.035570  1.0  0.9193
  Cu  Cu9  1  0.010280  0.704930  0.750000  1.0  0.9148
  Cu  Cu10  1  0.855940  0.776100  0.750000  1.0  0.8841
  Cu  Cu11  1  0.989720  0.295070  0.250000  1.0  0.9152
  Cu  Cu12  1  0.144060  0.223900  0.250000  1.0  0.884
  Cu  Cu13  1  0.989720  0.204930  0.750000  1.0  0.9159
  Cu  Cu14  1  0.144060  0.276100  0.750000  1.0  0.8843
  Cu  Cu15  1  0.010280  0.795070  0.250000  1.0  0.9147
  Cu  Cu16  1  0.855940  0.723900  0.250000  1.0  0.8846
  H  H17  1  0.902100  0.611500  0.868800  1.0  0.1162
  H  H18  1  0.699400  0.612800  0.989100  1.0  0.1231
  H  H19  1  0.668300  0.720100  0.880700  1.0  0.1275
  H  H20  1  0.584100  0.760300  0.947800  1.0  0.0679
  H  H21  1  0.488100  0.726200  0.926000  1.0  0.0666
  H  H22  1  0.430900  0.675500  0.023900  1.0  0.0626
  H  H23  1  0.335800  0.695800  0.988100  1.0  0.0614
  H  H24  1  0.245700  0.633000  0.028400  1.0  0.1072
  H  H25  1  0.000400  0.625200  0.131000  1.0  0.1111
  H  H26  1  0.211400  0.742700  0.132800  1.0  0.124
  H  H27  1  0.097900  0.388500  0.368800  1.0  0.1168
  H  H28  1  0.300600  0.387200  0.489100  1.0  0.1235
  H  H29  1  0.331700  0.279900  0.380700  1.0  0.1276
  H  H30  1  0.415900  0.239700  0.447800  1.0  0.0678
  H  H31  1  0.511900  0.273800  0.426000  1.0  0.0678
  H  H32  1  0.569100  0.324500  0.523900  1.0  0.0623
  H  H33  1  0.664200  0.304200  0.488100  1.0  0.0615
  H  H34  1  0.754300  0.367000  0.528400  1.0  0.1073
  H  H35  1  0.999600  0.374800  0.631000  1.0  0.111
  H  H36  1  0.788600  0.257300  0.632800  1.0  0.1241
  H  H37  1  0.097900  0.111500  0.631200  1.0  0.1166
  H  H38  1  0.300600  0.112800  0.510900  1.0  0.1237
  H  H39  1  0.331700  0.220100  0.619300  1.0  0.1283
  H  H40  1  0.415900  0.260300  0.552200  1.0  0.0684
  H  H41  1  0.511900  0.226200  0.574000  1.0  0.0674
  H  H42  1  0.569100  0.175500  0.476100  1.0  0.0615
  H  H43  1  0.664200  0.195800  0.511900  1.0  0.0612
  H  H44  1  0.754300  0.133000  0.471600  1.0  0.1077
  H  H45  1  0.999600  0.125200  0.369000  1.0  0.1101
  H  H46  1  0.788600  0.242700  0.367200  1.0  0.1243
  H  H47  1  0.902100  0.888500  0.131200  1.0  0.1163
  H  H48  1  0.699400  0.887200  0.010900  1.0  0.1233
  H  H49  1  0.668300  0.779900  0.119300  1.0  0.1281
  H  H50  1  0.584100  0.739700  0.052200  1.0  0.068
  H  H51  1  0.488100  0.773800  0.074000  1.0  0.0671
  H  H52  1  0.430900  0.824500  0.976100  1.0  0.0635
  H  H53  1  0.335800  0.804200  0.011900  1.0  0.0613
  H  H54  1  0.245700  0.867000  0.971600  1.0  0.107
  H  H55  1  0.000400  0.874800  0.869000  1.0  0.1104
  H  H56  1  0.211400  0.757300  0.867200  1.0  0.124
  H  H57  1  0.097900  0.388500  0.131200  1.0  0.1165
  H  H58  1  0.300600  0.387200  0.010900  1.0  0.1235
  H  H59  1  0.331700  0.279900  0.119300  1.0  0.1281
  H  H60  1  0.415900  0.239700  0.052200  1.0  0.0689
  H  H61  1  0.511900  0.273800  0.074000  1.0  0.0671
  H  H62  1  0.569100  0.324500  0.976100  1.0  0.0629
  H  H63  1  0.664200  0.304200  0.011900  1.0  0.0615
  H  H64  1  0.754300  0.367000  0.971600  1.0  0.1072
  H  H65  1  0.999600  0.374800  0.869000  1.0  0.1109
  H  H66  1  0.788600  0.257300  0.867200  1.0  0.124
  H  H67  1  0.902100  0.611500  0.631200  1.0  0.1161
  H  H68  1  0.699400  0.612800  0.510900  1.0  0.1233
  H  H69  1  0.668300  0.720100  0.619300  1.0  0.1282
  H  H70  1  0.584100  0.760300  0.552200  1.0  0.0675
  H  H71  1  0.488100  0.726200  0.574000  1.0  0.0673
  H  H72  1  0.430900  0.675500  0.476100  1.0  0.0613
  H  H73  1  0.335800  0.695800  0.511900  1.0  0.0618
  H  H74  1  0.245700  0.633000  0.471600  1.0  0.1075
  H  H75  1  0.000400  0.625200  0.369000  1.0  0.1111
  H  H76  1  0.211400  0.742700  0.367200  1.0  0.1241
  H  H77  1  0.902100  0.888500  0.368800  1.0  0.1164
  H  H78  1  0.699400  0.887200  0.489100  1.0  0.123
  H  H79  1  0.668300  0.779900  0.380700  1.0  0.1273
  H  H80  1  0.584100  0.739700  0.447800  1.0  0.0669
  H  H81  1  0.488100  0.773800  0.426000  1.0  0.0676
  H  H82  1  0.430900  0.824500  0.523900  1.0  0.0632
  H  H83  1  0.335800  0.804200  0.488100  1.0  0.0613
  H  H84  1  0.245700  0.867000  0.528400  1.0  0.1072
  H  H85  1  0.000400  0.874800  0.631000  1.0  0.1104
  H  H86  1  0.211400  0.757300  0.632800  1.0  0.1237
  H  H87  1  0.097900  0.111500  0.868800  1.0  0.1165
  H  H88  1  0.300600  0.112800  0.989100  1.0  0.1235
  H  H89  1  0.331700  0.220100  0.880700  1.0  0.1277
  H  H90  1  0.415900  0.260300  0.947800  1.0  0.0689
  H  H91  1  0.511900  0.226200  0.926000  1.0  0.067
  H  H92  1  0.569100  0.175500  0.023900  1.0  0.0625
  H  H93  1  0.664200  0.195800  0.988100  1.0  0.061
  H  H94  1  0.754300  0.133000  0.028400  1.0  0.1073
  H  H95  1  0.999600  0.125200  0.131000  1.0  0.1102
  H  H96  1  0.788600  0.242700  0.132800  1.0  0.1242
  C  C97  1  0.793300  0.669560  0.868710  1.0  -0.1309
  C  C98  1  0.845100  0.626610  0.887250  1.0  -0.0212
  C  C99  1  0.811700  0.605910  0.933740  1.0  -0.1707
  C  C100  1  0.723800  0.627560  0.958770  1.0  -0.0782
  C  C101  1  0.670400  0.670380  0.940560  1.0  0.2981
  C  C102  1  0.704200  0.691780  0.894230  1.0  -0.1494
  C  C103  1  0.835000  0.693520  0.821030  1.0  0.6874
  C  C104  1  0.877200  0.562800  0.956400  1.0  0.695
  C  C105  1  0.532400  0.733240  0.956090  1.0  0.0643
  C  C106  1  0.385700  0.705000  0.015620  1.0  0.0809
  C  C107  1  0.241600  0.693020  0.076680  1.0  0.3343
  C  C108  1  0.207500  0.646840  0.056000  1.0  -0.1563
  C  C109  1  0.117100  0.620970  0.075910  1.0  -0.1973
  C  C110  1  0.061500  0.641910  0.117400  1.0  0.0152
  C  C111  1  0.096600  0.687550  0.138610  1.0  -0.1673
  C  C112  1  0.187100  0.712360  0.118150  1.0  -0.1142
  C  C113  1  0.078300  0.574340  0.050090  1.0  0.707
  C  C114  1  0.036400  0.711150  0.181160  1.0  0.6881
  C  C115  1  0.206700  0.330440  0.368710  1.0  -0.1307
  C  C116  1  0.154900  0.373390  0.387250  1.0  -0.021
  C  C117  1  0.188300  0.394090  0.433740  1.0  -0.1709
  C  C118  1  0.276200  0.372440  0.458770  1.0  -0.0761
  C  C119  1  0.329600  0.329620  0.440560  1.0  0.2985
  C  C120  1  0.295800  0.308220  0.394230  1.0  -0.1482
  C  C121  1  0.165000  0.306480  0.321030  1.0  0.6872
  C  C122  1  0.122800  0.437200  0.456400  1.0  0.6954
  C  C123  1  0.467600  0.266760  0.456090  1.0  0.0669
  C  C124  1  0.614300  0.295000  0.515620  1.0  0.0793
  C  C125  1  0.758400  0.306980  0.576680  1.0  0.3339
  C  C126  1  0.792500  0.353160  0.556000  1.0  -0.1559
  C  C127  1  0.882900  0.379030  0.575910  1.0  -0.1969
  C  C128  1  0.938500  0.358090  0.617400  1.0  0.0148
  C  C129  1  0.903400  0.312450  0.638610  1.0  -0.1674
  C  C130  1  0.812900  0.287640  0.618150  1.0  -0.1129
  C  C131  1  0.921700  0.425660  0.550090  1.0  0.708
  C  C132  1  0.963600  0.288850  0.681160  1.0  0.6873
  C  C133  1  0.206700  0.169560  0.631290  1.0  -0.1303
  C  C134  1  0.154900  0.126610  0.612750  1.0  -0.0205
  C  C135  1  0.188300  0.105910  0.566260  1.0  -0.1711
  C  C136  1  0.276200  0.127560  0.541230  1.0  -0.0736
  C  C137  1  0.329600  0.170380  0.559440  1.0  0.2982
  C  C138  1  0.295800  0.191780  0.605770  1.0  -0.1491
  C  C139  1  0.165000  0.193520  0.678970  1.0  0.6875
  C  C140  1  0.122800  0.062800  0.543600  1.0  0.6951
  C  C141  1  0.467600  0.233240  0.543910  1.0  0.0657
  C  C142  1  0.614300  0.205000  0.484380  1.0  0.0807
  C  C143  1  0.758400  0.193020  0.423320  1.0  0.3343
  C  C144  1  0.792500  0.146840  0.444000  1.0  -0.1564
  C  C145  1  0.882900  0.120970  0.424090  1.0  -0.1974
  C  C146  1  0.938500  0.141910  0.382600  1.0  0.0149
  C  C147  1  0.903400  0.187550  0.361390  1.0  -0.1659
  C  C148  1  0.812900  0.212360  0.381850  1.0  -0.1158
  C  C149  1  0.921700  0.074340  0.449910  1.0  0.7074
  C  C150  1  0.963600  0.211150  0.318840  1.0  0.6874
  C  C151  1  0.793300  0.830440  0.131290  1.0  -0.1301
  C  C152  1  0.845100  0.873390  0.112750  1.0  -0.0213
  C  C153  1  0.811700  0.894090  0.066260  1.0  -0.1702
  C  C154  1  0.723800  0.872440  0.041230  1.0  -0.0737
  C  C155  1  0.670400  0.829620  0.059440  1.0  0.2986
  C  C156  1  0.704200  0.808220  0.105770  1.0  -0.1503
  C  C157  1  0.835000  0.806480  0.178970  1.0  0.6875
  C  C158  1  0.877200  0.937200  0.043600  1.0  0.6952
  C  C159  1  0.532400  0.766760  0.043910  1.0  0.064
  C  C160  1  0.385700  0.795000  0.984380  1.0  0.0801
  C  C161  1  0.241600  0.806980  0.923320  1.0  0.3348
  C  C162  1  0.207500  0.853160  0.944000  1.0  -0.1546
  C  C163  1  0.117100  0.879030  0.924090  1.0  -0.1969
  C  C164  1  0.061500  0.858090  0.882600  1.0  0.0147
  C  C165  1  0.096600  0.812450  0.861390  1.0  -0.166
  C  C166  1  0.187100  0.787640  0.881850  1.0  -0.1139
  C  C167  1  0.078300  0.925660  0.949910  1.0  0.7069
  C  C168  1  0.036400  0.788850  0.818840  1.0  0.6881
  C  C169  1  0.206700  0.330440  0.131290  1.0  -0.13
  C  C170  1  0.154900  0.373390  0.112750  1.0  -0.0213
  C  C171  1  0.188300  0.394090  0.066260  1.0  -0.1705
  C  C172  1  0.276200  0.372440  0.041230  1.0  -0.0731
  C  C173  1  0.329600  0.329620  0.059440  1.0  0.2987
  C  C174  1  0.295800  0.308220  0.105770  1.0  -0.149
  C  C175  1  0.165000  0.306480  0.178970  1.0  0.6873
  C  C176  1  0.122800  0.437200  0.043600  1.0  0.6952
  C  C177  1  0.467600  0.266760  0.043910  1.0  0.065
  C  C178  1  0.614300  0.295000  0.984380  1.0  0.08
  C  C179  1  0.758400  0.306980  0.923320  1.0  0.3341
  C  C180  1  0.792500  0.353160  0.944000  1.0  -0.1549
  C  C181  1  0.882900  0.379030  0.924090  1.0  -0.1969
  C  C182  1  0.938500  0.358090  0.882600  1.0  0.0149
  C  C183  1  0.903400  0.312450  0.861390  1.0  -0.1657
  C  C184  1  0.812900  0.287640  0.881850  1.0  -0.1133
  C  C185  1  0.921700  0.425660  0.949910  1.0  0.7076
  C  C186  1  0.963600  0.288850  0.818840  1.0  0.6874
  C  C187  1  0.793300  0.669560  0.631290  1.0  -0.1305
  C  C188  1  0.845100  0.626610  0.612750  1.0  -0.021
  C  C189  1  0.811700  0.605910  0.566260  1.0  -0.1706
  C  C190  1  0.723800  0.627560  0.541230  1.0  -0.0739
  C  C191  1  0.670400  0.670380  0.559440  1.0  0.2982
  C  C192  1  0.704200  0.691780  0.605770  1.0  -0.1504
  C  C193  1  0.835000  0.693520  0.678970  1.0  0.6878
  C  C194  1  0.877200  0.562800  0.543600  1.0  0.6949
  C  C195  1  0.532400  0.733240  0.543910  1.0  0.0645
  C  C196  1  0.385700  0.705000  0.484380  1.0  0.081
  C  C197  1  0.241600  0.693020  0.423320  1.0  0.335
  C  C198  1  0.207500  0.646840  0.444000  1.0  -0.1557
  C  C199  1  0.117100  0.620970  0.424090  1.0  -0.1976
  C  C200  1  0.061500  0.641910  0.382600  1.0  0.0145
  C  C201  1  0.096600  0.687550  0.361390  1.0  -0.1662
  C  C202  1  0.187100  0.712360  0.381850  1.0  -0.1161
  C  C203  1  0.078300  0.574340  0.449910  1.0  0.7068
  C  C204  1  0.036400  0.711150  0.318840  1.0  0.6882
  C  C205  1  0.793300  0.830440  0.368710  1.0  -0.1309
  C  C206  1  0.845100  0.873390  0.387250  1.0  -0.0212
  C  C207  1  0.811700  0.894090  0.433740  1.0  -0.1706
  C  C208  1  0.723800  0.872440  0.458770  1.0  -0.0783
  C  C209  1  0.670400  0.829620  0.440560  1.0  0.2985
  C  C210  1  0.704200  0.808220  0.394230  1.0  -0.1493
  C  C211  1  0.835000  0.806480  0.321030  1.0  0.6877
  C  C212  1  0.877200  0.937200  0.456400  1.0  0.6954
  C  C213  1  0.532400  0.766760  0.456090  1.0  0.0649
  C  C214  1  0.385700  0.795000  0.515620  1.0  0.0795
  C  C215  1  0.241600  0.806980  0.576680  1.0  0.3345
  C  C216  1  0.207500  0.853160  0.556000  1.0  -0.1551
  C  C217  1  0.117100  0.879030  0.575910  1.0  -0.1968
  C  C218  1  0.061500  0.858090  0.617400  1.0  0.0148
  C  C219  1  0.096600  0.812450  0.638610  1.0  -0.1674
  C  C220  1  0.187100  0.787640  0.618150  1.0  -0.1132
  C  C221  1  0.078300  0.925660  0.550090  1.0  0.7073
  C  C222  1  0.036400  0.788850  0.681160  1.0  0.6879
  C  C223  1  0.206700  0.169560  0.868710  1.0  -0.1308
  C  C224  1  0.154900  0.126610  0.887250  1.0  -0.0204
  C  C225  1  0.188300  0.105910  0.933740  1.0  -0.1712
  C  C226  1  0.276200  0.127560  0.958770  1.0  -0.0765
  C  C227  1  0.329600  0.170380  0.940560  1.0  0.2981
  C  C228  1  0.295800  0.191780  0.894230  1.0  -0.1483
  C  C229  1  0.165000  0.193520  0.821030  1.0  0.6869
  C  C230  1  0.122800  0.062800  0.956400  1.0  0.6953
  C  C231  1  0.467600  0.233240  0.956090  1.0  0.0667
  C  C232  1  0.614300  0.205000  0.015620  1.0  0.0804
  C  C233  1  0.758400  0.193020  0.076680  1.0  0.3336
  C  C234  1  0.792500  0.146840  0.056000  1.0  -0.1573
  C  C235  1  0.882900  0.120970  0.075910  1.0  -0.1971
  C  C236  1  0.938500  0.141910  0.117400  1.0  0.0153
  C  C237  1  0.903400  0.187550  0.138610  1.0  -0.1673
  C  C238  1  0.812900  0.212360  0.118150  1.0  -0.1143
  C  C239  1  0.921700  0.074340  0.050090  1.0  0.7078
  C  C240  1  0.963600  0.211150  0.181160  1.0  0.6873
  C  C241  1  0.458100  0.750000  0.000000  1.0  -0.0289
  C  C242  1  0.541900  0.250000  0.500000  1.0  -0.0291
  C  C243  1  0.541900  0.250000  0.000000  1.0  -0.0291
  C  C244  1  0.458100  0.750000  0.500000  1.0  -0.0289
  O  O245  1  0.921800  0.673830  0.802080  1.0  -0.5859
  O  O246  1  0.789960  0.733630  0.804100  1.0  -0.5822
  O  O247  1  0.966600  0.552680  0.935670  1.0  -0.5739
  O  O248  1  0.837520  0.542840  0.996220  1.0  -0.5729
  O  O249  1  0.589980  0.689480  0.970370  1.0  -0.2698
  O  O250  1  0.325350  0.721280  0.059250  1.0  -0.2711
  O  O251  1  0.125110  0.561100  0.009940  1.0  -0.5728
  O  O252  1  0.994690  0.551890  0.069480  1.0  -0.5771
  O  O253  1  0.948320  0.691300  0.197330  1.0  -0.5726
  O  O254  1  0.076700  0.752520  0.198210  1.0  -0.5871
  O  O255  1  0.078200  0.326170  0.302080  1.0  -0.5867
  O  O256  1  0.210040  0.266370  0.304100  1.0  -0.582
  O  O257  1  0.033400  0.447320  0.435670  1.0  -0.5729
  O  O258  1  0.162480  0.457160  0.496220  1.0  -0.5735
  O  O259  1  0.410020  0.310520  0.470370  1.0  -0.2698
  O  O260  1  0.674650  0.278720  0.559250  1.0  -0.2694
  O  O261  1  0.874890  0.438900  0.509940  1.0  -0.5724
  O  O262  1  0.005310  0.448110  0.569480  1.0  -0.5769
  O  O263  1  0.051680  0.308700  0.697330  1.0  -0.5719
  O  O264  1  0.923300  0.247480  0.698210  1.0  -0.5856
  O  O265  1  0.078200  0.173830  0.697920  1.0  -0.5861
  O  O266  1  0.210040  0.233630  0.695900  1.0  -0.582
  O  O267  1  0.033400  0.052680  0.564330  1.0  -0.5718
  O  O268  1  0.162480  0.042840  0.503780  1.0  -0.5723
  O  O269  1  0.410020  0.189480  0.529630  1.0  -0.2712
  O  O270  1  0.674650  0.221280  0.440750  1.0  -0.269
  O  O271  1  0.874890  0.061100  0.490060  1.0  -0.5726
  O  O272  1  0.005310  0.051890  0.430520  1.0  -0.5782
  O  O273  1  0.051680  0.191300  0.302670  1.0  -0.5719
  O  O274  1  0.923300  0.252520  0.301790  1.0  -0.5864
  O  O275  1  0.921800  0.826170  0.197920  1.0  -0.5867
  O  O276  1  0.789960  0.766370  0.195900  1.0  -0.5808
  O  O277  1  0.966600  0.947320  0.064330  1.0  -0.5724
  O  O278  1  0.837520  0.957160  0.003780  1.0  -0.5723
  O  O279  1  0.589980  0.810520  0.029630  1.0  -0.27
  O  O280  1  0.325350  0.778720  0.940750  1.0  -0.27
  O  O281  1  0.125110  0.938900  0.990060  1.0  -0.5733
  O  O282  1  0.994690  0.948110  0.930520  1.0  -0.5774
  O  O283  1  0.948320  0.808700  0.802670  1.0  -0.5723
  O  O284  1  0.076700  0.747480  0.801790  1.0  -0.5867
  O  O285  1  0.078200  0.326170  0.197920  1.0  -0.5867
  O  O286  1  0.210040  0.266370  0.195900  1.0  -0.5818
  O  O287  1  0.033400  0.447320  0.064330  1.0  -0.5718
  O  O288  1  0.162480  0.457160  0.003780  1.0  -0.5724
  O  O289  1  0.410020  0.310520  0.029630  1.0  -0.2703
  O  O290  1  0.674650  0.278720  0.940750  1.0  -0.2695
  O  O291  1  0.874890  0.438900  0.990060  1.0  -0.5729
  O  O292  1  0.005310  0.448110  0.930520  1.0  -0.5782
  O  O293  1  0.051680  0.308700  0.802670  1.0  -0.5723
  O  O294  1  0.923300  0.247480  0.801790  1.0  -0.5856
  O  O295  1  0.921800  0.673830  0.697920  1.0  -0.5857
  O  O296  1  0.789960  0.733630  0.695900  1.0  -0.5822
  O  O297  1  0.966600  0.552680  0.564330  1.0  -0.5723
  O  O298  1  0.837520  0.542840  0.503780  1.0  -0.5727
  O  O299  1  0.589980  0.689480  0.529630  1.0  -0.2708
  O  O300  1  0.325350  0.721280  0.440750  1.0  -0.2694
  O  O301  1  0.125110  0.561100  0.490060  1.0  -0.5732
  O  O302  1  0.994690  0.551890  0.430520  1.0  -0.5782
  O  O303  1  0.948320  0.691300  0.302670  1.0  -0.573
  O  O304  1  0.076700  0.752520  0.301790  1.0  -0.5866
  O  O305  1  0.921800  0.826170  0.302080  1.0  -0.5868
  O  O306  1  0.789960  0.766370  0.304100  1.0  -0.5813
  O  O307  1  0.966600  0.947320  0.435670  1.0  -0.5737
  O  O308  1  0.837520  0.957160  0.496220  1.0  -0.5734
  O  O309  1  0.589980  0.810520  0.470370  1.0  -0.2692
  O  O310  1  0.325350  0.778720  0.559250  1.0  -0.27
  O  O311  1  0.125110  0.938900  0.509940  1.0  -0.5729
  O  O312  1  0.994690  0.948110  0.569480  1.0  -0.5775
  O  O313  1  0.948320  0.808700  0.697330  1.0  -0.5724
  O  O314  1  0.076700  0.747480  0.698210  1.0  -0.5868
  O  O315  1  0.078200  0.173830  0.802080  1.0  -0.5862
  O  O316  1  0.210040  0.233630  0.804100  1.0  -0.5817
  O  O317  1  0.033400  0.052680  0.935670  1.0  -0.5729
  O  O318  1  0.162480  0.042840  0.996220  1.0  -0.5731
  O  O319  1  0.410020  0.189480  0.970370  1.0  -0.2705
  O  O320  1  0.674650  0.221280  0.059250  1.0  -0.2697
  O  O321  1  0.874890  0.061100  0.009940  1.0  -0.5722
  O  O322  1  0.005310  0.051890  0.069480  1.0  -0.5775
  O  O323  1  0.051680  0.191300  0.197330  1.0  -0.5718
  O  O324  1  0.923300  0.252520  0.198210  1.0  -0.5865
