# generated using pymatgen
data_Zn4H18C36O13
_symmetry_space_group_name_H-M   'P 1'
_cell_length_a   18.60860000
_cell_length_b   20.24220000
_cell_length_c   20.81350000
_cell_angle_alpha   70.42100000
_cell_angle_beta   68.95500000
_cell_angle_gamma   68.03100000
_symmetry_Int_Tables_number   1
_chemical_formula_structural   Zn4H18C36O13
_chemical_formula_sum   'Zn16 H72 C144 O52'
_cell_volume   6600.67756014
_cell_formula_units_Z   4
loop_
 _symmetry_equiv_pos_site_id
 _symmetry_equiv_pos_as_xyz
  1  'x, y, z'
loop_
 _atom_site_type_symbol
 _atom_site_label
 _atom_site_symmetry_multiplicity
 _atom_site_fract_x
 _atom_site_fract_y
 _atom_site_fract_z
 _atom_site_occupancy
 _atom_site_charge
  Zn  Zn1  1  0.364470  0.212250  0.523090  1.0  1.0762
  Zn  Zn2  1  0.384680  0.358480  0.526690  1.0  1.078
  Zn  Zn3  1  0.219320  0.352330  0.525290  1.0  1.0465
  Zn  Zn4  1  0.364290  0.341060  0.382700  1.0  1.0235
  Zn  Zn5  1  0.800980  0.791750  0.093950  1.0  1.0725
  Zn  Zn6  1  0.804130  0.921560  0.959830  1.0  1.0769
  Zn  Zn7  1  0.948870  0.777540  0.959730  1.0  1.1043
  Zn  Zn8  1  0.774540  0.776680  0.955460  1.0  1.0694
  Zn  Zn9  1  0.635530  0.787750  0.476910  1.0  1.078
  Zn  Zn10  1  0.615320  0.641520  0.473310  1.0  1.0775
  Zn  Zn11  1  0.780680  0.647670  0.474710  1.0  1.0464
  Zn  Zn12  1  0.635710  0.658940  0.617300  1.0  1.0237
  Zn  Zn13  1  0.199020  0.208250  0.906050  1.0  1.0734
  Zn  Zn14  1  0.195870  0.078440  0.040170  1.0  1.0762
  Zn  Zn15  1  0.051130  0.222460  0.040270  1.0  1.105
  Zn  Zn16  1  0.225460  0.223320  0.044540  1.0  1.0705
  H  H17  1  0.233300  0.068900  0.668700  1.0  0.098
  H  H18  1  0.484100  0.539900  0.424600  1.0  0.1092
  H  H19  1  0.941400  0.055900  0.815900  1.0  0.1103
  H  H20  1  0.636500  0.674700  0.240900  1.0  0.1043
  H  H21  1  0.539400  0.454100  0.259200  1.0  0.1123
  H  H22  1  0.549100  0.625900  0.355400  1.0  0.1075
  H  H23  1  0.887400  0.615900  0.832200  1.0  0.1074
  H  H24  1  0.938400  0.678500  0.241800  1.0  0.1112
  H  H25  1  0.079900  0.471600  0.684300  1.0  0.0939
  H  H26  1  0.603100  0.947500  0.362000  1.0  0.1094
  H  H27  1  0.524200  0.030100  0.430500  1.0  0.1004
  H  H28  1  0.038800  0.531400  0.433400  1.0  0.1024
  H  H29  1  0.133600  0.883700  0.833200  1.0  0.1069
  H  H30  1  0.959000  0.617800  0.363300  1.0  0.1068
  H  H31  1  0.678300  0.090400  0.070600  1.0  0.1109
  H  H32  1  0.608000  0.171800  0.139000  1.0  0.1157
  H  H33  1  0.677100  0.923000  0.241800  1.0  0.1098
  H  H34  1  0.217000  0.949800  0.751200  1.0  0.1198
  H  H35  1  0.529200  0.197000  0.260500  1.0  0.1137
  H  H36  1  0.124100  0.639400  0.072300  1.0  0.1075
  H  H37  1  0.095500  0.642200  0.817300  1.0  0.1102
  H  H38  1  0.205600  0.565800  0.140800  1.0  0.1154
  H  H39  1  0.226100  0.502700  0.263100  1.0  0.1124
  H  H40  1  0.222600  0.575900  0.743400  1.0  0.1173
  H  H41  1  0.952600  0.532900  0.762700  1.0  0.11
  H  H42  1  0.288500  0.498100  0.669000  1.0  0.102
  H  H43  1  0.959500  0.172600  0.733300  1.0  0.1145
  H  H44  1  0.699500  0.582700  0.076700  1.0  0.1096
  H  H45  1  0.559600  0.958300  0.737600  1.0  0.1191
  H  H46  1  0.039300  0.242500  0.654900  1.0  0.1052
  H  H47  1  0.508700  0.076500  0.657700  1.0  0.0967
  H  H48  1  0.623500  0.504900  0.143300  1.0  0.1154
  H  H49  1  0.568600  0.253400  0.639600  1.0  0.1037
  H  H50  1  0.710000  0.066600  0.786300  1.0  0.1043
  H  H51  1  0.650900  0.889000  0.806200  1.0  0.1055
  H  H52  1  0.657200  0.183100  0.707500  1.0  0.1104
  H  H53  1  0.766700  0.931100  0.331300  1.0  0.0978
  H  H54  1  0.515900  0.460100  0.575400  1.0  0.1085
  H  H55  1  0.058600  0.944100  0.184100  1.0  0.11
  H  H56  1  0.363500  0.325300  0.759100  1.0  0.1044
  H  H57  1  0.460600  0.545900  0.740800  1.0  0.1121
  H  H58  1  0.450900  0.374100  0.644600  1.0  0.1064
  H  H59  1  0.112600  0.384100  0.167800  1.0  0.1078
  H  H60  1  0.061600  0.321500  0.758200  1.0  0.1123
  H  H61  1  0.920100  0.528400  0.315700  1.0  0.0942
  H  H62  1  0.396900  0.052500  0.638000  1.0  0.1089
  H  H63  1  0.475800  0.969900  0.569500  1.0  0.1009
  H  H64  1  0.961200  0.468600  0.566600  1.0  0.102
  H  H65  1  0.866400  0.116300  0.166800  1.0  0.1068
  H  H66  1  0.041000  0.382200  0.636700  1.0  0.1069
  H  H67  1  0.321700  0.909600  0.929400  1.0  0.1109
  H  H68  1  0.392000  0.828200  0.861000  1.0  0.1157
  H  H69  1  0.322900  0.077000  0.758200  1.0  0.1098
  H  H70  1  0.783000  0.050200  0.248800  1.0  0.1202
  H  H71  1  0.470800  0.803000  0.739500  1.0  0.1147
  H  H72  1  0.875900  0.360600  0.927700  1.0  0.1065
  H  H73  1  0.904500  0.357800  0.182700  1.0  0.1101
  H  H74  1  0.794400  0.434200  0.859200  1.0  0.1151
  H  H75  1  0.773900  0.497300  0.736900  1.0  0.1126
  H  H76  1  0.777400  0.424100  0.256600  1.0  0.1172
  H  H77  1  0.047400  0.467100  0.237300  1.0  0.1098
  H  H78  1  0.711500  0.501900  0.331000  1.0  0.1017
  H  H79  1  0.040500  0.827400  0.266700  1.0  0.114
  H  H80  1  0.300500  0.417300  0.923300  1.0  0.1088
  H  H81  1  0.440400  0.041700  0.262400  1.0  0.1195
  H  H82  1  0.960700  0.757500  0.345100  1.0  0.1051
  H  H83  1  0.491300  0.923500  0.342300  1.0  0.0972
  H  H84  1  0.376500  0.495100  0.856700  1.0  0.1163
  H  H85  1  0.431400  0.746600  0.360400  1.0  0.1036
  H  H86  1  0.290000  0.933400  0.213700  1.0  0.1039
  H  H87  1  0.349100  0.111000  0.193800  1.0  0.1056
  H  H88  1  0.342800  0.816900  0.292500  1.0  0.1104
  C  C89  1  0.460400  0.432600  0.394700  1.0  0.7353
  C  C90  1  0.940100  0.689300  0.880700  1.0  0.7026
  C  C91  1  0.975100  0.919100  0.885600  1.0  0.7213
  C  C92  1  0.200300  0.207600  0.602600  1.0  0.7222
  C  C93  1  0.178100  0.090300  0.682900  1.0  -0.0414
  C  C94  1  0.509200  0.540100  0.377000  1.0  -0.0498
  C  C95  1  0.506000  0.487700  0.347800  1.0  -0.1378
  C  C96  1  0.996800  0.035100  0.802800  1.0  -0.0858
  C  C97  1  0.634500  0.640300  0.221600  1.0  -0.0839
  C  C98  1  0.542900  0.487800  0.278300  1.0  -0.0912
  C  C99  1  0.984900  0.636900  0.832000  1.0  -0.1711
  C  C100  1  0.129500  0.046800  0.733800  1.0  0.0596
  C  C101  1  0.589300  0.590300  0.264200  1.0  0.0372
  C  C102  1  0.146900  0.163000  0.653700  1.0  -0.1562
  C  C103  1  0.548700  0.590800  0.336100  1.0  -0.0972
  C  C104  1  0.045600  0.078900  0.752400  1.0  0.0344
  C  C105  1  0.943100  0.604300  0.814600  1.0  -0.0271
  C  C106  1  0.028900  0.963200  0.832700  1.0  -0.1567
  C  C107  1  0.041500  0.609100  0.267700  1.0  0.0303
  C  C108  1  0.992100  0.655500  0.222300  1.0  -0.0543
  C  C109  1  0.108300  0.492700  0.696400  1.0  -0.0637
  C  C110  1  0.588900  0.997200  0.340900  1.0  -0.1211
  C  C111  1  0.541400  0.046900  0.381700  1.0  -0.0201
  C  C112  1  0.518200  0.122000  0.352000  1.0  -0.131
  C  C113  1  0.616100  0.021400  0.267100  1.0  0.0439
  C  C114  1  0.140100  0.508800  0.354700  1.0  -0.1341
  C  C115  1  0.066800  0.539300  0.743200  1.0  0.0399
  C  C116  1  0.060000  0.542900  0.384600  1.0  -0.04
  C  C117  1  0.464100  0.174900  0.397500  1.0  0.7221
  C  C118  1  0.111600  0.932500  0.812800  1.0  -0.0238
  C  C119  1  0.011600  0.593600  0.342500  1.0  -0.1188
  C  C120  1  0.663500  0.073800  0.119500  1.0  -0.0597
  C  C121  1  0.675300  0.638600  0.152300  1.0  -0.1115
  C  C122  1  0.620500  0.122000  0.160000  1.0  -0.102
  C  C123  1  0.232600  0.428300  0.617700  1.0  0.7178
  C  C124  1  0.022000  0.667200  0.150300  1.0  -0.1438
  C  C125  1  0.723700  0.690600  0.107900  1.0  0.7049
  C  C126  1  0.193000  0.453500  0.400200  1.0  0.715
  C  C127  1  0.662400  0.973100  0.222300  1.0  -0.1122
  C  C128  1  0.686400  0.998500  0.150100  1.0  -0.1352
  C  C129  1  0.161900  0.972000  0.764200  1.0  -0.1163
  C  C130  1  0.190100  0.477600  0.668000  1.0  -0.172
  C  C131  1  0.593300  0.097800  0.236000  1.0  0.0414
  C  C132  1  0.734500  0.944700  0.103600  1.0  0.7056
  C  C133  1  0.544100  0.147000  0.280400  1.0  -0.0488
  C  C134  1  0.967500  0.713400  0.103200  1.0  0.7162
  C  C135  1  0.103800  0.631600  0.121200  1.0  -0.0224
  C  C136  1  0.067500  0.620500  0.805300  1.0  -0.0873
  C  C137  1  0.152200  0.587800  0.161800  1.0  -0.1183
  C  C138  1  0.109700  0.572400  0.760900  1.0  0.041
  C  C139  1  0.123500  0.573500  0.237900  1.0  0.0193
  C  C140  1  0.586200  0.538000  0.235000  1.0  0.0457
  C  C141  1  0.172100  0.524500  0.282500  1.0  -0.0549
  C  C142  1  0.193300  0.555200  0.731800  1.0  -0.136
  C  C143  1  0.981600  0.555500  0.772400  1.0  -0.1787
  C  C144  1  0.232900  0.508900  0.687000  1.0  -0.0558
  C  C145  1  0.014900  0.151500  0.721400  1.0  -0.1118
  C  C146  1  0.671400  0.585100  0.123400  1.0  -0.0729
  C  C147  1  0.591700  0.979600  0.744800  1.0  -0.1105
  C  C148  1  0.589300  0.053300  0.712700  1.0  0.0538
  C  C149  1  0.469700  0.215200  0.599200  1.0  0.7576
  C  C150  1  0.062500  0.193500  0.674000  1.0  -0.0733
  C  C151  1  0.527800  0.171500  0.643000  1.0  -0.1503
  C  C152  1  0.738200  0.929100  0.856900  1.0  0.7161
  C  C153  1  0.537400  0.098000  0.669100  1.0  -0.0907
  C  C154  1  0.687400  0.973100  0.804800  1.0  -0.1194
  C  C155  1  0.626900  0.537800  0.163500  1.0  -0.1141
  C  C156  1  0.573700  0.203700  0.657700  1.0  -0.0582
  C  C157  1  0.681400  0.044500  0.775300  1.0  -0.0534
  C  C158  1  0.633400  0.086900  0.728400  1.0  0.0466
  C  C159  1  0.644300  0.939000  0.788200  1.0  -0.0608
  C  C160  1  0.626200  0.161500  0.699100  1.0  -0.1251
  C  C161  1  0.539600  0.567400  0.605300  1.0  0.7346
  C  C162  1  0.059900  0.310700  0.119300  1.0  0.7022
  C  C163  1  0.024900  0.080900  0.114400  1.0  0.7201
  C  C164  1  0.799700  0.792400  0.397400  1.0  0.7211
  C  C165  1  0.821900  0.909700  0.317100  1.0  -0.0442
  C  C166  1  0.490800  0.459900  0.623000  1.0  -0.0493
  C  C167  1  0.494000  0.512300  0.652200  1.0  -0.1385
  C  C168  1  0.003200  0.964900  0.197200  1.0  -0.0837
  C  C169  1  0.365500  0.359700  0.778400  1.0  -0.0836
  C  C170  1  0.457100  0.512200  0.721700  1.0  -0.0914
  C  C171  1  0.015100  0.363100  0.168000  1.0  -0.1718
  C  C172  1  0.870500  0.953200  0.266200  1.0  0.0584
  C  C173  1  0.410700  0.409700  0.735800  1.0  0.0377
  C  C174  1  0.853100  0.837000  0.346300  1.0  -0.155
  C  C175  1  0.451300  0.409200  0.663900  1.0  -0.0959
  C  C176  1  0.954400  0.921100  0.247600  1.0  0.0359
  C  C177  1  0.056900  0.395700  0.185400  1.0  -0.0255
  C  C178  1  0.971100  0.036800  0.167300  1.0  -0.1573
  C  C179  1  0.958500  0.390900  0.732300  1.0  0.0305
  C  C180  1  0.007900  0.344500  0.777700  1.0  -0.0546
  C  C181  1  0.891700  0.507300  0.303600  1.0  -0.0646
  C  C182  1  0.411100  0.002800  0.659100  1.0  -0.1197
  C  C183  1  0.458600  0.953100  0.618300  1.0  -0.0206
  C  C184  1  0.481800  0.878000  0.648000  1.0  -0.1311
  C  C185  1  0.383900  0.978600  0.732900  1.0  0.0432
  C  C186  1  0.859900  0.491200  0.645300  1.0  -0.1341
  C  C187  1  0.933200  0.460700  0.256800  1.0  0.0396
  C  C188  1  0.940000  0.457100  0.615400  1.0  -0.038
  C  C189  1  0.535900  0.825100  0.602500  1.0  0.7218
  C  C190  1  0.888400  0.067500  0.187200  1.0  -0.025
  C  C191  1  0.988400  0.406400  0.657500  1.0  -0.1186
  C  C192  1  0.336500  0.926200  0.880500  1.0  -0.0596
  C  C193  1  0.324700  0.361400  0.847700  1.0  -0.1113
  C  C194  1  0.379500  0.878000  0.840000  1.0  -0.1037
  C  C195  1  0.767400  0.571700  0.382300  1.0  0.7175
  C  C196  1  0.978000  0.332800  0.849700  1.0  -0.144
  C  C197  1  0.276300  0.309400  0.892100  1.0  0.7044
  C  C198  1  0.807000  0.546500  0.599800  1.0  0.7145
  C  C199  1  0.337600  0.026900  0.777700  1.0  -0.1129
  C  C200  1  0.313600  0.001500  0.849900  1.0  -0.1347
  C  C201  1  0.838100  0.028000  0.235800  1.0  -0.1153
  C  C202  1  0.809900  0.522400  0.332000  1.0  -0.1719
  C  C203  1  0.406700  0.902200  0.764000  1.0  0.0401
  C  C204  1  0.265500  0.055300  0.896400  1.0  0.7058
  C  C205  1  0.455900  0.853000  0.719600  1.0  -0.0499
  C  C206  1  0.032500  0.286600  0.896800  1.0  0.7175
  C  C207  1  0.896200  0.368400  0.878800  1.0  -0.0231
  C  C208  1  0.932500  0.379500  0.194700  1.0  -0.0873
  C  C209  1  0.847800  0.412200  0.838200  1.0  -0.1175
  C  C210  1  0.890300  0.427600  0.239100  1.0  0.0396
  C  C211  1  0.876500  0.426500  0.762100  1.0  0.0209
  C  C212  1  0.413800  0.462000  0.765000  1.0  0.0438
  C  C213  1  0.827900  0.475500  0.717500  1.0  -0.0552
  C  C214  1  0.806700  0.444800  0.268200  1.0  -0.1362
  C  C215  1  0.018400  0.444500  0.227600  1.0  -0.1778
  C  C216  1  0.767100  0.491100  0.313000  1.0  -0.0548
  C  C217  1  0.985100  0.848500  0.278600  1.0  -0.1121
  C  C218  1  0.328600  0.414900  0.876600  1.0  -0.0745
  C  C219  1  0.408300  0.020400  0.255200  1.0  -0.1106
  C  C220  1  0.410700  0.946700  0.287300  1.0  0.0543
  C  C221  1  0.530300  0.784800  0.400800  1.0  0.7576
  C  C222  1  0.937500  0.806500  0.326000  1.0  -0.0729
  C  C223  1  0.472200  0.828500  0.357000  1.0  -0.1498
  C  C224  1  0.261800  0.070900  0.143100  1.0  0.7159
  C  C225  1  0.462600  0.902000  0.330900  1.0  -0.0906
  C  C226  1  0.312600  0.026900  0.195200  1.0  -0.1173
  C  C227  1  0.373100  0.462200  0.836500  1.0  -0.1171
  C  C228  1  0.426300  0.796300  0.342300  1.0  -0.0563
  C  C229  1  0.318600  0.955500  0.224700  1.0  -0.0542
  C  C230  1  0.366600  0.913100  0.271600  1.0  0.0462
  C  C231  1  0.355700  0.061000  0.211800  1.0  -0.0614
  C  C232  1  0.373800  0.838500  0.300900  1.0  -0.1254
  O  O233  1  0.334360  0.317320  0.489800  1.0  -1.2332
  O  O234  1  0.834280  0.816130  0.991370  1.0  -1.2539
  O  O235  1  0.006200  0.851400  0.903560  1.0  -0.5825
  O  O236  1  0.156400  0.424700  0.462800  1.0  -0.5914
  O  O237  1  0.430300  0.147890  0.459140  1.0  -0.5761
  O  O238  1  0.191400  0.404400  0.599900  1.0  -0.6023
  O  O239  1  0.274200  0.174120  0.584360  1.0  -0.618
  O  O240  1  0.902700  0.952700  0.907100  1.0  -0.6111
  O  O241  1  0.307800  0.414100  0.597300  1.0  -0.6075
  O  O242  1  0.439100  0.428400  0.459770  1.0  -0.5963
  O  O243  1  0.985800  0.711200  0.898000  1.0  -0.5979
  O  O244  1  0.732100  0.729000  0.140300  1.0  -0.6018
  O  O245  1  0.462900  0.283240  0.576650  1.0  -0.5854
  O  O246  1  0.753000  0.971300  0.037570  1.0  -0.626
  O  O247  1  0.000100  0.721900  0.037320  1.0  -0.6151
  O  O248  1  0.744000  0.968100  0.891200  1.0  -0.5914
  O  O249  1  0.446600  0.395900  0.365670  1.0  -0.6299
  O  O250  1  0.895600  0.741000  0.131660  1.0  -0.6117
  O  O251  1  0.749900  0.877700  0.133960  1.0  -0.6128
  O  O252  1  0.432200  0.182600  0.588600  1.0  -0.5959
  O  O253  1  0.167500  0.274300  0.579220  1.0  -0.6253
  O  O254  1  0.867000  0.706800  0.898880  1.0  -0.5765
  O  O255  1  0.266400  0.439700  0.375870  1.0  -0.6117
  O  O256  1  0.455500  0.241800  0.370500  1.0  -0.6377
  O  O257  1  0.756600  0.690300  0.045200  1.0  -0.6174
  O  O258  1  0.762410  0.863300  0.866180  1.0  -0.575
  O  O259  1  0.665640  0.682680  0.510200  1.0  -1.2336
  O  O260  1  0.165720  0.183870  0.008630  1.0  -1.255
  O  O261  1  0.993800  0.148600  0.096440  1.0  -0.582
  O  O262  1  0.843600  0.575300  0.537200  1.0  -0.593
  O  O263  1  0.569700  0.852110  0.540860  1.0  -0.5763
  O  O264  1  0.808600  0.595600  0.400100  1.0  -0.6016
  O  O265  1  0.725800  0.825880  0.415640  1.0  -0.6173
  O  O266  1  0.097300  0.047300  0.092900  1.0  -0.6116
  O  O267  1  0.692200  0.585900  0.402700  1.0  -0.6054
  O  O268  1  0.560900  0.571600  0.540230  1.0  -0.5961
  O  O269  1  0.014200  0.288800  0.102000  1.0  -0.5991
  O  O270  1  0.267900  0.271000  0.859700  1.0  -0.6004
  O  O271  1  0.537100  0.716760  0.423350  1.0  -0.5852
  O  O272  1  0.247000  0.028700  0.962430  1.0  -0.6263
  O  O273  1  0.999900  0.278100  0.962680  1.0  -0.6159
  O  O274  1  0.256000  0.031900  0.108800  1.0  -0.5916
  O  O275  1  0.553400  0.604100  0.634330  1.0  -0.6312
  O  O276  1  0.104400  0.259000  0.868340  1.0  -0.6113
  O  O277  1  0.250100  0.122300  0.866040  1.0  -0.6144
  O  O278  1  0.567800  0.817400  0.411400  1.0  -0.5957
  O  O279  1  0.832500  0.725700  0.420780  1.0  -0.6238
  O  O280  1  0.133000  0.293200  0.101120  1.0  -0.5787
  O  O281  1  0.733600  0.560300  0.624130  1.0  -0.6089
  O  O282  1  0.544500  0.758200  0.629500  1.0  -0.6382
  O  O283  1  0.243400  0.309700  0.954800  1.0  -0.6159
  O  O284  1  0.237590  0.136700  0.133820  1.0  -0.5746
