# generated using pymatgen
data_CoH5C5SNO4
_symmetry_space_group_name_H-M   'P 1'
_cell_length_a   12.33500000
_cell_length_b   12.33500000
_cell_length_c   5.26500000
_cell_angle_alpha   90.00000000
_cell_angle_beta   90.00000000
_cell_angle_gamma   90.00000000
_symmetry_Int_Tables_number   1
_chemical_formula_structural   CoH5C5SNO4
_chemical_formula_sum   'Co4 H20 C20 S4 N4 O16'
_cell_volume   801.08146463
_cell_formula_units_Z   4
loop_
 _symmetry_equiv_pos_site_id
 _symmetry_equiv_pos_as_xyz
  1  'x, y, z'
loop_
 _atom_site_type_symbol
 _atom_site_label
 _atom_site_symmetry_multiplicity
 _atom_site_fract_x
 _atom_site_fract_y
 _atom_site_fract_z
 _atom_site_occupancy
 _atom_site_charge
  Co  Co1  1  0.321240  0.015460  0.941370  1.0  0.9322
  Co  Co2  1  0.678760  0.984540  0.441370  1.0  0.931
  Co  Co3  1  0.984540  0.321240  0.191370  1.0  0.9302
  Co  Co4  1  0.015460  0.678760  0.691370  1.0  0.9281
  H  H5  1  0.263300  0.803200  0.546400  1.0  0.0947
  H  H6  1  0.382400  0.661400  0.580000  1.0  0.1339
  H  H7  1  0.288300  0.626500  0.776100  1.0  0.1548
  H  H8  1  0.542300  0.828500  0.792700  1.0  0.1199
  H  H9  1  0.402000  0.897000  0.616000  1.0  0.2264
  H  H10  1  0.736700  0.196800  0.046400  1.0  0.0944
  H  H11  1  0.617600  0.338600  0.080000  1.0  0.1345
  H  H12  1  0.711700  0.373500  0.276100  1.0  0.1555
  H  H13  1  0.457700  0.171500  0.292700  1.0  0.1199
  H  H14  1  0.598000  0.103000  0.116000  1.0  0.2253
  H  H15  1  0.196800  0.263300  0.796400  1.0  0.0953
  H  H16  1  0.338600  0.382400  0.830000  1.0  0.1336
  H  H17  1  0.373500  0.288300  0.026100  1.0  0.1563
  H  H18  1  0.171500  0.542300  0.042700  1.0  0.121
  H  H19  1  0.103000  0.402000  0.866000  1.0  0.2246
  H  H20  1  0.803200  0.736700  0.296400  1.0  0.095
  H  H21  1  0.661400  0.617600  0.330000  1.0  0.1339
  H  H22  1  0.626500  0.711700  0.526100  1.0  0.1555
  H  H23  1  0.828500  0.457700  0.542700  1.0  0.1205
  H  H24  1  0.897000  0.598000  0.366000  1.0  0.2264
  C  C25  1  0.295400  0.794300  0.719500  1.0  0.0335
  C  C26  1  0.344800  0.681400  0.739300  1.0  -0.2805
  C  C27  1  0.475600  0.830600  0.900800  1.0  -0.0211
  C  C28  1  0.498400  0.895200  0.140200  1.0  0.6654
  C  C29  1  0.206200  0.813400  0.918400  1.0  0.6872
  C  C30  1  0.704600  0.205700  0.219500  1.0  0.0372
  C  C31  1  0.655200  0.318600  0.239300  1.0  -0.2788
  C  C32  1  0.524400  0.169400  0.400800  1.0  -0.0207
  C  C33  1  0.501600  0.104800  0.640200  1.0  0.6657
  C  C34  1  0.793800  0.186600  0.418400  1.0  0.6876
  C  C35  1  0.205700  0.295400  0.969500  1.0  0.0399
  C  C36  1  0.318600  0.344800  0.989300  1.0  -0.282
  C  C37  1  0.169400  0.475600  0.150800  1.0  -0.0217
  C  C38  1  0.104800  0.498400  0.390200  1.0  0.664
  C  C39  1  0.186600  0.206200  0.168400  1.0  0.6921
  C  C40  1  0.794300  0.704600  0.469500  1.0  0.04
  C  C41  1  0.681400  0.655200  0.489300  1.0  -0.2794
  C  C42  1  0.830600  0.524400  0.650800  1.0  -0.0221
  C  C43  1  0.895200  0.501600  0.890200  1.0  0.6639
  C  C44  1  0.813400  0.793800  0.668400  1.0  0.6928
  S  S45  1  0.439700  0.692300  0.999920  1.0  0.0399
  S  S46  1  0.560300  0.307700  0.499920  1.0  0.037
  S  S47  1  0.307700  0.439700  0.249920  1.0  0.0368
  S  S48  1  0.692300  0.560300  0.749920  1.0  0.0384
  N  N49  1  0.383700  0.874100  0.750600  1.0  -0.3723
  N  N50  1  0.616300  0.125900  0.250600  1.0  -0.3707
  N  N51  1  0.125900  0.383700  0.000600  1.0  -0.3723
  N  N52  1  0.874100  0.616300  0.500600  1.0  -0.3725
  O  O53  1  0.583240  0.871310  0.257000  1.0  -0.5876
  O  O54  1  0.431480  0.966770  0.211200  1.0  -0.589
  O  O55  1  0.207760  0.899110  0.046500  1.0  -0.584
  O  O56  1  0.132280  0.743140  0.942000  1.0  -0.6574
  O  O57  1  0.416760  0.128690  0.757000  1.0  -0.5883
  O  O58  1  0.568520  0.033230  0.711200  1.0  -0.5889
  O  O59  1  0.792240  0.100890  0.546500  1.0  -0.5839
  O  O60  1  0.867720  0.256860  0.442000  1.0  -0.6549
  O  O61  1  0.128690  0.583240  0.507000  1.0  -0.5892
  O  O62  1  0.033230  0.431480  0.461200  1.0  -0.5891
  O  O63  1  0.100890  0.207760  0.296500  1.0  -0.584
  O  O64  1  0.256860  0.132280  0.192000  1.0  -0.6568
  O  O65  1  0.871310  0.416760  0.007000  1.0  -0.5885
  O  O66  1  0.966770  0.568520  0.961200  1.0  -0.5901
  O  O67  1  0.899110  0.792240  0.796500  1.0  -0.5807
  O  O68  1  0.743140  0.867720  0.692000  1.0  -0.6577
