# generated using pymatgen
data_Zn4H16C30O13
_symmetry_space_group_name_H-M   'P 1'
_cell_length_a   17.30430000
_cell_length_b   18.37700000
_cell_length_c   17.95650000
_cell_angle_alpha   90.00000000
_cell_angle_beta   90.00000000
_cell_angle_gamma   90.00000000
_symmetry_Int_Tables_number   1
_chemical_formula_structural   Zn4H16C30O13
_chemical_formula_sum   'Zn16 H64 C120 O52'
_cell_volume   5710.18713103
_cell_formula_units_Z   4
loop_
 _symmetry_equiv_pos_site_id
 _symmetry_equiv_pos_as_xyz
  1  'x, y, z'
loop_
 _atom_site_type_symbol
 _atom_site_label
 _atom_site_symmetry_multiplicity
 _atom_site_fract_x
 _atom_site_fract_y
 _atom_site_fract_z
 _atom_site_occupancy
 _atom_site_charge
  Zn  Zn1  1  0.823430  0.681870  0.055430  1.0  1.2031
  Zn  Zn2  1  0.703470  0.182170  0.387230  1.0  1.1866
  Zn  Zn3  1  0.823350  0.681800  0.887250  1.0  1.1986
  Zn  Zn4  1  0.703270  0.181650  0.555390  1.0  1.2011
  Zn  Zn5  1  0.698090  0.600070  0.972160  1.0  1.1766
  Zn  Zn6  1  0.698560  0.764110  0.970820  1.0  1.1884
  Zn  Zn7  1  0.828640  0.100120  0.471860  1.0  1.1816
  Zn  Zn8  1  0.828350  0.264130  0.471150  1.0  1.1917
  Zn  Zn9  1  0.176560  0.317890  0.112170  1.0  1.2017
  Zn  Zn10  1  0.296760  0.818270  0.443860  1.0  1.2011
  Zn  Zn11  1  0.176490  0.318100  0.943980  1.0  1.2043
  Zn  Zn12  1  0.296380  0.817850  0.612020  1.0  1.2029
  Zn  Zn13  1  0.301690  0.399970  0.027360  1.0  1.1818
  Zn  Zn14  1  0.301470  0.235910  0.028400  1.0  1.189
  Zn  Zn15  1  0.171470  0.900040  0.527240  1.0  1.1823
  Zn  Zn16  1  0.171460  0.736030  0.528220  1.0  1.1854
  H  H17  1  0.316840  0.579750  0.028630  1.0  0.1151
  H  H18  1  0.870220  0.522050  0.217300  1.0  0.1184
  H  H19  1  0.652530  0.441430  0.134760  1.0  0.1089
  H  H20  1  0.655510  0.343440  0.226930  1.0  0.1179
  H  H21  1  0.872070  0.425470  0.311230  1.0  0.1201
  H  H22  1  0.063330  0.720500  0.858200  1.0  0.1209
  H  H23  1  0.204870  0.722760  0.859300  1.0  0.1111
  H  H24  1  0.204550  0.642650  0.084950  1.0  0.1123
  H  H25  1  0.067690  0.083100  0.535900  1.0  0.1135
  H  H26  1  0.674130  0.036870  0.209770  1.0  0.1199
  H  H27  1  0.856750  0.924450  0.326060  1.0  0.114
  H  H28  1  0.854500  0.828270  0.231990  1.0  0.1182
  H  H29  1  0.672100  0.940760  0.115550  1.0  0.1196
  H  H30  1  0.463490  0.153530  0.587920  1.0  0.1197
  H  H31  1  0.068280  0.281460  0.407850  1.0  0.1213
  H  H32  1  0.210230  0.280420  0.406870  1.0  0.1232
  H  H33  1  0.458510  0.578570  0.026800  1.0  0.1129
  H  H34  1  0.854120  0.535230  0.711520  1.0  0.1201
  H  H35  1  0.671390  0.422830  0.827700  1.0  0.1113
  H  H36  1  0.673580  0.326710  0.733490  1.0  0.1191
  H  H37  1  0.856070  0.439260  0.617220  1.0  0.1212
  H  H38  1  0.062890  0.642320  0.084590  1.0  0.1212
  H  H39  1  0.458600  0.786790  0.916270  1.0  0.1232
  H  H40  1  0.316750  0.786650  0.916000  1.0  0.1252
  H  H41  1  0.209640  0.083530  0.536800  1.0  0.11
  H  H42  1  0.657690  0.022840  0.718440  1.0  0.1191
  H  H43  1  0.872000  0.938600  0.631560  1.0  0.1135
  H  H44  1  0.869030  0.840540  0.723680  1.0  0.1138
  H  H45  1  0.655910  0.926170  0.812200  1.0  0.1177
  H  H46  1  0.463020  0.207030  0.354060  1.0  0.1151
  H  H47  1  0.321320  0.207710  0.354570  1.0  0.1158
  H  H48  1  0.321810  0.153260  0.588040  1.0  0.1196
  H  H49  1  0.683550  0.419930  0.971710  1.0  0.1158
  H  H50  1  0.146940  0.463600  0.289350  1.0  0.1192
  H  H51  1  0.326700  0.577810  0.170750  1.0  0.1121
  H  H52  1  0.324530  0.674060  0.264790  1.0  0.1212
  H  H53  1  0.145140  0.559690  0.383570  1.0  0.1203
  H  H54  1  0.936760  0.354460  0.914360  1.0  0.1183
  H  H55  1  0.932310  0.916610  0.461990  1.0  0.1127
  H  H56  1  0.343510  0.977900  0.281760  1.0  0.1191
  H  H57  1  0.127730  0.060640  0.366800  1.0  0.1096
  H  H58  1  0.130710  0.158620  0.274650  1.0  0.1153
  H  H59  1  0.345450  0.074670  0.188050  1.0  0.1179
  H  H60  1  0.536850  0.787230  0.643930  1.0  0.1154
  H  H61  1  0.931700  0.719630  0.592320  1.0  0.1202
  H  H62  1  0.789950  0.720590  0.593380  1.0  0.1202
  H  H63  1  0.541840  0.421760  0.973680  1.0  0.1111
  H  H64  1  0.128370  0.479330  0.783550  1.0  0.1214
  H  H65  1  0.347730  0.558010  0.863930  1.0  0.1111
  H  H66  1  0.345010  0.655700  0.771380  1.0  0.1136
  H  H67  1  0.126550  0.575830  0.689510  1.0  0.118
  H  H68  1  0.936580  0.279730  0.141990  1.0  0.1146
  H  H69  1  0.795000  0.277450  0.141020  1.0  0.1112
  H  H70  1  0.795100  0.354670  0.914340  1.0  0.1121
  H  H71  1  0.540820  0.212850  0.082910  1.0  0.1216
  H  H72  1  0.682710  0.212590  0.083510  1.0  0.1262
  H  H73  1  0.790510  0.916380  0.461290  1.0  0.107
  H  H74  1  0.324620  0.962390  0.790280  1.0  0.1197
  H  H75  1  0.146570  0.078020  0.670710  1.0  0.1107
  H  H76  1  0.149140  0.174310  0.764650  1.0  0.1203
  H  H77  1  0.326830  0.058500  0.884420  1.0  0.1188
  H  H78  1  0.536290  0.851850  0.413000  1.0  0.1168
  H  H79  1  0.677740  0.852680  0.412820  1.0  0.113
  H  H80  1  0.678450  0.787420  0.643650  1.0  0.1165
  C  C81  1  0.765020  0.316930  0.334950  1.0  0.7144
  C  C82  1  0.346930  0.625440  0.004270  1.0  -0.1354
  C  C83  1  0.764020  0.376070  0.276980  1.0  -0.1061
  C  C84  1  0.761630  0.489450  0.167410  1.0  -0.0869
  C  C85  1  0.760970  0.548090  0.108930  1.0  0.7117
  C  C86  1  0.822720  0.483710  0.218950  1.0  -0.0764
  C  C87  1  0.701400  0.438020  0.172140  1.0  -0.0724
  C  C88  1  0.702840  0.381960  0.225570  1.0  -0.0782
  C  C89  1  0.823810  0.428070  0.272920  1.0  -0.0743
  C  C90  1  0.093270  0.703410  0.908180  1.0  -0.0799
  C  C91  1  0.174810  0.704970  0.908910  1.0  -0.1181
  C  C92  1  0.174620  0.659640  0.034920  1.0  -0.14
  C  C93  1  0.761840  0.816930  0.107440  1.0  0.696
  C  C94  1  0.097950  0.126750  0.507840  1.0  -0.0726
  C  C95  1  0.762960  0.876040  0.165710  1.0  -0.095
  C  C96  1  0.765430  0.988910  0.276250  1.0  -0.0963
  C  C97  1  0.766190  0.047820  0.334670  1.0  0.7003
  C  C98  1  0.713890  0.991710  0.215480  1.0  -0.0776
  C  C99  1  0.815880  0.928750  0.280620  1.0  -0.0853
  C  C100  1  0.814620  0.873330  0.226390  1.0  -0.0772
  C  C101  1  0.712690  0.936310  0.161210  1.0  -0.0762
  C  C102  1  0.433390  0.165440  0.536440  1.0  -0.0533
  C  C103  1  0.098330  0.237850  0.436280  1.0  -0.0867
  C  C104  1  0.179910  0.237070  0.435420  1.0  -0.15
  C  C105  1  0.765540  0.316060  0.608350  1.0  0.6937
  C  C106  1  0.428460  0.624540  0.002690  1.0  -0.0705
  C  C107  1  0.764900  0.374720  0.667090  1.0  -0.0939
  C  C108  1  0.762510  0.487450  0.777730  1.0  -0.0923
  C  C109  1  0.761350  0.546730  0.835750  1.0  0.6907
  C  C110  1  0.814240  0.490140  0.717120  1.0  -0.0774
  C  C111  1  0.712150  0.427220  0.782180  1.0  -0.0831
  C  C112  1  0.713390  0.371840  0.727890  1.0  -0.0798
  C  C113  1  0.815400  0.434820  0.662810  1.0  -0.0783
  C  C114  1  0.093060  0.659800  0.034840  1.0  -0.0418
  C  C115  1  0.428460  0.741100  0.940930  1.0  -0.0946
  C  C116  1  0.346870  0.740890  0.940530  1.0  -0.1439
  C  C117  1  0.761430  0.816020  0.834050  1.0  0.7086
  C  C118  1  0.179520  0.127150  0.508730  1.0  -0.1354
  C  C119  1  0.762180  0.874900  0.775780  1.0  -0.108
  C  C120  1  0.764610  0.988520  0.666420  1.0  -0.0992
  C  C121  1  0.765380  0.047430  0.608180  1.0  0.6999
  C  C122  1  0.704440  0.983660  0.719050  1.0  -0.0768
  C  C123  1  0.823860  0.935990  0.669890  1.0  -0.069
  C  C124  1  0.822340  0.879770  0.723170  1.0  -0.0803
  C  C125  1  0.703350  0.927940  0.772910  1.0  -0.0705
  C  C126  1  0.433150  0.195330  0.405670  1.0  -0.0625
  C  C127  1  0.351560  0.196100  0.406010  1.0  -0.1453
  C  C128  1  0.351830  0.164930  0.536450  1.0  -0.145
  C  C129  1  0.470700  0.682660  0.971550  1.0  -0.0855
  C  C130  1  0.963620  0.681470  0.971250  1.0  0.7108
  C  C131  1  0.557940  0.682410  0.971330  1.0  0.7166
  C  C132  1  0.304560  0.683200  0.972530  1.0  0.07
  C  C133  1  0.050890  0.681400  0.971360  1.0  -0.117
  C  C134  1  0.217050  0.682720  0.972160  1.0  0.0602
  C  C135  1  0.055960  0.182340  0.471930  1.0  -0.1026
  C  C136  1  0.563010  0.181170  0.471080  1.0  0.71
  C  C137  1  0.968810  0.182300  0.471620  1.0  0.7138
  C  C138  1  0.221990  0.181810  0.471890  1.0  0.0711
  C  C139  1  0.475630  0.180590  0.471040  1.0  -0.1198
  C  C140  1  0.309420  0.180960  0.471440  1.0  0.0716
  C  C141  1  0.234240  0.683880  0.391060  1.0  0.7005
  C  C142  1  0.653200  0.374260  0.995890  1.0  -0.1395
  C  C143  1  0.234780  0.625160  0.332420  1.0  -0.0994
  C  C144  1  0.237040  0.512280  0.221920  1.0  -0.1061
  C  C145  1  0.238200  0.453000  0.163870  1.0  0.6981
  C  C146  1  0.186150  0.509130  0.283170  1.0  -0.0786
  C  C147  1  0.286610  0.573030  0.216800  1.0  -0.0821
  C  C148  1  0.285390  0.628510  0.270980  1.0  -0.0808
  C  C149  1  0.185070  0.564540  0.337420  1.0  -0.0751
  C  C150  1  0.906680  0.337950  0.964480  1.0  -0.0408
  C  C151  1  0.238900  0.183790  0.165160  1.0  0.7116
  C  C152  1  0.902030  0.873310  0.490640  1.0  -0.0739
  C  C153  1  0.238250  0.124950  0.223400  1.0  -0.1157
  C  C154  1  0.235840  0.011460  0.332800  1.0  -0.1003
  C  C155  1  0.234930  0.952520  0.390970  1.0  0.7009
  C  C156  1  0.296470  0.016750  0.280700  1.0  -0.0765
  C  C157  1  0.176210  0.063580  0.328890  1.0  -0.0662
  C  C158  1  0.177700  0.119720  0.275570  1.0  -0.0797
  C  C159  1  0.297590  0.072460  0.226840  1.0  -0.0758
  C  C160  1  0.566740  0.801590  0.593000  1.0  -0.0632
  C  C161  1  0.901670  0.762960  0.563450  1.0  -0.088
  C  C162  1  0.820110  0.763730  0.564370  1.0  -0.1421
  C  C163  1  0.234550  0.683240  0.664510  1.0  0.7146
  C  C164  1  0.571680  0.375510  0.997500  1.0  -0.0701
  C  C165  1  0.235510  0.624150  0.722540  1.0  -0.109
  C  C166  1  0.237840  0.510910  0.832320  1.0  -0.0859
  C  C167  1  0.238600  0.452210  0.890770  1.0  0.7082
  C  C168  1  0.176270  0.517180  0.781360  1.0  -0.0746
  C  C169  1  0.298540  0.561800  0.826960  1.0  -0.0753
  C  C170  1  0.297190  0.617750  0.773370  1.0  -0.0757
  C  C171  1  0.175190  0.572760  0.727320  1.0  -0.0737
  C  C172  1  0.906600  0.296170  0.091800  1.0  -0.0693
  C  C173  1  0.825050  0.294660  0.091170  1.0  -0.1161
  C  C174  1  0.825120  0.338300  0.964540  1.0  -0.1438
  C  C175  1  0.571160  0.258610  0.058620  1.0  -0.095
  C  C176  1  0.652760  0.258530  0.059160  1.0  -0.1408
  C  C177  1  0.238780  0.183500  0.891400  1.0  0.6965
  C  C178  1  0.820490  0.872970  0.489900  1.0  -0.1291
  C  C179  1  0.238090  0.124710  0.832800  1.0  -0.0996
  C  C180  1  0.235360  0.011790  0.722310  1.0  -0.0908
  C  C181  1  0.234230  0.952610  0.664150  1.0  0.6985
  C  C182  1  0.285870  0.008230  0.783840  1.0  -0.0794
  C  C183  1  0.186400  0.072960  0.716920  1.0  -0.0904
  C  C184  1  0.187830  0.128430  0.771100  1.0  -0.0737
  C  C185  1  0.287180  0.063650  0.838080  1.0  -0.0749
  C  C186  1  0.566400  0.837600  0.463840  1.0  -0.0626
  C  C187  1  0.647920  0.838400  0.463850  1.0  -0.1361
  C  C188  1  0.648340  0.801250  0.592680  1.0  -0.1318
  C  C189  1  0.529170  0.317380  0.028280  1.0  -0.0834
  C  C190  1  0.036260  0.317600  0.028300  1.0  0.7092
  C  C191  1  0.441930  0.317780  0.028270  1.0  0.7186
  C  C192  1  0.695310  0.316190  0.027400  1.0  0.0725
  C  C193  1  0.948950  0.317350  0.028250  1.0  -0.1187
  C  C194  1  0.782770  0.316260  0.027730  1.0  0.0609
  C  C195  1  0.944010  0.818140  0.527210  1.0  -0.105
  C  C196  1  0.436890  0.818590  0.528260  1.0  0.714
  C  C197  1  0.031160  0.818100  0.527540  1.0  0.7133
  C  C198  1  0.777970  0.818690  0.527410  1.0  0.0634
  C  C199  1  0.524250  0.819230  0.528390  1.0  -0.1199
  C  C200  1  0.690450  0.819560  0.528070  1.0  0.0605
  O  O201  1  0.714830  0.543040  0.053800  1.0  -0.6261
  O  O202  1  0.811120  0.321840  0.390150  1.0  -0.6306
  O  O203  1  0.806900  0.602180  0.114430  1.0  -0.6369
  O  O204  1  0.719550  0.262520  0.328900  1.0  -0.6278
  O  O205  1  0.926790  0.680910  0.032850  1.0  -0.6384
  O  O206  1  0.812010  0.042740  0.390160  1.0  -0.6148
  O  O207  1  0.715840  0.821960  0.052050  1.0  -0.6301
  O  O208  1  0.720630  0.102210  0.328630  1.0  -0.6296
  O  O209  1  0.807130  0.762340  0.113590  1.0  -0.6297
  O  O210  1  0.599920  0.181870  0.409520  1.0  -0.6338
  O  O211  1  0.715260  0.541960  0.891080  1.0  -0.6309
  O  O212  1  0.811400  0.321370  0.552880  1.0  -0.6314
  O  O213  1  0.806700  0.601240  0.829410  1.0  -0.6248
  O  O214  1  0.719960  0.261660  0.614110  1.0  -0.6351
  O  O215  1  0.926840  0.682260  0.909620  1.0  -0.6345
  O  O216  1  0.811560  0.042560  0.553050  1.0  -0.6241
  O  O217  1  0.715600  0.821270  0.889420  1.0  -0.6307
  O  O218  1  0.719600  0.101600  0.613940  1.0  -0.6401
  O  O219  1  0.806890  0.761590  0.828170  1.0  -0.6279
  O  O220  1  0.599820  0.181000  0.532730  1.0  -0.6368
  O  O221  1  0.760880  0.681960  0.971400  1.0  -1.3626
  O  O222  1  0.594550  0.622100  0.972710  1.0  -0.6389
  O  O223  1  0.594910  0.742530  0.970000  1.0  -0.6338
  O  O224  1  0.765910  0.182020  0.471400  1.0  -1.3637
  O  O225  1  0.932140  0.122040  0.473020  1.0  -0.6337
  O  O226  1  0.931990  0.242480  0.470090  1.0  -0.6345
  O  O227  1  0.284260  0.457880  0.108520  1.0  -0.628
  O  O228  1  0.188380  0.678670  0.446550  1.0  -0.631
  O  O229  1  0.192940  0.398420  0.170170  1.0  -0.6318
  O  O230  1  0.279920  0.738220  0.385210  1.0  -0.6342
  O  O231  1  0.073050  0.317020  0.089910  1.0  -0.6363
  O  O232  1  0.188650  0.957410  0.446010  1.0  -0.6259
  O  O233  1  0.284630  0.178580  0.109710  1.0  -0.6304
  O  O234  1  0.280700  0.898330  0.385270  1.0  -0.6365
  O  O235  1  0.193350  0.238130  0.171100  1.0  -0.6261
  O  O236  1  0.400180  0.818810  0.466560  1.0  -0.6339
  O  O237  1  0.284940  0.457120  0.945760  1.0  -0.6292
  O  O238  1  0.188430  0.678340  0.609320  1.0  -0.6372
  O  O239  1  0.192660  0.398120  0.885290  1.0  -0.6359
  O  O240  1  0.280070  0.737610  0.670500  1.0  -0.6323
  O  O241  1  0.073070  0.318390  0.966680  1.0  -0.6376
  O  O242  1  0.188390  0.957660  0.608660  1.0  -0.6157
  O  O243  1  0.284470  0.178230  0.946990  1.0  -0.6341
  O  O244  1  0.279480  0.898020  0.670410  1.0  -0.6371
  O  O245  1  0.193380  0.238020  0.885380  1.0  -0.6318
  O  O246  1  0.399920  0.817850  0.589770  1.0  -0.6342
  O  O247  1  0.239030  0.317980  0.027970  1.0  -1.3706
  O  O248  1  0.405330  0.378100  0.026980  1.0  -0.6422
  O  O249  1  0.405000  0.257670  0.029330  1.0  -0.6447
  O  O250  1  0.234050  0.818060  0.527840  1.0  -1.363
  O  O251  1  0.067920  0.878310  0.526100  1.0  -0.6351
  O  O252  1  0.067880  0.757870  0.529150  1.0  -0.6353
