# generated using pymatgen
data_TmH3C9(NO2)3
_symmetry_space_group_name_H-M   'P 1'
_cell_length_a   6.02000000
_cell_length_b   12.77220000
_cell_length_c   13.16120000
_cell_angle_alpha   118.82900000
_cell_angle_beta   90.60900000
_cell_angle_gamma   91.68700000
_symmetry_Int_Tables_number   1
_chemical_formula_structural   TmH3C9(NO2)3
_chemical_formula_sum   'Tm2 H6 C18 N6 O12'
_cell_volume   885.78849702
_cell_formula_units_Z   2
loop_
 _symmetry_equiv_pos_site_id
 _symmetry_equiv_pos_as_xyz
  1  'x, y, z'
loop_
 _atom_site_type_symbol
 _atom_site_label
 _atom_site_symmetry_multiplicity
 _atom_site_fract_x
 _atom_site_fract_y
 _atom_site_fract_z
 _atom_site_occupancy
 _atom_site_charge
  Tm  Tm1  1  0.778030  0.660650  0.821710  1.0  2.0181
  Tm  Tm2  1  0.221970  0.339350  0.178290  1.0  2.0166
  H  H3  1  0.692800  0.534100  0.160700  1.0  0.0665
  H  H4  1  0.083200  0.881900  0.078500  1.0  0.095
  H  H5  1  0.646200  0.559000  0.515100  1.0  0.0843
  H  H6  1  0.307200  0.465900  0.839300  1.0  0.0672
  H  H7  1  0.916800  0.118100  0.921500  1.0  0.0955
  H  H8  1  0.353800  0.441000  0.484900  1.0  0.0837
  C  C9  1  0.610600  0.518900  0.094500  1.0  0.2021
  C  C10  1  0.688400  0.566300  0.027600  1.0  0.0875
  C  C11  1  0.904000  0.640000  0.054400  1.0  0.6624
  C  C12  1  0.882700  0.950700  0.900000  1.0  0.0689
  C  C13  1  0.047300  0.928800  0.044700  1.0  0.177
  C  C14  1  0.750200  0.893000  0.786900  1.0  0.6445
  C  C15  1  0.123900  0.539600  0.596600  1.0  0.0781
  C  C16  1  0.791600  0.534800  0.510600  1.0  0.1906
  C  C17  1  0.261800  0.594100  0.706100  1.0  0.6991
  C  C18  1  0.389400  0.481100  0.905500  1.0  0.2014
  C  C19  1  0.311600  0.433700  0.972400  1.0  0.0861
  C  C20  1  0.096000  0.360000  0.945600  1.0  0.6576
  C  C21  1  0.117300  0.049300  0.100000  1.0  0.0721
  C  C22  1  0.952700  0.071200  0.955300  1.0  0.1808
  C  C23  1  0.249800  0.107000  0.213100  1.0  0.6448
  C  C24  1  0.876100  0.460400  0.403400  1.0  0.0778
  C  C25  1  0.208400  0.465200  0.489400  1.0  0.1923
  C  C26  1  0.738200  0.405900  0.293900  1.0  0.699
  N  N27  1  0.423600  0.452200  0.069900  1.0  -0.4739
  N  N28  1  0.929700  0.878900  0.944200  1.0  -0.4207
  N  N29  1  0.914200  0.573100  0.608600  1.0  -0.3951
  N  N30  1  0.576400  0.547800  0.930100  1.0  -0.4742
  N  N31  1  0.070300  0.121100  0.055800  1.0  -0.4231
  N  N32  1  0.085800  0.426900  0.391400  1.0  -0.3949
  O  O33  1  0.950300  0.679100  0.985300  1.0  -0.6957
  O  O34  1  0.020200  0.655600  0.138800  1.0  -0.5419
  O  O35  1  0.693400  0.785600  0.748000  1.0  -0.6785
  O  O36  1  0.699600  0.956000  0.743800  1.0  -0.4841
  O  O37  1  0.463100  0.568900  0.704000  1.0  -0.7123
  O  O38  1  0.164300  0.665800  0.796900  1.0  -0.6726
  O  O39  1  0.049700  0.320900  0.014700  1.0  -0.7011
  O  O40  1  0.979800  0.344400  0.861200  1.0  -0.5364
  O  O41  1  0.306600  0.214400  0.252000  1.0  -0.6761
  O  O42  1  0.300400  0.044000  0.256200  1.0  -0.4828
  O  O43  1  0.536900  0.431100  0.296000  1.0  -0.7125
  O  O44  1  0.835700  0.334200  0.203100  1.0  -0.6728
