# generated using pymatgen
data_ZnH32C32N4(ClO8)2
_symmetry_space_group_name_H-M   'P 1'
_cell_length_a   11.26900000
_cell_length_b   13.10640000
_cell_length_c   13.10640000
_cell_angle_alpha   90.00000000
_cell_angle_beta   90.00000000
_cell_angle_gamma   90.00000000
_symmetry_Int_Tables_number   1
_chemical_formula_structural   ZnH32C32N4(ClO8)2
_chemical_formula_sum   'Zn2 H64 C64 N8 Cl4 O32'
_cell_volume   1935.76313750
_cell_formula_units_Z   2
loop_
 _symmetry_equiv_pos_site_id
 _symmetry_equiv_pos_as_xyz
  1  'x, y, z'
loop_
 _atom_site_type_symbol
 _atom_site_label
 _atom_site_symmetry_multiplicity
 _atom_site_fract_x
 _atom_site_fract_y
 _atom_site_fract_z
 _atom_site_occupancy
 _atom_site_charge
  Zn  Zn1  1  0.000000  0.000000  0.500000  1.0  0.9921
  Zn  Zn2  1  0.500000  0.500000  0.000000  1.0  0.9921
  H  H3  1  0.264300  0.768200  0.556000  1.0  0.1028
  H  H4  1  0.428800  0.671800  0.600300  1.0  0.1171
  H  H5  1  0.497300  0.861100  0.823700  1.0  0.119
  H  H6  1  0.331800  0.954700  0.786700  1.0  0.1171
  H  H7  1  0.590300  0.695100  0.819400  1.0  0.0988
  H  H8  1  0.577600  0.629300  0.719900  1.0  0.0982
  H  H9  1  0.692600  0.820800  0.716500  1.0  0.0948
  H  H10  1  0.695900  0.739100  0.629000  1.0  0.0868
  H  H11  1  0.264300  0.231800  0.444000  1.0  0.1026
  H  H12  1  0.428800  0.328200  0.399700  1.0  0.1171
  H  H13  1  0.497300  0.138900  0.176300  1.0  0.1197
  H  H14  1  0.331800  0.045300  0.213300  1.0  0.1174
  H  H15  1  0.590300  0.304900  0.180600  1.0  0.098
  H  H16  1  0.577600  0.370700  0.280100  1.0  0.0985
  H  H17  1  0.692600  0.179200  0.283500  1.0  0.0939
  H  H18  1  0.695900  0.260900  0.371000  1.0  0.0851
  H  H19  1  0.764300  0.444000  0.768200  1.0  0.1033
  H  H20  1  0.928800  0.399700  0.671800  1.0  0.1181
  H  H21  1  0.997300  0.176300  0.861100  1.0  0.1195
  H  H22  1  0.831800  0.213300  0.954700  1.0  0.1183
  H  H23  1  0.090300  0.180600  0.695100  1.0  0.0967
  H  H24  1  0.077600  0.280100  0.629300  1.0  0.0999
  H  H25  1  0.192600  0.283500  0.820800  1.0  0.0977
  H  H26  1  0.195900  0.371000  0.739100  1.0  0.0853
  H  H27  1  0.764300  0.556000  0.231800  1.0  0.103
  H  H28  1  0.928800  0.600300  0.328200  1.0  0.1177
  H  H29  1  0.997300  0.823700  0.138900  1.0  0.1201
  H  H30  1  0.831800  0.786700  0.045300  1.0  0.1188
  H  H31  1  0.090300  0.819400  0.304900  1.0  0.0961
  H  H32  1  0.077600  0.719900  0.370700  1.0  0.1005
  H  H33  1  0.192600  0.716500  0.179200  1.0  0.0972
  H  H34  1  0.195900  0.629000  0.260900  1.0  0.0859
  H  H35  1  0.735700  0.231800  0.556000  1.0  0.1028
  H  H36  1  0.571200  0.328200  0.600300  1.0  0.1172
  H  H37  1  0.502700  0.138900  0.823700  1.0  0.1186
  H  H38  1  0.668200  0.045300  0.786700  1.0  0.118
  H  H39  1  0.409700  0.304900  0.819400  1.0  0.099
  H  H40  1  0.422400  0.370700  0.719900  1.0  0.0983
  H  H41  1  0.307400  0.179200  0.716500  1.0  0.0943
  H  H42  1  0.304100  0.260900  0.629000  1.0  0.0863
  H  H43  1  0.735700  0.768200  0.444000  1.0  0.1028
  H  H44  1  0.571200  0.671800  0.399700  1.0  0.1172
  H  H45  1  0.502700  0.861100  0.176300  1.0  0.1203
  H  H46  1  0.668200  0.954700  0.213300  1.0  0.1178
  H  H47  1  0.409700  0.695100  0.180600  1.0  0.0978
  H  H48  1  0.422400  0.629300  0.280100  1.0  0.0974
  H  H49  1  0.307400  0.820800  0.283500  1.0  0.0944
  H  H50  1  0.304100  0.739100  0.371000  1.0  0.0848
  H  H51  1  0.235700  0.556000  0.768200  1.0  0.1032
  H  H52  1  0.071200  0.600300  0.671800  1.0  0.1179
  H  H53  1  0.002700  0.823700  0.861100  1.0  0.1196
  H  H54  1  0.168200  0.786700  0.954700  1.0  0.1186
  H  H55  1  0.909700  0.819400  0.695100  1.0  0.0969
  H  H56  1  0.922400  0.719900  0.629300  1.0  0.0992
  H  H57  1  0.807400  0.716500  0.820800  1.0  0.0964
  H  H58  1  0.804100  0.629000  0.739100  1.0  0.086
  H  H59  1  0.235700  0.444000  0.231800  1.0  0.1031
  H  H60  1  0.071200  0.399700  0.328200  1.0  0.1175
  H  H61  1  0.002700  0.176300  0.138900  1.0  0.1187
  H  H62  1  0.168200  0.213300  0.045300  1.0  0.1183
  H  H63  1  0.909700  0.180600  0.304900  1.0  0.097
  H  H64  1  0.922400  0.280100  0.370700  1.0  0.1
  H  H65  1  0.807400  0.283500  0.179200  1.0  0.0972
  H  H66  1  0.804100  0.371000  0.260900  1.0  0.0854
  C  C67  1  0.170000  0.934700  0.640000  1.0  0.685
  C  C68  1  0.279600  0.870700  0.666800  1.0  -0.085
  C  C69  1  0.310100  0.787200  0.611900  1.0  -0.0672
  C  C70  1  0.409100  0.729400  0.638100  1.0  0.0256
  C  C71  1  0.448400  0.840900  0.770200  1.0  0.0642
  C  C72  1  0.350500  0.897700  0.747500  1.0  -0.1012
  C  C73  1  0.584000  0.698500  0.745700  1.0  0.0116
  C  C74  1  0.694500  0.748200  0.702400  1.0  -0.1326
  C  C75  1  0.170000  0.065300  0.360000  1.0  0.686
  C  C76  1  0.279600  0.129300  0.333200  1.0  -0.0865
  C  C77  1  0.310100  0.212800  0.388100  1.0  -0.0663
  C  C78  1  0.409100  0.270600  0.361900  1.0  0.0269
  C  C79  1  0.448400  0.159100  0.229800  1.0  0.0623
  C  C80  1  0.350500  0.102300  0.252500  1.0  -0.1008
  C  C81  1  0.584000  0.301500  0.254300  1.0  0.0119
  C  C82  1  0.694500  0.251800  0.297600  1.0  -0.1322
  C  C83  1  0.670000  0.360000  0.934700  1.0  0.6845
  C  C84  1  0.779600  0.333200  0.870700  1.0  -0.0853
  C  C85  1  0.810100  0.388100  0.787200  1.0  -0.0656
  C  C86  1  0.909100  0.361900  0.729400  1.0  0.0269
  C  C87  1  0.948400  0.229800  0.840900  1.0  0.0629
  C  C88  1  0.850500  0.252500  0.897700  1.0  -0.0992
  C  C89  1  0.084000  0.254300  0.698500  1.0  0.0101
  C  C90  1  0.194500  0.297600  0.748200  1.0  -0.1325
  C  C91  1  0.670000  0.640000  0.065300  1.0  0.6853
  C  C92  1  0.779600  0.666800  0.129300  1.0  -0.0864
  C  C93  1  0.810100  0.611900  0.212800  1.0  -0.0661
  C  C94  1  0.909100  0.638100  0.270600  1.0  0.0278
  C  C95  1  0.948400  0.770200  0.159100  1.0  0.0621
  C  C96  1  0.850500  0.747500  0.102300  1.0  -0.0998
  C  C97  1  0.084000  0.745700  0.301500  1.0  0.0107
  C  C98  1  0.194500  0.702400  0.251800  1.0  -0.1321
  C  C99  1  0.830000  0.065300  0.640000  1.0  0.6864
  C  C100  1  0.720400  0.129300  0.666800  1.0  -0.0858
  C  C101  1  0.689900  0.212800  0.611900  1.0  -0.0687
  C  C102  1  0.590900  0.270600  0.638100  1.0  0.0252
  C  C103  1  0.551600  0.159100  0.770200  1.0  0.0624
  C  C104  1  0.649500  0.102300  0.747500  1.0  -0.1003
  C  C105  1  0.416000  0.301500  0.745700  1.0  0.0115
  C  C106  1  0.305500  0.251800  0.702400  1.0  -0.1326
  C  C107  1  0.830000  0.934700  0.360000  1.0  0.6862
  C  C108  1  0.720400  0.870700  0.333200  1.0  -0.0853
  C  C109  1  0.689900  0.787200  0.388100  1.0  -0.0673
  C  C110  1  0.590900  0.729400  0.361900  1.0  0.0252
  C  C111  1  0.551600  0.840900  0.229800  1.0  0.063
  C  C112  1  0.649500  0.897700  0.252500  1.0  -0.1014
  C  C113  1  0.416000  0.698500  0.254300  1.0  0.0102
  C  C114  1  0.305500  0.748200  0.297600  1.0  -0.1331
  C  C115  1  0.330000  0.640000  0.934700  1.0  0.6857
  C  C116  1  0.220400  0.666800  0.870700  1.0  -0.0865
  C  C117  1  0.189900  0.611900  0.787200  1.0  -0.0665
  C  C118  1  0.090900  0.638100  0.729400  1.0  0.0268
  C  C119  1  0.051600  0.770200  0.840900  1.0  0.0615
  C  C120  1  0.149500  0.747500  0.897700  1.0  -0.0988
  C  C121  1  0.916000  0.745700  0.698500  1.0  0.0104
  C  C122  1  0.805500  0.702400  0.748200  1.0  -0.1329
  C  C123  1  0.330000  0.360000  0.065300  1.0  0.6859
  C  C124  1  0.220400  0.333200  0.129300  1.0  -0.0856
  C  C125  1  0.189900  0.388100  0.212800  1.0  -0.0675
  C  C126  1  0.090900  0.361900  0.270600  1.0  0.026
  C  C127  1  0.051600  0.229800  0.159100  1.0  0.0619
  C  C128  1  0.149500  0.252500  0.102300  1.0  -0.1
  C  C129  1  0.916000  0.254300  0.301500  1.0  0.0106
  C  C130  1  0.805500  0.297600  0.251800  1.0  -0.1318
  N  N131  1  0.475600  0.756900  0.717300  1.0  0.0386
  N  N132  1  0.475600  0.243100  0.282700  1.0  0.038
  N  N133  1  0.975600  0.282700  0.756900  1.0  0.0388
  N  N134  1  0.975600  0.717300  0.243100  1.0  0.0385
  N  N135  1  0.524400  0.243100  0.717300  1.0  0.0385
  N  N136  1  0.524400  0.756900  0.282700  1.0  0.0378
  N  N137  1  0.024400  0.717300  0.756900  1.0  0.0382
  N  N138  1  0.024400  0.282700  0.243100  1.0  0.0387
  Cl  Cl139  1  0.000000  0.500000  0.000000  1.0  1.5611
  Cl  Cl140  1  0.500000  0.000000  0.500000  1.0  1.5611
  Cl  Cl141  1  0.750000  0.500000  0.500000  1.0  1.5788
  Cl  Cl142  1  0.250000  0.500000  0.500000  1.0  1.5788
  O  O143  1  0.113000  0.904400  0.563400  1.0  -0.5829
  O  O144  1  0.146000  0.008100  0.695400  1.0  -0.5691
  O  O145  1  0.113000  0.095600  0.436600  1.0  -0.583
  O  O146  1  0.146000  0.991900  0.304600  1.0  -0.5705
  O  O147  1  0.613000  0.436600  0.904400  1.0  -0.582
  O  O148  1  0.646000  0.304600  0.008100  1.0  -0.5694
  O  O149  1  0.613000  0.563400  0.095600  1.0  -0.5817
  O  O150  1  0.646000  0.695400  0.991900  1.0  -0.5689
  O  O151  1  0.887000  0.095600  0.563400  1.0  -0.5827
  O  O152  1  0.854000  0.991900  0.695400  1.0  -0.5689
  O  O153  1  0.887000  0.904400  0.436600  1.0  -0.5824
  O  O154  1  0.854000  0.008100  0.304600  1.0  -0.569
  O  O155  1  0.387000  0.563400  0.904400  1.0  -0.581
  O  O156  1  0.354000  0.695400  0.008100  1.0  -0.5679
  O  O157  1  0.387000  0.436600  0.095600  1.0  -0.5818
  O  O158  1  0.354000  0.304600  0.991900  1.0  -0.5688
  O  O159  1  0.072300  0.562700  0.063400  1.0  -0.5847
  O  O160  1  0.072300  0.437300  0.936600  1.0  -0.5855
  O  O161  1  0.927700  0.437300  0.063400  1.0  -0.5847
  O  O162  1  0.927700  0.562700  0.936600  1.0  -0.5844
  O  O163  1  0.572300  0.936600  0.562700  1.0  -0.5849
  O  O164  1  0.572300  0.063400  0.437300  1.0  -0.5847
  O  O165  1  0.427700  0.063400  0.562700  1.0  -0.5848
  O  O166  1  0.427700  0.936600  0.437300  1.0  -0.5842
  O  O167  1  0.821100  0.588600  0.502100  1.0  -0.5698
  O  O168  1  0.821100  0.411400  0.497900  1.0  -0.5708
  O  O169  1  0.678900  0.502100  0.588600  1.0  -0.5723
  O  O170  1  0.678900  0.497900  0.411400  1.0  -0.5715
  O  O171  1  0.321100  0.497900  0.588600  1.0  -0.5733
  O  O172  1  0.321100  0.502100  0.411400  1.0  -0.5724
  O  O173  1  0.178900  0.411400  0.502100  1.0  -0.5698
  O  O174  1  0.178900  0.588600  0.497900  1.0  -0.5707
