# generated using pymatgen
data_CdH32C32(NO2)4
_symmetry_space_group_name_H-M   'P 1'
_cell_length_a   12.77320000
_cell_length_b   12.77320000
_cell_length_c   11.64500000
_cell_angle_alpha   90.00000000
_cell_angle_beta   90.00000000
_cell_angle_gamma   90.00000000
_symmetry_Int_Tables_number   1
_chemical_formula_structural   CdH32C32(NO2)4
_chemical_formula_sum   'Cd2 H64 C64 N8 O16'
_cell_volume   1899.93576230
_cell_formula_units_Z   2
loop_
 _symmetry_equiv_pos_site_id
 _symmetry_equiv_pos_as_xyz
  1  'x, y, z'
loop_
 _atom_site_type_symbol
 _atom_site_label
 _atom_site_symmetry_multiplicity
 _atom_site_fract_x
 _atom_site_fract_y
 _atom_site_fract_z
 _atom_site_occupancy
 _atom_site_charge
  Cd  Cd1  1  0.500000  0.500000  0.500000  1.0  0.9225
  Cd  Cd2  1  0.000000  0.000000  0.000000  1.0  0.9225
  H  H3  1  0.250100  0.578900  0.205800  1.0  0.0997
  H  H4  1  0.179700  0.651500  0.041300  1.0  0.1011
  H  H5  1  0.417400  0.846000  0.015000  1.0  0.1089
  H  H6  1  0.488700  0.781100  0.182900  1.0  0.1011
  H  H7  1  0.261900  0.875800  0.905500  1.0  0.0721
  H  H8  1  0.171500  0.792500  0.908600  1.0  0.0702
  H  H9  1  0.278600  0.673200  0.808300  1.0  0.0625
  H  H10  1  0.368900  0.756700  0.805000  1.0  0.0585
  H  H11  1  0.749900  0.421100  0.205800  1.0  0.0998
  H  H12  1  0.820300  0.348500  0.041300  1.0  0.1015
  H  H13  1  0.582600  0.154000  0.015000  1.0  0.108
  H  H14  1  0.511300  0.218900  0.182900  1.0  0.1016
  H  H15  1  0.738100  0.124200  0.905500  1.0  0.0722
  H  H16  1  0.828500  0.207500  0.908600  1.0  0.07
  H  H17  1  0.721400  0.326800  0.808300  1.0  0.062
  H  H18  1  0.631100  0.243300  0.805000  1.0  0.0585
  H  H19  1  0.578900  0.749900  0.794200  1.0  0.0998
  H  H20  1  0.651500  0.820300  0.958700  1.0  0.1006
  H  H21  1  0.846000  0.582600  0.985000  1.0  0.1096
  H  H22  1  0.781100  0.511300  0.817100  1.0  0.1014
  H  H23  1  0.875800  0.738100  0.094500  1.0  0.0678
  H  H24  1  0.792500  0.828500  0.091400  1.0  0.0746
  H  H25  1  0.673200  0.721400  0.191700  1.0  0.0597
  H  H26  1  0.756700  0.631100  0.195000  1.0  0.0595
  H  H27  1  0.421100  0.250100  0.794200  1.0  0.0998
  H  H28  1  0.348500  0.179700  0.958700  1.0  0.1
  H  H29  1  0.154000  0.417400  0.985000  1.0  0.1099
  H  H30  1  0.218900  0.488700  0.817100  1.0  0.1015
  H  H31  1  0.124200  0.261900  0.094500  1.0  0.07
  H  H32  1  0.207500  0.171500  0.091400  1.0  0.0741
  H  H33  1  0.326800  0.278600  0.191700  1.0  0.0619
  H  H34  1  0.243300  0.368900  0.195000  1.0  0.0582
  H  H35  1  0.750100  0.921100  0.705800  1.0  0.0997
  H  H36  1  0.679700  0.848500  0.541300  1.0  0.1014
  H  H37  1  0.917400  0.654000  0.515000  1.0  0.1083
  H  H38  1  0.988700  0.718900  0.682900  1.0  0.1017
  H  H39  1  0.761900  0.624200  0.405500  1.0  0.0727
  H  H40  1  0.671500  0.707500  0.408600  1.0  0.0701
  H  H41  1  0.778600  0.826800  0.308300  1.0  0.0623
  H  H42  1  0.868900  0.743300  0.305000  1.0  0.0587
  H  H43  1  0.249900  0.078900  0.705800  1.0  0.1
  H  H44  1  0.320300  0.151500  0.541300  1.0  0.1009
  H  H45  1  0.082600  0.346000  0.515000  1.0  0.1093
  H  H46  1  0.011300  0.281100  0.682900  1.0  0.101
  H  H47  1  0.238100  0.375800  0.405500  1.0  0.0722
  H  H48  1  0.328500  0.292500  0.408600  1.0  0.07
  H  H49  1  0.221400  0.173200  0.308300  1.0  0.062
  H  H50  1  0.131100  0.256700  0.305000  1.0  0.0581
  H  H51  1  0.078900  0.750100  0.294200  1.0  0.0998
  H  H52  1  0.151500  0.679700  0.458700  1.0  0.1002
  H  H53  1  0.346000  0.917400  0.485000  1.0  0.1099
  H  H54  1  0.281100  0.988700  0.317100  1.0  0.1014
  H  H55  1  0.375800  0.761900  0.594500  1.0  0.0677
  H  H56  1  0.292500  0.671500  0.591400  1.0  0.0741
  H  H57  1  0.173200  0.778600  0.691700  1.0  0.0596
  H  H58  1  0.256700  0.868900  0.695000  1.0  0.0584
  H  H59  1  0.921100  0.249900  0.294200  1.0  0.0998
  H  H60  1  0.848500  0.320300  0.458700  1.0  0.1003
  H  H61  1  0.654000  0.082600  0.485000  1.0  0.1098
  H  H62  1  0.718900  0.011300  0.317100  1.0  0.1012
  H  H63  1  0.624200  0.238100  0.594500  1.0  0.0698
  H  H64  1  0.707500  0.328500  0.591400  1.0  0.0747
  H  H65  1  0.826800  0.221400  0.691700  1.0  0.0622
  H  H66  1  0.743300  0.131100  0.695000  1.0  0.0592
  C  C67  1  0.421100  0.633800  0.325900  1.0  0.7023
  C  C68  1  0.375800  0.674600  0.213300  1.0  -0.1626
  C  C69  1  0.283700  0.634300  0.169300  1.0  -0.102
  C  C70  1  0.242200  0.677400  0.070700  1.0  0.0248
  C  C71  1  0.382800  0.793600  0.055400  1.0  -0.0101
  C  C72  1  0.426000  0.754100  0.155100  1.0  -0.056
  C  C73  1  0.246900  0.801400  0.908870  1.0  0.0102
  C  C74  1  0.293500  0.747600  0.804900  1.0  -0.1384
  C  C75  1  0.578900  0.366200  0.325900  1.0  0.7025
  C  C76  1  0.624200  0.325400  0.213300  1.0  -0.1615
  C  C77  1  0.716300  0.365700  0.169300  1.0  -0.1027
  C  C78  1  0.757800  0.322600  0.070700  1.0  0.0264
  C  C79  1  0.617200  0.206400  0.055400  1.0  -0.0097
  C  C80  1  0.574000  0.245900  0.155100  1.0  -0.0535
  C  C81  1  0.753100  0.198600  0.908870  1.0  0.0096
  C  C82  1  0.706500  0.252400  0.804900  1.0  -0.1384
  C  C83  1  0.633800  0.578900  0.674100  1.0  0.7024
  C  C84  1  0.674600  0.624200  0.786700  1.0  -0.1631
  C  C85  1  0.634300  0.716300  0.830700  1.0  -0.1061
  C  C86  1  0.677400  0.757800  0.929300  1.0  0.0278
  C  C87  1  0.793600  0.617200  0.944600  1.0  -0.009
  C  C88  1  0.754100  0.574000  0.844900  1.0  -0.0559
  C  C89  1  0.801400  0.753100  0.091130  1.0  0.0119
  C  C90  1  0.747600  0.706500  0.195100  1.0  -0.1369
  C  C91  1  0.366200  0.421100  0.674100  1.0  0.702
  C  C92  1  0.325400  0.375800  0.786700  1.0  -0.1609
  C  C93  1  0.365700  0.283700  0.830700  1.0  -0.1075
  C  C94  1  0.322600  0.242200  0.929300  1.0  0.0261
  C  C95  1  0.206400  0.382800  0.944600  1.0  -0.0099
  C  C96  1  0.245900  0.426000  0.844900  1.0  -0.0549
  C  C97  1  0.198600  0.246900  0.091130  1.0  0.0116
  C  C98  1  0.252400  0.293500  0.195100  1.0  -0.1371
  C  C99  1  0.921100  0.866200  0.825900  1.0  0.7021
  C  C100  1  0.875800  0.825400  0.713300  1.0  -0.1618
  C  C101  1  0.783700  0.865700  0.669300  1.0  -0.1028
  C  C102  1  0.742200  0.822600  0.570700  1.0  0.0263
  C  C103  1  0.882800  0.706400  0.555400  1.0  -0.0098
  C  C104  1  0.926000  0.745900  0.655100  1.0  -0.0555
  C  C105  1  0.746900  0.698600  0.408870  1.0  0.0102
  C  C106  1  0.793500  0.752400  0.304900  1.0  -0.1378
  C  C107  1  0.078900  0.133800  0.825900  1.0  0.7026
  C  C108  1  0.124200  0.174600  0.713300  1.0  -0.1626
  C  C109  1  0.216300  0.134300  0.669300  1.0  -0.1032
  C  C110  1  0.257800  0.177400  0.570700  1.0  0.0236
  C  C111  1  0.117200  0.293600  0.555400  1.0  -0.0098
  C  C112  1  0.074000  0.254100  0.655100  1.0  -0.0539
  C  C113  1  0.253100  0.301400  0.408870  1.0  0.0098
  C  C114  1  0.206500  0.247600  0.304900  1.0  -0.1381
  C  C115  1  0.133800  0.921100  0.174100  1.0  0.7026
  C  C116  1  0.174600  0.875800  0.286700  1.0  -0.1622
  C  C117  1  0.134300  0.783700  0.330700  1.0  -0.1063
  C  C118  1  0.177400  0.742200  0.429300  1.0  0.027
  C  C119  1  0.293600  0.882800  0.444600  1.0  -0.0082
  C  C120  1  0.254100  0.926000  0.344900  1.0  -0.0562
  C  C121  1  0.301400  0.746900  0.591130  1.0  0.0113
  C  C122  1  0.247600  0.793500  0.695100  1.0  -0.1358
  C  C123  1  0.866200  0.078900  0.174100  1.0  0.7019
  C  C124  1  0.825400  0.124200  0.286700  1.0  -0.1615
  C  C125  1  0.865700  0.216300  0.330700  1.0  -0.1072
  C  C126  1  0.822600  0.257800  0.429300  1.0  0.0269
  C  C127  1  0.706400  0.117200  0.444600  1.0  -0.0097
  C  C128  1  0.745900  0.074000  0.344900  1.0  -0.0543
  C  C129  1  0.698600  0.253100  0.591130  1.0  0.012
  C  C130  1  0.752400  0.206500  0.695100  1.0  -0.1367
  N  N131  1  0.291190  0.756600  0.016590  1.0  0.0424
  N  N132  1  0.708810  0.243400  0.016590  1.0  0.0427
  N  N133  1  0.756600  0.708810  0.983410  1.0  0.0431
  N  N134  1  0.243400  0.291190  0.983410  1.0  0.0426
  N  N135  1  0.791190  0.743400  0.516590  1.0  0.0423
  N  N136  1  0.208810  0.256600  0.516590  1.0  0.0428
  N  N137  1  0.256600  0.791190  0.483410  1.0  0.0425
  N  N138  1  0.743400  0.208810  0.483410  1.0  0.0432
  O  O139  1  0.386580  0.548800  0.362020  1.0  -0.5906
  O  O140  1  0.488000  0.688400  0.375500  1.0  -0.6262
  O  O141  1  0.613420  0.451200  0.362020  1.0  -0.5915
  O  O142  1  0.512000  0.311600  0.375500  1.0  -0.6258
  O  O143  1  0.548800  0.613420  0.637980  1.0  -0.5922
  O  O144  1  0.688400  0.512000  0.624500  1.0  -0.6272
  O  O145  1  0.451200  0.386580  0.637980  1.0  -0.593
  O  O146  1  0.311600  0.488000  0.624500  1.0  -0.6267
  O  O147  1  0.886580  0.951200  0.862020  1.0  -0.5899
  O  O148  1  0.988000  0.811600  0.875500  1.0  -0.6264
  O  O149  1  0.113420  0.048800  0.862020  1.0  -0.5908
  O  O150  1  0.012000  0.188400  0.875500  1.0  -0.6259
  O  O151  1  0.048800  0.886580  0.137980  1.0  -0.5908
  O  O152  1  0.188400  0.988000  0.124500  1.0  -0.6265
  O  O153  1  0.951200  0.113420  0.137980  1.0  -0.5933
  O  O154  1  0.811600  0.012000  0.124500  1.0  -0.6271
