# generated using pymatgen
data_ZnH12C19NO4
_symmetry_space_group_name_H-M   'P 1'
_cell_length_a   14.07100000
_cell_length_b   15.26500000
_cell_length_c   15.35100000
_cell_angle_alpha   88.33700000
_cell_angle_beta   85.77900000
_cell_angle_gamma   85.20500000
_symmetry_Int_Tables_number   1
_chemical_formula_structural   ZnH12C19NO4
_chemical_formula_sum   'Zn4 H48 C76 N4 O16'
_cell_volume   3275.97976007
_cell_formula_units_Z   4
loop_
 _symmetry_equiv_pos_site_id
 _symmetry_equiv_pos_as_xyz
  1  'x, y, z'
loop_
 _atom_site_type_symbol
 _atom_site_label
 _atom_site_symmetry_multiplicity
 _atom_site_fract_x
 _atom_site_fract_y
 _atom_site_fract_z
 _atom_site_occupancy
 _atom_site_charge
  Zn  Zn1  1  0.894970  0.835290  0.600480  1.0  0.9273
  Zn  Zn2  1  0.686210  0.851010  0.614090  1.0  0.9225
  Zn  Zn3  1  0.105030  0.164710  0.399520  1.0  0.9282
  Zn  Zn4  1  0.313790  0.148990  0.385910  1.0  0.9233
  H  H5  1  0.914900  0.769500  0.881800  1.0  0.0997
  H  H6  1  0.912900  0.756600  0.030700  1.0  0.1054
  H  H7  1  0.655100  0.878100  0.050500  1.0  0.1027
  H  H8  1  0.648100  0.824300  0.188400  1.0  0.1098
  H  H9  1  0.649100  0.878700  0.902800  1.0  0.1055
  H  H10  1  0.651200  0.834600  0.336300  1.0  0.1042
  H  H11  1  0.935700  0.834500  0.308300  1.0  0.0919
  H  H12  1  0.932900  0.823500  0.160000  1.0  0.1132
  H  H13  1  0.926700  0.112600  0.614900  1.0  0.1036
  H  H14  1  0.639600  0.141700  0.616700  1.0  0.1081
  H  H15  1  0.645400  0.291400  0.615600  1.0  0.1094
  H  H16  1  0.931400  0.261600  0.614100  1.0  0.1088
  H  H17  1  0.920500  0.397400  0.545800  1.0  0.0991
  H  H18  1  0.928000  0.544900  0.545100  1.0  0.094
  H  H19  1  0.042500  0.968600  0.604700  1.0  0.0851
  H  H20  1  0.068700  0.712500  0.614200  1.0  0.0879
  H  H21  1  0.230100  0.711900  0.620100  1.0  0.1187
  H  H22  1  0.201000  0.975600  0.601400  1.0  0.1056
  H  H23  1  0.375300  0.724300  0.668400  1.0  0.1084
  H  H24  1  0.353800  0.968000  0.559000  1.0  0.1002
  H  H25  1  0.535600  0.719300  0.649100  1.0  0.1196
  H  H26  1  0.513500  0.973100  0.564800  1.0  0.0966
  H  H27  1  0.670200  0.571900  0.674000  1.0  0.1068
  H  H28  1  0.664200  0.422100  0.676300  1.0  0.1093
  H  H29  1  0.085100  0.230500  0.118200  1.0  0.0992
  H  H30  1  0.087100  0.243400  0.969300  1.0  0.1058
  H  H31  1  0.344900  0.121900  0.949500  1.0  0.1027
  H  H32  1  0.351900  0.175700  0.811600  1.0  0.1105
  H  H33  1  0.350900  0.121300  0.097200  1.0  0.1054
  H  H34  1  0.348800  0.165400  0.663700  1.0  0.1046
  H  H35  1  0.064300  0.165500  0.691700  1.0  0.0922
  H  H36  1  0.067100  0.176500  0.840000  1.0  0.1133
  H  H37  1  0.073300  0.887400  0.385100  1.0  0.1031
  H  H38  1  0.360400  0.858300  0.383300  1.0  0.1084
  H  H39  1  0.354600  0.708600  0.384400  1.0  0.1098
  H  H40  1  0.068600  0.738400  0.385900  1.0  0.1076
  H  H41  1  0.079500  0.602600  0.454200  1.0  0.0988
  H  H42  1  0.072000  0.455100  0.454900  1.0  0.094
  H  H43  1  0.957500  0.031400  0.395300  1.0  0.0852
  H  H44  1  0.931300  0.287500  0.385800  1.0  0.0886
  H  H45  1  0.769900  0.288100  0.379900  1.0  0.1197
  H  H46  1  0.799000  0.024400  0.398600  1.0  0.1059
  H  H47  1  0.624700  0.275700  0.331600  1.0  0.1089
  H  H48  1  0.646200  0.032000  0.441000  1.0  0.1013
  H  H49  1  0.464400  0.280700  0.350900  1.0  0.1185
  H  H50  1  0.486500  0.026900  0.435200  1.0  0.0963
  H  H51  1  0.329800  0.428100  0.326000  1.0  0.1063
  H  H52  1  0.335800  0.577900  0.323700  1.0  0.1089
  C  C53  1  0.783700  0.832500  0.776600  1.0  0.6919
  C  C54  1  0.782500  0.825500  0.873300  1.0  -0.1313
  C  C55  1  0.860300  0.790600  0.915200  1.0  -0.042
  C  C56  1  0.860500  0.785500  0.005600  1.0  -0.1357
  C  C57  1  0.708500  0.855000  0.016800  1.0  -0.1257
  C  C58  1  0.797400  0.845200  0.438300  1.0  0.6657
  C  C59  1  0.794400  0.837700  0.339200  1.0  -0.1573
  C  C60  1  0.706700  0.826700  0.212100  1.0  -0.1359
  C  C61  1  0.704900  0.856500  0.927300  1.0  -0.0553
  C  C62  1  0.708100  0.833200  0.301300  1.0  -0.0595
  C  C63  1  0.877200  0.833100  0.284200  1.0  -0.0349
  C  C64  1  0.875700  0.826300  0.194600  1.0  -0.1359
  C  C65  1  0.789800  0.823600  0.155200  1.0  0.0408
  C  C66  1  0.786500  0.821200  0.058700  1.0  0.0595
  C  C67  1  0.779800  0.012900  0.612000  1.0  0.6714
  C  C68  1  0.783900  0.110600  0.615100  1.0  -0.1503
  C  C69  1  0.869900  0.148400  0.614800  1.0  -0.0445
  C  C70  1  0.698300  0.165800  0.615800  1.0  -0.0483
  C  C71  1  0.702200  0.255500  0.615400  1.0  -0.1404
  C  C72  1  0.872400  0.238200  0.614500  1.0  -0.1404
  C  C73  1  0.790200  0.295500  0.614600  1.0  0.0556
  C  C74  1  0.794000  0.391700  0.612300  1.0  0.0531
  C  C75  1  0.869800  0.432100  0.572600  1.0  -0.1301
  C  C76  1  0.873800  0.520900  0.570900  1.0  -0.0401
  C  C77  1  0.800100  0.575400  0.606100  1.0  -0.1299
  C  C78  1  0.081500  0.916300  0.605400  1.0  0.1687
  C  C79  1  0.096000  0.766000  0.612200  1.0  0.1729
  C  C80  1  0.193400  0.765100  0.615100  1.0  -0.1976
  C  C81  1  0.238000  0.844600  0.610400  1.0  0.0914
  C  C82  1  0.176100  0.921000  0.605100  1.0  -0.1725
  C  C83  1  0.342200  0.845900  0.611300  1.0  0.0816
  C  C84  1  0.403700  0.772500  0.642900  1.0  -0.1485
  C  C85  1  0.389500  0.919400  0.581200  1.0  -0.1399
  C  C86  1  0.498300  0.770900  0.637100  1.0  0.134
  C  C87  1  0.485200  0.922200  0.583200  1.0  0.1551
  C  C88  1  0.802400  0.673200  0.603600  1.0  0.691
  C  C89  1  0.720700  0.536500  0.647800  1.0  -0.0486
  C  C90  1  0.717600  0.446800  0.649800  1.0  -0.1398
  C  C91  1  0.216300  0.167500  0.223400  1.0  0.6919
  C  C92  1  0.217500  0.174500  0.126700  1.0  -0.1308
  C  C93  1  0.139700  0.209400  0.084800  1.0  -0.04
  C  C94  1  0.139500  0.214500  0.994400  1.0  -0.1382
  C  C95  1  0.291500  0.145000  0.983200  1.0  -0.1268
  C  C96  1  0.202600  0.154800  0.561700  1.0  0.6661
  C  C97  1  0.205600  0.162300  0.660800  1.0  -0.155
  C  C98  1  0.293300  0.173300  0.787900  1.0  -0.1353
  C  C99  1  0.295100  0.143500  0.072700  1.0  -0.0546
  C  C100  1  0.291900  0.166800  0.698700  1.0  -0.062
  C  C101  1  0.122800  0.166900  0.715800  1.0  -0.0349
  C  C102  1  0.124300  0.173700  0.805400  1.0  -0.1362
  C  C103  1  0.210200  0.176400  0.844800  1.0  0.0414
  C  C104  1  0.213500  0.178800  0.941300  1.0  0.0589
  C  C105  1  0.220200  0.987100  0.388000  1.0  0.6707
  C  C106  1  0.216100  0.889400  0.384900  1.0  -0.1503
  C  C107  1  0.130100  0.851600  0.385200  1.0  -0.0401
  C  C108  1  0.301700  0.834200  0.384200  1.0  -0.0466
  C  C109  1  0.297800  0.744500  0.384600  1.0  -0.1408
  C  C110  1  0.127600  0.761800  0.385500  1.0  -0.1402
  C  C111  1  0.209800  0.704500  0.385400  1.0  0.0543
  C  C112  1  0.206000  0.608300  0.387700  1.0  0.0516
  C  C113  1  0.130200  0.567900  0.427400  1.0  -0.1285
  C  C114  1  0.126200  0.479100  0.429100  1.0  -0.0398
  C  C115  1  0.199900  0.424600  0.393900  1.0  -0.1294
  C  C116  1  0.918500  0.083700  0.394600  1.0  0.1704
  C  C117  1  0.904000  0.234000  0.387800  1.0  0.1737
  C  C118  1  0.806600  0.234900  0.384900  1.0  -0.1949
  C  C119  1  0.762000  0.155400  0.389600  1.0  0.0896
  C  C120  1  0.823900  0.079000  0.394900  1.0  -0.1729
  C  C121  1  0.657800  0.154100  0.388700  1.0  0.0813
  C  C122  1  0.596300  0.227500  0.357100  1.0  -0.1491
  C  C123  1  0.610500  0.080600  0.418800  1.0  -0.1331
  C  C124  1  0.501700  0.229100  0.362900  1.0  0.1327
  C  C125  1  0.514800  0.077800  0.416800  1.0  0.1557
  C  C126  1  0.197600  0.326800  0.396400  1.0  0.6923
  C  C127  1  0.279300  0.463500  0.352200  1.0  -0.0484
  C  C128  1  0.282400  0.553200  0.350200  1.0  -0.1386
  N  N129  1  0.039200  0.839200  0.606700  1.0  -0.314
  N  N130  1  0.541400  0.850000  0.612200  1.0  -0.3192
  N  N131  1  0.960800  0.160800  0.393300  1.0  -0.3175
  N  N132  1  0.458600  0.150000  0.387800  1.0  -0.3184
  O  O133  1  0.698600  0.982800  0.607700  1.0  -0.5874
  O  O134  1  0.858200  0.966700  0.613100  1.0  -0.5988
  O  O135  1  0.861300  0.815700  0.732600  1.0  -0.6099
  O  O136  1  0.703400  0.852500  0.744700  1.0  -0.5914
  O  O137  1  0.723200  0.718100  0.617900  1.0  -0.6184
  O  O138  1  0.882000  0.704600  0.587200  1.0  -0.5927
  O  O139  1  0.717900  0.847400  0.481400  1.0  -0.6037
  O  O140  1  0.877800  0.848700  0.467000  1.0  -0.5667
  O  O141  1  0.301400  0.017200  0.392300  1.0  -0.5881
  O  O142  1  0.141800  0.033300  0.386900  1.0  -0.5988
  O  O143  1  0.138700  0.184300  0.267400  1.0  -0.6082
  O  O144  1  0.296600  0.147500  0.255300  1.0  -0.5904
  O  O145  1  0.276800  0.281900  0.382100  1.0  -0.6163
  O  O146  1  0.118000  0.295400  0.412800  1.0  -0.5934
  O  O147  1  0.282100  0.152600  0.518600  1.0  -0.603
  O  O148  1  0.122200  0.151300  0.533000  1.0  -0.5664
