# generated using pymatgen
data_ZnH10C17N3O4
_symmetry_space_group_name_H-M   'P 1'
_cell_length_a   14.02000000
_cell_length_b   15.08200000
_cell_length_c   15.12100000
_cell_angle_alpha   76.89200000
_cell_angle_beta   86.55000000
_cell_angle_gamma   83.44600000
_symmetry_Int_Tables_number   1
_chemical_formula_structural   ZnH10C17N3O4
_chemical_formula_sum   'Zn4 H40 C68 N12 O16'
_cell_volume   3091.72683272
_cell_formula_units_Z   4
loop_
 _symmetry_equiv_pos_site_id
 _symmetry_equiv_pos_as_xyz
  1  'x, y, z'
loop_
 _atom_site_type_symbol
 _atom_site_label
 _atom_site_symmetry_multiplicity
 _atom_site_fract_x
 _atom_site_fract_y
 _atom_site_fract_z
 _atom_site_occupancy
 _atom_site_charge
  Zn  Zn1  1  0.898060  0.109850  0.829180  1.0  0.9142
  Zn  Zn2  1  0.687810  0.130160  0.835560  1.0  0.9298
  Zn  Zn3  1  0.101940  0.890150  0.170820  1.0  0.9138
  Zn  Zn4  1  0.312190  0.869840  0.164440  1.0  0.9298
  H  H5  1  0.210400  0.117200  0.966400  1.0  0.1156
  H  H6  1  0.231200  0.124100  0.696800  1.0  0.1319
  H  H7  1  0.359100  0.063800  0.966700  1.0  0.125
  H  H8  1  0.932300  0.102300  0.111700  1.0  0.094
  H  H9  1  0.935500  0.110200  0.260300  1.0  0.1197
  H  H10  1  0.642700  0.125800  0.127200  1.0  0.096
  H  H11  1  0.049200  0.105100  0.963000  1.0  0.0944
  H  H12  1  0.066700  0.122500  0.699300  1.0  0.1008
  H  H13  1  0.657700  0.168300  0.544600  1.0  0.0964
  H  H14  1  0.939300  0.080900  0.544900  1.0  0.1046
  H  H15  1  0.643900  0.430500  0.819000  1.0  0.1096
  H  H16  1  0.932800  0.071900  0.396500  1.0  0.1156
  H  H17  1  0.655400  0.578400  0.827400  1.0  0.1115
  H  H18  1  0.941800  0.811800  0.844000  1.0  0.085
  H  H19  1  0.654300  0.702700  0.824100  1.0  0.1183
  H  H20  1  0.657000  0.849500  0.840600  1.0  0.1005
  H  H21  1  0.525400  0.066700  0.965500  1.0  0.0914
  H  H22  1  0.930200  0.400300  0.784800  1.0  0.0845
  H  H23  1  0.364400  0.187800  0.701500  1.0  0.1273
  H  H24  1  0.530200  0.191100  0.706400  1.0  0.1012
  H  H25  1  0.789600  0.882800  0.033600  1.0  0.1182
  H  H26  1  0.768800  0.875900  0.303200  1.0  0.1319
  H  H27  1  0.640900  0.936200  0.033300  1.0  0.1233
  H  H28  1  0.067700  0.897700  0.888300  1.0  0.0944
  H  H29  1  0.064500  0.889800  0.739700  1.0  0.1182
  H  H30  1  0.357300  0.874200  0.872800  1.0  0.0959
  H  H31  1  0.950800  0.894900  0.037000  1.0  0.0941
  H  H32  1  0.933300  0.877500  0.300700  1.0  0.0999
  H  H33  1  0.342300  0.831700  0.455400  1.0  0.0946
  H  H34  1  0.060700  0.919100  0.455100  1.0  0.1048
  H  H35  1  0.356100  0.569500  0.181000  1.0  0.1096
  H  H36  1  0.067200  0.928100  0.603500  1.0  0.1157
  H  H37  1  0.344600  0.421600  0.172600  1.0  0.1117
  H  H38  1  0.058200  0.188200  0.156000  1.0  0.085
  H  H39  1  0.345700  0.297300  0.175900  1.0  0.1193
  H  H40  1  0.343000  0.150500  0.159400  1.0  0.101
  H  H41  1  0.474600  0.933300  0.034500  1.0  0.0903
  H  H42  1  0.069800  0.599700  0.215200  1.0  0.0845
  H  H43  1  0.635600  0.812200  0.298500  1.0  0.1291
  H  H44  1  0.469800  0.808900  0.293600  1.0  0.1013
  C  C45  1  0.345200  0.123100  0.832300  1.0  0.0882
  C  C46  1  0.240800  0.119700  0.832500  1.0  0.0979
  C  C47  1  0.183000  0.116000  0.910800  1.0  -0.1833
  C  C48  1  0.786100  0.112300  0.004200  1.0  0.6833
  C  C49  1  0.799700  0.126000  0.660800  1.0  0.702
  C  C50  1  0.195000  0.121500  0.752300  1.0  -0.2082
  C  C51  1  0.393100  0.088900  0.912100  1.0  -0.1998
  C  C52  1  0.780800  0.294800  0.810000  1.0  0.7163
  C  C53  1  0.788000  0.113200  0.102800  1.0  -0.21
  C  C54  1  0.873400  0.108200  0.145400  1.0  0.0351
  C  C55  1  0.875700  0.111500  0.233400  1.0  -0.1824
  C  C56  1  0.800500  0.849000  0.841600  1.0  -0.2155
  C  C57  1  0.702700  0.120500  0.155100  1.0  0.1957
  C  C58  1  0.793700  0.119800  0.381500  1.0  0.216
  C  C59  1  0.785600  0.393000  0.807800  1.0  -0.2089
  C  C60  1  0.086800  0.110800  0.908100  1.0  0.1734
  C  C61  1  0.097200  0.119400  0.754500  1.0  0.1599
  C  C62  1  0.791200  0.116800  0.284600  1.0  0.2064
  C  C63  1  0.714900  0.148600  0.514500  1.0  0.2127
  C  C64  1  0.799100  0.123600  0.562400  1.0  -0.2022
  C  C65  1  0.880000  0.097000  0.515100  1.0  -0.0036
  C  C66  1  0.801300  0.944000  0.850000  1.0  0.7024
  C  C67  1  0.705500  0.451700  0.816200  1.0  0.0004
  C  C68  1  0.876700  0.093300  0.427000  1.0  -0.1852
  C  C69  1  0.796800  0.669200  0.823200  1.0  0.2065
  C  C70  1  0.712300  0.539500  0.820400  1.0  -0.1424
  C  C71  1  0.881600  0.790400  0.839300  1.0  0.192
  C  C72  1  0.714300  0.725100  0.827600  1.0  -0.1819
  C  C73  1  0.716100  0.812600  0.837100  1.0  0.0045
  C  C74  1  0.796000  0.571800  0.814900  1.0  0.2188
  C  C75  1  0.492200  0.091800  0.911100  1.0  0.1462
  C  C76  1  0.871900  0.435800  0.795500  1.0  0.2227
  C  C77  1  0.396300  0.162000  0.756600  1.0  -0.1764
  C  C78  1  0.495600  0.163900  0.759800  1.0  0.145
  C  C79  1  0.654800  0.876900  0.167700  1.0  0.0887
  C  C80  1  0.759200  0.880300  0.167500  1.0  0.0994
  C  C81  1  0.817000  0.884000  0.089200  1.0  -0.1844
  C  C82  1  0.213900  0.887700  0.995800  1.0  0.6827
  C  C83  1  0.200300  0.874000  0.339200  1.0  0.7028
  C  C84  1  0.805000  0.878500  0.247700  1.0  -0.2059
  C  C85  1  0.606900  0.911100  0.087900  1.0  -0.1997
  C  C86  1  0.219200  0.705200  0.190000  1.0  0.7166
  C  C87  1  0.212000  0.886800  0.897200  1.0  -0.2078
  C  C88  1  0.126600  0.891800  0.854600  1.0  0.0349
  C  C89  1  0.124300  0.888500  0.766600  1.0  -0.1821
  C  C90  1  0.199500  0.151000  0.158400  1.0  -0.2139
  C  C91  1  0.297300  0.879500  0.844900  1.0  0.1964
  C  C92  1  0.206300  0.880200  0.618500  1.0  0.2185
  C  C93  1  0.214400  0.607000  0.192200  1.0  -0.2092
  C  C94  1  0.913200  0.889200  0.091900  1.0  0.1744
  C  C95  1  0.902800  0.880600  0.245500  1.0  0.1584
  C  C96  1  0.208800  0.883200  0.715400  1.0  0.2084
  C  C97  1  0.285100  0.851400  0.485500  1.0  0.2106
  C  C98  1  0.200900  0.876400  0.437600  1.0  -0.2009
  C  C99  1  0.120000  0.903000  0.484900  1.0  -0.0029
  C  C100  1  0.198700  0.056000  0.150000  1.0  0.6945
  C  C101  1  0.294500  0.548300  0.183800  1.0  -0.0048
  C  C102  1  0.123300  0.906700  0.573000  1.0  -0.1849
  C  C103  1  0.203200  0.330800  0.176800  1.0  0.2067
  C  C104  1  0.287700  0.460500  0.179600  1.0  -0.1419
  C  C105  1  0.118400  0.209600  0.160700  1.0  0.1932
  C  C106  1  0.285700  0.274900  0.172400  1.0  -0.1885
  C  C107  1  0.283900  0.187400  0.162900  1.0  -0.0003
  C  C108  1  0.204000  0.428200  0.185100  1.0  0.2203
  C  C109  1  0.507800  0.908200  0.088900  1.0  0.1464
  C  C110  1  0.128100  0.564200  0.204500  1.0  0.2239
  C  C111  1  0.603700  0.838000  0.243400  1.0  -0.1747
  C  C112  1  0.504400  0.836100  0.240200  1.0  0.1473
  N  N113  1  0.542600  0.128700  0.835800  1.0  -0.2915
  N  N114  1  0.043200  0.113400  0.830800  1.0  -0.3053
  N  N115  1  0.704000  0.120100  0.245200  1.0  -0.4242
  N  N116  1  0.880600  0.701500  0.830500  1.0  -0.4118
  N  N117  1  0.713000  0.145300  0.427600  1.0  -0.4182
  N  N118  1  0.875500  0.521000  0.798000  1.0  -0.4097
  N  N119  1  0.457400  0.871300  0.164200  1.0  -0.2912
  N  N120  1  0.956800  0.886600  0.169200  1.0  -0.3061
  N  N121  1  0.296000  0.879900  0.754800  1.0  -0.4252
  N  N122  1  0.119400  0.298500  0.169500  1.0  -0.4116
  N  N123  1  0.287000  0.854700  0.572400  1.0  -0.4201
  N  N124  1  0.124500  0.479000  0.202000  1.0  -0.4058
  O  O125  1  0.705900  0.113700  0.971200  1.0  -0.5843
  O  O126  1  0.865700  0.108700  0.962000  1.0  -0.5847
  O  O127  1  0.721000  0.139900  0.701200  1.0  -0.5942
  O  O128  1  0.880100  0.111600  0.696800  1.0  -0.593
  O  O129  1  0.881500  0.973400  0.853700  1.0  -0.5787
  O  O130  1  0.701500  0.264600  0.820700  1.0  -0.5782
  O  O131  1  0.861100  0.247200  0.802500  1.0  -0.6149
  O  O132  1  0.722500  0.992000  0.850300  1.0  -0.6013
  O  O133  1  0.294100  0.886300  0.028800  1.0  -0.5853
  O  O134  1  0.134300  0.891300  0.038000  1.0  -0.5842
  O  O135  1  0.279000  0.860100  0.298800  1.0  -0.5959
  O  O136  1  0.119900  0.888400  0.303200  1.0  -0.5927
  O  O137  1  0.118500  0.026600  0.146300  1.0  -0.578
  O  O138  1  0.298500  0.735400  0.179300  1.0  -0.5788
  O  O139  1  0.138900  0.752800  0.197500  1.0  -0.6158
  O  O140  1  0.277500  0.008000  0.149700  1.0  -0.601
