# generated using pymatgen
data_ZnH14C17NO4
_symmetry_space_group_name_H-M   'P 1'
_cell_length_a   19.25640000
_cell_length_b   15.21000000
_cell_length_c   15.21000000
_cell_angle_alpha   90.00000000
_cell_angle_beta   90.00000000
_cell_angle_gamma   90.00000000
_symmetry_Int_Tables_number   1
_chemical_formula_structural   ZnH14C17NO4
_chemical_formula_sum   'Zn4 H56 C68 N4 O16'
_cell_volume   4454.85452724
_cell_formula_units_Z   4
loop_
 _symmetry_equiv_pos_site_id
 _symmetry_equiv_pos_as_xyz
  1  'x, y, z'
loop_
 _atom_site_type_symbol
 _atom_site_label
 _atom_site_symmetry_multiplicity
 _atom_site_fract_x
 _atom_site_fract_y
 _atom_site_fract_z
 _atom_site_occupancy
 _atom_site_charge
  Zn  Zn1  1  0.333100  0.006300  0.993120  1.0  1.0548
  Zn  Zn2  1  0.167160  0.006280  0.993150  1.0  1.0609
  Zn  Zn3  1  0.833090  0.006310  0.993110  1.0  1.0616
  Zn  Zn4  1  0.667160  0.006290  0.993110  1.0  1.0534
  H  H5  1  0.359320  0.975070  0.719770  1.0  0.1039
  H  H6  1  0.359300  0.972800  0.559460  1.0  0.1076
  H  H7  1  0.358930  0.038940  0.266610  1.0  0.1027
  H  H8  1  0.358870  0.041070  0.426900  1.0  0.1072
  H  H9  1  0.359300  0.279600  0.024300  1.0  0.1029
  H  H10  1  0.359250  0.439880  0.026680  1.0  0.1071
  H  H11  1  0.359230  0.732860  0.961900  1.0  0.1028
  H  H12  1  0.359190  0.572590  0.959530  1.0  0.1064
  H  H13  1  0.141020  0.036610  0.719590  1.0  0.0984
  H  H14  1  0.141150  0.038870  0.559350  1.0  0.1059
  H  H15  1  0.141470  0.972860  0.266660  1.0  0.1022
  H  H16  1  0.141590  0.970550  0.426920  1.0  0.1067
  H  H17  1  0.141140  0.732730  0.024600  1.0  0.1007
  H  H18  1  0.141270  0.572520  0.027020  1.0  0.1073
  H  H19  1  0.141090  0.279680  0.962260  1.0  0.1091
  H  H20  1  0.141210  0.439930  0.959810  1.0  0.1069
  H  H21  1  0.440260  0.873170  0.035010  1.0  0.0998
  H  H22  1  0.440190  0.888200  0.918400  1.0  0.0955
  H  H23  1  0.439780  0.109810  0.087810  1.0  0.1056
  H  H24  1  0.440710  0.001250  0.132850  1.0  0.0947
  H  H25  1  0.440260  0.037270  0.856190  1.0  0.0932
  H  H26  1  0.440150  0.130590  0.927490  1.0  0.097
  H  H27  1  0.060240  0.131830  0.929820  1.0  0.0957
  H  H28  1  0.059720  0.039810  0.856870  1.0  0.0941
  H  H29  1  0.060300  0.889560  0.916290  1.0  0.0946
  H  H30  1  0.059650  0.872510  0.032630  1.0  0.0983
  H  H31  1  0.059680  0.998640  0.132780  1.0  0.0973
  H  H32  1  0.060190  0.108010  0.089750  1.0  0.1019
  H  H33  1  0.859380  0.975060  0.719730  1.0  0.1054
  H  H34  1  0.859340  0.972760  0.559410  1.0  0.1063
  H  H35  1  0.858930  0.038880  0.266550  1.0  0.1031
  H  H36  1  0.858910  0.041010  0.426840  1.0  0.1081
  H  H37  1  0.859260  0.279600  0.024240  1.0  0.1043
  H  H38  1  0.859210  0.439890  0.026590  1.0  0.1071
  H  H39  1  0.859200  0.732860  0.961790  1.0  0.1037
  H  H40  1  0.859140  0.572590  0.959430  1.0  0.107
  H  H41  1  0.641090  0.036680  0.719570  1.0  0.0974
  H  H42  1  0.641200  0.038910  0.559330  1.0  0.1072
  H  H43  1  0.641460  0.972890  0.266660  1.0  0.1033
  H  H44  1  0.641600  0.970580  0.426910  1.0  0.1081
  H  H45  1  0.641130  0.732760  0.024570  1.0  0.1019
  H  H46  1  0.641250  0.572540  0.026990  1.0  0.1071
  H  H47  1  0.641040  0.279690  0.962260  1.0  0.1078
  H  H48  1  0.641170  0.439940  0.959800  1.0  0.1068
  H  H49  1  0.940290  0.872270  0.032010  1.0  0.0986
  H  H50  1  0.940160  0.889910  0.915770  1.0  0.0969
  H  H51  1  0.939790  0.107660  0.090120  1.0  0.106
  H  H52  1  0.940670  0.998100  0.132700  1.0  0.0926
  H  H53  1  0.940260  0.040370  0.856930  1.0  0.0936
  H  H54  1  0.940170  0.132060  0.930320  1.0  0.0961
  H  H55  1  0.560270  0.130330  0.926900  1.0  0.0958
  H  H56  1  0.559670  0.036630  0.856110  1.0  0.0934
  H  H57  1  0.560290  0.887820  0.918970  1.0  0.0923
  H  H58  1  0.559680  0.873450  0.035660  1.0  0.0968
  H  H59  1  0.559720  0.001890  0.132900  1.0  0.0961
  H  H60  1  0.560180  0.110220  0.087340  1.0  0.102
  C  C61  1  0.250120  0.005890  0.833790  1.0  0.695
  C  C62  1  0.250150  0.005810  0.734020  1.0  -0.1094
  C  C63  1  0.250220  0.005810  0.543540  1.0  0.0695
  C  C64  1  0.250160  0.005960  0.152530  1.0  0.6947
  C  C65  1  0.250200  0.005870  0.252300  1.0  -0.1074
  C  C66  1  0.250230  0.005810  0.442780  1.0  0.0404
  C  C67  1  0.250170  0.165600  0.993290  1.0  0.6961
  C  C68  1  0.250190  0.265350  0.993310  1.0  -0.1072
  C  C69  1  0.250230  0.455830  0.993260  1.0  0.0525
  C  C70  1  0.250140  0.846870  0.993240  1.0  0.6894
  C  C71  1  0.250180  0.747110  0.993250  1.0  -0.1077
  C  C72  1  0.250230  0.556620  0.993260  1.0  0.0484
  C  C73  1  0.459840  0.916140  0.981260  1.0  -0.0806
  C  C74  1  0.459820  0.042030  0.077200  1.0  -0.0829
  C  C75  1  0.459790  0.062190  0.920310  1.0  -0.083
  C  C76  1  0.040410  0.063660  0.921490  1.0  -0.0819
  C  C77  1  0.040370  0.916410  0.979480  1.0  -0.0809
  C  C78  1  0.040370  0.040330  0.077940  1.0  -0.0793
  C  C79  1  0.311210  0.988960  0.685620  1.0  -0.0692
  C  C80  1  0.311180  0.988390  0.592610  1.0  -0.1401
  C  C81  1  0.311020  0.023950  0.300720  1.0  -0.0774
  C  C82  1  0.310970  0.024480  0.393730  1.0  -0.1463
  C  C83  1  0.311210  0.313750  0.010300  1.0  -0.0638
  C  C84  1  0.311160  0.406760  0.010890  1.0  -0.1482
  C  C85  1  0.311170  0.698720  0.976070  1.0  -0.0681
  C  C86  1  0.311130  0.605700  0.975460  1.0  -0.1378
  C  C87  1  0.189140  0.022670  0.685540  1.0  -0.0616
  C  C88  1  0.189240  0.023240  0.592540  1.0  -0.1431
  C  C89  1  0.189400  0.987770  0.300750  1.0  -0.0663
  C  C90  1  0.189480  0.987160  0.393750  1.0  -0.1427
  C  C91  1  0.189220  0.698650  0.010450  1.0  -0.0697
  C  C92  1  0.189320  0.605660  0.011070  1.0  -0.1428
  C  C93  1  0.189190  0.313790  0.976270  1.0  -0.06
  C  C94  1  0.189290  0.406790  0.975630  1.0  -0.143
  C  C95  1  0.750190  0.005910  0.833760  1.0  0.694
  C  C96  1  0.750220  0.005830  0.733980  1.0  -0.1089
  C  C97  1  0.750270  0.005810  0.543510  1.0  0.0707
  C  C98  1  0.750140  0.005960  0.152500  1.0  0.6928
  C  C99  1  0.750190  0.005870  0.252270  1.0  -0.1096
  C  C100  1  0.750260  0.005800  0.442740  1.0  0.0411
  C  C101  1  0.750120  0.165610  0.993260  1.0  0.695
  C  C102  1  0.750140  0.265360  0.993270  1.0  -0.1051
  C  C103  1  0.750190  0.455840  0.993210  1.0  0.0518
  C  C104  1  0.750130  0.846880  0.993190  1.0  0.69
  C  C105  1  0.750160  0.747120  0.993200  1.0  -0.1064
  C  C106  1  0.750200  0.556630  0.993210  1.0  0.0487
  C  C107  1  0.959840  0.916440  0.979230  1.0  -0.0788
  C  C108  1  0.959810  0.040120  0.078000  1.0  -0.0833
  C  C109  1  0.959790  0.063830  0.921600  1.0  -0.0817
  C  C110  1  0.540410  0.062000  0.920170  1.0  -0.0819
  C  C111  1  0.540370  0.916120  0.981530  1.0  -0.0825
  C  C112  1  0.540390  0.042270  0.077110  1.0  -0.0793
  C  C113  1  0.811270  0.988960  0.685580  1.0  -0.0665
  C  C114  1  0.811230  0.988380  0.592570  1.0  -0.1385
  C  C115  1  0.811030  0.023920  0.300670  1.0  -0.0784
  C  C116  1  0.810990  0.024440  0.393680  1.0  -0.1478
  C  C117  1  0.811170  0.313760  0.010240  1.0  -0.0637
  C  C118  1  0.811120  0.406770  0.010830  1.0  -0.1474
  C  C119  1  0.811140  0.698720  0.975980  1.0  -0.0683
  C  C120  1  0.811090  0.605710  0.975380  1.0  -0.1375
  C  C121  1  0.689210  0.022710  0.685510  1.0  -0.064
  C  C122  1  0.689290  0.023270  0.592520  1.0  -0.1413
  C  C123  1  0.689390  0.987780  0.300730  1.0  -0.0673
  C  C124  1  0.689500  0.987170  0.393730  1.0  -0.1445
  C  C125  1  0.689200  0.698670  0.010400  1.0  -0.0691
  C  C126  1  0.689290  0.605670  0.011030  1.0  -0.1432
  C  C127  1  0.689140  0.313800  0.976250  1.0  -0.0598
  C  C128  1  0.689240  0.406800  0.975610  1.0  -0.1432
  N  N129  1  0.433180  0.006710  0.992950  1.0  -0.1421
  N  N130  1  0.067030  0.006730  0.992990  1.0  -0.1409
  N  N131  1  0.933180  0.006720  0.992960  1.0  -0.1417
  N  N132  1  0.567040  0.006720  0.992950  1.0  -0.1408
  O  O133  1  0.307540  0.888920  0.992930  1.0  -0.6365
  O  O134  1  0.192720  0.888880  0.993510  1.0  -0.6348
  O  O135  1  0.192740  0.005700  0.110520  1.0  -0.6309
  O  O136  1  0.192650  0.006240  0.875790  1.0  -0.6306
  O  O137  1  0.192670  0.123610  0.993020  1.0  -0.64
  O  O138  1  0.307570  0.006350  0.110490  1.0  -0.6336
  O  O139  1  0.307560  0.005690  0.875810  1.0  -0.6313
  O  O140  1  0.307660  0.123610  0.993510  1.0  -0.6313
  O  O141  1  0.807530  0.888930  0.992900  1.0  -0.636
  O  O142  1  0.692710  0.888890  0.993460  1.0  -0.6356
  O  O143  1  0.692720  0.005690  0.110490  1.0  -0.631
  O  O144  1  0.692730  0.006260  0.875760  1.0  -0.6238
  O  O145  1  0.692620  0.123630  0.992980  1.0  -0.6378
  O  O146  1  0.807550  0.006360  0.110450  1.0  -0.6326
  O  O147  1  0.807640  0.005710  0.875770  1.0  -0.6296
  O  O148  1  0.807610  0.123620  0.993500  1.0  -0.6315
