# generated using pymatgen
data_ZnH17C18(N2O)2
_symmetry_space_group_name_H-M   'P 1'
_cell_length_a   14.78570000
_cell_length_b   16.52840000
_cell_length_c   10.23020000
_cell_angle_alpha   90.00000000
_cell_angle_beta   119.10400000
_cell_angle_gamma   90.00000000
_symmetry_Int_Tables_number   1
_chemical_formula_structural   ZnH17C18(N2O)2
_chemical_formula_sum   'Zn4 H68 C72 N16 O8'
_cell_volume   2184.43027243
_cell_formula_units_Z   4
loop_
 _symmetry_equiv_pos_site_id
 _symmetry_equiv_pos_as_xyz
  1  'x, y, z'
loop_
 _atom_site_type_symbol
 _atom_site_label
 _atom_site_symmetry_multiplicity
 _atom_site_fract_x
 _atom_site_fract_y
 _atom_site_fract_z
 _atom_site_occupancy
 _atom_site_charge
  Zn  Zn1  1  0.046930  0.045660  0.683150  1.0  0.7301
  Zn  Zn2  1  0.546930  0.545660  0.683150  1.0  0.7301
  Zn  Zn3  1  0.046930  0.954340  0.183150  1.0  0.7305
  Zn  Zn4  1  0.546930  0.454340  0.183150  1.0  0.7305
  H  H5  1  0.160000  0.781000  0.970000  1.0  0.0559
  H  H6  1  0.213000  0.781000  0.625000  1.0  0.0275
  H  H7  1  0.149000  0.909000  0.559000  1.0  0.0821
  H  H8  1  0.612000  0.853000  0.133000  1.0  0.0438
  H  H9  1  0.432000  0.886000  0.953000  1.0  0.074
  H  H10  1  0.640000  0.912000  0.046000  1.0  0.1208
  H  H11  1  0.530000  0.975000  0.167000  1.0  0.0542
  H  H12  1  0.554000  0.032000  0.073000  1.0  0.0668
  H  H13  1  0.430000  0.618000  0.820000  1.0  0.0234
  H  H14  1  0.403000  0.734000  0.925000  1.0  0.0669
  H  H15  1  0.458000  0.925000  0.860000  1.0  0.208
  H  H16  1  0.562000  0.848000  0.760000  1.0  0.2062
  H  H17  1  0.605000  0.727000  0.678000  1.0  0.062
  H  H18  1  0.866000  0.921000  0.585000  1.0  0.1219
  H  H19  1  0.710000  0.889000  0.412000  1.0  0.0861
  H  H20  1  0.721000  0.099000  0.224000  1.0  0.1538
  H  H21  1  0.884000  0.123000  0.408000  1.0  0.056
  H  H22  1  0.660000  0.281000  0.970000  1.0  0.0559
  H  H23  1  0.713000  0.281000  0.625000  1.0  0.0275
  H  H24  1  0.649000  0.409000  0.559000  1.0  0.0821
  H  H25  1  0.112000  0.353000  0.133000  1.0  0.0438
  H  H26  1  0.932000  0.386000  0.953000  1.0  0.074
  H  H27  1  0.140000  0.412000  0.046000  1.0  0.1208
  H  H28  1  0.030000  0.475000  0.167000  1.0  0.0542
  H  H29  1  0.054000  0.532000  0.073000  1.0  0.0668
  H  H30  1  0.930000  0.118000  0.820000  1.0  0.0234
  H  H31  1  0.903000  0.234000  0.925000  1.0  0.0669
  H  H32  1  0.958000  0.425000  0.860000  1.0  0.208
  H  H33  1  0.062000  0.348000  0.760000  1.0  0.2062
  H  H34  1  0.105000  0.227000  0.678000  1.0  0.062
  H  H35  1  0.366000  0.421000  0.585000  1.0  0.1219
  H  H36  1  0.210000  0.389000  0.412000  1.0  0.0861
  H  H37  1  0.221000  0.599000  0.224000  1.0  0.1538
  H  H38  1  0.384000  0.623000  0.408000  1.0  0.056
  H  H39  1  0.160000  0.219000  0.470000  1.0  0.0544
  H  H40  1  0.213000  0.219000  0.125000  1.0  0.0268
  H  H41  1  0.149000  0.091000  0.059000  1.0  0.0821
  H  H42  1  0.612000  0.147000  0.633000  1.0  0.0435
  H  H43  1  0.432000  0.114000  0.453000  1.0  0.0745
  H  H44  1  0.640000  0.088000  0.546000  1.0  0.1203
  H  H45  1  0.530000  0.025000  0.667000  1.0  0.0542
  H  H46  1  0.554000  0.968000  0.573000  1.0  0.0682
  H  H47  1  0.430000  0.382000  0.320000  1.0  0.0233
  H  H48  1  0.403000  0.266000  0.425000  1.0  0.0672
  H  H49  1  0.458000  0.075000  0.360000  1.0  0.207
  H  H50  1  0.562000  0.152000  0.260000  1.0  0.2062
  H  H51  1  0.605000  0.273000  0.178000  1.0  0.0619
  H  H52  1  0.866000  0.079000  0.085000  1.0  0.1208
  H  H53  1  0.710000  0.111000  0.912000  1.0  0.0861
  H  H54  1  0.721000  0.901000  0.724000  1.0  0.1552
  H  H55  1  0.884000  0.877000  0.908000  1.0  0.0559
  H  H56  1  0.660000  0.719000  0.470000  1.0  0.0544
  H  H57  1  0.713000  0.719000  0.125000  1.0  0.0268
  H  H58  1  0.649000  0.591000  0.059000  1.0  0.0821
  H  H59  1  0.112000  0.647000  0.633000  1.0  0.0435
  H  H60  1  0.932000  0.614000  0.453000  1.0  0.0745
  H  H61  1  0.140000  0.588000  0.546000  1.0  0.1203
  H  H62  1  0.030000  0.525000  0.667000  1.0  0.0542
  H  H63  1  0.054000  0.468000  0.573000  1.0  0.0682
  H  H64  1  0.930000  0.882000  0.320000  1.0  0.0233
  H  H65  1  0.903000  0.766000  0.425000  1.0  0.0672
  H  H66  1  0.958000  0.575000  0.360000  1.0  0.207
  H  H67  1  0.062000  0.652000  0.260000  1.0  0.2062
  H  H68  1  0.105000  0.773000  0.178000  1.0  0.0619
  H  H69  1  0.366000  0.579000  0.085000  1.0  0.1208
  H  H70  1  0.210000  0.611000  0.912000  1.0  0.0861
  H  H71  1  0.221000  0.401000  0.724000  1.0  0.1552
  H  H72  1  0.384000  0.377000  0.908000  1.0  0.0559
  C  C73  1  0.123500  0.887600  0.837700  1.0  0.0843
  C  C74  1  0.168200  0.811700  0.880600  1.0  0.18
  C  C75  1  0.198000  0.811000  0.684900  1.0  0.1047
  C  C76  1  0.153700  0.886300  0.640600  1.0  0.0791
  C  C77  1  0.081200  0.933900  0.923500  1.0  0.6313
  C  C78  1  0.846900  0.076300  0.408900  1.0  0.0767
  C  C79  1  0.750200  0.065200  0.288100  1.0  -0.1202
  C  C80  1  0.696000  0.994200  0.279300  1.0  0.0773
  C  C81  1  0.743800  0.939500  0.396900  1.0  -0.2211
  C  C82  1  0.841500  0.955000  0.512000  1.0  0.1363
  C  C83  1  0.553100  0.729000  0.718300  1.0  0.0748
  C  C84  1  0.542800  0.802200  0.772500  1.0  -0.145
  C  C85  1  0.490700  0.808800  0.851800  1.0  0.0805
  C  C86  1  0.447200  0.738900  0.868900  1.0  -0.152
  C  C87  1  0.459100  0.666900  0.809800  1.0  0.125
  C  C88  1  0.590500  0.978500  0.149200  1.0  -0.1363
  C  C89  1  0.592200  0.904500  0.060400  1.0  -0.0668
  C  C90  1  0.486800  0.886900  0.925500  1.0  -0.2546
  C  C91  1  0.623500  0.387600  0.837700  1.0  0.0843
  C  C92  1  0.668200  0.311700  0.880600  1.0  0.18
  C  C93  1  0.698000  0.311000  0.684900  1.0  0.1047
  C  C94  1  0.653700  0.386300  0.640600  1.0  0.0791
  C  C95  1  0.581200  0.433900  0.923500  1.0  0.6313
  C  C96  1  0.346900  0.576300  0.408900  1.0  0.0767
  C  C97  1  0.250200  0.565200  0.288100  1.0  -0.1202
  C  C98  1  0.196000  0.494200  0.279300  1.0  0.0773
  C  C99  1  0.243800  0.439500  0.396900  1.0  -0.2211
  C  C100  1  0.341500  0.455000  0.512000  1.0  0.1363
  C  C101  1  0.053100  0.229000  0.718300  1.0  0.0748
  C  C102  1  0.042800  0.302200  0.772500  1.0  -0.145
  C  C103  1  0.990700  0.308800  0.851800  1.0  0.0805
  C  C104  1  0.947200  0.238900  0.868900  1.0  -0.152
  C  C105  1  0.959100  0.166900  0.809800  1.0  0.125
  C  C106  1  0.090500  0.478500  0.149200  1.0  -0.1363
  C  C107  1  0.092200  0.404500  0.060400  1.0  -0.0668
  C  C108  1  0.986800  0.386900  0.925500  1.0  -0.2546
  C  C109  1  0.123500  0.112400  0.337700  1.0  0.0848
  C  C110  1  0.168200  0.188300  0.380600  1.0  0.1795
  C  C111  1  0.198000  0.189000  0.184900  1.0  0.1051
  C  C112  1  0.153700  0.113700  0.140600  1.0  0.0792
  C  C113  1  0.081200  0.066100  0.423500  1.0  0.6312
  C  C114  1  0.846900  0.923700  0.908900  1.0  0.0757
  C  C115  1  0.750200  0.934800  0.788100  1.0  -0.1173
  C  C116  1  0.696000  0.005800  0.779300  1.0  0.0774
  C  C117  1  0.743800  0.060500  0.896900  1.0  -0.2241
  C  C118  1  0.841500  0.045000  0.012000  1.0  0.1367
  C  C119  1  0.553100  0.271000  0.218300  1.0  0.0753
  C  C120  1  0.542800  0.197800  0.272500  1.0  -0.1459
  C  C121  1  0.490700  0.191200  0.351800  1.0  0.0805
  C  C122  1  0.447200  0.261100  0.368900  1.0  -0.1522
  C  C123  1  0.459100  0.333100  0.309800  1.0  0.1252
  C  C124  1  0.590500  0.021500  0.649200  1.0  -0.1363
  C  C125  1  0.592200  0.095500  0.560400  1.0  -0.0671
  C  C126  1  0.486800  0.113100  0.425500  1.0  -0.255
  C  C127  1  0.623500  0.612400  0.337700  1.0  0.0848
  C  C128  1  0.668200  0.688300  0.380600  1.0  0.1795
  C  C129  1  0.698000  0.689000  0.184900  1.0  0.1051
  C  C130  1  0.653700  0.613700  0.140600  1.0  0.0792
  C  C131  1  0.581200  0.566100  0.423500  1.0  0.6312
  C  C132  1  0.346900  0.423700  0.908900  1.0  0.0757
  C  C133  1  0.250200  0.434800  0.788100  1.0  -0.1173
  C  C134  1  0.196000  0.505800  0.779300  1.0  0.0774
  C  C135  1  0.243800  0.560500  0.896900  1.0  -0.2241
  C  C136  1  0.341500  0.545000  0.012000  1.0  0.1367
  C  C137  1  0.053100  0.771000  0.218300  1.0  0.0753
  C  C138  1  0.042800  0.697800  0.272500  1.0  -0.1459
  C  C139  1  0.990700  0.691200  0.351800  1.0  0.0805
  C  C140  1  0.947200  0.761100  0.368900  1.0  -0.1522
  C  C141  1  0.959100  0.833100  0.309800  1.0  0.1252
  C  C142  1  0.090500  0.521500  0.649200  1.0  -0.1363
  C  C143  1  0.092200  0.595500  0.560400  1.0  -0.0671
  C  C144  1  0.986800  0.613100  0.425500  1.0  -0.255
  N  N145  1  0.206000  0.772700  0.803500  1.0  -0.4617
  N  N146  1  0.115400  0.924800  0.716600  1.0  -0.3441
  N  N147  1  0.894200  0.022500  0.518700  1.0  -0.3738
  N  N148  1  0.513400  0.660800  0.739400  1.0  -0.37
  N  N149  1  0.706000  0.272700  0.803500  1.0  -0.4617
  N  N150  1  0.615400  0.424800  0.716600  1.0  -0.3441
  N  N151  1  0.394200  0.522500  0.518700  1.0  -0.3738
  N  N152  1  0.013400  0.160800  0.739400  1.0  -0.37
  N  N153  1  0.206000  0.227300  0.303500  1.0  -0.4627
  N  N154  1  0.115400  0.075200  0.216600  1.0  -0.3412
  N  N155  1  0.894200  0.977500  0.018700  1.0  -0.3737
  N  N156  1  0.513400  0.339200  0.239400  1.0  -0.3693
  N  N157  1  0.706000  0.727300  0.303500  1.0  -0.4627
  N  N158  1  0.615400  0.575200  0.216600  1.0  -0.3412
  N  N159  1  0.394200  0.477500  0.018700  1.0  -0.3737
  N  N160  1  0.013400  0.839200  0.239400  1.0  -0.3693
  O  O161  1  0.096300  0.905100  0.045000  1.0  -0.6357
  O  O162  1  0.034700  0.998300  0.865600  1.0  -0.6079
  O  O163  1  0.596300  0.405100  0.045000  1.0  -0.636
  O  O164  1  0.534700  0.498300  0.865600  1.0  -0.6079
  O  O165  1  0.096300  0.094900  0.545000  1.0  -0.6359
  O  O166  1  0.034700  0.001700  0.365600  1.0  -0.6077
  O  O167  1  0.596300  0.594900  0.545000  1.0  -0.6359
  O  O168  1  0.534700  0.501700  0.365600  1.0  -0.6077
