# generated using pymatgen
data_CoHgC4(SN)4
_symmetry_space_group_name_H-M   'P 1'
_cell_length_a   7.68380000
_cell_length_b   14.95300000
_cell_length_c   15.95500000
_cell_angle_alpha   90.00000000
_cell_angle_beta   90.00000000
_cell_angle_gamma   90.00000000
_symmetry_Int_Tables_number   1
_chemical_formula_structural   CoHgC4(SN)4
_chemical_formula_sum   'Co4 Hg4 C16 S16 N16'
_cell_volume   1833.16346864
_cell_formula_units_Z   4
loop_
 _symmetry_equiv_pos_site_id
 _symmetry_equiv_pos_as_xyz
  1  'x, y, z'
loop_
 _atom_site_type_symbol
 _atom_site_label
 _atom_site_symmetry_multiplicity
 _atom_site_fract_x
 _atom_site_fract_y
 _atom_site_fract_z
 _atom_site_occupancy
 _atom_site_charge
  Co  Co1  1  0.977700  0.693400  0.372100  1.0  0.9838
  Co  Co2  1  0.022300  0.193400  0.627900  1.0  0.9829
  Co  Co3  1  0.522300  0.693400  0.872100  1.0  0.9838
  Co  Co4  1  0.477700  0.193400  0.127900  1.0  0.9828
  Hg  Hg5  1  0.451700  0.500000  0.564600  1.0  0.4009
  Hg  Hg6  1  0.548300  0.000000  0.435400  1.0  0.4009
  Hg  Hg7  1  0.048300  0.500000  0.064600  1.0  0.4012
  Hg  Hg8  1  0.951700  0.000000  0.935400  1.0  0.4007
  C  C9  1  0.310000  0.683900  0.492900  1.0  0.3647
  C  C10  1  0.370000  0.536200  0.756000  1.0  0.4064
  C  C11  1  0.186000  0.348700  0.511600  1.0  0.373
  C  C12  1  0.826000  0.535800  0.484200  1.0  0.3487
  C  C13  1  0.690000  0.183900  0.507100  1.0  0.3646
  C  C14  1  0.630000  0.036200  0.244000  1.0  0.4056
  C  C15  1  0.814000  0.848700  0.488400  1.0  0.3747
  C  C16  1  0.174000  0.035800  0.515800  1.0  0.3491
  C  C17  1  0.190000  0.683900  0.992900  1.0  0.3641
  C  C18  1  0.130000  0.536200  0.256000  1.0  0.4065
  C  C19  1  0.314000  0.348700  0.011600  1.0  0.3733
  C  C20  1  0.674000  0.535800  0.984200  1.0  0.3509
  C  C21  1  0.810000  0.183900  0.007100  1.0  0.3649
  C  C22  1  0.870000  0.036200  0.744000  1.0  0.406
  C  C23  1  0.686000  0.848700  0.988400  1.0  0.3745
  C  C24  1  0.326000  0.035800  0.015800  1.0  0.352
  S  S25  1  0.472000  0.668000  0.559600  1.0  -0.2245
  S  S26  1  0.298700  0.449700  0.697200  1.0  -0.2707
  S  S27  1  0.250600  0.431600  0.451300  1.0  -0.1995
  S  S28  1  0.760500  0.445500  0.541500  1.0  -0.2334
  S  S29  1  0.528000  0.168000  0.440400  1.0  -0.224
  S  S30  1  0.701300  0.949700  0.302800  1.0  -0.2706
  S  S31  1  0.749400  0.931600  0.548700  1.0  -0.2002
  S  S32  1  0.239500  0.945500  0.458500  1.0  -0.2325
  S  S33  1  0.028000  0.668000  0.059600  1.0  -0.2247
  S  S34  1  0.201300  0.449700  0.197200  1.0  -0.2706
  S  S35  1  0.249400  0.431600  0.951300  1.0  -0.1998
  S  S36  1  0.739500  0.445500  0.041500  1.0  -0.2333
  S  S37  1  0.972000  0.168000  0.940400  1.0  -0.224
  S  S38  1  0.798700  0.949700  0.802800  1.0  -0.2707
  S  S39  1  0.750600  0.931600  0.048700  1.0  -0.1998
  S  S40  1  0.260500  0.945500  0.958500  1.0  -0.2328
  N  N41  1  0.203000  0.695400  0.447700  1.0  -0.4737
  N  N42  1  0.413000  0.592400  0.794400  1.0  -0.5019
  N  N43  1  0.141000  0.292000  0.553000  1.0  -0.5125
  N  N44  1  0.870000  0.594900  0.447400  1.0  -0.4631
  N  N45  1  0.797000  0.195400  0.552300  1.0  -0.4742
  N  N46  1  0.587000  0.092400  0.205600  1.0  -0.5028
  N  N47  1  0.859000  0.792000  0.447000  1.0  -0.5139
  N  N48  1  0.130000  0.094900  0.552600  1.0  -0.461
  N  N49  1  0.297000  0.695400  0.947700  1.0  -0.4745
  N  N50  1  0.087000  0.592400  0.294400  1.0  -0.5013
  N  N51  1  0.359000  0.292000  0.053000  1.0  -0.5132
  N  N52  1  0.630000  0.594900  0.947400  1.0  -0.4606
  N  N53  1  0.703000  0.195400  0.052300  1.0  -0.4739
  N  N54  1  0.913000  0.092400  0.705600  1.0  -0.5028
  N  N55  1  0.641000  0.792000  0.947000  1.0  -0.5134
  N  N56  1  0.370000  0.094900  0.052600  1.0  -0.4622
