# generated using pymatgen
data_ZnH12C21N2O7
_symmetry_space_group_name_H-M   'P 1'
_cell_length_a   13.08430000
_cell_length_b   25.40450000
_cell_length_c   16.34160000
_cell_angle_alpha   90.00000000
_cell_angle_beta   93.97400000
_cell_angle_gamma   90.00000000
_symmetry_Int_Tables_number   1
_chemical_formula_structural   ZnH12C21N2O7
_chemical_formula_sum   'Zn8 H96 C168 N16 O56'
_cell_volume   5418.88889529
_cell_formula_units_Z   8
loop_
 _symmetry_equiv_pos_site_id
 _symmetry_equiv_pos_as_xyz
  1  'x, y, z'
loop_
 _atom_site_type_symbol
 _atom_site_label
 _atom_site_symmetry_multiplicity
 _atom_site_fract_x
 _atom_site_fract_y
 _atom_site_fract_z
 _atom_site_occupancy
 _atom_site_charge
  Zn  Zn1  1  0.153530  0.838790  0.142030  1.0  0.9153
  Zn  Zn2  1  0.653530  0.338790  0.142030  1.0  0.9153
  Zn  Zn3  1  0.846470  0.838790  0.857970  1.0  0.9158
  Zn  Zn4  1  0.346470  0.338790  0.857970  1.0  0.9158
  Zn  Zn5  1  0.846470  0.161210  0.857970  1.0  0.9133
  Zn  Zn6  1  0.346470  0.661210  0.857970  1.0  0.9133
  Zn  Zn7  1  0.153530  0.161210  0.142030  1.0  0.9133
  Zn  Zn8  1  0.653530  0.661210  0.142030  1.0  0.9133
  H  H9  1  0.697200  0.707100  0.379300  1.0  0.1279
  H  H10  1  0.179100  0.724800  0.159300  1.0  0.1003
  H  H11  1  0.551000  0.706000  0.449600  1.0  0.1235
  H  H12  1  0.968200  0.817300  0.239100  1.0  0.1118
  H  H13  1  0.952900  0.661900  0.278600  1.0  0.1339
  H  H14  1  0.315300  0.921100  0.415500  1.0  0.1036
  H  H15  1  0.725400  0.861500  0.420900  1.0  0.127
  H  H16  1  0.101000  0.652100  0.210500  1.0  0.1223
  H  H17  1  0.862900  0.773800  0.048000  1.0  0.1154
  H  H18  1  0.579400  0.860600  0.490700  1.0  0.1178
  H  H19  1  0.816900  0.718300  0.311000  1.0  0.3105
  H  H20  1  0.197200  0.207100  0.379300  1.0  0.1279
  H  H21  1  0.679100  0.224800  0.159300  1.0  0.1003
  H  H22  1  0.051000  0.206000  0.449600  1.0  0.1235
  H  H23  1  0.468200  0.317300  0.239100  1.0  0.1118
  H  H24  1  0.452900  0.161900  0.278600  1.0  0.1339
  H  H25  1  0.815300  0.421100  0.415500  1.0  0.1036
  H  H26  1  0.225400  0.361500  0.420900  1.0  0.127
  H  H27  1  0.601000  0.152100  0.210500  1.0  0.1223
  H  H28  1  0.362900  0.273800  0.048000  1.0  0.1154
  H  H29  1  0.079400  0.360600  0.490700  1.0  0.1178
  H  H30  1  0.316900  0.218300  0.311000  1.0  0.3105
  H  H31  1  0.302800  0.707100  0.620700  1.0  0.1279
  H  H32  1  0.820900  0.724800  0.840700  1.0  0.0999
  H  H33  1  0.449000  0.706000  0.550400  1.0  0.124
  H  H34  1  0.031800  0.817300  0.760900  1.0  0.1117
  H  H35  1  0.047100  0.661900  0.721400  1.0  0.1342
  H  H36  1  0.684700  0.921100  0.584500  1.0  0.1047
  H  H37  1  0.274600  0.861500  0.579100  1.0  0.1269
  H  H38  1  0.899000  0.652100  0.789500  1.0  0.1228
  H  H39  1  0.137100  0.773800  0.952000  1.0  0.1155
  H  H40  1  0.420600  0.860600  0.509300  1.0  0.1172
  H  H41  1  0.183100  0.718300  0.689000  1.0  0.3116
  H  H42  1  0.802800  0.207100  0.620700  1.0  0.1279
  H  H43  1  0.320900  0.224800  0.840700  1.0  0.0999
  H  H44  1  0.949000  0.206000  0.550400  1.0  0.124
  H  H45  1  0.531800  0.317300  0.760900  1.0  0.1117
  H  H46  1  0.547100  0.161900  0.721400  1.0  0.1342
  H  H47  1  0.184700  0.421100  0.584500  1.0  0.1047
  H  H48  1  0.774600  0.361500  0.579100  1.0  0.1269
  H  H49  1  0.399000  0.152100  0.789500  1.0  0.1228
  H  H50  1  0.637100  0.273800  0.952000  1.0  0.1155
  H  H51  1  0.920600  0.360600  0.509300  1.0  0.1172
  H  H52  1  0.683100  0.218300  0.689000  1.0  0.3116
  H  H53  1  0.302800  0.292900  0.620700  1.0  0.1281
  H  H54  1  0.820900  0.275200  0.840700  1.0  0.1003
  H  H55  1  0.449000  0.294000  0.550400  1.0  0.1238
  H  H56  1  0.031800  0.182700  0.760900  1.0  0.1136
  H  H57  1  0.047100  0.338100  0.721400  1.0  0.1331
  H  H58  1  0.684700  0.078900  0.584500  1.0  0.1042
  H  H59  1  0.274600  0.138500  0.579100  1.0  0.1276
  H  H60  1  0.899000  0.347900  0.789500  1.0  0.1223
  H  H61  1  0.137100  0.226200  0.952000  1.0  0.1152
  H  H62  1  0.420600  0.139400  0.509300  1.0  0.1167
  H  H63  1  0.183100  0.281700  0.689000  1.0  0.3128
  H  H64  1  0.802800  0.792900  0.620700  1.0  0.1281
  H  H65  1  0.320900  0.775200  0.840700  1.0  0.1003
  H  H66  1  0.949000  0.794000  0.550400  1.0  0.1238
  H  H67  1  0.531800  0.682700  0.760900  1.0  0.1136
  H  H68  1  0.547100  0.838100  0.721400  1.0  0.1331
  H  H69  1  0.184700  0.578900  0.584500  1.0  0.1042
  H  H70  1  0.774600  0.638500  0.579100  1.0  0.1276
  H  H71  1  0.399000  0.847900  0.789500  1.0  0.1223
  H  H72  1  0.637100  0.726200  0.952000  1.0  0.1152
  H  H73  1  0.920600  0.639400  0.509300  1.0  0.1167
  H  H74  1  0.683100  0.781700  0.689000  1.0  0.3128
  H  H75  1  0.697200  0.292900  0.379300  1.0  0.1278
  H  H76  1  0.179100  0.275200  0.159300  1.0  0.1007
  H  H77  1  0.551000  0.294000  0.449600  1.0  0.1251
  H  H78  1  0.968200  0.182700  0.239100  1.0  0.1137
  H  H79  1  0.952900  0.338100  0.278600  1.0  0.1332
  H  H80  1  0.315300  0.078900  0.415500  1.0  0.1039
  H  H81  1  0.725400  0.138500  0.420900  1.0  0.1275
  H  H82  1  0.101000  0.347900  0.210500  1.0  0.1221
  H  H83  1  0.862900  0.226200  0.048000  1.0  0.1155
  H  H84  1  0.579400  0.139400  0.490700  1.0  0.1174
  H  H85  1  0.816900  0.281700  0.311000  1.0  0.3119
  H  H86  1  0.197200  0.792900  0.379300  1.0  0.1278
  H  H87  1  0.679100  0.775200  0.159300  1.0  0.1007
  H  H88  1  0.051000  0.794000  0.449600  1.0  0.1251
  H  H89  1  0.468200  0.682700  0.239100  1.0  0.1137
  H  H90  1  0.452900  0.838100  0.278600  1.0  0.1332
  H  H91  1  0.815300  0.578900  0.415500  1.0  0.1039
  H  H92  1  0.225400  0.638500  0.420900  1.0  0.1275
  H  H93  1  0.601000  0.847900  0.210500  1.0  0.1221
  H  H94  1  0.362900  0.726200  0.048000  1.0  0.1155
  H  H95  1  0.079400  0.639400  0.490700  1.0  0.1174
  H  H96  1  0.316900  0.781700  0.311000  1.0  0.3119
  H  H97  1  0.186700  0.000000  0.223300  1.0  0.1151
  H  H98  1  0.686700  0.500000  0.223300  1.0  0.1151
  H  H99  1  0.813300  0.000000  0.776700  1.0  0.1148
  H  H100  1  0.313300  0.500000  0.776700  1.0  0.1148
  H  H101  1  0.000000  0.637300  0.000000  1.0  0.1174
  H  H102  1  0.500000  0.137300  0.000000  1.0  0.1174
  H  H103  1  0.000000  0.362700  0.000000  1.0  0.1157
  H  H104  1  0.500000  0.862700  0.000000  1.0  0.1157
  C  C105  1  0.547760  0.783170  0.477820  1.0  0.0275
  C  C106  1  0.673540  0.738180  0.401450  1.0  -0.1261
  C  C107  1  0.224580  0.901020  0.269430  1.0  0.7161
  C  C108  1  0.829480  0.671260  0.060820  1.0  0.6933
  C  C109  1  0.944660  0.741000  0.266550  1.0  0.1908
  C  C110  1  0.917950  0.701040  0.029060  1.0  -0.122
  C  C111  1  0.119430  0.729050  0.186480  1.0  0.1486
  C  C112  1  0.726540  0.784570  0.391810  1.0  -0.1142
  C  C113  1  0.585610  0.737610  0.443780  1.0  -0.0947
  C  C114  1  0.821560  0.789480  0.345810  1.0  0.5306
  C  C115  1  0.994930  0.783690  0.233770  1.0  0.1584
  C  C116  1  0.984940  0.691100  0.257540  1.0  -0.1701
  C  C117  1  0.297300  0.952800  0.389850  1.0  0.0157
  C  C118  1  0.690200  0.830070  0.426250  1.0  -0.066
  C  C119  1  0.247690  0.952400  0.312040  1.0  -0.1635
  C  C120  1  0.072960  0.685350  0.217100  1.0  -0.0946
  C  C121  1  0.917980  0.755540  0.028810  1.0  -0.0058
  C  C122  1  0.602500  0.829440  0.468270  1.0  -0.1157
  C  C123  1  0.047760  0.283170  0.477820  1.0  0.0275
  C  C124  1  0.173540  0.238180  0.401450  1.0  -0.1261
  C  C125  1  0.724580  0.401020  0.269430  1.0  0.7161
  C  C126  1  0.329480  0.171260  0.060820  1.0  0.6933
  C  C127  1  0.444660  0.241000  0.266550  1.0  0.1908
  C  C128  1  0.417950  0.201040  0.029060  1.0  -0.122
  C  C129  1  0.619430  0.229050  0.186480  1.0  0.1486
  C  C130  1  0.226540  0.284570  0.391810  1.0  -0.1142
  C  C131  1  0.085610  0.237610  0.443780  1.0  -0.0947
  C  C132  1  0.321560  0.289480  0.345810  1.0  0.5306
  C  C133  1  0.494930  0.283690  0.233770  1.0  0.1584
  C  C134  1  0.484940  0.191100  0.257540  1.0  -0.1701
  C  C135  1  0.797300  0.452800  0.389850  1.0  0.0157
  C  C136  1  0.190200  0.330070  0.426250  1.0  -0.066
  C  C137  1  0.747690  0.452400  0.312040  1.0  -0.1635
  C  C138  1  0.572960  0.185350  0.217100  1.0  -0.0946
  C  C139  1  0.417980  0.255540  0.028810  1.0  -0.0058
  C  C140  1  0.102500  0.329440  0.468270  1.0  -0.1157
  C  C141  1  0.452240  0.783170  0.522180  1.0  0.0272
  C  C142  1  0.326460  0.738180  0.598550  1.0  -0.127
  C  C143  1  0.775420  0.901020  0.730570  1.0  0.716
  C  C144  1  0.170520  0.671260  0.939180  1.0  0.6931
  C  C145  1  0.055340  0.741000  0.733450  1.0  0.1901
  C  C146  1  0.082050  0.701040  0.970940  1.0  -0.1226
  C  C147  1  0.880570  0.729050  0.813520  1.0  0.149
  C  C148  1  0.273460  0.784570  0.608190  1.0  -0.113
  C  C149  1  0.414390  0.737610  0.556220  1.0  -0.0959
  C  C150  1  0.178440  0.789480  0.654190  1.0  0.5293
  C  C151  1  0.005070  0.783690  0.766230  1.0  0.1596
  C  C152  1  0.015060  0.691100  0.742460  1.0  -0.169
  C  C153  1  0.702700  0.952800  0.610150  1.0  0.0157
  C  C154  1  0.309800  0.830070  0.573750  1.0  -0.0637
  C  C155  1  0.752310  0.952400  0.687960  1.0  -0.1644
  C  C156  1  0.927040  0.685350  0.782900  1.0  -0.0945
  C  C157  1  0.082020  0.755540  0.971190  1.0  -0.0055
  C  C158  1  0.397500  0.829440  0.531730  1.0  -0.1139
  C  C159  1  0.952240  0.283170  0.522180  1.0  0.0272
  C  C160  1  0.826460  0.238180  0.598550  1.0  -0.127
  C  C161  1  0.275420  0.401020  0.730570  1.0  0.716
  C  C162  1  0.670520  0.171260  0.939180  1.0  0.6931
  C  C163  1  0.555340  0.241000  0.733450  1.0  0.1901
  C  C164  1  0.582050  0.201040  0.970940  1.0  -0.1226
  C  C165  1  0.380570  0.229050  0.813520  1.0  0.149
  C  C166  1  0.773460  0.284570  0.608190  1.0  -0.113
  C  C167  1  0.914390  0.237610  0.556220  1.0  -0.0959
  C  C168  1  0.678440  0.289480  0.654190  1.0  0.5293
  C  C169  1  0.505070  0.283690  0.766230  1.0  0.1596
  C  C170  1  0.515060  0.191100  0.742460  1.0  -0.169
  C  C171  1  0.202700  0.452800  0.610150  1.0  0.0157
  C  C172  1  0.809800  0.330070  0.573750  1.0  -0.0637
  C  C173  1  0.252310  0.452400  0.687960  1.0  -0.1644
  C  C174  1  0.427040  0.185350  0.782900  1.0  -0.0945
  C  C175  1  0.582020  0.255540  0.971190  1.0  -0.0055
  C  C176  1  0.897500  0.329440  0.531730  1.0  -0.1139
  C  C177  1  0.452240  0.216830  0.522180  1.0  0.0272
  C  C178  1  0.326460  0.261820  0.598550  1.0  -0.1282
  C  C179  1  0.775420  0.098980  0.730570  1.0  0.7161
  C  C180  1  0.170520  0.328740  0.939180  1.0  0.6945
  C  C181  1  0.055340  0.259000  0.733450  1.0  0.1901
  C  C182  1  0.082050  0.298960  0.970940  1.0  -0.1227
  C  C183  1  0.880570  0.270950  0.813520  1.0  0.1488
  C  C184  1  0.273460  0.215430  0.608190  1.0  -0.1128
  C  C185  1  0.414390  0.262390  0.556220  1.0  -0.0965
  C  C186  1  0.178440  0.210520  0.654190  1.0  0.5314
  C  C187  1  0.005070  0.216310  0.766230  1.0  0.1571
  C  C188  1  0.015060  0.308900  0.742460  1.0  -0.1711
  C  C189  1  0.702700  0.047200  0.610150  1.0  0.0157
  C  C190  1  0.309800  0.169930  0.573750  1.0  -0.0647
  C  C191  1  0.752310  0.047600  0.687960  1.0  -0.1644
  C  C192  1  0.927040  0.314650  0.782900  1.0  -0.0932
  C  C193  1  0.082020  0.244460  0.971190  1.0  -0.0058
  C  C194  1  0.397500  0.170560  0.531730  1.0  -0.1143
  C  C195  1  0.952240  0.716830  0.522180  1.0  0.0272
  C  C196  1  0.826460  0.761820  0.598550  1.0  -0.1282
  C  C197  1  0.275420  0.598980  0.730570  1.0  0.7161
  C  C198  1  0.670520  0.828740  0.939180  1.0  0.6945
  C  C199  1  0.555340  0.759000  0.733450  1.0  0.1901
  C  C200  1  0.582050  0.798960  0.970940  1.0  -0.1227
  C  C201  1  0.380570  0.770950  0.813520  1.0  0.1488
  C  C202  1  0.773460  0.715430  0.608190  1.0  -0.1128
  C  C203  1  0.914390  0.762390  0.556220  1.0  -0.0965
  C  C204  1  0.678440  0.710520  0.654190  1.0  0.5314
  C  C205  1  0.505070  0.716310  0.766230  1.0  0.1571
  C  C206  1  0.515060  0.808900  0.742460  1.0  -0.1711
  C  C207  1  0.202700  0.547200  0.610150  1.0  0.0157
  C  C208  1  0.809800  0.669930  0.573750  1.0  -0.0647
  C  C209  1  0.252310  0.547600  0.687960  1.0  -0.1644
  C  C210  1  0.427040  0.814650  0.782900  1.0  -0.0932
  C  C211  1  0.582020  0.744460  0.971190  1.0  -0.0058
  C  C212  1  0.897500  0.670560  0.531730  1.0  -0.1143
  C  C213  1  0.547760  0.216830  0.477820  1.0  0.0275
  C  C214  1  0.673540  0.261820  0.401450  1.0  -0.1276
  C  C215  1  0.224580  0.098980  0.269430  1.0  0.716
  C  C216  1  0.829480  0.328740  0.060820  1.0  0.6948
  C  C217  1  0.944660  0.259000  0.266550  1.0  0.1903
  C  C218  1  0.917950  0.298960  0.029060  1.0  -0.122
  C  C219  1  0.119430  0.270950  0.186480  1.0  0.1486
  C  C220  1  0.726540  0.215430  0.391810  1.0  -0.1137
  C  C221  1  0.585610  0.262390  0.443780  1.0  -0.0968
  C  C222  1  0.821560  0.210520  0.345810  1.0  0.5321
  C  C223  1  0.994930  0.216310  0.233770  1.0  0.1571
  C  C224  1  0.984940  0.308900  0.257540  1.0  -0.1727
  C  C225  1  0.297300  0.047200  0.389850  1.0  0.015
  C  C226  1  0.690200  0.169930  0.426250  1.0  -0.0663
  C  C227  1  0.247690  0.047600  0.312040  1.0  -0.163
  C  C228  1  0.072960  0.314650  0.217100  1.0  -0.0925
  C  C229  1  0.917980  0.244460  0.028810  1.0  -0.0053
  C  C230  1  0.602500  0.170560  0.468270  1.0  -0.1141
  C  C231  1  0.047760  0.716830  0.477820  1.0  0.0275
  C  C232  1  0.173540  0.761820  0.401450  1.0  -0.1276
  C  C233  1  0.724580  0.598980  0.269430  1.0  0.716
  C  C234  1  0.329480  0.828740  0.060820  1.0  0.6948
  C  C235  1  0.444660  0.759000  0.266550  1.0  0.1903
  C  C236  1  0.417950  0.798960  0.029060  1.0  -0.122
  C  C237  1  0.619430  0.770950  0.186480  1.0  0.1486
  C  C238  1  0.226540  0.715430  0.391810  1.0  -0.1137
  C  C239  1  0.085610  0.762390  0.443780  1.0  -0.0968
  C  C240  1  0.321560  0.710520  0.345810  1.0  0.5321
  C  C241  1  0.494930  0.716310  0.233770  1.0  0.1571
  C  C242  1  0.484940  0.808900  0.257540  1.0  -0.1727
  C  C243  1  0.797300  0.547200  0.389850  1.0  0.015
  C  C244  1  0.190200  0.669930  0.426250  1.0  -0.0663
  C  C245  1  0.747690  0.547600  0.312040  1.0  -0.163
  C  C246  1  0.572960  0.814650  0.217100  1.0  -0.0925
  C  C247  1  0.417980  0.744460  0.028810  1.0  -0.0053
  C  C248  1  0.102500  0.670560  0.468270  1.0  -0.1141
  C  C249  1  0.222000  0.000000  0.274700  1.0  0.0428
  C  C250  1  0.320500  0.000000  0.429800  1.0  -0.1642
  C  C251  1  0.368500  0.000000  0.515300  1.0  0.7724
  C  C252  1  0.722000  0.500000  0.274700  1.0  0.0428
  C  C253  1  0.820500  0.500000  0.429800  1.0  -0.1642
  C  C254  1  0.868500  0.500000  0.515300  1.0  0.7724
  C  C255  1  0.778000  0.000000  0.725300  1.0  0.0421
  C  C256  1  0.679500  0.000000  0.570200  1.0  -0.1626
  C  C257  1  0.631500  0.000000  0.484700  1.0  0.775
  C  C258  1  0.278000  0.500000  0.725300  1.0  0.0421
  C  C259  1  0.179500  0.500000  0.570200  1.0  -0.1626
  C  C260  1  0.131500  0.500000  0.484700  1.0  0.775
  C  C261  1  0.000000  0.673900  0.000000  1.0  0.0495
  C  C262  1  0.000000  0.783040  0.000000  1.0  -0.0532
  C  C263  1  0.000000  0.842010  0.000000  1.0  0.7033
  C  C264  1  0.500000  0.173900  0.000000  1.0  0.0495
  C  C265  1  0.500000  0.283040  0.000000  1.0  -0.0532
  C  C266  1  0.500000  0.342010  0.000000  1.0  0.7033
  C  C267  1  0.000000  0.326100  0.000000  1.0  0.0503
  C  C268  1  0.000000  0.216960  0.000000  1.0  -0.0546
  C  C269  1  0.000000  0.157990  0.000000  1.0  0.7013
  C  C270  1  0.500000  0.826100  0.000000  1.0  0.0503
  C  C271  1  0.500000  0.716960  0.000000  1.0  -0.0546
  C  C272  1  0.500000  0.657990  0.000000  1.0  0.7013
  N  N273  1  0.081120  0.777290  0.194710  1.0  -0.3347
  N  N274  1  0.854580  0.745910  0.308730  1.0  -0.399
  N  N275  1  0.581120  0.277290  0.194710  1.0  -0.3347
  N  N276  1  0.354580  0.245910  0.308730  1.0  -0.399
  N  N277  1  0.918880  0.777290  0.805290  1.0  -0.3341
  N  N278  1  0.145420  0.745910  0.691270  1.0  -0.3992
  N  N279  1  0.418880  0.277290  0.805290  1.0  -0.3341
  N  N280  1  0.645420  0.245910  0.691270  1.0  -0.3992
  N  N281  1  0.918880  0.222710  0.805290  1.0  -0.3342
  N  N282  1  0.145420  0.254090  0.691270  1.0  -0.3984
  N  N283  1  0.418880  0.722710  0.805290  1.0  -0.3342
  N  N284  1  0.645420  0.754090  0.691270  1.0  -0.3984
  N  N285  1  0.081120  0.222710  0.194710  1.0  -0.3334
  N  N286  1  0.854580  0.254090  0.308730  1.0  -0.3981
  N  N287  1  0.581120  0.722710  0.194710  1.0  -0.3334
  N  N288  1  0.354580  0.754090  0.308730  1.0  -0.3981
  O  O289  1  0.264230  0.860290  0.296600  1.0  -0.5648
  O  O290  1  0.164100  0.903490  0.204570  1.0  -0.5969
  O  O291  1  0.385500  0.957050  0.550280  1.0  -0.4987
  O  O292  1  0.867180  0.831110  0.343370  1.0  -0.505
  O  O293  1  0.769400  0.698440  0.102460  1.0  -0.602
  O  O294  1  0.817410  0.624570  0.045690  1.0  -0.5087
  O  O295  1  0.058880  0.866260  0.050910  1.0  -0.604
  O  O296  1  0.764230  0.360290  0.296600  1.0  -0.5648
  O  O297  1  0.664100  0.403490  0.204570  1.0  -0.5969
  O  O298  1  0.885500  0.457050  0.550280  1.0  -0.4987
  O  O299  1  0.367180  0.331110  0.343370  1.0  -0.505
  O  O300  1  0.269400  0.198440  0.102460  1.0  -0.602
  O  O301  1  0.317410  0.124570  0.045690  1.0  -0.5087
  O  O302  1  0.558880  0.366260  0.050910  1.0  -0.604
  O  O303  1  0.735770  0.860290  0.703400  1.0  -0.5638
  O  O304  1  0.835900  0.903490  0.795430  1.0  -0.5954
  O  O305  1  0.614500  0.957050  0.449720  1.0  -0.4973
  O  O306  1  0.132820  0.831110  0.656630  1.0  -0.5062
  O  O307  1  0.230600  0.698440  0.897540  1.0  -0.6017
  O  O308  1  0.182590  0.624570  0.954310  1.0  -0.5059
  O  O309  1  0.941120  0.866260  0.949090  1.0  -0.6036
  O  O310  1  0.235770  0.360290  0.703400  1.0  -0.5638
  O  O311  1  0.335900  0.403490  0.795430  1.0  -0.5954
  O  O312  1  0.114500  0.457050  0.449720  1.0  -0.4973
  O  O313  1  0.632820  0.331110  0.656630  1.0  -0.5062
  O  O314  1  0.730600  0.198440  0.897540  1.0  -0.6017
  O  O315  1  0.682590  0.124570  0.954310  1.0  -0.5059
  O  O316  1  0.441120  0.366260  0.949090  1.0  -0.6036
  O  O317  1  0.735770  0.139710  0.703400  1.0  -0.5644
  O  O318  1  0.835900  0.096510  0.795430  1.0  -0.5954
  O  O319  1  0.614500  0.042950  0.449720  1.0  -0.4977
  O  O320  1  0.132820  0.168890  0.656630  1.0  -0.5079
  O  O321  1  0.230600  0.301560  0.897540  1.0  -0.6017
  O  O322  1  0.182590  0.375430  0.954310  1.0  -0.5071
  O  O323  1  0.941120  0.133740  0.949090  1.0  -0.6031
  O  O324  1  0.235770  0.639710  0.703400  1.0  -0.5644
  O  O325  1  0.335900  0.596510  0.795430  1.0  -0.5954
  O  O326  1  0.114500  0.542950  0.449720  1.0  -0.4977
  O  O327  1  0.632820  0.668890  0.656630  1.0  -0.5079
  O  O328  1  0.730600  0.801560  0.897540  1.0  -0.6017
  O  O329  1  0.682590  0.875430  0.954310  1.0  -0.5071
  O  O330  1  0.441120  0.633740  0.949090  1.0  -0.6031
  O  O331  1  0.264230  0.139710  0.296600  1.0  -0.5653
  O  O332  1  0.164100  0.096510  0.204570  1.0  -0.5959
  O  O333  1  0.385500  0.042950  0.550280  1.0  -0.4985
  O  O334  1  0.867180  0.168890  0.343370  1.0  -0.5077
  O  O335  1  0.769400  0.301560  0.102460  1.0  -0.6022
  O  O336  1  0.817410  0.375430  0.045690  1.0  -0.5087
  O  O337  1  0.058880  0.133740  0.050910  1.0  -0.6027
  O  O338  1  0.764230  0.639710  0.296600  1.0  -0.5653
  O  O339  1  0.664100  0.596510  0.204570  1.0  -0.5959
  O  O340  1  0.885500  0.542950  0.550280  1.0  -0.4985
  O  O341  1  0.367180  0.668890  0.343370  1.0  -0.5077
  O  O342  1  0.269400  0.801560  0.102460  1.0  -0.6022
  O  O343  1  0.317410  0.875430  0.045690  1.0  -0.5087
  O  O344  1  0.558880  0.633740  0.050910  1.0  -0.6027
