# generated using pymatgen
data_ZnH10C12(NO)2
_symmetry_space_group_name_H-M   'P 1'
_cell_length_a   18.08020000
_cell_length_b   18.08020000
_cell_length_c   18.08020000
_cell_angle_alpha   134.59420000
_cell_angle_beta   98.55700000
_cell_angle_gamma   98.57630000
_symmetry_Int_Tables_number   1
_chemical_formula_structural   ZnH10C12(NO)2
_chemical_formula_sum   'Zn8 H80 C96 N16 O16'
_cell_volume   3882.61099613
_cell_formula_units_Z   8
loop_
 _symmetry_equiv_pos_site_id
 _symmetry_equiv_pos_as_xyz
  1  'x, y, z'
loop_
 _atom_site_type_symbol
 _atom_site_label
 _atom_site_symmetry_multiplicity
 _atom_site_fract_x
 _atom_site_fract_y
 _atom_site_fract_z
 _atom_site_occupancy
 _atom_site_charge
  Zn  Zn1  1  0.733280  0.886010  0.604250  1.0  0.9243
  Zn  Zn2  1  0.781760  0.129030  0.895750  1.0  0.9244
  Zn  Zn3  1  0.718240  0.613990  0.347270  1.0  0.9247
  Zn  Zn4  1  0.766720  0.370970  0.152730  1.0  0.9229
  Zn  Zn5  1  0.266720  0.113990  0.395750  1.0  0.9243
  Zn  Zn6  1  0.218240  0.870970  0.104250  1.0  0.9236
  Zn  Zn7  1  0.281760  0.386010  0.652730  1.0  0.9248
  Zn  Zn8  1  0.233280  0.629030  0.847270  1.0  0.9231
  H  H9  1  0.878200  0.062500  0.583100  1.0  0.0962
  H  H10  1  0.992500  0.156500  0.589400  1.0  0.0989
  H  H11  1  0.185700  0.187200  0.565900  1.0  0.1143
  H  H12  1  0.092500  0.142500  0.541200  1.0  0.1022
  H  H13  1  0.158400  0.170600  0.635000  1.0  0.1099
  H  H14  1  0.946100  0.914700  0.755000  1.0  0.0968
  H  H15  1  0.046700  0.917600  0.855300  1.0  0.1005
  H  H16  1  0.107100  0.950200  0.092500  1.0  0.1341
  H  H17  1  0.017200  0.888100  0.006900  1.0  0.1162
  H  H18  1  0.082900  0.970600  0.020700  1.0  0.1226
  H  H19  1  0.979400  0.295100  0.916900  1.0  0.0964
  H  H20  1  0.067100  0.403100  0.910600  1.0  0.0988
  H  H21  1  0.121300  0.619800  0.934100  1.0  0.1169
  H  H22  1  0.101300  0.551300  0.958800  1.0  0.1033
  H  H23  1  0.035600  0.523400  0.865000  1.0  0.109
  H  H24  1  0.659700  0.191100  0.745000  1.0  0.0974
  H  H25  1  0.562300  0.191400  0.644700  1.0  0.0987
  H  H26  1  0.357700  0.014600  0.407500  1.0  0.1338
  H  H27  1  0.381200  0.010300  0.493100  1.0  0.118
  H  H28  1  0.449900  0.062200  0.479300  1.0  0.1192
  H  H29  1  0.520600  0.437500  0.315700  1.0  0.0964
  H  H30  1  0.432900  0.343500  0.336000  1.0  0.1006
  H  H31  1  0.378700  0.312800  0.498500  1.0  0.1181
  H  H32  1  0.398700  0.357500  0.450000  1.0  0.1035
  H  H33  1  0.464400  0.329400  0.487800  1.0  0.1064
  H  H34  1  0.840300  0.585300  0.531400  1.0  0.0968
  H  H35  1  0.937700  0.582400  0.629100  1.0  0.1001
  H  H36  1  0.142300  0.549800  0.656900  1.0  0.1342
  H  H37  1  0.118800  0.611900  0.629100  1.0  0.1169
  H  H38  1  0.050100  0.529400  0.612300  1.0  0.1214
  H  H39  1  0.621800  0.204900  0.184300  1.0  0.0971
  H  H40  1  0.507500  0.096900  0.164000  1.0  0.0992
  H  H41  1  0.314300  0.880200  0.001500  1.0  0.1168
  H  H42  1  0.407500  0.948700  0.050000  1.0  0.1083
  H  H43  1  0.341600  0.976600  0.012200  1.0  0.1088
  H  H44  1  0.553900  0.308900  0.968600  1.0  0.0977
  H  H45  1  0.453300  0.308600  0.870900  1.0  0.1001
  H  H46  1  0.392900  0.485400  0.843100  1.0  0.1334
  H  H47  1  0.482800  0.489700  0.870900  1.0  0.1166
  H  H48  1  0.417100  0.437800  0.887700  1.0  0.1218
  H  H49  1  0.121800  0.937500  0.416900  1.0  0.0964
  H  H50  1  0.007500  0.843500  0.410600  1.0  0.0996
  H  H51  1  0.814300  0.812800  0.434100  1.0  0.1148
  H  H52  1  0.907500  0.857500  0.458800  1.0  0.1023
  H  H53  1  0.841600  0.829400  0.365000  1.0  0.1089
  H  H54  1  0.053900  0.085300  0.245000  1.0  0.0954
  H  H55  1  0.953300  0.082400  0.144700  1.0  0.1
  H  H56  1  0.892900  0.049800  0.907500  1.0  0.1353
  H  H57  1  0.982800  0.111900  0.993100  1.0  0.1145
  H  H58  1  0.917100  0.029400  0.979300  1.0  0.1226
  H  H59  1  0.020600  0.704900  0.083100  1.0  0.0965
  H  H60  1  0.932900  0.596900  0.089400  1.0  0.0986
  H  H61  1  0.878700  0.380200  0.065900  1.0  0.1166
  H  H62  1  0.898700  0.448700  0.041200  1.0  0.104
  H  H63  1  0.964400  0.476600  0.135000  1.0  0.1067
  H  H64  1  0.340300  0.808900  0.255000  1.0  0.0962
  H  H65  1  0.437700  0.808600  0.355300  1.0  0.0999
  H  H66  1  0.642300  0.985400  0.592500  1.0  0.1327
  H  H67  1  0.618800  0.989700  0.506900  1.0  0.1162
  H  H68  1  0.550100  0.937800  0.520700  1.0  0.1199
  H  H69  1  0.479400  0.562500  0.684300  1.0  0.0963
  H  H70  1  0.567100  0.656500  0.664000  1.0  0.1002
  H  H71  1  0.621300  0.687200  0.501500  1.0  0.1167
  H  H72  1  0.601300  0.642500  0.550000  1.0  0.1032
  H  H73  1  0.535600  0.670600  0.512200  1.0  0.1088
  H  H74  1  0.159700  0.414700  0.468600  1.0  0.0968
  H  H75  1  0.062300  0.417600  0.370900  1.0  0.0999
  H  H76  1  0.857700  0.450200  0.343100  1.0  0.1336
  H  H77  1  0.881200  0.388100  0.370900  1.0  0.1181
  H  H78  1  0.949900  0.470600  0.387700  1.0  0.1217
  H  H79  1  0.378200  0.795100  0.815700  1.0  0.0968
  H  H80  1  0.492500  0.903100  0.836000  1.0  0.0995
  H  H81  1  0.685700  0.119800  0.998500  1.0  0.1173
  H  H82  1  0.592500  0.051300  0.950000  1.0  0.1056
  H  H83  1  0.658400  0.023400  0.987800  1.0  0.1103
  H  H84  1  0.446100  0.691100  0.031400  1.0  0.0974
  H  H85  1  0.546700  0.691400  0.129100  1.0  0.1
  H  H86  1  0.607100  0.514600  0.156900  1.0  0.1348
  H  H87  1  0.517200  0.510300  0.129100  1.0  0.1178
  H  H88  1  0.582900  0.562200  0.112300  1.0  0.1224
  C  C89  1  0.919300  0.128100  0.652400  1.0  -0.0897
  C  C90  1  0.985900  0.189000  0.656700  1.0  -0.166
  C  C91  1  0.148100  0.306700  0.682400  1.0  0.2957
  C  C92  1  0.146000  0.192300  0.599300  1.0  -0.4062
  C  C93  1  0.945000  0.847200  0.729600  1.0  -0.0112
  C  C94  1  0.005000  0.849200  0.789800  1.0  -0.157
  C  C95  1  0.095900  0.820800  0.930500  1.0  0.2296
  C  C96  1  0.073800  0.915500  0.020300  1.0  -0.3995
  C  C97  1  0.975700  0.266900  0.847600  1.0  -0.0949
  C  C98  1  0.032300  0.329200  0.843300  1.0  -0.165
  C  C99  1  0.124300  0.465700  0.817600  1.0  0.2921
  C  C100  1  0.093000  0.546700  0.900700  1.0  -0.4048
  C  C101  1  0.617600  0.215400  0.770400  1.0  -0.0094
  C  C102  1  0.559400  0.215200  0.710200  1.0  -0.1562
  C  C103  1  0.390300  0.165400  0.569500  1.0  0.2303
  C  C104  1  0.395200  0.053500  0.479700  1.0  -0.4018
  C  C105  1  0.524300  0.371900  0.291200  1.0  -0.0898
  C  C106  1  0.467700  0.311000  0.296900  1.0  -0.1647
  C  C107  1  0.375700  0.193300  0.341400  1.0  0.2967
  C  C108  1  0.407000  0.307700  0.453700  1.0  -0.4057
  C  C109  1  0.882400  0.652800  0.597800  1.0  -0.011
  C  C110  1  0.940600  0.650800  0.655800  1.0  -0.1531
  C  C111  1  0.109700  0.679200  0.775100  1.0  0.2278
  C  C112  1  0.104800  0.584500  0.658300  1.0  -0.4005
  C  C113  1  0.580700  0.233100  0.208800  1.0  -0.0917
  C  C114  1  0.514100  0.170800  0.203100  1.0  -0.1632
  C  C115  1  0.351900  0.034300  0.158600  1.0  0.2925
  C  C116  1  0.354000  0.953300  0.046300  1.0  -0.407
  C  C117  1  0.555000  0.284600  0.902200  1.0  -0.015
  C  C118  1  0.495000  0.284800  0.844200  1.0  -0.1528
  C  C119  1  0.404100  0.334600  0.724900  1.0  0.229
  C  C120  1  0.426200  0.446500  0.841700  1.0  -0.3991
  C  C121  1  0.080700  0.871900  0.347600  1.0  -0.0905
  C  C122  1  0.014100  0.811000  0.343300  1.0  -0.1638
  C  C123  1  0.851900  0.693300  0.317600  1.0  0.296
  C  C124  1  0.854000  0.807700  0.400700  1.0  -0.4044
  C  C125  1  0.055000  0.152800  0.270400  1.0  -0.0118
  C  C126  1  0.995000  0.150800  0.210200  1.0  -0.1554
  C  C127  1  0.904100  0.179200  0.069500  1.0  0.2294
  C  C128  1  0.926200  0.084500  0.979700  1.0  -0.4017
  C  C129  1  0.024300  0.733100  0.152400  1.0  -0.0941
  C  C130  1  0.967700  0.670800  0.156700  1.0  -0.1662
  C  C131  1  0.875700  0.534300  0.182400  1.0  0.2913
  C  C132  1  0.907000  0.453300  0.099300  1.0  -0.4058
  C  C133  1  0.382400  0.784600  0.229600  1.0  -0.0099
  C  C134  1  0.440600  0.784800  0.289800  1.0  -0.154
  C  C135  1  0.609700  0.834600  0.430500  1.0  0.2302
  C  C136  1  0.604800  0.946500  0.520300  1.0  -0.4006
  C  C137  1  0.475700  0.628100  0.708800  1.0  -0.0901
  C  C138  1  0.532300  0.689000  0.703100  1.0  -0.1631
  C  C139  1  0.624300  0.806700  0.658600  1.0  0.297
  C  C140  1  0.593000  0.692300  0.546300  1.0  -0.4052
  C  C141  1  0.117600  0.347200  0.402200  1.0  -0.0097
  C  C142  1  0.059400  0.349200  0.344200  1.0  -0.1552
  C  C143  1  0.890300  0.320800  0.224900  1.0  0.2277
  C  C144  1  0.895200  0.415500  0.341700  1.0  -0.4009
  C  C145  1  0.419300  0.766900  0.791200  1.0  -0.0914
  C  C146  1  0.485900  0.829200  0.796900  1.0  -0.1668
  C  C147  1  0.648100  0.965700  0.841400  1.0  0.291
  C  C148  1  0.646000  0.046700  0.953700  1.0  -0.4058
  C  C149  1  0.445000  0.715400  0.097800  1.0  -0.0159
  C  C150  1  0.505000  0.715200  0.155800  1.0  -0.1534
  C  C151  1  0.595900  0.665400  0.275100  1.0  0.2278
  C  C152  1  0.573800  0.553500  0.158300  1.0  -0.3984
  C  C153  1  0.853900  0.103900  0.750000  1.0  0.7046
  C  C154  1  0.916700  0.166700  0.750000  1.0  -0.0705
  C  C155  1  0.036000  0.286000  0.750000  1.0  0.2663
  C  C156  1  0.098400  0.348400  0.750000  1.0  -0.1751
  C  C157  1  0.646100  0.396100  0.250000  1.0  0.7049
  C  C158  1  0.583300  0.333333  0.250000  1.0  -0.063
  C  C159  1  0.464000  0.214000  0.250000  1.0  0.2647
  C  C160  1  0.401600  0.151600  0.250000  1.0  -0.175
  C  C161  1  0.146100  0.896100  0.250000  1.0  0.7049
  C  C162  1  0.083300  0.833300  0.250000  1.0  -0.0712
  C  C163  1  0.964000  0.714000  0.250000  1.0  0.2647
  C  C164  1  0.901600  0.651600  0.250000  1.0  -0.175
  C  C165  1  0.353900  0.603900  0.750000  1.0  0.7046
  C  C166  1  0.416700  0.666667  0.750000  1.0  -0.0626
  C  C167  1  0.536000  0.786000  0.750000  1.0  0.2663
  C  C168  1  0.598400  0.848400  0.750000  1.0  -0.1751
  C  C169  1  0.822000  0.750000  0.572000  1.0  0.6436
  C  C170  1  0.885100  0.750000  0.635100  1.0  -0.1085
  C  C171  1  0.004100  0.750000  0.754100  1.0  0.0354
  C  C172  1  0.066700  0.750000  0.816700  1.0  -0.2227
  C  C173  1  0.678000  0.250000  0.928000  1.0  0.6437
  C  C174  1  0.614900  0.250000  0.864900  1.0  -0.1065
  C  C175  1  0.495900  0.250000  0.745900  1.0  0.0353
  C  C176  1  0.433300  0.250000  0.683300  1.0  -0.2232
  C  C177  1  0.178000  0.250000  0.428000  1.0  0.6437
  C  C178  1  0.114900  0.250000  0.364900  1.0  -0.1066
  C  C179  1  0.995900  0.250000  0.245900  1.0  0.0353
  C  C180  1  0.933300  0.250000  0.183300  1.0  -0.2232
  C  C181  1  0.322000  0.750000  0.072000  1.0  0.6436
  C  C182  1  0.385100  0.750000  0.135100  1.0  -0.1085
  C  C183  1  0.504100  0.750000  0.254100  1.0  0.0354
  C  C184  1  0.566700  0.750000  0.316700  1.0  -0.2227
  N  N185  1  0.198300  0.390600  0.710700  1.0  -0.3259
  N  N186  1  0.153000  0.795300  0.955700  1.0  -0.3265
  N  N187  1  0.179900  0.487600  0.789300  1.0  -0.3247
  N  N188  1  0.339600  0.197300  0.544300  1.0  -0.3307
  N  N189  1  0.320100  0.109400  0.307700  1.0  -0.3256
  N  N190  1  0.160400  0.704700  0.857700  1.0  -0.3284
  N  N191  1  0.301700  0.012400  0.192300  1.0  -0.326
  N  N192  1  0.347000  0.302700  0.642300  1.0  -0.3313
  N  N193  1  0.801700  0.609400  0.289300  1.0  -0.3258
  N  N194  1  0.847000  0.204700  0.044300  1.0  -0.3282
  N  N195  1  0.820100  0.512400  0.210700  1.0  -0.3246
  N  N196  1  0.660400  0.802700  0.455700  1.0  -0.3269
  N  N197  1  0.679900  0.890600  0.692300  1.0  -0.3249
  N  N198  1  0.839600  0.295300  0.142300  1.0  -0.3311
  N  N199  1  0.698300  0.987600  0.807700  1.0  -0.3245
  N  N200  1  0.653000  0.697300  0.357700  1.0  -0.3289
  O  O201  1  0.795000  0.027900  0.663100  1.0  -0.5897
  O  O202  1  0.824600  0.844400  0.612200  1.0  -0.6061
  O  O203  1  0.864800  0.131900  0.836900  1.0  -0.5917
  O  O204  1  0.732200  0.212400  0.887800  1.0  -0.6065
  O  O205  1  0.635200  0.472100  0.267100  1.0  -0.5902
  O  O206  1  0.767800  0.655600  0.480200  1.0  -0.6055
  O  O207  1  0.705000  0.368100  0.232900  1.0  -0.5904
  O  O208  1  0.675400  0.287600  0.019800  1.0  -0.6065
  O  O209  1  0.205000  0.972100  0.336900  1.0  -0.5903
  O  O210  1  0.175400  0.155600  0.387800  1.0  -0.607
  O  O211  1  0.135200  0.868100  0.163100  1.0  -0.5909
  O  O212  1  0.267800  0.787600  0.112200  1.0  -0.6057
  O  O213  1  0.364800  0.527900  0.732900  1.0  -0.5905
  O  O214  1  0.232200  0.344400  0.519800  1.0  -0.6056
  O  O215  1  0.295000  0.631900  0.767100  1.0  -0.5894
  O  O216  1  0.324600  0.712400  0.980200  1.0  -0.6067
