# generated using pymatgen
data_Zn3P4(HO3)4
_symmetry_space_group_name_H-M   'P 1'
_cell_length_a   10.33970000
_cell_length_b   14.76320000
_cell_length_c   13.77260000
_cell_angle_alpha   90.00000000
_cell_angle_beta   100.73400000
_cell_angle_gamma   90.00000000
_symmetry_Int_Tables_number   1
_chemical_formula_structural   Zn3P4(HO3)4
_chemical_formula_sum   'Zn12 P16 H16 O48'
_cell_volume   2065.56095877
_cell_formula_units_Z   4
loop_
 _symmetry_equiv_pos_site_id
 _symmetry_equiv_pos_as_xyz
  1  'x, y, z'
loop_
 _atom_site_type_symbol
 _atom_site_label
 _atom_site_symmetry_multiplicity
 _atom_site_fract_x
 _atom_site_fract_y
 _atom_site_fract_z
 _atom_site_occupancy
 _atom_site_charge
  Zn  Zn1  1  0.054110  0.921030  0.397660  1.0  1.1461
  Zn  Zn2  1  0.554110  0.421030  0.397660  1.0  1.1461
  Zn  Zn3  1  0.945890  0.921030  0.102340  1.0  1.1468
  Zn  Zn4  1  0.445890  0.421030  0.102340  1.0  1.1468
  Zn  Zn5  1  0.945890  0.078970  0.602340  1.0  1.1465
  Zn  Zn6  1  0.445890  0.578970  0.602340  1.0  1.1465
  Zn  Zn7  1  0.054110  0.078970  0.897660  1.0  1.1457
  Zn  Zn8  1  0.554110  0.578970  0.897660  1.0  1.1457
  Zn  Zn9  1  0.500000  0.784710  0.250000  1.0  1.102
  Zn  Zn10  1  0.000000  0.284710  0.250000  1.0  1.102
  Zn  Zn11  1  0.500000  0.215290  0.750000  1.0  1.1012
  Zn  Zn12  1  0.000000  0.715290  0.750000  1.0  1.1012
  P  P13  1  0.210800  0.846840  0.231700  1.0  1.544
  P  P14  1  0.564560  0.620750  0.116040  1.0  1.6029
  P  P15  1  0.710800  0.346840  0.231700  1.0  1.544
  P  P16  1  0.064560  0.120750  0.116040  1.0  1.6029
  P  P17  1  0.789200  0.846840  0.268300  1.0  1.5448
  P  P18  1  0.435440  0.620750  0.383960  1.0  1.603
  P  P19  1  0.289200  0.346840  0.268300  1.0  1.5448
  P  P20  1  0.935440  0.120750  0.383960  1.0  1.603
  P  P21  1  0.789200  0.153160  0.768300  1.0  1.5451
  P  P22  1  0.435440  0.379250  0.883960  1.0  1.6019
  P  P23  1  0.289200  0.653160  0.768300  1.0  1.5451
  P  P24  1  0.935440  0.879250  0.883960  1.0  1.6019
  P  P25  1  0.210800  0.153160  0.731700  1.0  1.544
  P  P26  1  0.564560  0.379250  0.616040  1.0  1.6044
  P  P27  1  0.710800  0.653160  0.731700  1.0  1.544
  P  P28  1  0.064560  0.879250  0.616040  1.0  1.6044
  H  H29  1  0.194000  0.758000  0.261000  1.0  -0.0859
  H  H30  1  0.660000  0.599200  0.202600  1.0  -0.0844
  H  H31  1  0.694000  0.258000  0.261000  1.0  -0.0859
  H  H32  1  0.160000  0.099200  0.202600  1.0  -0.0844
  H  H33  1  0.806000  0.758000  0.239000  1.0  -0.0852
  H  H34  1  0.340000  0.599200  0.297400  1.0  -0.0849
  H  H35  1  0.306000  0.258000  0.239000  1.0  -0.0852
  H  H36  1  0.840000  0.099200  0.297400  1.0  -0.0852
  H  H37  1  0.806000  0.242000  0.739000  1.0  -0.0867
  H  H38  1  0.340000  0.400800  0.797400  1.0  -0.0837
  H  H39  1  0.306000  0.742000  0.739000  1.0  -0.0867
  H  H40  1  0.840000  0.900800  0.797400  1.0  -0.0836
  H  H41  1  0.194000  0.242000  0.761000  1.0  -0.0879
  H  H42  1  0.660000  0.400800  0.702600  1.0  -0.0843
  H  H43  1  0.694000  0.742000  0.761000  1.0  -0.0879
  H  H44  1  0.160000  0.900800  0.702600  1.0  -0.0845
  O  O45  1  0.188100  0.906200  0.316100  1.0  -0.7927
  O  O46  1  0.455400  0.552010  0.107600  1.0  -0.8073
  O  O47  1  0.108900  0.858000  0.139300  1.0  -0.814
  O  O48  1  0.634800  0.620500  0.028840  1.0  -0.7716
  O  O49  1  0.512900  0.714970  0.132710  1.0  -0.7632
  O  O50  1  0.349200  0.861510  0.212300  1.0  -0.7271
  O  O51  1  0.688100  0.406200  0.316100  1.0  -0.7927
  O  O52  1  0.955400  0.052010  0.107600  1.0  -0.8073
  O  O53  1  0.608900  0.358000  0.139300  1.0  -0.814
  O  O54  1  0.134800  0.120500  0.028840  1.0  -0.7716
  O  O55  1  0.012900  0.214970  0.132710  1.0  -0.7632
  O  O56  1  0.849200  0.361510  0.212300  1.0  -0.7271
  O  O57  1  0.811900  0.906200  0.183900  1.0  -0.7902
  O  O58  1  0.544600  0.552010  0.392400  1.0  -0.8075
  O  O59  1  0.891100  0.858000  0.360700  1.0  -0.8128
  O  O60  1  0.365200  0.620500  0.471160  1.0  -0.7721
  O  O61  1  0.487100  0.714970  0.367290  1.0  -0.7617
  O  O62  1  0.650800  0.861510  0.287700  1.0  -0.7275
  O  O63  1  0.311900  0.406200  0.183900  1.0  -0.7902
  O  O64  1  0.044600  0.052010  0.392400  1.0  -0.8075
  O  O65  1  0.391100  0.358000  0.360700  1.0  -0.8131
  O  O66  1  0.865200  0.120500  0.471160  1.0  -0.7721
  O  O67  1  0.987100  0.214970  0.367290  1.0  -0.7617
  O  O68  1  0.150800  0.361510  0.287700  1.0  -0.7275
  O  O69  1  0.811900  0.093800  0.683900  1.0  -0.7906
  O  O70  1  0.544600  0.447990  0.892400  1.0  -0.807
  O  O71  1  0.891100  0.142000  0.860700  1.0  -0.8129
  O  O72  1  0.365200  0.379500  0.971160  1.0  -0.7716
  O  O73  1  0.487100  0.285030  0.867290  1.0  -0.7618
  O  O74  1  0.650800  0.138490  0.787700  1.0  -0.7278
  O  O75  1  0.311900  0.593800  0.683900  1.0  -0.7906
  O  O76  1  0.044600  0.947990  0.892400  1.0  -0.807
  O  O77  1  0.391100  0.642000  0.860700  1.0  -0.8129
  O  O78  1  0.865200  0.879500  0.971160  1.0  -0.7716
  O  O79  1  0.987100  0.785030  0.867290  1.0  -0.7618
  O  O80  1  0.150800  0.638490  0.787700  1.0  -0.7278
  O  O81  1  0.188100  0.093800  0.816100  1.0  -0.792
  O  O82  1  0.455400  0.447990  0.607600  1.0  -0.8072
  O  O83  1  0.108900  0.142000  0.639300  1.0  -0.8137
  O  O84  1  0.634800  0.379500  0.528840  1.0  -0.7719
  O  O85  1  0.512900  0.285030  0.632710  1.0  -0.7634
  O  O86  1  0.349200  0.138490  0.712300  1.0  -0.7276
  O  O87  1  0.688100  0.593800  0.816100  1.0  -0.792
  O  O88  1  0.955400  0.947990  0.607600  1.0  -0.8072
  O  O89  1  0.608900  0.642000  0.639300  1.0  -0.8137
  O  O90  1  0.134800  0.879500  0.528840  1.0  -0.7719
  O  O91  1  0.012900  0.785030  0.632710  1.0  -0.7634
  O  O92  1  0.849200  0.638490  0.712300  1.0  -0.7276
