# generated using pymatgen
data_Zn3P4(HO3)4
_symmetry_space_group_name_H-M   'P 1'
_cell_length_a   9.02380000
_cell_length_b   9.03920000
_cell_length_c   13.80710000
_cell_angle_alpha   95.96500000
_cell_angle_beta   96.04900000
_cell_angle_gamma   110.22800000
_symmetry_Int_Tables_number   1
_chemical_formula_structural   Zn3P4(HO3)4
_chemical_formula_sum   'Zn6 P8 H8 O24'
_cell_volume   1038.91582963
_cell_formula_units_Z   2
loop_
 _symmetry_equiv_pos_site_id
 _symmetry_equiv_pos_as_xyz
  1  'x, y, z'
loop_
 _atom_site_type_symbol
 _atom_site_label
 _atom_site_symmetry_multiplicity
 _atom_site_fract_x
 _atom_site_fract_y
 _atom_site_fract_z
 _atom_site_occupancy
 _atom_site_charge
  Zn  Zn1  1  0.971320  0.132610  0.896520  1.0  1.1498
  Zn  Zn2  1  0.282210  0.717600  0.750070  1.0  1.0962
  Zn  Zn3  1  0.867040  0.028710  0.603240  1.0  1.1537
  Zn  Zn4  1  0.028680  0.867390  0.103480  1.0  1.1496
  Zn  Zn5  1  0.717790  0.282400  0.249930  1.0  1.0959
  Zn  Zn6  1  0.132960  0.971290  0.396760  1.0  1.1533
  P  P7  1  0.056300  0.817800  0.884120  1.0  1.5936
  P  P8  1  0.181600  0.943300  0.615770  1.0  1.5907
  P  P9  1  0.054800  0.366200  0.732360  1.0  1.5474
  P  P10  1  0.633400  0.944900  0.767140  1.0  1.5161
  P  P11  1  0.943700  0.182200  0.115880  1.0  1.5936
  P  P12  1  0.818400  0.056700  0.384230  1.0  1.5906
  P  P13  1  0.945200  0.633800  0.267640  1.0  1.5466
  P  P14  1  0.366600  0.055100  0.232860  1.0  1.5133
  H  H15  1  0.942000  0.749000  0.800000  1.0  -0.084
  H  H16  1  0.259000  0.057000  0.703000  1.0  -0.0781
  H  H17  1  0.956000  0.441000  0.756000  1.0  -0.0716
  H  H18  1  0.555000  0.045000  0.742000  1.0  -0.0727
  H  H19  1  0.058000  0.251000  0.200000  1.0  -0.0847
  H  H20  1  0.741000  0.943000  0.297000  1.0  -0.0759
  H  H21  1  0.044000  0.559000  0.244000  1.0  -0.0692
  H  H22  1  0.445000  0.955000  0.258000  1.0  -0.0726
  O  O23  1  0.094000  0.994800  0.892000  1.0  -0.8184
  O  O24  1  0.989600  0.748700  0.972400  1.0  -0.7777
  O  O25  1  0.203400  0.778200  0.866800  1.0  -0.7542
  O  O26  1  0.221400  0.796700  0.633400  1.0  -0.7564
  O  O27  1  0.004000  0.904700  0.607500  1.0  -0.802
  O  O28  1  0.250400  0.010300  0.527200  1.0  -0.7696
  O  O29  1  0.970000  0.254000  0.640200  1.0  -0.7875
  O  O30  1  0.207000  0.489400  0.714600  1.0  -0.7316
  O  O31  1  0.090000  0.285500  0.818100  1.0  -0.7883
  O  O32  1  0.714000  0.910400  0.681300  1.0  -0.8021
  O  O33  1  0.510300  0.791300  0.785000  1.0  -0.7405
  O  O34  1  0.746000  0.031500  0.860100  1.0  -0.8132
  O  O35  1  0.906000  0.005200  0.108000  1.0  -0.8191
  O  O36  1  0.010400  0.251300  0.027600  1.0  -0.7768
  O  O37  1  0.796600  0.221800  0.133200  1.0  -0.7544
  O  O38  1  0.778600  0.203300  0.366600  1.0  -0.7572
  O  O39  1  0.996000  0.095300  0.392500  1.0  -0.8009
  O  O40  1  0.749600  0.989700  0.472800  1.0  -0.7719
  O  O41  1  0.030000  0.746000  0.359800  1.0  -0.7875
  O  O42  1  0.793000  0.510600  0.285400  1.0  -0.731
  O  O43  1  0.910000  0.714500  0.181900  1.0  -0.7864
  O  O44  1  0.286000  0.089600  0.318700  1.0  -0.8033
  O  O45  1  0.489700  0.208700  0.215000  1.0  -0.7388
  O  O46  1  0.254000  0.968500  0.139900  1.0  -0.8125
