# generated using pymatgen
data_Zn3P4(HO3)4
_symmetry_space_group_name_H-M   'P 1'
_cell_length_a   7.77030000
_cell_length_b   9.14990000
_cell_length_c   14.46850000
_cell_angle_alpha   89.96500000
_cell_angle_beta   87.05000000
_cell_angle_gamma   65.33200000
_symmetry_Int_Tables_number   1
_chemical_formula_structural   Zn3P4(HO3)4
_chemical_formula_sum   'Zn6 P8 H8 O24'
_cell_volume   933.31279903
_cell_formula_units_Z   2
loop_
 _symmetry_equiv_pos_site_id
 _symmetry_equiv_pos_as_xyz
  1  'x, y, z'
loop_
 _atom_site_type_symbol
 _atom_site_label
 _atom_site_symmetry_multiplicity
 _atom_site_fract_x
 _atom_site_fract_y
 _atom_site_fract_z
 _atom_site_occupancy
 _atom_site_charge
  Zn  Zn1  1  0.218570  0.968900  0.110660  1.0  1.1437
  Zn  Zn2  1  0.407190  0.939170  0.379250  1.0  1.1517
  Zn  Zn3  1  0.703140  0.309050  0.235820  1.0  1.1461
  Zn  Zn4  1  0.781430  0.031100  0.889340  1.0  1.1435
  Zn  Zn5  1  0.592810  0.060830  0.620750  1.0  1.1518
  Zn  Zn6  1  0.296860  0.690950  0.764180  1.0  1.1462
  P  P7  1  0.523000  0.678700  0.210070  1.0  1.5551
  P  P8  1  0.137500  0.236300  0.270120  1.0  1.6041
  P  P9  1  0.322100  0.890400  0.593550  1.0  1.5478
  P  P10  1  0.199300  0.999900  0.889010  1.0  1.6501
  P  P11  1  0.477000  0.321300  0.789930  1.0  1.5489
  P  P12  1  0.862500  0.763700  0.729880  1.0  1.5998
  P  P13  1  0.677900  0.109600  0.406450  1.0  1.5571
  P  P14  1  0.800700  0.000100  0.110990  1.0  1.6416
  H  H15  1  0.698000  0.653000  0.212000  1.0  -0.0971
  H  H16  1  0.209000  0.354000  0.277000  1.0  -0.0698
  H  H17  1  0.153000  0.930000  0.602100  1.0  0.0309
  H  H18  1  0.297000  0.053000  0.837000  1.0  -0.1142
  H  H19  1  0.302000  0.347000  0.788000  1.0  -0.0961
  H  H20  1  0.791000  0.646000  0.723000  1.0  -0.0703
  H  H21  1  0.847000  0.070000  0.397900  1.0  0.0317
  H  H22  1  0.703000  0.947000  0.163000  1.0  -0.1156
  O  O23  1  0.450400  0.777900  0.124500  1.0  -0.7704
  O  O24  1  0.228000  0.146500  0.179600  1.0  -0.8086
  O  O25  1  0.225000  0.044100  0.986000  1.0  -0.8379
  O  O26  1  0.999400  0.080100  0.858500  1.0  -0.7849
  O  O27  1  0.419800  0.766800  0.298000  1.0  -0.8114
  O  O28  1  0.191400  0.133300  0.354900  1.0  -0.7794
  O  O29  1  0.380900  0.839700  0.494100  1.0  -0.8279
  O  O30  1  0.356600  0.036000  0.623000  1.0  -0.7866
  O  O31  1  0.413900  0.745500  0.654400  1.0  -0.7595
  O  O32  1  0.926100  0.329900  0.269100  1.0  -0.8416
  O  O33  1  0.516900  0.514400  0.202000  1.0  -0.7417
  O  O34  1  0.282500  0.817700  0.873300  1.0  -0.7937
  O  O35  1  0.549600  0.222100  0.875500  1.0  -0.772
  O  O36  1  0.772000  0.853500  0.820400  1.0  -0.8113
  O  O37  1  0.775000  0.955900  0.014000  1.0  -0.8397
  O  O38  1  0.000600  0.919900  0.141500  1.0  -0.7842
  O  O39  1  0.580200  0.233200  0.702000  1.0  -0.8084
  O  O40  1  0.808600  0.866700  0.645100  1.0  -0.7783
  O  O41  1  0.619100  0.160300  0.505900  1.0  -0.8271
  O  O42  1  0.643400  0.964000  0.377000  1.0  -0.7875
  O  O43  1  0.586100  0.254500  0.345600  1.0  -0.7585
  O  O44  1  0.073900  0.670100  0.730900  1.0  -0.8403
  O  O45  1  0.483100  0.485600  0.798000  1.0  -0.7418
  O  O46  1  0.717500  0.182300  0.126700  1.0  -0.7942
