# generated using pymatgen
data_MnHgH4C9(SN2)4
_symmetry_space_group_name_H-M   'P 1'
_cell_length_a   8.14030000
_cell_length_b   13.28280000
_cell_length_c   17.51750000
_cell_angle_alpha   90.00000000
_cell_angle_beta   90.00000000
_cell_angle_gamma   90.00000000
_symmetry_Int_Tables_number   1
_chemical_formula_structural   MnHgH4C9(SN2)4
_chemical_formula_sum   'Mn4 Hg4 H16 C36 S16 N32'
_cell_volume   1894.09679929
_cell_formula_units_Z   4
loop_
 _symmetry_equiv_pos_site_id
 _symmetry_equiv_pos_as_xyz
  1  'x, y, z'
loop_
 _atom_site_type_symbol
 _atom_site_label
 _atom_site_symmetry_multiplicity
 _atom_site_fract_x
 _atom_site_fract_y
 _atom_site_fract_z
 _atom_site_occupancy
 _atom_site_charge
  Mn  Mn1  1  0.523320  0.790920  0.604120  1.0  1.0421
  Mn  Mn2  1  0.023320  0.209080  0.395880  1.0  1.0437
  Mn  Mn3  1  0.523320  0.709080  0.104120  1.0  1.0423
  Mn  Mn4  1  0.023320  0.290920  0.895880  1.0  1.0435
  Hg  Hg5  1  0.002590  0.772160  0.338390  1.0  0.5646
  Hg  Hg6  1  0.502590  0.227840  0.661610  1.0  0.5645
  Hg  Hg7  1  0.002590  0.727840  0.838390  1.0  0.5636
  Hg  Hg8  1  0.502590  0.272160  0.161610  1.0  0.5628
  H  H9  1  0.347100  0.566500  0.638500  1.0  0.0582
  H  H10  1  0.291500  0.419800  0.399200  1.0  0.1132
  H  H11  1  0.383400  0.505200  0.294000  1.0  0.1093
  H  H12  1  0.493300  0.663000  0.308300  1.0  0.0735
  H  H13  1  0.847100  0.433500  0.361500  1.0  0.0586
  H  H14  1  0.791500  0.580200  0.600800  1.0  0.1133
  H  H15  1  0.883400  0.494800  0.706000  1.0  0.1097
  H  H16  1  0.993300  0.337000  0.691700  1.0  0.0729
  H  H17  1  0.347100  0.933500  0.138500  1.0  0.0581
  H  H18  1  0.291500  0.080200  0.899200  1.0  0.1134
  H  H19  1  0.383400  0.994800  0.794000  1.0  0.109
  H  H20  1  0.493300  0.837000  0.808300  1.0  0.0733
  H  H21  1  0.847100  0.066500  0.861500  1.0  0.0584
  H  H22  1  0.791500  0.919800  0.100800  1.0  0.1132
  H  H23  1  0.883400  0.005200  0.206000  1.0  0.1107
  H  H24  1  0.993300  0.163000  0.191700  1.0  0.073
  C  C25  1  0.426000  0.621900  0.478400  1.0  0.4533
  C  C26  1  0.360400  0.568700  0.585800  1.0  0.2944
  C  C27  1  0.338300  0.483400  0.403400  1.0  0.1425
  C  C28  1  0.391300  0.533600  0.342400  1.0  -0.1408
  C  C29  1  0.458700  0.629000  0.351800  1.0  0.1751
  C  C30  1  0.166000  0.835900  0.695100  1.0  0.2827
  C  C31  1  0.666667  0.667400  0.756900  1.0  0.3002
  C  C32  1  0.886700  0.758400  0.515700  1.0  0.2889
  C  C33  1  0.659200  0.006800  0.676100  1.0  0.3042
  C  C34  1  0.926000  0.378100  0.521600  1.0  0.4534
  C  C35  1  0.860400  0.431300  0.414200  1.0  0.295
  C  C36  1  0.838300  0.516600  0.596600  1.0  0.1415
  C  C37  1  0.891300  0.466400  0.657600  1.0  -0.1406
  C  C38  1  0.958700  0.371000  0.648200  1.0  0.1765
  C  C39  1  0.666000  0.164100  0.304900  1.0  0.2831
  C  C40  1  0.166600  0.332600  0.243100  1.0  0.2959
  C  C41  1  0.386700  0.241600  0.484300  1.0  0.2886
  C  C42  1  0.159200  0.993200  0.323900  1.0  0.3029
  C  C43  1  0.426000  0.878100  0.978400  1.0  0.4533
  C  C44  1  0.360400  0.931300  0.085800  1.0  0.2947
  C  C45  1  0.338300  0.016600  0.903400  1.0  0.1421
  C  C46  1  0.391300  0.966400  0.842400  1.0  -0.1408
  C  C47  1  0.458700  0.871000  0.851800  1.0  0.1753
  C  C48  1  0.166000  0.664100  0.195100  1.0  0.2827
  C  C49  1  0.666667  0.832600  0.256900  1.0  0.2999
  C  C50  1  0.886700  0.741600  0.015700  1.0  0.289
  C  C51  1  0.659200  0.493200  0.176100  1.0  0.3046
  C  C52  1  0.926000  0.121900  0.021600  1.0  0.4536
  C  C53  1  0.860400  0.068700  0.914200  1.0  0.2947
  C  C54  1  0.838300  0.983400  0.096600  1.0  0.1425
  C  C55  1  0.891300  0.033600  0.157600  1.0  -0.1408
  C  C56  1  0.958700  0.129000  0.148200  1.0  0.1754
  C  C57  1  0.666000  0.335900  0.804900  1.0  0.2831
  C  C58  1  0.166600  0.167400  0.743100  1.0  0.2961
  C  C59  1  0.386700  0.258400  0.984300  1.0  0.289
  C  C60  1  0.159200  0.506800  0.823900  1.0  0.3021
  S  S61  1  0.742030  0.619490  0.836120  1.0  -0.3429
  S  S62  1  0.070500  0.743920  0.476460  1.0  -0.3598
  S  S63  1  0.740600  0.112510  0.708440  1.0  -0.3445
  S  S64  1  0.000300  0.869290  0.743990  1.0  -0.3311
  S  S65  1  0.242030  0.380510  0.163880  1.0  -0.341
  S  S66  1  0.570500  0.256080  0.523540  1.0  -0.3595
  S  S67  1  0.240600  0.887490  0.291560  1.0  -0.3459
  S  S68  1  0.500300  0.130710  0.256010  1.0  -0.332
  S  S69  1  0.742030  0.880510  0.336120  1.0  -0.3419
  S  S70  1  0.070500  0.756080  0.976460  1.0  -0.3587
  S  S71  1  0.740600  0.387490  0.208440  1.0  -0.3451
  S  S72  1  0.000300  0.630710  0.243990  1.0  -0.3313
  S  S73  1  0.242030  0.119490  0.663880  1.0  -0.341
  S  S74  1  0.570500  0.243920  0.023540  1.0  -0.3603
  S  S75  1  0.240600  0.612510  0.791560  1.0  -0.3452
  S  S76  1  0.500300  0.369290  0.756010  1.0  -0.3317
  N  N77  1  0.430800  0.647600  0.551300  1.0  -0.3848
  N  N78  1  0.355500  0.529400  0.471500  1.0  0.1436
  N  N79  1  0.281500  0.815700  0.660500  1.0  -0.4485
  N  N80  1  0.611100  0.700500  0.702100  1.0  -0.3866
  N  N81  1  0.766200  0.768100  0.546300  1.0  -0.4066
  N  N82  1  0.604100  0.931900  0.655000  1.0  -0.4822
  N  N83  1  0.310900  0.494400  0.542000  1.0  -0.3493
  N  N84  1  0.476600  0.674200  0.417900  1.0  -0.3719
  N  N85  1  0.930800  0.352400  0.448700  1.0  -0.3869
  N  N86  1  0.855500  0.470600  0.528500  1.0  0.1438
  N  N87  1  0.781500  0.184300  0.339500  1.0  -0.4482
  N  N88  1  0.111100  0.299500  0.297900  1.0  -0.3823
  N  N89  1  0.266200  0.231900  0.453700  1.0  -0.4069
  N  N90  1  0.104100  0.068100  0.345000  1.0  -0.4824
  N  N91  1  0.810900  0.505600  0.458000  1.0  -0.3499
  N  N92  1  0.976600  0.325800  0.582100  1.0  -0.3654
  N  N93  1  0.430800  0.852400  0.051300  1.0  -0.3861
  N  N94  1  0.355500  0.970600  0.971500  1.0  0.1435
  N  N95  1  0.281500  0.684300  0.160500  1.0  -0.4487
  N  N96  1  0.611100  0.799500  0.202100  1.0  -0.3822
  N  N97  1  0.766200  0.731900  0.046300  1.0  -0.4069
  N  N98  1  0.604100  0.568100  0.155000  1.0  -0.4834
  N  N99  1  0.310900  0.005600  0.042000  1.0  -0.351
  N  N100  1  0.476600  0.825800  0.917900  1.0  -0.3664
  N  N101  1  0.930800  0.147600  0.948700  1.0  -0.3852
  N  N102  1  0.855500  0.029400  0.028500  1.0  0.144
  N  N103  1  0.781500  0.315700  0.839500  1.0  -0.4484
  N  N104  1  0.111100  0.200500  0.797900  1.0  -0.3815
  N  N105  1  0.266200  0.268100  0.953700  1.0  -0.4072
  N  N106  1  0.104100  0.431900  0.845000  1.0  -0.482
  N  N107  1  0.810900  0.994400  0.958000  1.0  -0.3492
  N  N108  1  0.976600  0.174200  0.082100  1.0  -0.3714
