# generated using pymatgen
data_CaHoH12(C4O5)3
_symmetry_space_group_name_H-M   'P 1'
_cell_length_a   18.73160000
_cell_length_b   18.73160000
_cell_length_c   18.73160000
_cell_angle_alpha   60.00000000
_cell_angle_beta   60.00000000
_cell_angle_gamma   60.00000000
_symmetry_Int_Tables_number   1
_chemical_formula_structural   CaHoH12(C4O5)3
_chemical_formula_sum   'Ca8 Ho8 H96 C96 O120'
_cell_volume   4647.39544128
_cell_formula_units_Z   8
loop_
 _symmetry_equiv_pos_site_id
 _symmetry_equiv_pos_as_xyz
  1  'x, y, z'
loop_
 _atom_site_type_symbol
 _atom_site_label
 _atom_site_symmetry_multiplicity
 _atom_site_fract_x
 _atom_site_fract_y
 _atom_site_fract_z
 _atom_site_occupancy
 _atom_site_charge
  Ca  Ca1  1  0.500000  0.500000  0.500000  1.0  1.5019
  Ca  Ca2  1  0.000000  0.000000  0.500000  1.0  1.5019
  Ca  Ca3  1  0.000000  0.500000  0.000000  1.0  1.5019
  Ca  Ca4  1  0.000000  0.500000  0.500000  1.0  1.5019
  Ca  Ca5  1  0.500000  0.500000  0.000000  1.0  1.5019
  Ca  Ca6  1  0.000000  0.000000  0.000000  1.0  1.5019
  Ca  Ca7  1  0.500000  0.000000  0.500000  1.0  1.5019
  Ca  Ca8  1  0.500000  0.000000  0.000000  1.0  1.5019
  Ho  Ho9  1  0.750000  0.250000  0.250000  1.0  2.1062
  Ho  Ho10  1  0.750000  0.250000  0.750000  1.0  2.1062
  Ho  Ho11  1  0.750000  0.750000  0.250000  1.0  2.1062
  Ho  Ho12  1  0.250000  0.250000  0.250000  1.0  2.1062
  Ho  Ho13  1  0.250000  0.750000  0.750000  1.0  2.1062
  Ho  Ho14  1  0.250000  0.750000  0.250000  1.0  2.1062
  Ho  Ho15  1  0.250000  0.250000  0.750000  1.0  2.1062
  Ho  Ho16  1  0.750000  0.750000  0.750000  1.0  2.1062
  H  H17  1  0.515700  0.416500  0.344300  1.0  0.0972
  H  H18  1  0.575700  0.474300  0.294700  1.0  0.0953
  H  H19  1  0.916500  0.015700  0.723500  1.0  0.0946
  H  H20  1  0.974300  0.075700  0.655300  1.0  0.09
  H  H21  1  0.844300  0.723500  0.015700  1.0  0.0945
  H  H22  1  0.794700  0.655300  0.075700  1.0  0.0952
  H  H23  1  0.223500  0.344300  0.416500  1.0  0.095
  H  H24  1  0.155300  0.294700  0.474300  1.0  0.0955
  H  H25  1  0.515700  0.344300  0.723500  1.0  0.097
  H  H26  1  0.575700  0.294700  0.655300  1.0  0.0929
  H  H27  1  0.916500  0.723500  0.344300  1.0  0.0944
  H  H28  1  0.974300  0.655300  0.294700  1.0  0.0949
  H  H29  1  0.844300  0.015700  0.416500  1.0  0.0939
  H  H30  1  0.794700  0.075700  0.474300  1.0  0.0929
  H  H31  1  0.223500  0.416500  0.015700  1.0  0.0947
  H  H32  1  0.155300  0.474300  0.075700  1.0  0.0957
  H  H33  1  0.515700  0.723500  0.416500  1.0  0.0968
  H  H34  1  0.575700  0.655300  0.474300  1.0  0.0947
  H  H35  1  0.916500  0.344300  0.015700  1.0  0.0946
  H  H36  1  0.974300  0.294700  0.075700  1.0  0.0945
  H  H37  1  0.844300  0.416500  0.723500  1.0  0.0951
  H  H38  1  0.794700  0.474300  0.655300  1.0  0.0951
  H  H39  1  0.223500  0.015700  0.344300  1.0  0.0942
  H  H40  1  0.155300  0.075700  0.294700  1.0  0.094
  H  H41  1  0.583500  0.484300  0.155700  1.0  0.0954
  H  H42  1  0.525700  0.424300  0.205300  1.0  0.0946
  H  H43  1  0.984300  0.083500  0.776500  1.0  0.0963
  H  H44  1  0.924300  0.025700  0.844700  1.0  0.096
  H  H45  1  0.276500  0.155700  0.484300  1.0  0.0954
  H  H46  1  0.344700  0.205300  0.424300  1.0  0.0941
  H  H47  1  0.655700  0.776500  0.083500  1.0  0.0946
  H  H48  1  0.705300  0.844700  0.025700  1.0  0.0946
  H  H49  1  0.655700  0.484300  0.776500  1.0  0.0951
  H  H50  1  0.705300  0.424300  0.844700  1.0  0.0937
  H  H51  1  0.276500  0.083500  0.155700  1.0  0.0944
  H  H52  1  0.344700  0.025700  0.205300  1.0  0.0959
  H  H53  1  0.984300  0.155700  0.083500  1.0  0.0959
  H  H54  1  0.924300  0.205300  0.025700  1.0  0.093
  H  H55  1  0.583500  0.776500  0.484300  1.0  0.0946
  H  H56  1  0.525700  0.844700  0.424300  1.0  0.0952
  H  H57  1  0.276500  0.484300  0.083500  1.0  0.0948
  H  H58  1  0.344700  0.424300  0.025700  1.0  0.0934
  H  H59  1  0.655700  0.083500  0.484300  1.0  0.0952
  H  H60  1  0.705300  0.025700  0.424300  1.0  0.0952
  H  H61  1  0.583500  0.155700  0.776500  1.0  0.095
  H  H62  1  0.525700  0.205300  0.844700  1.0  0.0947
  H  H63  1  0.984300  0.776500  0.155700  1.0  0.0954
  H  H64  1  0.924300  0.844700  0.205300  1.0  0.0944
  H  H65  1  0.484300  0.583500  0.655700  1.0  0.0962
  H  H66  1  0.424300  0.525700  0.705300  1.0  0.0958
  H  H67  1  0.083500  0.984300  0.276500  1.0  0.0955
  H  H68  1  0.025700  0.924300  0.344700  1.0  0.0947
  H  H69  1  0.155700  0.276500  0.984300  1.0  0.0949
  H  H70  1  0.205300  0.344700  0.924300  1.0  0.0948
  H  H71  1  0.776500  0.655700  0.583500  1.0  0.0949
  H  H72  1  0.844700  0.705300  0.525700  1.0  0.094
  H  H73  1  0.484300  0.655700  0.276500  1.0  0.0958
  H  H74  1  0.424300  0.705300  0.344700  1.0  0.0943
  H  H75  1  0.083500  0.276500  0.655700  1.0  0.0947
  H  H76  1  0.025700  0.344700  0.705300  1.0  0.0947
  H  H77  1  0.155700  0.984300  0.583500  1.0  0.0949
  H  H78  1  0.205300  0.924300  0.525700  1.0  0.0921
  H  H79  1  0.776500  0.583500  0.984300  1.0  0.0947
  H  H80  1  0.844700  0.525700  0.924300  1.0  0.0959
  H  H81  1  0.484300  0.276500  0.583500  1.0  0.0956
  H  H82  1  0.424300  0.344700  0.525700  1.0  0.0945
  H  H83  1  0.083500  0.655700  0.984300  1.0  0.0949
  H  H84  1  0.025700  0.705300  0.924300  1.0  0.0951
  H  H85  1  0.155700  0.583500  0.276500  1.0  0.095
  H  H86  1  0.205300  0.525700  0.344700  1.0  0.0958
  H  H87  1  0.776500  0.984300  0.655700  1.0  0.0948
  H  H88  1  0.844700  0.924300  0.705300  1.0  0.0936
  H  H89  1  0.416500  0.515700  0.844300  1.0  0.0946
  H  H90  1  0.474300  0.575700  0.794700  1.0  0.0899
  H  H91  1  0.015700  0.916500  0.223500  1.0  0.0971
  H  H92  1  0.075700  0.974300  0.155300  1.0  0.0955
  H  H93  1  0.723500  0.844300  0.515700  1.0  0.095
  H  H94  1  0.655300  0.794700  0.575700  1.0  0.095
  H  H95  1  0.344300  0.223500  0.916500  1.0  0.0946
  H  H96  1  0.294700  0.155300  0.974300  1.0  0.0957
  H  H97  1  0.344300  0.515700  0.223500  1.0  0.0942
  H  H98  1  0.294700  0.575700  0.155300  1.0  0.0923
  H  H99  1  0.723500  0.916500  0.844300  1.0  0.0949
  H  H100  1  0.655300  0.974300  0.794700  1.0  0.096
  H  H101  1  0.015700  0.844300  0.916500  1.0  0.0971
  H  H102  1  0.075700  0.794700  0.974300  1.0  0.0938
  H  H103  1  0.416500  0.223500  0.515700  1.0  0.0944
  H  H104  1  0.474300  0.155300  0.575700  1.0  0.095
  H  H105  1  0.723500  0.515700  0.916500  1.0  0.0939
  H  H106  1  0.655300  0.575700  0.974300  1.0  0.0937
  H  H107  1  0.344300  0.916500  0.515700  1.0  0.0949
  H  H108  1  0.294700  0.974300  0.575700  1.0  0.0949
  H  H109  1  0.416500  0.844300  0.223500  1.0  0.0946
  H  H110  1  0.474300  0.794700  0.155300  1.0  0.0941
  H  H111  1  0.015700  0.223500  0.844300  1.0  0.0968
  H  H112  1  0.075700  0.155300  0.794700  1.0  0.0945
  C  C113  1  0.575810  0.414990  0.317870  1.0  -0.0953
  C  C114  1  0.620620  0.359440  0.385580  1.0  0.7449
  C  C115  1  0.914990  0.075810  0.691330  1.0  -0.0944
  C  C116  1  0.859440  0.120620  0.634360  1.0  0.7439
  C  C117  1  0.817870  0.691330  0.075810  1.0  -0.0964
  C  C118  1  0.885580  0.634360  0.120620  1.0  0.7399
  C  C119  1  0.191330  0.317870  0.414990  1.0  -0.1003
  C  C120  1  0.134360  0.385580  0.359440  1.0  0.7427
  C  C121  1  0.575810  0.317870  0.691330  1.0  -0.0944
  C  C122  1  0.620620  0.385580  0.634360  1.0  0.7384
  C  C123  1  0.914990  0.691330  0.317870  1.0  -0.093
  C  C124  1  0.859440  0.634360  0.385580  1.0  0.7344
  C  C125  1  0.817870  0.075810  0.414990  1.0  -0.0951
  C  C126  1  0.885580  0.120620  0.359440  1.0  0.739
  C  C127  1  0.191330  0.414990  0.075810  1.0  -0.0933
  C  C128  1  0.134360  0.359440  0.120620  1.0  0.737
  C  C129  1  0.575810  0.691330  0.414990  1.0  -0.094
  C  C130  1  0.620620  0.634360  0.359440  1.0  0.7394
  C  C131  1  0.914990  0.317870  0.075810  1.0  -0.0932
  C  C132  1  0.859440  0.385580  0.120620  1.0  0.7464
  C  C133  1  0.817870  0.414990  0.691330  1.0  -0.0932
  C  C134  1  0.885580  0.359440  0.634360  1.0  0.7435
  C  C135  1  0.191330  0.075810  0.317870  1.0  -0.0954
  C  C136  1  0.134360  0.120620  0.385580  1.0  0.7415
  C  C137  1  0.585010  0.424190  0.182130  1.0  -0.0959
  C  C138  1  0.640560  0.379380  0.114420  1.0  0.7419
  C  C139  1  0.924190  0.085010  0.808670  1.0  -0.0957
  C  C140  1  0.879380  0.140560  0.865640  1.0  0.7449
  C  C141  1  0.308670  0.182130  0.424190  1.0  -0.1006
  C  C142  1  0.365640  0.114420  0.379380  1.0  0.7418
  C  C143  1  0.682130  0.808670  0.085010  1.0  -0.0965
  C  C144  1  0.614420  0.865640  0.140560  1.0  0.7417
  C  C145  1  0.682130  0.424190  0.808670  1.0  -0.093
  C  C146  1  0.614420  0.379380  0.865640  1.0  0.7374
  C  C147  1  0.308670  0.085010  0.182130  1.0  -0.0951
  C  C148  1  0.365640  0.140560  0.114420  1.0  0.7377
  C  C149  1  0.924190  0.182130  0.085010  1.0  -0.0945
  C  C150  1  0.879380  0.114420  0.140560  1.0  0.7382
  C  C151  1  0.585010  0.808670  0.424190  1.0  -0.0941
  C  C152  1  0.640560  0.865640  0.379380  1.0  0.7368
  C  C153  1  0.308670  0.424190  0.085010  1.0  -0.0932
  C  C154  1  0.365640  0.379380  0.140560  1.0  0.7414
  C  C155  1  0.682130  0.085010  0.424190  1.0  -0.0958
  C  C156  1  0.614420  0.140560  0.379380  1.0  0.7438
  C  C157  1  0.585010  0.182130  0.808670  1.0  -0.094
  C  C158  1  0.640560  0.114420  0.865640  1.0  0.7464
  C  C159  1  0.924190  0.808670  0.182130  1.0  -0.093
  C  C160  1  0.879380  0.865640  0.114420  1.0  0.7415
  C  C161  1  0.424190  0.585010  0.682130  1.0  -0.0961
  C  C162  1  0.379380  0.640560  0.614420  1.0  0.744
  C  C163  1  0.085010  0.924190  0.308670  1.0  -0.0948
  C  C164  1  0.140560  0.879380  0.365640  1.0  0.7432
  C  C165  1  0.182130  0.308670  0.924190  1.0  -0.0989
  C  C166  1  0.114420  0.365640  0.879380  1.0  0.7423
  C  C167  1  0.808670  0.682130  0.585010  1.0  -0.0973
  C  C168  1  0.865640  0.614420  0.640560  1.0  0.7428
  C  C169  1  0.424190  0.682130  0.308670  1.0  -0.0941
  C  C170  1  0.379380  0.614420  0.365640  1.0  0.7387
  C  C171  1  0.085010  0.308670  0.682130  1.0  -0.0938
  C  C172  1  0.140560  0.365640  0.614420  1.0  0.737
  C  C173  1  0.182130  0.924190  0.585010  1.0  -0.0934
  C  C174  1  0.114420  0.879380  0.640560  1.0  0.7372
  C  C175  1  0.808670  0.585010  0.924190  1.0  -0.0954
  C  C176  1  0.865640  0.640560  0.879380  1.0  0.7377
  C  C177  1  0.424190  0.308670  0.585010  1.0  -0.0931
  C  C178  1  0.379380  0.365640  0.640560  1.0  0.741
  C  C179  1  0.085010  0.682130  0.924190  1.0  -0.0945
  C  C180  1  0.140560  0.614420  0.879380  1.0  0.7444
  C  C181  1  0.182130  0.585010  0.308670  1.0  -0.0957
  C  C182  1  0.114420  0.640560  0.365640  1.0  0.7449
  C  C183  1  0.808670  0.924190  0.682130  1.0  -0.0933
  C  C184  1  0.865640  0.879380  0.614420  1.0  0.7409
  C  C185  1  0.414990  0.575810  0.817870  1.0  -0.0939
  C  C186  1  0.359440  0.620620  0.885580  1.0  0.7445
  C  C187  1  0.075810  0.914990  0.191330  1.0  -0.0964
  C  C188  1  0.120620  0.859440  0.134360  1.0  0.7433
  C  C189  1  0.691330  0.817870  0.575810  1.0  -0.0969
  C  C190  1  0.634360  0.885580  0.620620  1.0  0.7426
  C  C191  1  0.317870  0.191330  0.914990  1.0  -0.0995
  C  C192  1  0.385580  0.134360  0.859440  1.0  0.7399
  C  C193  1  0.317870  0.575810  0.191330  1.0  -0.0949
  C  C194  1  0.385580  0.620620  0.134360  1.0  0.7385
  C  C195  1  0.691330  0.914990  0.817870  1.0  -0.0931
  C  C196  1  0.634360  0.859440  0.885580  1.0  0.7371
  C  C197  1  0.075810  0.817870  0.914990  1.0  -0.0945
  C  C198  1  0.120620  0.885580  0.859440  1.0  0.7387
  C  C199  1  0.414990  0.191330  0.575810  1.0  -0.0933
  C  C200  1  0.359440  0.134360  0.620620  1.0  0.7341
  C  C201  1  0.691330  0.575810  0.914990  1.0  -0.0956
  C  C202  1  0.634360  0.620620  0.859440  1.0  0.7423
  C  C203  1  0.317870  0.914990  0.575810  1.0  -0.0934
  C  C204  1  0.385580  0.859440  0.620620  1.0  0.7459
  C  C205  1  0.414990  0.817870  0.191330  1.0  -0.093
  C  C206  1  0.359440  0.885580  0.134360  1.0  0.7453
  C  C207  1  0.075810  0.191330  0.817870  1.0  -0.0937
  C  C208  1  0.120620  0.134360  0.885580  1.0  0.7381
  O  O209  1  0.687450  0.294970  0.371990  1.0  -0.6267
  O  O210  1  0.589410  0.381370  0.450470  1.0  -0.6776
  O  O211  1  0.794970  0.187450  0.645590  1.0  -0.6258
  O  O212  1  0.881370  0.089410  0.578750  1.0  -0.6739
  O  O213  1  0.871990  0.645590  0.187450  1.0  -0.6305
  O  O214  1  0.950470  0.578750  0.089410  1.0  -0.6743
  O  O215  1  0.145590  0.371990  0.294970  1.0  -0.6274
  O  O216  1  0.078750  0.450470  0.381370  1.0  -0.6772
  O  O217  1  0.687450  0.371990  0.645590  1.0  -0.6258
  O  O218  1  0.589410  0.450470  0.578750  1.0  -0.6783
  O  O219  1  0.794970  0.645590  0.371990  1.0  -0.6254
  O  O220  1  0.881370  0.578750  0.450470  1.0  -0.6756
  O  O221  1  0.871990  0.187450  0.294970  1.0  -0.6248
  O  O222  1  0.950470  0.089410  0.381370  1.0  -0.6751
  O  O223  1  0.145590  0.294970  0.187450  1.0  -0.6243
  O  O224  1  0.078750  0.381370  0.089410  1.0  -0.6788
  O  O225  1  0.687450  0.645590  0.294970  1.0  -0.6277
  O  O226  1  0.589410  0.578750  0.381370  1.0  -0.6773
  O  O227  1  0.794970  0.371990  0.187450  1.0  -0.6287
  O  O228  1  0.881370  0.450470  0.089410  1.0  -0.6774
  O  O229  1  0.871990  0.294970  0.645590  1.0  -0.6298
  O  O230  1  0.950470  0.381370  0.578750  1.0  -0.6759
  O  O231  1  0.145590  0.187450  0.371990  1.0  -0.6274
  O  O232  1  0.078750  0.089410  0.450470  1.0  -0.6774
  O  O233  1  0.705030  0.312550  0.128010  1.0  -0.6253
  O  O234  1  0.618630  0.410590  0.049530  1.0  -0.6748
  O  O235  1  0.812550  0.205030  0.854410  1.0  -0.6271
  O  O236  1  0.910590  0.118630  0.921250  1.0  -0.6782
  O  O237  1  0.354410  0.128010  0.312550  1.0  -0.6299
  O  O238  1  0.421250  0.049530  0.410590  1.0  -0.6768
  O  O239  1  0.628010  0.854410  0.205030  1.0  -0.6299
  O  O240  1  0.549530  0.921250  0.118630  1.0  -0.6737
  O  O241  1  0.628010  0.312550  0.854410  1.0  -0.6237
  O  O242  1  0.549530  0.410590  0.921250  1.0  -0.6766
  O  O243  1  0.354410  0.205030  0.128010  1.0  -0.627
  O  O244  1  0.421250  0.118630  0.049530  1.0  -0.6771
  O  O245  1  0.812550  0.128010  0.205030  1.0  -0.6236
  O  O246  1  0.910590  0.049530  0.118630  1.0  -0.6781
  O  O247  1  0.705030  0.854410  0.312550  1.0  -0.6257
  O  O248  1  0.618630  0.921250  0.410590  1.0  -0.6755
  O  O249  1  0.354410  0.312550  0.205030  1.0  -0.6287
  O  O250  1  0.421250  0.410590  0.118630  1.0  -0.677
  O  O251  1  0.628010  0.205030  0.312550  1.0  -0.6291
  O  O252  1  0.549530  0.118630  0.410590  1.0  -0.6761
  O  O253  1  0.705030  0.128010  0.854410  1.0  -0.6268
  O  O254  1  0.618630  0.049530  0.921250  1.0  -0.6768
  O  O255  1  0.812550  0.854410  0.128010  1.0  -0.6275
  O  O256  1  0.910590  0.921250  0.049530  1.0  -0.6765
  O  O257  1  0.312550  0.705030  0.628010  1.0  -0.6245
  O  O258  1  0.410590  0.618630  0.549530  1.0  -0.6766
  O  O259  1  0.205030  0.812550  0.354410  1.0  -0.6264
  O  O260  1  0.118630  0.910590  0.421250  1.0  -0.6758
  O  O261  1  0.128010  0.354410  0.812550  1.0  -0.6281
  O  O262  1  0.049530  0.421250  0.910590  1.0  -0.6728
  O  O263  1  0.854410  0.628010  0.705030  1.0  -0.6308
  O  O264  1  0.921250  0.549530  0.618630  1.0  -0.6765
  O  O265  1  0.312550  0.628010  0.354410  1.0  -0.6233
  O  O266  1  0.410590  0.549530  0.421250  1.0  -0.677
  O  O267  1  0.205030  0.354410  0.628010  1.0  -0.6261
  O  O268  1  0.118630  0.421250  0.549530  1.0  -0.6749
  O  O269  1  0.128010  0.812550  0.705030  1.0  -0.6235
  O  O270  1  0.049530  0.910590  0.618630  1.0  -0.6767
  O  O271  1  0.854410  0.705030  0.812550  1.0  -0.6261
  O  O272  1  0.921250  0.618630  0.910590  1.0  -0.6767
  O  O273  1  0.312550  0.354410  0.705030  1.0  -0.6271
  O  O274  1  0.410590  0.421250  0.618630  1.0  -0.6765
  O  O275  1  0.205030  0.628010  0.812550  1.0  -0.6267
  O  O276  1  0.118630  0.549530  0.910590  1.0  -0.6749
  O  O277  1  0.128010  0.705030  0.354410  1.0  -0.6294
  O  O278  1  0.049530  0.618630  0.421250  1.0  -0.6766
  O  O279  1  0.854410  0.812550  0.628010  1.0  -0.6291
  O  O280  1  0.921250  0.910590  0.549530  1.0  -0.6765
  O  O281  1  0.294970  0.687450  0.871990  1.0  -0.6273
  O  O282  1  0.381370  0.589410  0.950470  1.0  -0.6757
  O  O283  1  0.187450  0.794970  0.145590  1.0  -0.626
  O  O284  1  0.089410  0.881370  0.078750  1.0  -0.6763
  O  O285  1  0.645590  0.871990  0.687450  1.0  -0.6285
  O  O286  1  0.578750  0.950470  0.589410  1.0  -0.6773
  O  O287  1  0.371990  0.145590  0.794970  1.0  -0.6298
  O  O288  1  0.450470  0.078750  0.881370  1.0  -0.6735
  O  O289  1  0.371990  0.687450  0.145590  1.0  -0.625
  O  O290  1  0.450470  0.589410  0.078750  1.0  -0.6746
  O  O291  1  0.645590  0.794970  0.871990  1.0  -0.6248
  O  O292  1  0.578750  0.881370  0.950470  1.0  -0.6783
  O  O293  1  0.187450  0.871990  0.794970  1.0  -0.6256
  O  O294  1  0.089410  0.950470  0.881370  1.0  -0.6777
  O  O295  1  0.294970  0.145590  0.687450  1.0  -0.6252
  O  O296  1  0.381370  0.078750  0.589410  1.0  -0.6751
  O  O297  1  0.645590  0.687450  0.794970  1.0  -0.6276
  O  O298  1  0.578750  0.589410  0.881370  1.0  -0.6766
  O  O299  1  0.371990  0.794970  0.687450  1.0  -0.6298
  O  O300  1  0.450470  0.881370  0.589410  1.0  -0.6765
  O  O301  1  0.294970  0.871990  0.145590  1.0  -0.6282
  O  O302  1  0.381370  0.950470  0.078750  1.0  -0.676
  O  O303  1  0.187450  0.145590  0.871990  1.0  -0.6274
  O  O304  1  0.089410  0.078750  0.950470  1.0  -0.6768
  O  O305  1  0.620120  0.379880  0.250000  1.0  -0.2679
  O  O306  1  0.879880  0.120120  0.750000  1.0  -0.2679
  O  O307  1  0.750000  0.750000  0.120120  1.0  -0.2666
  O  O308  1  0.250000  0.250000  0.379880  1.0  -0.2672
  O  O309  1  0.620120  0.250000  0.750000  1.0  -0.2671
  O  O310  1  0.879880  0.750000  0.250000  1.0  -0.2672
  O  O311  1  0.750000  0.120120  0.379880  1.0  -0.2673
  O  O312  1  0.250000  0.379880  0.120120  1.0  -0.2677
  O  O313  1  0.620120  0.750000  0.379880  1.0  -0.2671
  O  O314  1  0.879880  0.250000  0.120120  1.0  -0.2675
  O  O315  1  0.750000  0.379880  0.750000  1.0  -0.268
  O  O316  1  0.250000  0.120120  0.250000  1.0  -0.2676
  O  O317  1  0.379880  0.620120  0.750000  1.0  -0.2679
  O  O318  1  0.120120  0.879880  0.250000  1.0  -0.2679
  O  O319  1  0.250000  0.250000  0.879880  1.0  -0.2672
  O  O320  1  0.750000  0.750000  0.620120  1.0  -0.2666
  O  O321  1  0.379880  0.750000  0.250000  1.0  -0.2672
  O  O322  1  0.120120  0.250000  0.750000  1.0  -0.2671
  O  O323  1  0.250000  0.879880  0.620120  1.0  -0.2677
  O  O324  1  0.750000  0.620120  0.879880  1.0  -0.2673
  O  O325  1  0.379880  0.250000  0.620120  1.0  -0.2675
  O  O326  1  0.120120  0.750000  0.879880  1.0  -0.2671
  O  O327  1  0.250000  0.620120  0.250000  1.0  -0.2676
  O  O328  1  0.750000  0.879880  0.750000  1.0  -0.268
