# generated using pymatgen
data_CaEuH12(C4O5)3
_symmetry_space_group_name_H-M   'P 1'
_cell_length_a   18.88460000
_cell_length_b   18.88460000
_cell_length_c   18.88460000
_cell_angle_alpha   60.00000000
_cell_angle_beta   60.00000000
_cell_angle_gamma   60.00000000
_symmetry_Int_Tables_number   1
_chemical_formula_structural   CaEuH12(C4O5)3
_chemical_formula_sum   'Ca8 Eu8 H96 C96 O120'
_cell_volume   4762.20814204
_cell_formula_units_Z   8
loop_
 _symmetry_equiv_pos_site_id
 _symmetry_equiv_pos_as_xyz
  1  'x, y, z'
loop_
 _atom_site_type_symbol
 _atom_site_label
 _atom_site_symmetry_multiplicity
 _atom_site_fract_x
 _atom_site_fract_y
 _atom_site_fract_z
 _atom_site_occupancy
 _atom_site_charge
  Ca  Ca1  1  0.500000  0.500000  0.500000  1.0  1.5104
  Ca  Ca2  1  0.000000  0.000000  0.500000  1.0  1.5104
  Ca  Ca3  1  0.000000  0.500000  0.000000  1.0  1.5104
  Ca  Ca4  1  0.000000  0.500000  0.500000  1.0  1.5104
  Ca  Ca5  1  0.500000  0.500000  0.000000  1.0  1.5104
  Ca  Ca6  1  0.000000  0.000000  0.000000  1.0  1.5104
  Ca  Ca7  1  0.500000  0.000000  0.500000  1.0  1.5104
  Ca  Ca8  1  0.500000  0.000000  0.000000  1.0  1.5104
  Eu  Eu9  1  0.750000  0.250000  0.250000  1.0  1.9756
  Eu  Eu10  1  0.750000  0.250000  0.750000  1.0  1.9756
  Eu  Eu11  1  0.750000  0.750000  0.250000  1.0  1.9756
  Eu  Eu12  1  0.250000  0.250000  0.250000  1.0  1.9756
  Eu  Eu13  1  0.250000  0.750000  0.750000  1.0  1.9756
  Eu  Eu14  1  0.250000  0.750000  0.250000  1.0  1.9756
  Eu  Eu15  1  0.250000  0.250000  0.750000  1.0  1.9756
  Eu  Eu16  1  0.750000  0.750000  0.750000  1.0  1.9756
  H  H17  1  0.516200  0.415800  0.344800  1.0  0.0979
  H  H18  1  0.574500  0.474500  0.294700  1.0  0.0978
  H  H19  1  0.915800  0.016200  0.723200  1.0  0.0945
  H  H20  1  0.974500  0.074500  0.656300  1.0  0.0931
  H  H21  1  0.844800  0.723200  0.016200  1.0  0.0967
  H  H22  1  0.794700  0.656300  0.074500  1.0  0.0978
  H  H23  1  0.223200  0.344800  0.415800  1.0  0.0975
  H  H24  1  0.156300  0.294700  0.474500  1.0  0.0988
  H  H25  1  0.516200  0.344800  0.723200  1.0  0.0979
  H  H26  1  0.574500  0.294700  0.656300  1.0  0.0973
  H  H27  1  0.915800  0.723200  0.344800  1.0  0.0972
  H  H28  1  0.974500  0.656300  0.294700  1.0  0.0975
  H  H29  1  0.844800  0.016200  0.415800  1.0  0.0941
  H  H30  1  0.794700  0.074500  0.474500  1.0  0.097
  H  H31  1  0.223200  0.415800  0.016200  1.0  0.0969
  H  H32  1  0.156300  0.474500  0.074500  1.0  0.0978
  H  H33  1  0.516200  0.723200  0.415800  1.0  0.098
  H  H34  1  0.574500  0.656300  0.474500  1.0  0.0979
  H  H35  1  0.915800  0.344800  0.016200  1.0  0.0973
  H  H36  1  0.974500  0.294700  0.074500  1.0  0.099
  H  H37  1  0.844800  0.415800  0.723200  1.0  0.0977
  H  H38  1  0.794700  0.474500  0.656300  1.0  0.0983
  H  H39  1  0.223200  0.016200  0.344800  1.0  0.0941
  H  H40  1  0.156300  0.074500  0.294700  1.0  0.098
  H  H41  1  0.584200  0.483800  0.155200  1.0  0.0969
  H  H42  1  0.525500  0.425500  0.205300  1.0  0.098
  H  H43  1  0.983800  0.084200  0.776800  1.0  0.0956
  H  H44  1  0.925500  0.025500  0.843700  1.0  0.0986
  H  H45  1  0.276800  0.155200  0.483800  1.0  0.0983
  H  H46  1  0.343700  0.205300  0.425500  1.0  0.0978
  H  H47  1  0.655200  0.776800  0.084200  1.0  0.0967
  H  H48  1  0.705300  0.843700  0.025500  1.0  0.098
  H  H49  1  0.655200  0.483800  0.776800  1.0  0.0964
  H  H50  1  0.705300  0.425500  0.843700  1.0  0.0977
  H  H51  1  0.276800  0.084200  0.155200  1.0  0.0968
  H  H52  1  0.343700  0.025500  0.205300  1.0  0.0986
  H  H53  1  0.983800  0.155200  0.084200  1.0  0.0977
  H  H54  1  0.925500  0.205300  0.025500  1.0  0.0974
  H  H55  1  0.584200  0.776800  0.483800  1.0  0.0969
  H  H56  1  0.525500  0.843700  0.425500  1.0  0.0982
  H  H57  1  0.276800  0.483800  0.084200  1.0  0.0962
  H  H58  1  0.343700  0.425500  0.025500  1.0  0.0975
  H  H59  1  0.655200  0.084200  0.483800  1.0  0.0975
  H  H60  1  0.705300  0.025500  0.425500  1.0  0.0984
  H  H61  1  0.584200  0.155200  0.776800  1.0  0.0974
  H  H62  1  0.525500  0.205300  0.843700  1.0  0.0992
  H  H63  1  0.983800  0.776800  0.155200  1.0  0.0972
  H  H64  1  0.925500  0.843700  0.205300  1.0  0.0981
  H  H65  1  0.483800  0.584200  0.655200  1.0  0.0956
  H  H66  1  0.425500  0.525500  0.705300  1.0  0.0983
  H  H67  1  0.084200  0.983800  0.276800  1.0  0.0969
  H  H68  1  0.025500  0.925500  0.343700  1.0  0.098
  H  H69  1  0.155200  0.276800  0.983800  1.0  0.0972
  H  H70  1  0.205300  0.343700  0.925500  1.0  0.0981
  H  H71  1  0.776800  0.655200  0.584200  1.0  0.0977
  H  H72  1  0.843700  0.705300  0.525500  1.0  0.0978
  H  H73  1  0.483800  0.655200  0.276800  1.0  0.0973
  H  H74  1  0.425500  0.705300  0.343700  1.0  0.0981
  H  H75  1  0.084200  0.276800  0.655200  1.0  0.097
  H  H76  1  0.025500  0.343700  0.705300  1.0  0.0975
  H  H77  1  0.155200  0.983800  0.584200  1.0  0.0962
  H  H78  1  0.205300  0.925500  0.525500  1.0  0.0966
  H  H79  1  0.776800  0.584200  0.983800  1.0  0.0972
  H  H80  1  0.843700  0.525500  0.925500  1.0  0.0985
  H  H81  1  0.483800  0.276800  0.584200  1.0  0.0974
  H  H82  1  0.425500  0.343700  0.525500  1.0  0.0981
  H  H83  1  0.084200  0.655200  0.983800  1.0  0.0973
  H  H84  1  0.025500  0.705300  0.925500  1.0  0.0995
  H  H85  1  0.155200  0.584200  0.276800  1.0  0.0972
  H  H86  1  0.205300  0.525500  0.343700  1.0  0.099
  H  H87  1  0.776800  0.983800  0.655200  1.0  0.0964
  H  H88  1  0.843700  0.925500  0.705300  1.0  0.0982
  H  H89  1  0.415800  0.516200  0.844800  1.0  0.0945
  H  H90  1  0.474500  0.574500  0.794700  1.0  0.0932
  H  H91  1  0.016200  0.915800  0.223200  1.0  0.0978
  H  H92  1  0.074500  0.974500  0.156300  1.0  0.098
  H  H93  1  0.723200  0.844800  0.516200  1.0  0.0972
  H  H94  1  0.656300  0.794700  0.574500  1.0  0.0984
  H  H95  1  0.344800  0.223200  0.915800  1.0  0.0969
  H  H96  1  0.294700  0.156300  0.974500  1.0  0.0983
  H  H97  1  0.344800  0.516200  0.223200  1.0  0.0945
  H  H98  1  0.294700  0.574500  0.156300  1.0  0.0968
  H  H99  1  0.723200  0.915800  0.844800  1.0  0.0976
  H  H100  1  0.656300  0.974500  0.794700  1.0  0.0983
  H  H101  1  0.016200  0.844800  0.915800  1.0  0.098
  H  H102  1  0.074500  0.794700  0.974500  1.0  0.0977
  H  H103  1  0.415800  0.223200  0.516200  1.0  0.0971
  H  H104  1  0.474500  0.156300  0.574500  1.0  0.0976
  H  H105  1  0.723200  0.516200  0.915800  1.0  0.0938
  H  H106  1  0.656300  0.574500  0.974500  1.0  0.0976
  H  H107  1  0.344800  0.915800  0.516200  1.0  0.0971
  H  H108  1  0.294700  0.974500  0.574500  1.0  0.0979
  H  H109  1  0.415800  0.844800  0.223200  1.0  0.0973
  H  H110  1  0.474500  0.794700  0.156300  1.0  0.0986
  H  H111  1  0.016200  0.223200  0.844800  1.0  0.0978
  H  H112  1  0.074500  0.156300  0.794700  1.0  0.0974
  C  C113  1  0.575600  0.415200  0.318000  1.0  -0.0879
  C  C114  1  0.619600  0.362400  0.383600  1.0  0.7595
  C  C115  1  0.915200  0.075600  0.691200  1.0  -0.0868
  C  C116  1  0.862400  0.119600  0.634400  1.0  0.76
  C  C117  1  0.818000  0.691200  0.075600  1.0  -0.0911
  C  C118  1  0.883600  0.634400  0.119600  1.0  0.7557
  C  C119  1  0.191200  0.318000  0.415200  1.0  -0.0949
  C  C120  1  0.134400  0.383600  0.362400  1.0  0.7582
  C  C121  1  0.575600  0.318000  0.691200  1.0  -0.0877
  C  C122  1  0.619600  0.383600  0.634400  1.0  0.7532
  C  C123  1  0.915200  0.691200  0.318000  1.0  -0.0859
  C  C124  1  0.862400  0.634400  0.383600  1.0  0.7494
  C  C125  1  0.818000  0.075600  0.415200  1.0  -0.0877
  C  C126  1  0.883600  0.119600  0.362400  1.0  0.7531
  C  C127  1  0.191200  0.415200  0.075600  1.0  -0.0861
  C  C128  1  0.134400  0.362400  0.119600  1.0  0.7508
  C  C129  1  0.575600  0.691200  0.415200  1.0  -0.0875
  C  C130  1  0.619600  0.634400  0.362400  1.0  0.7562
  C  C131  1  0.915200  0.318000  0.075600  1.0  -0.0864
  C  C132  1  0.862400  0.383600  0.119600  1.0  0.762
  C  C133  1  0.818000  0.415200  0.691200  1.0  -0.0858
  C  C134  1  0.883600  0.362400  0.634400  1.0  0.7593
  C  C135  1  0.191200  0.075600  0.318000  1.0  -0.088
  C  C136  1  0.134400  0.119600  0.383600  1.0  0.7571
  C  C137  1  0.584800  0.424400  0.182000  1.0  -0.0883
  C  C138  1  0.637600  0.380400  0.116400  1.0  0.7577
  C  C139  1  0.924400  0.084800  0.808800  1.0  -0.0873
  C  C140  1  0.880400  0.137600  0.865600  1.0  0.7599
  C  C141  1  0.308800  0.182000  0.424400  1.0  -0.0946
  C  C142  1  0.365600  0.116400  0.380400  1.0  0.7575
  C  C143  1  0.682000  0.808800  0.084800  1.0  -0.0911
  C  C144  1  0.616400  0.865600  0.137600  1.0  0.7577
  C  C145  1  0.682000  0.424400  0.808800  1.0  -0.0864
  C  C146  1  0.616400  0.380400  0.865600  1.0  0.7512
  C  C147  1  0.308800  0.084800  0.182000  1.0  -0.0866
  C  C148  1  0.365600  0.137600  0.116400  1.0  0.7519
  C  C149  1  0.924400  0.182000  0.084800  1.0  -0.088
  C  C150  1  0.880400  0.116400  0.137600  1.0  0.7531
  C  C151  1  0.584800  0.808800  0.424400  1.0  -0.0873
  C  C152  1  0.637600  0.865600  0.380400  1.0  0.7527
  C  C153  1  0.308800  0.424400  0.084800  1.0  -0.0859
  C  C154  1  0.365600  0.380400  0.137600  1.0  0.7562
  C  C155  1  0.682000  0.084800  0.424400  1.0  -0.0879
  C  C156  1  0.616400  0.137600  0.380400  1.0  0.7599
  C  C157  1  0.584800  0.182000  0.808800  1.0  -0.0878
  C  C158  1  0.637600  0.116400  0.865600  1.0  0.7611
  C  C159  1  0.924400  0.808800  0.182000  1.0  -0.0864
  C  C160  1  0.880400  0.865600  0.116400  1.0  0.7586
  C  C161  1  0.424400  0.584800  0.682000  1.0  -0.0875
  C  C162  1  0.380400  0.637600  0.616400  1.0  0.7598
  C  C163  1  0.084800  0.924400  0.308800  1.0  -0.0878
  C  C164  1  0.137600  0.880400  0.365600  1.0  0.7574
  C  C165  1  0.182000  0.308800  0.924400  1.0  -0.0933
  C  C166  1  0.116400  0.365600  0.880400  1.0  0.7583
  C  C167  1  0.808800  0.682000  0.584800  1.0  -0.0919
  C  C168  1  0.865600  0.616400  0.637600  1.0  0.7583
  C  C169  1  0.424400  0.682000  0.308800  1.0  -0.0876
  C  C170  1  0.380400  0.616400  0.365600  1.0  0.7534
  C  C171  1  0.084800  0.308800  0.682000  1.0  -0.087
  C  C172  1  0.137600  0.365600  0.616400  1.0  0.7527
  C  C173  1  0.182000  0.924400  0.584800  1.0  -0.0869
  C  C174  1  0.116400  0.880400  0.637600  1.0  0.7509
  C  C175  1  0.808800  0.584800  0.924400  1.0  -0.0869
  C  C176  1  0.865600  0.637600  0.880400  1.0  0.752
  C  C177  1  0.424400  0.308800  0.584800  1.0  -0.0868
  C  C178  1  0.380400  0.365600  0.637600  1.0  0.7571
  C  C179  1  0.084800  0.682000  0.924400  1.0  -0.0879
  C  C180  1  0.137600  0.616400  0.880400  1.0  0.7604
  C  C181  1  0.182000  0.584800  0.308800  1.0  -0.0879
  C  C182  1  0.116400  0.637600  0.365600  1.0  0.7601
  C  C183  1  0.808800  0.924400  0.682000  1.0  -0.0854
  C  C184  1  0.865600  0.880400  0.616400  1.0  0.7564
  C  C185  1  0.415200  0.575600  0.818000  1.0  -0.0866
  C  C186  1  0.362400  0.619600  0.883600  1.0  0.76
  C  C187  1  0.075600  0.915200  0.191200  1.0  -0.0881
  C  C188  1  0.119600  0.862400  0.134400  1.0  0.7589
  C  C189  1  0.691200  0.818000  0.575600  1.0  -0.0919
  C  C190  1  0.634400  0.883600  0.619600  1.0  0.7577
  C  C191  1  0.318000  0.191200  0.915200  1.0  -0.0937
  C  C192  1  0.383600  0.134400  0.862400  1.0  0.7562
  C  C193  1  0.318000  0.575600  0.191200  1.0  -0.0873
  C  C194  1  0.383600  0.619600  0.134400  1.0  0.7529
  C  C195  1  0.691200  0.915200  0.818000  1.0  -0.0861
  C  C196  1  0.634400  0.862400  0.883600  1.0  0.7511
  C  C197  1  0.075600  0.818000  0.915200  1.0  -0.0881
  C  C198  1  0.119600  0.883600  0.862400  1.0  0.7533
  C  C199  1  0.415200  0.191200  0.575600  1.0  -0.0861
  C  C200  1  0.362400  0.134400  0.619600  1.0  0.7494
  C  C201  1  0.691200  0.575600  0.915200  1.0  -0.0879
  C  C202  1  0.634400  0.619600  0.862400  1.0  0.7589
  C  C203  1  0.318000  0.915200  0.575600  1.0  -0.0862
  C  C204  1  0.383600  0.862400  0.619600  1.0  0.7609
  C  C205  1  0.415200  0.818000  0.191200  1.0  -0.0861
  C  C206  1  0.362400  0.883600  0.134400  1.0  0.7614
  C  C207  1  0.075600  0.191200  0.818000  1.0  -0.0877
  C  C208  1  0.119600  0.134400  0.883600  1.0  0.7545
  O  O209  1  0.685890  0.297730  0.372090  1.0  -0.6364
  O  O210  1  0.588620  0.383840  0.448900  1.0  -0.6813
  O  O211  1  0.797730  0.185890  0.644290  1.0  -0.6352
  O  O212  1  0.883840  0.088620  0.578640  1.0  -0.6791
  O  O213  1  0.872090  0.644290  0.185890  1.0  -0.6378
  O  O214  1  0.948900  0.578640  0.088620  1.0  -0.6791
  O  O215  1  0.144290  0.372090  0.297730  1.0  -0.6382
  O  O216  1  0.078640  0.448900  0.383840  1.0  -0.6805
  O  O217  1  0.685890  0.372090  0.644290  1.0  -0.6357
  O  O218  1  0.588620  0.448900  0.578640  1.0  -0.6814
  O  O219  1  0.797730  0.644290  0.372090  1.0  -0.6352
  O  O220  1  0.883840  0.578640  0.448900  1.0  -0.6796
  O  O221  1  0.872090  0.185890  0.297730  1.0  -0.6352
  O  O222  1  0.948900  0.088620  0.383840  1.0  -0.6793
  O  O223  1  0.144290  0.297730  0.185890  1.0  -0.6348
  O  O224  1  0.078640  0.383840  0.088620  1.0  -0.6825
  O  O225  1  0.685890  0.644290  0.297730  1.0  -0.6371
  O  O226  1  0.588620  0.578640  0.383840  1.0  -0.6809
  O  O227  1  0.797730  0.372090  0.185890  1.0  -0.6379
  O  O228  1  0.883840  0.448900  0.088620  1.0  -0.6818
  O  O229  1  0.872090  0.297730  0.644290  1.0  -0.6395
  O  O230  1  0.948900  0.383840  0.578640  1.0  -0.6809
  O  O231  1  0.144290  0.185890  0.372090  1.0  -0.6393
  O  O232  1  0.078640  0.088620  0.448900  1.0  -0.6804
  O  O233  1  0.702270  0.314110  0.127910  1.0  -0.6351
  O  O234  1  0.616160  0.411380  0.051100  1.0  -0.6796
  O  O235  1  0.814110  0.202270  0.855710  1.0  -0.6372
  O  O236  1  0.911380  0.116160  0.921360  1.0  -0.6815
  O  O237  1  0.355710  0.127910  0.314110  1.0  -0.6392
  O  O238  1  0.421360  0.051100  0.411380  1.0  -0.6792
  O  O239  1  0.627910  0.855710  0.202270  1.0  -0.6395
  O  O240  1  0.551100  0.921360  0.116160  1.0  -0.6791
  O  O241  1  0.627910  0.314110  0.855710  1.0  -0.6349
  O  O242  1  0.551100  0.411380  0.921360  1.0  -0.6793
  O  O243  1  0.355710  0.202270  0.127910  1.0  -0.6371
  O  O244  1  0.421360  0.116160  0.051100  1.0  -0.6814
  O  O245  1  0.814110  0.127910  0.202270  1.0  -0.6335
  O  O246  1  0.911380  0.051100  0.116160  1.0  -0.681
  O  O247  1  0.702270  0.855710  0.314110  1.0  -0.6369
  O  O248  1  0.616160  0.921360  0.411380  1.0  -0.6808
  O  O249  1  0.355710  0.314110  0.202270  1.0  -0.6392
  O  O250  1  0.421360  0.411380  0.116160  1.0  -0.6806
  O  O251  1  0.627910  0.202270  0.314110  1.0  -0.6401
  O  O252  1  0.551100  0.116160  0.411380  1.0  -0.68
  O  O253  1  0.702270  0.127910  0.855710  1.0  -0.638
  O  O254  1  0.616160  0.051100  0.921360  1.0  -0.681
  O  O255  1  0.814110  0.855710  0.127910  1.0  -0.6387
  O  O256  1  0.911380  0.921360  0.051100  1.0  -0.681
  O  O257  1  0.314110  0.702270  0.627910  1.0  -0.6348
  O  O258  1  0.411380  0.616160  0.551100  1.0  -0.6801
  O  O259  1  0.202270  0.814110  0.355710  1.0  -0.6366
  O  O260  1  0.116160  0.911380  0.421360  1.0  -0.6796
  O  O261  1  0.127910  0.355710  0.814110  1.0  -0.6382
  O  O262  1  0.051100  0.421360  0.911380  1.0  -0.6777
  O  O263  1  0.855710  0.627910  0.702270  1.0  -0.6397
  O  O264  1  0.921360  0.551100  0.616160  1.0  -0.6783
  O  O265  1  0.314110  0.627910  0.355710  1.0  -0.6344
  O  O266  1  0.411380  0.551100  0.421360  1.0  -0.6787
  O  O267  1  0.202270  0.355710  0.627910  1.0  -0.6371
  O  O268  1  0.116160  0.421360  0.551100  1.0  -0.6798
  O  O269  1  0.127910  0.814110  0.702270  1.0  -0.6339
  O  O270  1  0.051100  0.911380  0.616160  1.0  -0.6797
  O  O271  1  0.855710  0.702270  0.814110  1.0  -0.636
  O  O272  1  0.921360  0.616160  0.911380  1.0  -0.6803
  O  O273  1  0.314110  0.355710  0.702270  1.0  -0.6385
  O  O274  1  0.411380  0.421360  0.616160  1.0  -0.6805
  O  O275  1  0.202270  0.627910  0.814110  1.0  -0.6384
  O  O276  1  0.116160  0.551100  0.911380  1.0  -0.6789
  O  O277  1  0.127910  0.702270  0.355710  1.0  -0.6401
  O  O278  1  0.051100  0.616160  0.421360  1.0  -0.6801
  O  O279  1  0.855710  0.814110  0.627910  1.0  -0.6399
  O  O280  1  0.921360  0.911380  0.551100  1.0  -0.6797
  O  O281  1  0.297730  0.685890  0.872090  1.0  -0.6371
  O  O282  1  0.383840  0.588620  0.948900  1.0  -0.6801
  O  O283  1  0.185890  0.797730  0.144290  1.0  -0.635
  O  O284  1  0.088620  0.883840  0.078640  1.0  -0.6797
  O  O285  1  0.644290  0.872090  0.685890  1.0  -0.6387
  O  O286  1  0.578640  0.948900  0.588620  1.0  -0.6803
  O  O287  1  0.372090  0.144290  0.797730  1.0  -0.6375
  O  O288  1  0.448900  0.078640  0.883840  1.0  -0.6781
  O  O289  1  0.372090  0.685890  0.144290  1.0  -0.6347
  O  O290  1  0.448900  0.588620  0.078640  1.0  -0.679
  O  O291  1  0.644290  0.797730  0.872090  1.0  -0.6352
  O  O292  1  0.578640  0.883840  0.948900  1.0  -0.6814
  O  O293  1  0.185890  0.872090  0.797730  1.0  -0.6366
  O  O294  1  0.088620  0.948900  0.883840  1.0  -0.6793
  O  O295  1  0.297730  0.144290  0.685890  1.0  -0.6354
  O  O296  1  0.383840  0.078640  0.588620  1.0  -0.6788
  O  O297  1  0.644290  0.685890  0.797730  1.0  -0.6396
  O  O298  1  0.578640  0.588620  0.883840  1.0  -0.6796
  O  O299  1  0.372090  0.797730  0.685890  1.0  -0.6389
  O  O300  1  0.448900  0.883840  0.588620  1.0  -0.6815
  O  O301  1  0.297730  0.872090  0.144290  1.0  -0.6377
  O  O302  1  0.383840  0.948900  0.078640  1.0  -0.68
  O  O303  1  0.185890  0.144290  0.872090  1.0  -0.6368
  O  O304  1  0.088620  0.078640  0.948900  1.0  -0.68
  O  O305  1  0.619260  0.380740  0.250000  1.0  -0.2552
  O  O306  1  0.880740  0.119260  0.750000  1.0  -0.2544
  O  O307  1  0.750000  0.750000  0.119260  1.0  -0.2519
  O  O308  1  0.250000  0.250000  0.380740  1.0  -0.253
  O  O309  1  0.619260  0.250000  0.750000  1.0  -0.2534
  O  O310  1  0.880740  0.750000  0.250000  1.0  -0.2527
  O  O311  1  0.750000  0.119260  0.380740  1.0  -0.2524
  O  O312  1  0.250000  0.380740  0.119260  1.0  -0.2545
  O  O313  1  0.619260  0.750000  0.380740  1.0  -0.2532
  O  O314  1  0.880740  0.250000  0.119260  1.0  -0.253
  O  O315  1  0.750000  0.380740  0.750000  1.0  -0.2547
  O  O316  1  0.250000  0.119260  0.250000  1.0  -0.2531
  O  O317  1  0.380740  0.619260  0.750000  1.0  -0.2544
  O  O318  1  0.119260  0.880740  0.250000  1.0  -0.2552
  O  O319  1  0.250000  0.250000  0.880740  1.0  -0.253
  O  O320  1  0.750000  0.750000  0.619260  1.0  -0.2519
  O  O321  1  0.380740  0.750000  0.250000  1.0  -0.2527
  O  O322  1  0.119260  0.250000  0.750000  1.0  -0.2534
  O  O323  1  0.250000  0.880740  0.619260  1.0  -0.2545
  O  O324  1  0.750000  0.619260  0.880740  1.0  -0.2524
  O  O325  1  0.380740  0.250000  0.619260  1.0  -0.253
  O  O326  1  0.119260  0.750000  0.880740  1.0  -0.2532
  O  O327  1  0.250000  0.619260  0.250000  1.0  -0.2531
  O  O328  1  0.750000  0.880740  0.750000  1.0  -0.2547
