# generated using pymatgen
data_CaDyH12(C4O5)3
_symmetry_space_group_name_H-M   'P 1'
_cell_length_a   18.72090000
_cell_length_b   18.72090000
_cell_length_c   18.72090000
_cell_angle_alpha   60.00000000
_cell_angle_beta   60.00000000
_cell_angle_gamma   60.00000000
_symmetry_Int_Tables_number   1
_chemical_formula_structural   CaDyH12(C4O5)3
_chemical_formula_sum   'Ca8 Dy8 H96 C96 O120'
_cell_volume   4639.43583327
_cell_formula_units_Z   8
loop_
 _symmetry_equiv_pos_site_id
 _symmetry_equiv_pos_as_xyz
  1  'x, y, z'
loop_
 _atom_site_type_symbol
 _atom_site_label
 _atom_site_symmetry_multiplicity
 _atom_site_fract_x
 _atom_site_fract_y
 _atom_site_fract_z
 _atom_site_occupancy
 _atom_site_charge
  Ca  Ca1  1  0.500000  0.500000  0.500000  1.0  1.5083
  Ca  Ca2  1  0.000000  0.000000  0.500000  1.0  1.5083
  Ca  Ca3  1  0.000000  0.500000  0.000000  1.0  1.5083
  Ca  Ca4  1  0.000000  0.500000  0.500000  1.0  1.5083
  Ca  Ca5  1  0.500000  0.500000  0.000000  1.0  1.5083
  Ca  Ca6  1  0.000000  0.000000  0.000000  1.0  1.5083
  Ca  Ca7  1  0.500000  0.000000  0.500000  1.0  1.5083
  Ca  Ca8  1  0.500000  0.000000  0.000000  1.0  1.5083
  Dy  Dy9  1  0.750000  0.250000  0.250000  1.0  2.1735
  Dy  Dy10  1  0.750000  0.250000  0.750000  1.0  2.1735
  Dy  Dy11  1  0.750000  0.750000  0.250000  1.0  2.1735
  Dy  Dy12  1  0.250000  0.250000  0.250000  1.0  2.1735
  Dy  Dy13  1  0.250000  0.750000  0.750000  1.0  2.1735
  Dy  Dy14  1  0.250000  0.750000  0.250000  1.0  2.1735
  Dy  Dy15  1  0.250000  0.250000  0.750000  1.0  2.1735
  Dy  Dy16  1  0.750000  0.750000  0.750000  1.0  2.1735
  H  H17  1  0.516000  0.416400  0.344800  1.0  0.0906
  H  H18  1  0.576300  0.474100  0.294900  1.0  0.0892
  H  H19  1  0.916400  0.016000  0.722800  1.0  0.0877
  H  H20  1  0.974100  0.076300  0.654700  1.0  0.0851
  H  H21  1  0.844800  0.722800  0.016000  1.0  0.0885
  H  H22  1  0.794900  0.654700  0.076300  1.0  0.0888
  H  H23  1  0.222800  0.344800  0.416400  1.0  0.0888
  H  H24  1  0.154700  0.294900  0.474100  1.0  0.0887
  H  H25  1  0.516000  0.344800  0.722800  1.0  0.0904
  H  H26  1  0.576300  0.294900  0.654700  1.0  0.0882
  H  H27  1  0.916400  0.722800  0.344800  1.0  0.0881
  H  H28  1  0.974100  0.654700  0.294900  1.0  0.0887
  H  H29  1  0.844800  0.016000  0.416400  1.0  0.0873
  H  H30  1  0.794900  0.076300  0.474100  1.0  0.0877
  H  H31  1  0.222800  0.416400  0.016000  1.0  0.0884
  H  H32  1  0.154700  0.474100  0.076300  1.0  0.0892
  H  H33  1  0.516000  0.722800  0.416400  1.0  0.0902
  H  H34  1  0.576300  0.654700  0.474100  1.0  0.089
  H  H35  1  0.916400  0.344800  0.016000  1.0  0.0886
  H  H36  1  0.974100  0.294900  0.076300  1.0  0.0884
  H  H37  1  0.844800  0.416400  0.722800  1.0  0.0888
  H  H38  1  0.794900  0.474100  0.654700  1.0  0.0893
  H  H39  1  0.222800  0.016000  0.344800  1.0  0.0873
  H  H40  1  0.154700  0.076300  0.294900  1.0  0.0883
  H  H41  1  0.583600  0.484000  0.155200  1.0  0.0889
  H  H42  1  0.525900  0.423700  0.205100  1.0  0.0871
  H  H43  1  0.984000  0.083600  0.777200  1.0  0.089
  H  H44  1  0.923700  0.025900  0.845300  1.0  0.0896
  H  H45  1  0.277200  0.155200  0.484000  1.0  0.0891
  H  H46  1  0.345300  0.205100  0.423700  1.0  0.0881
  H  H47  1  0.655200  0.777200  0.083600  1.0  0.0884
  H  H48  1  0.705100  0.845300  0.025900  1.0  0.0886
  H  H49  1  0.655200  0.484000  0.777200  1.0  0.0885
  H  H50  1  0.705100  0.423700  0.845300  1.0  0.0885
  H  H51  1  0.277200  0.083600  0.155200  1.0  0.0883
  H  H52  1  0.345300  0.025900  0.205100  1.0  0.0895
  H  H53  1  0.984000  0.155200  0.083600  1.0  0.0894
  H  H54  1  0.923700  0.205100  0.025900  1.0  0.0879
  H  H55  1  0.583600  0.777200  0.484000  1.0  0.0883
  H  H56  1  0.525900  0.845300  0.423700  1.0  0.0887
  H  H57  1  0.277200  0.484000  0.083600  1.0  0.0881
  H  H58  1  0.345300  0.423700  0.025900  1.0  0.0877
  H  H59  1  0.655200  0.083600  0.484000  1.0  0.0887
  H  H60  1  0.705100  0.025900  0.423700  1.0  0.0893
  H  H61  1  0.583600  0.155200  0.777200  1.0  0.089
  H  H62  1  0.525900  0.205100  0.845300  1.0  0.0881
  H  H63  1  0.984000  0.777200  0.155200  1.0  0.089
  H  H64  1  0.923700  0.845300  0.205100  1.0  0.0891
  H  H65  1  0.484000  0.583600  0.655200  1.0  0.089
  H  H66  1  0.423700  0.525900  0.705100  1.0  0.0894
  H  H67  1  0.083600  0.984000  0.277200  1.0  0.0889
  H  H68  1  0.025900  0.923700  0.345300  1.0  0.0871
  H  H69  1  0.155200  0.277200  0.984000  1.0  0.0887
  H  H70  1  0.205100  0.345300  0.923700  1.0  0.0886
  H  H71  1  0.777200  0.655200  0.583600  1.0  0.0888
  H  H72  1  0.845300  0.705100  0.525900  1.0  0.0882
  H  H73  1  0.484000  0.655200  0.277200  1.0  0.0894
  H  H74  1  0.423700  0.705100  0.345300  1.0  0.0888
  H  H75  1  0.083600  0.277200  0.655200  1.0  0.0886
  H  H76  1  0.025900  0.345300  0.705100  1.0  0.0881
  H  H77  1  0.155200  0.984000  0.583600  1.0  0.0882
  H  H78  1  0.205100  0.923700  0.525900  1.0  0.0877
  H  H79  1  0.777200  0.583600  0.984000  1.0  0.0883
  H  H80  1  0.845300  0.525900  0.923700  1.0  0.0896
  H  H81  1  0.484000  0.277200  0.583600  1.0  0.0892
  H  H82  1  0.423700  0.345300  0.525900  1.0  0.0888
  H  H83  1  0.083600  0.655200  0.984000  1.0  0.0886
  H  H84  1  0.025900  0.705100  0.923700  1.0  0.0886
  H  H85  1  0.155200  0.583600  0.277200  1.0  0.0889
  H  H86  1  0.205100  0.525900  0.345300  1.0  0.0895
  H  H87  1  0.777200  0.984000  0.655200  1.0  0.0881
  H  H88  1  0.845300  0.923700  0.705100  1.0  0.0882
  H  H89  1  0.416400  0.516000  0.844800  1.0  0.0878
  H  H90  1  0.474100  0.576300  0.794900  1.0  0.0852
  H  H91  1  0.016000  0.916400  0.222800  1.0  0.0905
  H  H92  1  0.076300  0.974100  0.154700  1.0  0.0894
  H  H93  1  0.722800  0.844800  0.516000  1.0  0.0889
  H  H94  1  0.654700  0.794900  0.576300  1.0  0.0885
  H  H95  1  0.344800  0.222800  0.916400  1.0  0.0885
  H  H96  1  0.294900  0.154700  0.974100  1.0  0.089
  H  H97  1  0.344800  0.516000  0.222800  1.0  0.0875
  H  H98  1  0.294900  0.576300  0.154700  1.0  0.0875
  H  H99  1  0.722800  0.916400  0.844800  1.0  0.0885
  H  H100  1  0.654700  0.974100  0.794900  1.0  0.0896
  H  H101  1  0.016000  0.844800  0.916400  1.0  0.0906
  H  H102  1  0.076300  0.794900  0.974100  1.0  0.0886
  H  H103  1  0.416400  0.222800  0.516000  1.0  0.0883
  H  H104  1  0.474100  0.154700  0.576300  1.0  0.0887
  H  H105  1  0.722800  0.516000  0.916400  1.0  0.0871
  H  H106  1  0.654700  0.576300  0.974100  1.0  0.0883
  H  H107  1  0.344800  0.916400  0.516000  1.0  0.0887
  H  H108  1  0.294900  0.974100  0.576300  1.0  0.0888
  H  H109  1  0.416400  0.844800  0.222800  1.0  0.0884
  H  H110  1  0.474100  0.794900  0.154700  1.0  0.0883
  H  H111  1  0.016000  0.222800  0.844800  1.0  0.0902
  H  H112  1  0.076300  0.154700  0.794900  1.0  0.0885
  C  C113  1  0.576300  0.414700  0.318100  1.0  -0.0912
  C  C114  1  0.620550  0.359730  0.385470  1.0  0.7488
  C  C115  1  0.914700  0.076300  0.690900  1.0  -0.0893
  C  C116  1  0.859730  0.120550  0.634250  1.0  0.7475
  C  C117  1  0.818100  0.690900  0.076300  1.0  -0.095
  C  C118  1  0.885470  0.634250  0.120550  1.0  0.7451
  C  C119  1  0.190900  0.318100  0.414700  1.0  -0.0983
  C  C120  1  0.134250  0.385470  0.359730  1.0  0.7458
  C  C121  1  0.576300  0.318100  0.690900  1.0  -0.0906
  C  C122  1  0.620550  0.385470  0.634250  1.0  0.7412
  C  C123  1  0.914700  0.690900  0.318100  1.0  -0.0894
  C  C124  1  0.859730  0.634250  0.385470  1.0  0.7375
  C  C125  1  0.818100  0.076300  0.414700  1.0  -0.0909
  C  C126  1  0.885470  0.120550  0.359730  1.0  0.7426
  C  C127  1  0.190900  0.414700  0.076300  1.0  -0.0886
  C  C128  1  0.134250  0.359730  0.120550  1.0  0.7394
  C  C129  1  0.576300  0.690900  0.414700  1.0  -0.0902
  C  C130  1  0.620550  0.634250  0.359730  1.0  0.7437
  C  C131  1  0.914700  0.318100  0.076300  1.0  -0.0896
  C  C132  1  0.859730  0.385470  0.120550  1.0  0.7505
  C  C133  1  0.818100  0.414700  0.690900  1.0  -0.0887
  C  C134  1  0.885470  0.359730  0.634250  1.0  0.7465
  C  C135  1  0.190900  0.076300  0.318100  1.0  -0.0908
  C  C136  1  0.134250  0.120550  0.385470  1.0  0.745
  C  C137  1  0.585300  0.423700  0.181900  1.0  -0.0913
  C  C138  1  0.640270  0.379450  0.114530  1.0  0.7456
  C  C139  1  0.923700  0.085300  0.809100  1.0  -0.0908
  C  C140  1  0.879450  0.140270  0.865750  1.0  0.7486
  C  C141  1  0.309100  0.181900  0.423700  1.0  -0.0984
  C  C142  1  0.365750  0.114530  0.379450  1.0  0.7449
  C  C143  1  0.681900  0.809100  0.085300  1.0  -0.0951
  C  C144  1  0.614530  0.865750  0.140270  1.0  0.7464
  C  C145  1  0.681900  0.423700  0.809100  1.0  -0.0891
  C  C146  1  0.614530  0.379450  0.865750  1.0  0.7409
  C  C147  1  0.309100  0.085300  0.181900  1.0  -0.0905
  C  C148  1  0.365750  0.140270  0.114530  1.0  0.7402
  C  C149  1  0.923700  0.181900  0.085300  1.0  -0.0909
  C  C150  1  0.879450  0.114530  0.140270  1.0  0.7404
  C  C151  1  0.585300  0.809100  0.423700  1.0  -0.0904
  C  C152  1  0.640270  0.865750  0.379450  1.0  0.7406
  C  C153  1  0.309100  0.423700  0.085300  1.0  -0.0887
  C  C154  1  0.365750  0.379450  0.140270  1.0  0.7449
  C  C155  1  0.681900  0.085300  0.423700  1.0  -0.0913
  C  C156  1  0.614530  0.140270  0.379450  1.0  0.747
  C  C157  1  0.585300  0.181900  0.809100  1.0  -0.0906
  C  C158  1  0.640270  0.114530  0.865750  1.0  0.7497
  C  C159  1  0.923700  0.809100  0.181900  1.0  -0.0891
  C  C160  1  0.879450  0.865750  0.114530  1.0  0.7462
  C  C161  1  0.423700  0.585300  0.681900  1.0  -0.0907
  C  C162  1  0.379450  0.640270  0.614530  1.0  0.7478
  C  C163  1  0.085300  0.923700  0.309100  1.0  -0.091
  C  C164  1  0.140270  0.879450  0.365750  1.0  0.7474
  C  C165  1  0.181900  0.309100  0.923700  1.0  -0.097
  C  C166  1  0.114530  0.365750  0.879450  1.0  0.746
  C  C167  1  0.809100  0.681900  0.585300  1.0  -0.0957
  C  C168  1  0.865750  0.614530  0.640270  1.0  0.7471
  C  C169  1  0.423700  0.681900  0.309100  1.0  -0.0907
  C  C170  1  0.379450  0.614530  0.365750  1.0  0.7412
  C  C171  1  0.085300  0.309100  0.681900  1.0  -0.0899
  C  C172  1  0.140270  0.365750  0.614530  1.0  0.7409
  C  C173  1  0.181900  0.923700  0.585300  1.0  -0.0895
  C  C174  1  0.114530  0.879450  0.640270  1.0  0.7403
  C  C175  1  0.809100  0.585300  0.923700  1.0  -0.0911
  C  C176  1  0.865750  0.640270  0.879450  1.0  0.7401
  C  C177  1  0.423700  0.309100  0.585300  1.0  -0.0896
  C  C178  1  0.379450  0.365750  0.640270  1.0  0.7451
  C  C179  1  0.085300  0.681900  0.923700  1.0  -0.0906
  C  C180  1  0.140270  0.614530  0.879450  1.0  0.7478
  C  C181  1  0.181900  0.585300  0.309100  1.0  -0.0914
  C  C182  1  0.114530  0.640270  0.365750  1.0  0.748
  C  C183  1  0.809100  0.923700  0.681900  1.0  -0.0883
  C  C184  1  0.865750  0.879450  0.614530  1.0  0.7444
  C  C185  1  0.414700  0.576300  0.818100  1.0  -0.0893
  C  C186  1  0.359730  0.620550  0.885470  1.0  0.7481
  C  C187  1  0.076300  0.914700  0.190900  1.0  -0.0914
  C  C188  1  0.120550  0.859730  0.134250  1.0  0.7465
  C  C189  1  0.690900  0.818100  0.576300  1.0  -0.0953
  C  C190  1  0.634250  0.885470  0.620550  1.0  0.7466
  C  C191  1  0.318100  0.190900  0.914700  1.0  -0.0976
  C  C192  1  0.385470  0.134250  0.859730  1.0  0.7443
  C  C193  1  0.318100  0.576300  0.190900  1.0  -0.0906
  C  C194  1  0.385470  0.620550  0.134250  1.0  0.7418
  C  C195  1  0.690900  0.914700  0.818100  1.0  -0.0887
  C  C196  1  0.634250  0.859730  0.885470  1.0  0.7394
  C  C197  1  0.076300  0.818100  0.914700  1.0  -0.0908
  C  C198  1  0.120550  0.885470  0.859730  1.0  0.7418
  C  C199  1  0.414700  0.190900  0.576300  1.0  -0.0894
  C  C200  1  0.359730  0.134250  0.620550  1.0  0.7371
  C  C201  1  0.690900  0.576300  0.914700  1.0  -0.0908
  C  C202  1  0.634250  0.620550  0.859730  1.0  0.7463
  C  C203  1  0.318100  0.914700  0.576300  1.0  -0.0894
  C  C204  1  0.385470  0.859730  0.620550  1.0  0.7493
  C  C205  1  0.414700  0.818100  0.190900  1.0  -0.089
  C  C206  1  0.359730  0.885470  0.134250  1.0  0.7494
  C  C207  1  0.076300  0.190900  0.818100  1.0  -0.0904
  C  C208  1  0.120550  0.134250  0.885470  1.0  0.7428
  O  O209  1  0.687050  0.295610  0.371950  1.0  -0.6287
  O  O210  1  0.589050  0.381610  0.450710  1.0  -0.6793
  O  O211  1  0.795610  0.187050  0.645390  1.0  -0.6277
  O  O212  1  0.881610  0.089050  0.578630  1.0  -0.6757
  O  O213  1  0.871950  0.645390  0.187050  1.0  -0.6328
  O  O214  1  0.950710  0.578630  0.089050  1.0  -0.6765
  O  O215  1  0.145390  0.371950  0.295610  1.0  -0.631
  O  O216  1  0.078630  0.450710  0.381610  1.0  -0.6791
  O  O217  1  0.687050  0.371950  0.645390  1.0  -0.6278
  O  O218  1  0.589050  0.450710  0.578630  1.0  -0.6799
  O  O219  1  0.795610  0.645390  0.371950  1.0  -0.6289
  O  O220  1  0.881610  0.578630  0.450710  1.0  -0.6771
  O  O221  1  0.871950  0.187050  0.295610  1.0  -0.6262
  O  O222  1  0.950710  0.089050  0.381610  1.0  -0.6768
  O  O223  1  0.145390  0.295610  0.187050  1.0  -0.6289
  O  O224  1  0.078630  0.381610  0.089050  1.0  -0.6797
  O  O225  1  0.687050  0.645390  0.295610  1.0  -0.6304
  O  O226  1  0.589050  0.578630  0.381610  1.0  -0.679
  O  O227  1  0.795610  0.371950  0.187050  1.0  -0.6307
  O  O228  1  0.881610  0.450710  0.089050  1.0  -0.6795
  O  O229  1  0.871950  0.295610  0.645390  1.0  -0.6315
  O  O230  1  0.950710  0.381610  0.578630  1.0  -0.6774
  O  O231  1  0.145390  0.187050  0.371950  1.0  -0.6308
  O  O232  1  0.078630  0.089050  0.450710  1.0  -0.6789
  O  O233  1  0.704390  0.312950  0.128050  1.0  -0.628
  O  O234  1  0.618390  0.410950  0.049290  1.0  -0.6765
  O  O235  1  0.812950  0.204390  0.854610  1.0  -0.6298
  O  O236  1  0.910950  0.118390  0.921370  1.0  -0.6792
  O  O237  1  0.354610  0.128050  0.312950  1.0  -0.6325
  O  O238  1  0.421370  0.049290  0.410950  1.0  -0.679
  O  O239  1  0.628050  0.854610  0.204390  1.0  -0.632
  O  O240  1  0.549290  0.921370  0.118390  1.0  -0.6755
  O  O241  1  0.628050  0.312950  0.854610  1.0  -0.6262
  O  O242  1  0.549290  0.410950  0.921370  1.0  -0.6778
  O  O243  1  0.354610  0.204390  0.128050  1.0  -0.63
  O  O244  1  0.421370  0.118390  0.049290  1.0  -0.6791
  O  O245  1  0.812950  0.128050  0.204390  1.0  -0.6263
  O  O246  1  0.910950  0.049290  0.118390  1.0  -0.6795
  O  O247  1  0.704390  0.854610  0.312950  1.0  -0.6284
  O  O248  1  0.618390  0.921370  0.410950  1.0  -0.6774
  O  O249  1  0.354610  0.312950  0.204390  1.0  -0.6321
  O  O250  1  0.421370  0.410950  0.118390  1.0  -0.6789
  O  O251  1  0.628050  0.204390  0.312950  1.0  -0.6315
  O  O252  1  0.549290  0.118390  0.410950  1.0  -0.6773
  O  O253  1  0.704390  0.128050  0.854610  1.0  -0.6292
  O  O254  1  0.618390  0.049290  0.921370  1.0  -0.6788
  O  O255  1  0.812950  0.854610  0.128050  1.0  -0.6307
  O  O256  1  0.910950  0.921370  0.049290  1.0  -0.6779
  O  O257  1  0.312950  0.704390  0.628050  1.0  -0.6275
  O  O258  1  0.410950  0.618390  0.549290  1.0  -0.678
  O  O259  1  0.204390  0.812950  0.354610  1.0  -0.6294
  O  O260  1  0.118390  0.910950  0.421370  1.0  -0.6773
  O  O261  1  0.128050  0.354610  0.812950  1.0  -0.6303
  O  O262  1  0.049290  0.421370  0.910950  1.0  -0.6749
  O  O263  1  0.854610  0.628050  0.704390  1.0  -0.6337
  O  O264  1  0.921370  0.549290  0.618390  1.0  -0.6782
  O  O265  1  0.312950  0.628050  0.354610  1.0  -0.6251
  O  O266  1  0.410950  0.549290  0.421370  1.0  -0.6782
  O  O267  1  0.204390  0.354610  0.628050  1.0  -0.6286
  O  O268  1  0.118390  0.421370  0.549290  1.0  -0.6767
  O  O269  1  0.128050  0.812950  0.704390  1.0  -0.6265
  O  O270  1  0.049290  0.910950  0.618390  1.0  -0.6779
  O  O271  1  0.854610  0.704390  0.812950  1.0  -0.6292
  O  O272  1  0.921370  0.618390  0.910950  1.0  -0.6784
  O  O273  1  0.312950  0.354610  0.704390  1.0  -0.6303
  O  O274  1  0.410950  0.421370  0.618390  1.0  -0.6779
  O  O275  1  0.204390  0.628050  0.812950  1.0  -0.629
  O  O276  1  0.118390  0.549290  0.910950  1.0  -0.6767
  O  O277  1  0.128050  0.704390  0.354610  1.0  -0.6321
  O  O278  1  0.049290  0.618390  0.421370  1.0  -0.6781
  O  O279  1  0.854610  0.812950  0.628050  1.0  -0.6324
  O  O280  1  0.921370  0.910950  0.549290  1.0  -0.6781
  O  O281  1  0.295610  0.687050  0.871950  1.0  -0.6294
  O  O282  1  0.381610  0.589050  0.950710  1.0  -0.6774
  O  O283  1  0.187050  0.795610  0.145390  1.0  -0.6276
  O  O284  1  0.089050  0.881610  0.078630  1.0  -0.6779
  O  O285  1  0.645390  0.871950  0.687050  1.0  -0.632
  O  O286  1  0.578630  0.950710  0.589050  1.0  -0.6788
  O  O287  1  0.371950  0.145390  0.795610  1.0  -0.6318
  O  O288  1  0.450710  0.078630  0.881610  1.0  -0.6759
  O  O289  1  0.371950  0.687050  0.145390  1.0  -0.6269
  O  O290  1  0.450710  0.589050  0.078630  1.0  -0.6765
  O  O291  1  0.645390  0.795610  0.871950  1.0  -0.6296
  O  O292  1  0.578630  0.881610  0.950710  1.0  -0.679
  O  O293  1  0.187050  0.871950  0.795610  1.0  -0.6271
  O  O294  1  0.089050  0.950710  0.881610  1.0  -0.6792
  O  O295  1  0.295610  0.145390  0.687050  1.0  -0.6283
  O  O296  1  0.381610  0.078630  0.589050  1.0  -0.6766
  O  O297  1  0.645390  0.687050  0.795610  1.0  -0.6311
  O  O298  1  0.578630  0.589050  0.881610  1.0  -0.6778
  O  O299  1  0.371950  0.795610  0.687050  1.0  -0.6318
  O  O300  1  0.450710  0.881610  0.589050  1.0  -0.6782
  O  O301  1  0.295610  0.871950  0.145390  1.0  -0.6303
  O  O302  1  0.381610  0.950710  0.078630  1.0  -0.6778
  O  O303  1  0.187050  0.145390  0.871950  1.0  -0.63
  O  O304  1  0.089050  0.078630  0.950710  1.0  -0.6786
  O  O305  1  0.619640  0.380360  0.250000  1.0  -0.2741
  O  O306  1  0.880360  0.119640  0.750000  1.0  -0.2736
  O  O307  1  0.750000  0.750000  0.119640  1.0  -0.2724
  O  O308  1  0.250000  0.250000  0.380360  1.0  -0.2728
  O  O309  1  0.619640  0.250000  0.750000  1.0  -0.2738
  O  O310  1  0.880360  0.750000  0.250000  1.0  -0.2725
  O  O311  1  0.750000  0.119640  0.380360  1.0  -0.2727
  O  O312  1  0.250000  0.380360  0.119640  1.0  -0.274
  O  O313  1  0.619640  0.750000  0.380360  1.0  -0.2731
  O  O314  1  0.880360  0.250000  0.119640  1.0  -0.2734
  O  O315  1  0.750000  0.380360  0.750000  1.0  -0.2736
  O  O316  1  0.250000  0.119640  0.250000  1.0  -0.2736
  O  O317  1  0.380360  0.619640  0.750000  1.0  -0.2736
  O  O318  1  0.119640  0.880360  0.250000  1.0  -0.2741
  O  O319  1  0.250000  0.250000  0.880360  1.0  -0.2728
  O  O320  1  0.750000  0.750000  0.619640  1.0  -0.2724
  O  O321  1  0.380360  0.750000  0.250000  1.0  -0.2725
  O  O322  1  0.119640  0.250000  0.750000  1.0  -0.2738
  O  O323  1  0.250000  0.880360  0.619640  1.0  -0.274
  O  O324  1  0.750000  0.619640  0.880360  1.0  -0.2727
  O  O325  1  0.380360  0.250000  0.619640  1.0  -0.2734
  O  O326  1  0.119640  0.750000  0.880360  1.0  -0.2731
  O  O327  1  0.250000  0.619640  0.250000  1.0  -0.2736
  O  O328  1  0.750000  0.880360  0.750000  1.0  -0.2736
