# generated using pymatgen
data_CaErH12(C4O5)3
_symmetry_space_group_name_H-M   'P 1'
_cell_length_a   18.72690000
_cell_length_b   18.72690000
_cell_length_c   18.72690000
_cell_angle_alpha   60.00000000
_cell_angle_beta   60.00000000
_cell_angle_gamma   60.00000000
_symmetry_Int_Tables_number   1
_chemical_formula_structural   CaErH12(C4O5)3
_chemical_formula_sum   'Ca8 Er8 H96 C96 O120'
_cell_volume   4643.89804462
_cell_formula_units_Z   8
loop_
 _symmetry_equiv_pos_site_id
 _symmetry_equiv_pos_as_xyz
  1  'x, y, z'
loop_
 _atom_site_type_symbol
 _atom_site_label
 _atom_site_symmetry_multiplicity
 _atom_site_fract_x
 _atom_site_fract_y
 _atom_site_fract_z
 _atom_site_occupancy
 _atom_site_charge
  Ca  Ca1  1  0.500000  0.500000  0.500000  1.0  1.5177
  Ca  Ca2  1  0.000000  0.000000  0.500000  1.0  1.5177
  Ca  Ca3  1  0.000000  0.500000  0.000000  1.0  1.5177
  Ca  Ca4  1  0.000000  0.500000  0.500000  1.0  1.5177
  Ca  Ca5  1  0.500000  0.500000  0.000000  1.0  1.5177
  Ca  Ca6  1  0.000000  0.000000  0.000000  1.0  1.5177
  Ca  Ca7  1  0.500000  0.000000  0.500000  1.0  1.5177
  Ca  Ca8  1  0.500000  0.000000  0.000000  1.0  1.5177
  Er  Er9  1  0.750000  0.250000  0.250000  1.0  1.1985
  Er  Er10  1  0.750000  0.250000  0.750000  1.0  1.1985
  Er  Er11  1  0.750000  0.750000  0.250000  1.0  1.1985
  Er  Er12  1  0.250000  0.250000  0.250000  1.0  1.1985
  Er  Er13  1  0.250000  0.750000  0.750000  1.0  1.1985
  Er  Er14  1  0.250000  0.750000  0.250000  1.0  1.1985
  Er  Er15  1  0.250000  0.250000  0.750000  1.0  1.1985
  Er  Er16  1  0.750000  0.750000  0.750000  1.0  1.1985
  H  H17  1  0.516600  0.415400  0.344800  1.0  0.1095
  H  H18  1  0.576300  0.473700  0.294900  1.0  0.108
  H  H19  1  0.915400  0.016600  0.723200  1.0  0.1061
  H  H20  1  0.973700  0.076300  0.655100  1.0  0.105
  H  H21  1  0.844800  0.723200  0.016600  1.0  0.1068
  H  H22  1  0.794900  0.655100  0.076300  1.0  0.1079
  H  H23  1  0.223200  0.344800  0.415400  1.0  0.1072
  H  H24  1  0.155100  0.294900  0.473700  1.0  0.1078
  H  H25  1  0.516600  0.344800  0.723200  1.0  0.1088
  H  H26  1  0.576300  0.294900  0.655100  1.0  0.1067
  H  H27  1  0.915400  0.723200  0.344800  1.0  0.1067
  H  H28  1  0.973700  0.655100  0.294900  1.0  0.1078
  H  H29  1  0.844800  0.016600  0.415400  1.0  0.1055
  H  H30  1  0.794900  0.076300  0.473700  1.0  0.1066
  H  H31  1  0.223200  0.415400  0.016600  1.0  0.107
  H  H32  1  0.155100  0.473700  0.076300  1.0  0.108
  H  H33  1  0.516600  0.723200  0.415400  1.0  0.1085
  H  H34  1  0.576300  0.655100  0.473700  1.0  0.1078
  H  H35  1  0.915400  0.344800  0.016600  1.0  0.1071
  H  H36  1  0.973700  0.294900  0.076300  1.0  0.1073
  H  H37  1  0.844800  0.415400  0.723200  1.0  0.1075
  H  H38  1  0.794900  0.473700  0.655100  1.0  0.1081
  H  H39  1  0.223200  0.016600  0.344800  1.0  0.1058
  H  H40  1  0.155100  0.076300  0.294900  1.0  0.107
  H  H41  1  0.584600  0.483400  0.155200  1.0  0.1071
  H  H42  1  0.526300  0.423700  0.205100  1.0  0.1064
  H  H43  1  0.983400  0.084600  0.776800  1.0  0.1081
  H  H44  1  0.923700  0.026300  0.844900  1.0  0.1085
  H  H45  1  0.276800  0.155200  0.483400  1.0  0.1075
  H  H46  1  0.344900  0.205100  0.423700  1.0  0.1069
  H  H47  1  0.655200  0.776800  0.084600  1.0  0.1069
  H  H48  1  0.705100  0.844900  0.026300  1.0  0.1074
  H  H49  1  0.655200  0.483400  0.776800  1.0  0.1068
  H  H50  1  0.705100  0.423700  0.844900  1.0  0.1072
  H  H51  1  0.276800  0.084600  0.155200  1.0  0.1066
  H  H52  1  0.344900  0.026300  0.205100  1.0  0.1086
  H  H53  1  0.983400  0.155200  0.084600  1.0  0.108
  H  H54  1  0.923700  0.205100  0.026300  1.0  0.1064
  H  H55  1  0.584600  0.776800  0.483400  1.0  0.1068
  H  H56  1  0.526300  0.844900  0.423700  1.0  0.1076
  H  H57  1  0.276800  0.483400  0.084600  1.0  0.1065
  H  H58  1  0.344900  0.423700  0.026300  1.0  0.1065
  H  H59  1  0.655200  0.084600  0.483400  1.0  0.1074
  H  H60  1  0.705100  0.026300  0.423700  1.0  0.1082
  H  H61  1  0.584600  0.155200  0.776800  1.0  0.1074
  H  H62  1  0.526300  0.205100  0.844900  1.0  0.1068
  H  H63  1  0.983400  0.776800  0.155200  1.0  0.1076
  H  H64  1  0.923700  0.844900  0.205100  1.0  0.1073
  H  H65  1  0.483400  0.584600  0.655200  1.0  0.108
  H  H66  1  0.423700  0.526300  0.705100  1.0  0.1083
  H  H67  1  0.084600  0.983400  0.276800  1.0  0.1073
  H  H68  1  0.026300  0.923700  0.344900  1.0  0.1064
  H  H69  1  0.155200  0.276800  0.983400  1.0  0.1073
  H  H70  1  0.205100  0.344900  0.923700  1.0  0.1075
  H  H71  1  0.776800  0.655200  0.584600  1.0  0.1071
  H  H72  1  0.844900  0.705100  0.526300  1.0  0.1069
  H  H73  1  0.483400  0.655200  0.276800  1.0  0.1079
  H  H74  1  0.423700  0.705100  0.344900  1.0  0.1073
  H  H75  1  0.084600  0.276800  0.655200  1.0  0.1071
  H  H76  1  0.026300  0.344900  0.705100  1.0  0.107
  H  H77  1  0.155200  0.983400  0.584600  1.0  0.1066
  H  H78  1  0.205100  0.923700  0.526300  1.0  0.1063
  H  H79  1  0.776800  0.584600  0.983400  1.0  0.1069
  H  H80  1  0.844900  0.526300  0.923700  1.0  0.1086
  H  H81  1  0.483400  0.276800  0.584600  1.0  0.1077
  H  H82  1  0.423700  0.344900  0.526300  1.0  0.1074
  H  H83  1  0.084600  0.655200  0.983400  1.0  0.1071
  H  H84  1  0.026300  0.705100  0.923700  1.0  0.1072
  H  H85  1  0.155200  0.584600  0.276800  1.0  0.1073
  H  H86  1  0.205100  0.526300  0.344900  1.0  0.1086
  H  H87  1  0.776800  0.983400  0.655200  1.0  0.1066
  H  H88  1  0.844900  0.923700  0.705100  1.0  0.1066
  H  H89  1  0.415400  0.516600  0.844800  1.0  0.1061
  H  H90  1  0.473700  0.576300  0.794900  1.0  0.105
  H  H91  1  0.016600  0.915400  0.223200  1.0  0.1094
  H  H92  1  0.076300  0.973700  0.155100  1.0  0.1082
  H  H93  1  0.723200  0.844800  0.516600  1.0  0.1072
  H  H94  1  0.655100  0.794900  0.576300  1.0  0.1075
  H  H95  1  0.344800  0.223200  0.915400  1.0  0.1069
  H  H96  1  0.294900  0.155100  0.973700  1.0  0.1082
  H  H97  1  0.344800  0.516600  0.223200  1.0  0.1058
  H  H98  1  0.294900  0.576300  0.155100  1.0  0.1062
  H  H99  1  0.723200  0.915400  0.844800  1.0  0.1073
  H  H100  1  0.655100  0.973700  0.794900  1.0  0.1084
  H  H101  1  0.016600  0.844800  0.915400  1.0  0.109
  H  H102  1  0.076300  0.794900  0.973700  1.0  0.1072
  H  H103  1  0.415400  0.223200  0.516600  1.0  0.1066
  H  H104  1  0.473700  0.155100  0.576300  1.0  0.1077
  H  H105  1  0.723200  0.516600  0.915400  1.0  0.1055
  H  H106  1  0.655100  0.576300  0.973700  1.0  0.1067
  H  H107  1  0.344800  0.915400  0.516600  1.0  0.1073
  H  H108  1  0.294900  0.973700  0.576300  1.0  0.1078
  H  H109  1  0.415400  0.844800  0.223200  1.0  0.1069
  H  H110  1  0.473700  0.794900  0.155100  1.0  0.1071
  H  H111  1  0.016600  0.223200  0.844800  1.0  0.1085
  H  H112  1  0.076300  0.155100  0.794900  1.0  0.1076
  C  C113  1  0.576700  0.414140  0.318060  1.0  -0.0742
  C  C114  1  0.621200  0.359520  0.385080  1.0  0.7581
  C  C115  1  0.914140  0.076700  0.691100  1.0  -0.0729
  C  C116  1  0.859520  0.121200  0.634200  1.0  0.7574
  C  C117  1  0.818060  0.691100  0.076700  1.0  -0.0758
  C  C118  1  0.885080  0.634200  0.121200  1.0  0.7526
  C  C119  1  0.191100  0.318060  0.414140  1.0  -0.0788
  C  C120  1  0.134200  0.385080  0.359520  1.0  0.756
  C  C121  1  0.576700  0.318060  0.691100  1.0  -0.0732
  C  C122  1  0.621200  0.385080  0.634200  1.0  0.7517
  C  C123  1  0.914140  0.691100  0.318060  1.0  -0.0719
  C  C124  1  0.859520  0.634200  0.385080  1.0  0.7473
  C  C125  1  0.818060  0.076700  0.414140  1.0  -0.0738
  C  C126  1  0.885080  0.121200  0.359520  1.0  0.7523
  C  C127  1  0.191100  0.414140  0.076700  1.0  -0.0719
  C  C128  1  0.134200  0.359520  0.121200  1.0  0.7489
  C  C129  1  0.576700  0.691100  0.414140  1.0  -0.0725
  C  C130  1  0.621200  0.634200  0.359520  1.0  0.7531
  C  C131  1  0.914140  0.318060  0.076700  1.0  -0.0721
  C  C132  1  0.859520  0.385080  0.121200  1.0  0.7594
  C  C133  1  0.818060  0.414140  0.691100  1.0  -0.072
  C  C134  1  0.885080  0.359520  0.634200  1.0  0.7561
  C  C135  1  0.191100  0.076700  0.318060  1.0  -0.0738
  C  C136  1  0.134200  0.121200  0.385080  1.0  0.755
  C  C137  1  0.585860  0.423300  0.181940  1.0  -0.0742
  C  C138  1  0.640480  0.378800  0.114920  1.0  0.7552
  C  C139  1  0.923300  0.085860  0.808900  1.0  -0.0741
  C  C140  1  0.878800  0.140480  0.865800  1.0  0.7584
  C  C141  1  0.308900  0.181940  0.423300  1.0  -0.0793
  C  C142  1  0.365800  0.114920  0.378800  1.0  0.7548
  C  C143  1  0.681940  0.808900  0.085860  1.0  -0.0757
  C  C144  1  0.614920  0.865800  0.140480  1.0  0.7548
  C  C145  1  0.681940  0.423300  0.808900  1.0  -0.072
  C  C146  1  0.614920  0.378800  0.865800  1.0  0.7504
  C  C147  1  0.308900  0.085860  0.181940  1.0  -0.0735
  C  C148  1  0.365800  0.140480  0.114920  1.0  0.75
  C  C149  1  0.923300  0.181940  0.085860  1.0  -0.0734
  C  C150  1  0.878800  0.114920  0.140480  1.0  0.7517
  C  C151  1  0.585860  0.808900  0.423300  1.0  -0.0726
  C  C152  1  0.640480  0.865800  0.378800  1.0  0.7505
  C  C153  1  0.308900  0.423300  0.085860  1.0  -0.0719
  C  C154  1  0.365800  0.378800  0.140480  1.0  0.7546
  C  C155  1  0.681940  0.085860  0.423300  1.0  -0.0739
  C  C156  1  0.614920  0.140480  0.378800  1.0  0.7568
  C  C157  1  0.585860  0.181940  0.808900  1.0  -0.0729
  C  C158  1  0.640480  0.114920  0.865800  1.0  0.7588
  C  C159  1  0.923300  0.808900  0.181940  1.0  -0.0716
  C  C160  1  0.878800  0.865800  0.114920  1.0  0.756
  C  C161  1  0.423300  0.585860  0.681940  1.0  -0.0739
  C  C162  1  0.378800  0.640480  0.614920  1.0  0.7575
  C  C163  1  0.085860  0.923300  0.308900  1.0  -0.0739
  C  C164  1  0.140480  0.878800  0.365800  1.0  0.7567
  C  C165  1  0.181940  0.308900  0.923300  1.0  -0.0777
  C  C166  1  0.114920  0.365800  0.878800  1.0  0.7558
  C  C167  1  0.808900  0.681940  0.585860  1.0  -0.0764
  C  C168  1  0.865800  0.614920  0.640480  1.0  0.7555
  C  C169  1  0.423300  0.681940  0.308900  1.0  -0.0732
  C  C170  1  0.378800  0.614920  0.365800  1.0  0.7522
  C  C171  1  0.085860  0.308900  0.681940  1.0  -0.0724
  C  C172  1  0.140480  0.365800  0.614920  1.0  0.7505
  C  C173  1  0.181940  0.923300  0.585860  1.0  -0.0722
  C  C174  1  0.114920  0.878800  0.640480  1.0  0.7501
  C  C175  1  0.808900  0.585860  0.923300  1.0  -0.0737
  C  C176  1  0.865800  0.640480  0.878800  1.0  0.7502
  C  C177  1  0.423300  0.308900  0.585860  1.0  -0.0718
  C  C178  1  0.378800  0.365800  0.640480  1.0  0.7551
  C  C179  1  0.085860  0.681940  0.923300  1.0  -0.0734
  C  C180  1  0.140480  0.614920  0.878800  1.0  0.757
  C  C181  1  0.181940  0.585860  0.308900  1.0  -0.0736
  C  C182  1  0.114920  0.640480  0.365800  1.0  0.7576
  C  C183  1  0.808900  0.923300  0.681940  1.0  -0.0719
  C  C184  1  0.865800  0.878800  0.614920  1.0  0.7542
  C  C185  1  0.414140  0.576700  0.818060  1.0  -0.073
  C  C186  1  0.359520  0.621200  0.885080  1.0  0.758
  C  C187  1  0.076700  0.914140  0.191100  1.0  -0.0745
  C  C188  1  0.121200  0.859520  0.134200  1.0  0.7563
  C  C189  1  0.691100  0.818060  0.576700  1.0  -0.0759
  C  C190  1  0.634200  0.885080  0.621200  1.0  0.7554
  C  C191  1  0.318060  0.191100  0.914140  1.0  -0.0784
  C  C192  1  0.385080  0.134200  0.859520  1.0  0.7534
  C  C193  1  0.318060  0.576700  0.191100  1.0  -0.0736
  C  C194  1  0.385080  0.621200  0.134200  1.0  0.7521
  C  C195  1  0.691100  0.914140  0.818060  1.0  -0.0719
  C  C196  1  0.634200  0.859520  0.885080  1.0  0.7491
  C  C197  1  0.076700  0.818060  0.914140  1.0  -0.0731
  C  C198  1  0.121200  0.885080  0.859520  1.0  0.7518
  C  C199  1  0.414140  0.191100  0.576700  1.0  -0.0722
  C  C200  1  0.359520  0.134200  0.621200  1.0  0.7468
  C  C201  1  0.691100  0.576700  0.914140  1.0  -0.074
  C  C202  1  0.634200  0.621200  0.859520  1.0  0.7563
  C  C203  1  0.318060  0.914140  0.576700  1.0  -0.0721
  C  C204  1  0.385080  0.859520  0.621200  1.0  0.7585
  C  C205  1  0.414140  0.818060  0.191100  1.0  -0.0719
  C  C206  1  0.359520  0.885080  0.134200  1.0  0.7586
  C  C207  1  0.076700  0.191100  0.818060  1.0  -0.0724
  C  C208  1  0.121200  0.134200  0.885080  1.0  0.7516
  O  O209  1  0.687590  0.294790  0.371810  1.0  -0.5821
  O  O210  1  0.590220  0.380600  0.450800  1.0  -0.6587
  O  O211  1  0.794790  0.187590  0.645810  1.0  -0.5811
  O  O212  1  0.880600  0.090220  0.578380  1.0  -0.6549
  O  O213  1  0.871810  0.645810  0.187590  1.0  -0.586
  O  O214  1  0.950800  0.578380  0.090220  1.0  -0.6555
  O  O215  1  0.145810  0.371810  0.294790  1.0  -0.5828
  O  O216  1  0.078380  0.450800  0.380600  1.0  -0.6575
  O  O217  1  0.687590  0.371810  0.645810  1.0  -0.5806
  O  O218  1  0.590220  0.450800  0.578380  1.0  -0.6585
  O  O219  1  0.794790  0.645810  0.371810  1.0  -0.5815
  O  O220  1  0.880600  0.578380  0.450800  1.0  -0.6562
  O  O221  1  0.871810  0.187590  0.294790  1.0  -0.5803
  O  O222  1  0.950800  0.090220  0.380600  1.0  -0.6557
  O  O223  1  0.145810  0.294790  0.187590  1.0  -0.5804
  O  O224  1  0.078380  0.380600  0.090220  1.0  -0.6595
  O  O225  1  0.687590  0.645810  0.294790  1.0  -0.5834
  O  O226  1  0.590220  0.578380  0.380600  1.0  -0.6583
  O  O227  1  0.794790  0.371810  0.187590  1.0  -0.5842
  O  O228  1  0.880600  0.450800  0.090220  1.0  -0.6583
  O  O229  1  0.871810  0.294790  0.645810  1.0  -0.5854
  O  O230  1  0.950800  0.380600  0.578380  1.0  -0.6573
  O  O231  1  0.145810  0.187590  0.371810  1.0  -0.5833
  O  O232  1  0.078380  0.090220  0.450800  1.0  -0.658
  O  O233  1  0.705210  0.312410  0.128190  1.0  -0.5804
  O  O234  1  0.619400  0.409780  0.049200  1.0  -0.6556
  O  O235  1  0.812410  0.205210  0.854190  1.0  -0.5827
  O  O236  1  0.909780  0.119400  0.921620  1.0  -0.6586
  O  O237  1  0.354190  0.128190  0.312410  1.0  -0.5851
  O  O238  1  0.421620  0.049200  0.409780  1.0  -0.6581
  O  O239  1  0.628190  0.854190  0.205210  1.0  -0.5854
  O  O240  1  0.549200  0.921620  0.119400  1.0  -0.6547
  O  O241  1  0.628190  0.312410  0.854190  1.0  -0.5793
  O  O242  1  0.549200  0.409780  0.921620  1.0  -0.6571
  O  O243  1  0.354190  0.205210  0.128190  1.0  -0.5818
  O  O244  1  0.421620  0.119400  0.049200  1.0  -0.6586
  O  O245  1  0.812410  0.128190  0.205210  1.0  -0.5797
  O  O246  1  0.909780  0.049200  0.119400  1.0  -0.6589
  O  O247  1  0.705210  0.854190  0.312410  1.0  -0.5811
  O  O248  1  0.619400  0.921620  0.409780  1.0  -0.6563
  O  O249  1  0.354190  0.312410  0.205210  1.0  -0.5843
  O  O250  1  0.421620  0.409780  0.119400  1.0  -0.658
  O  O251  1  0.628190  0.205210  0.312410  1.0  -0.5844
  O  O252  1  0.549200  0.119400  0.409780  1.0  -0.657
  O  O253  1  0.705210  0.128190  0.854190  1.0  -0.5822
  O  O254  1  0.619400  0.049200  0.921620  1.0  -0.6582
  O  O255  1  0.812410  0.854190  0.128190  1.0  -0.5828
  O  O256  1  0.909780  0.921620  0.049200  1.0  -0.6572
  O  O257  1  0.312410  0.705210  0.628190  1.0  -0.5805
  O  O258  1  0.409780  0.619400  0.549200  1.0  -0.6574
  O  O259  1  0.205210  0.812410  0.354190  1.0  -0.5816
  O  O260  1  0.119400  0.909780  0.421620  1.0  -0.6569
  O  O261  1  0.128190  0.354190  0.812410  1.0  -0.5835
  O  O262  1  0.049200  0.421620  0.909780  1.0  -0.6539
  O  O263  1  0.854190  0.628190  0.705210  1.0  -0.5865
  O  O264  1  0.921620  0.549200  0.619400  1.0  -0.6577
  O  O265  1  0.312410  0.628190  0.354190  1.0  -0.5796
  O  O266  1  0.409780  0.549200  0.421620  1.0  -0.6577
  O  O267  1  0.205210  0.354190  0.628190  1.0  -0.5815
  O  O268  1  0.119400  0.421620  0.549200  1.0  -0.656
  O  O269  1  0.128190  0.812410  0.705210  1.0  -0.579
  O  O270  1  0.049200  0.909780  0.619400  1.0  -0.6571
  O  O271  1  0.854190  0.705210  0.812410  1.0  -0.581
  O  O272  1  0.921620  0.619400  0.909780  1.0  -0.6579
  O  O273  1  0.312410  0.354190  0.705210  1.0  -0.5827
  O  O274  1  0.409780  0.421620  0.619400  1.0  -0.6569
  O  O275  1  0.205210  0.628190  0.812410  1.0  -0.5824
  O  O276  1  0.119400  0.549200  0.909780  1.0  -0.6564
  O  O277  1  0.128190  0.705210  0.354190  1.0  -0.5845
  O  O278  1  0.049200  0.619400  0.421620  1.0  -0.658
  O  O279  1  0.854190  0.812410  0.628190  1.0  -0.5843
  O  O280  1  0.921620  0.909780  0.549200  1.0  -0.6576
  O  O281  1  0.294790  0.687590  0.871810  1.0  -0.5825
  O  O282  1  0.380600  0.590220  0.950800  1.0  -0.657
  O  O283  1  0.187590  0.794790  0.145810  1.0  -0.5811
  O  O284  1  0.090220  0.880600  0.078380  1.0  -0.6574
  O  O285  1  0.645810  0.871810  0.687590  1.0  -0.5841
  O  O286  1  0.578380  0.950800  0.590220  1.0  -0.6576
  O  O287  1  0.371810  0.145810  0.794790  1.0  -0.585
  O  O288  1  0.450800  0.078380  0.880600  1.0  -0.6548
  O  O289  1  0.371810  0.687590  0.145810  1.0  -0.58
  O  O290  1  0.450800  0.590220  0.078380  1.0  -0.6553
  O  O291  1  0.645810  0.794790  0.871810  1.0  -0.5808
  O  O292  1  0.578380  0.880600  0.950800  1.0  -0.6587
  O  O293  1  0.187590  0.871810  0.794790  1.0  -0.5806
  O  O294  1  0.090220  0.950800  0.880600  1.0  -0.6578
  O  O295  1  0.294790  0.145810  0.687590  1.0  -0.5812
  O  O296  1  0.380600  0.078380  0.590220  1.0  -0.6561
  O  O297  1  0.645810  0.687590  0.794790  1.0  -0.5832
  O  O298  1  0.578380  0.590220  0.880600  1.0  -0.6576
  O  O299  1  0.371810  0.794790  0.687590  1.0  -0.5851
  O  O300  1  0.450800  0.880600  0.590220  1.0  -0.6578
  O  O301  1  0.294790  0.871810  0.145810  1.0  -0.584
  O  O302  1  0.380600  0.950800  0.078380  1.0  -0.6569
  O  O303  1  0.187590  0.145810  0.871810  1.0  -0.5833
  O  O304  1  0.090220  0.078380  0.950800  1.0  -0.6578
  O  O305  1  0.620360  0.379640  0.250000  1.0  -0.2172
  O  O306  1  0.879640  0.120360  0.750000  1.0  -0.2169
  O  O307  1  0.750000  0.750000  0.120360  1.0  -0.2152
  O  O308  1  0.250000  0.250000  0.379640  1.0  -0.216
  O  O309  1  0.620360  0.250000  0.750000  1.0  -0.2164
  O  O310  1  0.879640  0.750000  0.250000  1.0  -0.2156
  O  O311  1  0.750000  0.120360  0.379640  1.0  -0.2155
  O  O312  1  0.250000  0.379640  0.120360  1.0  -0.2165
  O  O313  1  0.620360  0.750000  0.379640  1.0  -0.2161
  O  O314  1  0.879640  0.250000  0.120360  1.0  -0.216
  O  O315  1  0.750000  0.379640  0.750000  1.0  -0.2167
  O  O316  1  0.250000  0.120360  0.250000  1.0  -0.2162
  O  O317  1  0.379640  0.620360  0.750000  1.0  -0.2169
  O  O318  1  0.120360  0.879640  0.250000  1.0  -0.2172
  O  O319  1  0.250000  0.250000  0.879640  1.0  -0.216
  O  O320  1  0.750000  0.750000  0.620360  1.0  -0.2152
  O  O321  1  0.379640  0.750000  0.250000  1.0  -0.2156
  O  O322  1  0.120360  0.250000  0.750000  1.0  -0.2164
  O  O323  1  0.250000  0.879640  0.620360  1.0  -0.2165
  O  O324  1  0.750000  0.620360  0.879640  1.0  -0.2155
  O  O325  1  0.379640  0.250000  0.620360  1.0  -0.216
  O  O326  1  0.120360  0.750000  0.879640  1.0  -0.2161
  O  O327  1  0.250000  0.620360  0.250000  1.0  -0.2162
  O  O328  1  0.750000  0.879640  0.750000  1.0  -0.2167
