# generated using pymatgen
data_CaYbH12(C4O5)3
_symmetry_space_group_name_H-M   'P 1'
_cell_length_a   18.68740000
_cell_length_b   18.68740000
_cell_length_c   18.68740000
_cell_angle_alpha   60.00000000
_cell_angle_beta   60.00000000
_cell_angle_gamma   60.00000000
_symmetry_Int_Tables_number   1
_chemical_formula_structural   CaYbH12(C4O5)3
_chemical_formula_sum   'Ca8 Yb8 H96 C96 O120'
_cell_volume   4614.57434440
_cell_formula_units_Z   8
loop_
 _symmetry_equiv_pos_site_id
 _symmetry_equiv_pos_as_xyz
  1  'x, y, z'
loop_
 _atom_site_type_symbol
 _atom_site_label
 _atom_site_symmetry_multiplicity
 _atom_site_fract_x
 _atom_site_fract_y
 _atom_site_fract_z
 _atom_site_occupancy
 _atom_site_charge
  Ca  Ca1  1  0.500000  0.500000  0.500000  1.0  1.5245
  Ca  Ca2  1  0.000000  0.000000  0.500000  1.0  1.5245
  Ca  Ca3  1  0.000000  0.500000  0.000000  1.0  1.5245
  Ca  Ca4  1  0.000000  0.500000  0.500000  1.0  1.5245
  Ca  Ca5  1  0.500000  0.500000  0.000000  1.0  1.5245
  Ca  Ca6  1  0.000000  0.000000  0.000000  1.0  1.5245
  Ca  Ca7  1  0.500000  0.000000  0.500000  1.0  1.5245
  Ca  Ca8  1  0.500000  0.000000  0.000000  1.0  1.5245
  Yb  Yb9  1  0.750000  0.250000  0.750000  1.0  1.1743
  Yb  Yb10  1  0.750000  0.250000  0.250000  1.0  1.1743
  Yb  Yb11  1  0.250000  0.250000  0.250000  1.0  1.1743
  Yb  Yb12  1  0.750000  0.750000  0.250000  1.0  1.1743
  Yb  Yb13  1  0.250000  0.750000  0.250000  1.0  1.1743
  Yb  Yb14  1  0.250000  0.750000  0.750000  1.0  1.1743
  Yb  Yb15  1  0.750000  0.750000  0.750000  1.0  1.1743
  Yb  Yb16  1  0.250000  0.250000  0.750000  1.0  1.1743
  H  H17  1  0.516200  0.344800  0.722400  1.0  0.1173
  H  H18  1  0.576900  0.294700  0.654300  1.0  0.1147
  H  H19  1  0.844800  0.016200  0.416600  1.0  0.1145
  H  H20  1  0.794700  0.076900  0.474100  1.0  0.1143
  H  H21  1  0.222400  0.416600  0.016200  1.0  0.1152
  H  H22  1  0.154300  0.474100  0.076900  1.0  0.116
  H  H23  1  0.916600  0.722400  0.344800  1.0  0.1149
  H  H24  1  0.974100  0.654300  0.294700  1.0  0.1155
  H  H25  1  0.516200  0.722400  0.416600  1.0  0.1171
  H  H26  1  0.576900  0.654300  0.474100  1.0  0.1157
  H  H27  1  0.844800  0.416600  0.722400  1.0  0.1155
  H  H28  1  0.794700  0.474100  0.654300  1.0  0.1156
  H  H29  1  0.222400  0.016200  0.344800  1.0  0.1148
  H  H30  1  0.154300  0.076900  0.294700  1.0  0.1149
  H  H31  1  0.916600  0.344800  0.016200  1.0  0.1153
  H  H32  1  0.974100  0.294700  0.076900  1.0  0.1153
  H  H33  1  0.516200  0.416600  0.344800  1.0  0.1177
  H  H34  1  0.576900  0.474100  0.294700  1.0  0.116
  H  H35  1  0.844800  0.722400  0.016200  1.0  0.115
  H  H36  1  0.794700  0.654300  0.076900  1.0  0.1156
  H  H37  1  0.222400  0.344800  0.416600  1.0  0.1154
  H  H38  1  0.154300  0.294700  0.474100  1.0  0.1159
  H  H39  1  0.916600  0.016200  0.722400  1.0  0.115
  H  H40  1  0.974100  0.076900  0.654300  1.0  0.1139
  H  H41  1  0.655200  0.483800  0.777600  1.0  0.1153
  H  H42  1  0.705300  0.423100  0.845700  1.0  0.115
  H  H43  1  0.983800  0.155200  0.083400  1.0  0.1164
  H  H44  1  0.923100  0.205300  0.025900  1.0  0.1143
  H  H45  1  0.583400  0.777600  0.483800  1.0  0.1149
  H  H46  1  0.525900  0.845700  0.423100  1.0  0.1155
  H  H47  1  0.277600  0.083400  0.155200  1.0  0.115
  H  H48  1  0.345700  0.025900  0.205300  1.0  0.1162
  H  H49  1  0.277600  0.483800  0.083400  1.0  0.1153
  H  H50  1  0.345700  0.423100  0.025900  1.0  0.1143
  H  H51  1  0.583400  0.155200  0.777600  1.0  0.1156
  H  H52  1  0.525900  0.205300  0.845700  1.0  0.115
  H  H53  1  0.983800  0.777600  0.155200  1.0  0.1157
  H  H54  1  0.923100  0.845700  0.205300  1.0  0.1155
  H  H55  1  0.655200  0.083400  0.483800  1.0  0.1154
  H  H56  1  0.705300  0.025900  0.423100  1.0  0.1159
  H  H57  1  0.583400  0.483800  0.155200  1.0  0.1156
  H  H58  1  0.525900  0.423100  0.205300  1.0  0.1164
  H  H59  1  0.277600  0.155200  0.483800  1.0  0.1157
  H  H60  1  0.345700  0.205300  0.423100  1.0  0.1148
  H  H61  1  0.655200  0.777600  0.083400  1.0  0.115
  H  H62  1  0.705300  0.845700  0.025900  1.0  0.1154
  H  H63  1  0.983800  0.083400  0.777600  1.0  0.1161
  H  H64  1  0.923100  0.025900  0.845700  1.0  0.1164
  H  H65  1  0.483800  0.655200  0.277600  1.0  0.1161
  H  H66  1  0.423100  0.705300  0.345700  1.0  0.1154
  H  H67  1  0.155200  0.983800  0.583400  1.0  0.1152
  H  H68  1  0.205300  0.923100  0.525900  1.0  0.114
  H  H69  1  0.777600  0.583400  0.983800  1.0  0.1151
  H  H70  1  0.845700  0.525900  0.923100  1.0  0.1163
  H  H71  1  0.083400  0.277600  0.655200  1.0  0.1153
  H  H72  1  0.025900  0.345700  0.705300  1.0  0.1149
  H  H73  1  0.483800  0.277600  0.583400  1.0  0.1159
  H  H74  1  0.423100  0.345700  0.525900  1.0  0.1153
  H  H75  1  0.155200  0.583400  0.277600  1.0  0.1154
  H  H76  1  0.205300  0.525900  0.345700  1.0  0.116
  H  H77  1  0.777600  0.983800  0.655200  1.0  0.1153
  H  H78  1  0.845700  0.923100  0.705300  1.0  0.1149
  H  H79  1  0.083400  0.655200  0.983800  1.0  0.1153
  H  H80  1  0.025900  0.705300  0.923100  1.0  0.1155
  H  H81  1  0.483800  0.583400  0.655200  1.0  0.116
  H  H82  1  0.423100  0.525900  0.705300  1.0  0.1161
  H  H83  1  0.155200  0.277600  0.983800  1.0  0.1154
  H  H84  1  0.205300  0.345700  0.923100  1.0  0.1154
  H  H85  1  0.777600  0.655200  0.583400  1.0  0.1153
  H  H86  1  0.845700  0.705300  0.525900  1.0  0.1149
  H  H87  1  0.083400  0.983800  0.277600  1.0  0.1157
  H  H88  1  0.025900  0.923100  0.345700  1.0  0.1165
  H  H89  1  0.344800  0.516200  0.222400  1.0  0.1149
  H  H90  1  0.294700  0.576900  0.154300  1.0  0.1138
  H  H91  1  0.016200  0.844800  0.916600  1.0  0.1173
  H  H92  1  0.076900  0.794700  0.974100  1.0  0.1154
  H  H93  1  0.416600  0.222400  0.516200  1.0  0.1149
  H  H94  1  0.474100  0.154300  0.576900  1.0  0.1155
  H  H95  1  0.722400  0.916600  0.844800  1.0  0.1152
  H  H96  1  0.654300  0.974100  0.794700  1.0  0.1165
  H  H97  1  0.722400  0.516200  0.916600  1.0  0.1145
  H  H98  1  0.654300  0.576900  0.974100  1.0  0.1148
  H  H99  1  0.416600  0.844800  0.222400  1.0  0.1152
  H  H100  1  0.474100  0.794700  0.154300  1.0  0.1152
  H  H101  1  0.016200  0.222400  0.844800  1.0  0.117
  H  H102  1  0.076900  0.154300  0.794700  1.0  0.115
  H  H103  1  0.344800  0.916600  0.516200  1.0  0.1154
  H  H104  1  0.294700  0.974100  0.576900  1.0  0.1152
  H  H105  1  0.416600  0.516200  0.844800  1.0  0.115
  H  H106  1  0.474100  0.576900  0.794700  1.0  0.1139
  H  H107  1  0.722400  0.844800  0.516200  1.0  0.1154
  H  H108  1  0.654300  0.794700  0.576900  1.0  0.1157
  H  H109  1  0.344800  0.222400  0.916600  1.0  0.1151
  H  H110  1  0.294700  0.154300  0.974100  1.0  0.1159
  H  H111  1  0.016200  0.916600  0.222400  1.0  0.1176
  H  H112  1  0.076900  0.974100  0.154300  1.0  0.1162
  C  C113  1  0.576600  0.318000  0.690600  1.0  -0.0686
  C  C114  1  0.621680  0.384880  0.634520  1.0  0.7667
  C  C115  1  0.818000  0.076600  0.414800  1.0  -0.0696
  C  C116  1  0.884880  0.121680  0.358920  1.0  0.7672
  C  C117  1  0.190600  0.414800  0.076600  1.0  -0.0675
  C  C118  1  0.134520  0.358920  0.121680  1.0  0.7639
  C  C119  1  0.914800  0.690600  0.318000  1.0  -0.068
  C  C120  1  0.858920  0.634520  0.384880  1.0  0.7627
  C  C121  1  0.576600  0.690600  0.414800  1.0  -0.0677
  C  C122  1  0.621680  0.634520  0.358920  1.0  0.7684
  C  C123  1  0.818000  0.414800  0.690600  1.0  -0.0673
  C  C124  1  0.884880  0.358920  0.634520  1.0  0.7722
  C  C125  1  0.190600  0.076600  0.318000  1.0  -0.0695
  C  C126  1  0.134520  0.121680  0.384880  1.0  0.7699
  C  C127  1  0.914800  0.318000  0.076600  1.0  -0.0681
  C  C128  1  0.858920  0.384880  0.121680  1.0  0.7749
  C  C129  1  0.576600  0.414800  0.318000  1.0  -0.0695
  C  C130  1  0.621680  0.358920  0.384880  1.0  0.774
  C  C131  1  0.818000  0.690600  0.076600  1.0  -0.0713
  C  C132  1  0.884880  0.634520  0.121680  1.0  0.7682
  C  C133  1  0.190600  0.318000  0.414800  1.0  -0.0737
  C  C134  1  0.134520  0.384880  0.358920  1.0  0.7719
  C  C135  1  0.914800  0.076600  0.690600  1.0  -0.0683
  C  C136  1  0.858920  0.121680  0.634520  1.0  0.7731
  C  C137  1  0.682000  0.423400  0.809400  1.0  -0.0673
  C  C138  1  0.615120  0.378320  0.865480  1.0  0.7651
  C  C139  1  0.923400  0.182000  0.085200  1.0  -0.0695
  C  C140  1  0.878320  0.115120  0.141080  1.0  0.7666
  C  C141  1  0.585200  0.809400  0.423400  1.0  -0.0682
  C  C142  1  0.641080  0.865480  0.378320  1.0  0.7663
  C  C143  1  0.309400  0.085200  0.182000  1.0  -0.0693
  C  C144  1  0.365480  0.141080  0.115120  1.0  0.7648
  C  C145  1  0.309400  0.423400  0.085200  1.0  -0.0675
  C  C146  1  0.365480  0.378320  0.141080  1.0  0.7695
  C  C147  1  0.585200  0.182000  0.809400  1.0  -0.0678
  C  C148  1  0.641080  0.115120  0.865480  1.0  0.7743
  C  C149  1  0.923400  0.809400  0.182000  1.0  -0.0673
  C  C150  1  0.878320  0.865480  0.115120  1.0  0.7719
  C  C151  1  0.682000  0.085200  0.423400  1.0  -0.0696
  C  C152  1  0.615120  0.141080  0.378320  1.0  0.7725
  C  C153  1  0.585200  0.423400  0.182000  1.0  -0.0687
  C  C154  1  0.641080  0.378320  0.115120  1.0  0.7707
  C  C155  1  0.309400  0.182000  0.423400  1.0  -0.0743
  C  C156  1  0.365480  0.115120  0.378320  1.0  0.7698
  C  C157  1  0.682000  0.809400  0.085200  1.0  -0.0713
  C  C158  1  0.615120  0.865480  0.141080  1.0  0.7707
  C  C159  1  0.923400  0.085200  0.809400  1.0  -0.0697
  C  C160  1  0.878320  0.141080  0.865480  1.0  0.7736
  C  C161  1  0.423400  0.682000  0.309400  1.0  -0.069
  C  C162  1  0.378320  0.615120  0.365480  1.0  0.767
  C  C163  1  0.182000  0.923400  0.585200  1.0  -0.0677
  C  C164  1  0.115120  0.878320  0.641080  1.0  0.7648
  C  C165  1  0.809400  0.585200  0.923400  1.0  -0.0694
  C  C166  1  0.865480  0.641080  0.878320  1.0  0.7651
  C  C167  1  0.085200  0.309400  0.682000  1.0  -0.0682
  C  C168  1  0.141080  0.365480  0.615120  1.0  0.7664
  C  C169  1  0.423400  0.309400  0.585200  1.0  -0.0678
  C  C170  1  0.378320  0.365480  0.641080  1.0  0.7703
  C  C171  1  0.182000  0.585200  0.309400  1.0  -0.0695
  C  C172  1  0.115120  0.641080  0.365480  1.0  0.7727
  C  C173  1  0.809400  0.923400  0.682000  1.0  -0.0673
  C  C174  1  0.865480  0.878320  0.615120  1.0  0.7695
  C  C175  1  0.085200  0.682000  0.923400  1.0  -0.0681
  C  C176  1  0.141080  0.615120  0.878320  1.0  0.773
  C  C177  1  0.423400  0.585200  0.682000  1.0  -0.0694
  C  C178  1  0.378320  0.641080  0.615120  1.0  0.7731
  C  C179  1  0.182000  0.309400  0.923400  1.0  -0.0729
  C  C180  1  0.115120  0.365480  0.878320  1.0  0.7713
  C  C181  1  0.809400  0.682000  0.585200  1.0  -0.0721
  C  C182  1  0.865480  0.615120  0.641080  1.0  0.7707
  C  C183  1  0.085200  0.923400  0.309400  1.0  -0.0687
  C  C184  1  0.141080  0.878320  0.365480  1.0  0.7725
  C  C185  1  0.318000  0.576600  0.190600  1.0  -0.0695
  C  C186  1  0.384880  0.621680  0.134520  1.0  0.7669
  C  C187  1  0.076600  0.818000  0.914800  1.0  -0.0687
  C  C188  1  0.121680  0.884880  0.858920  1.0  0.7669
  C  C189  1  0.414800  0.190600  0.576600  1.0  -0.0685
  C  C190  1  0.358920  0.134520  0.621680  1.0  0.7622
  C  C191  1  0.690600  0.914800  0.818000  1.0  -0.0672
  C  C192  1  0.634520  0.858920  0.884880  1.0  0.7641
  C  C193  1  0.690600  0.576600  0.914800  1.0  -0.0695
  C  C194  1  0.634520  0.621680  0.858920  1.0  0.7718
  C  C195  1  0.414800  0.818000  0.190600  1.0  -0.0678
  C  C196  1  0.358920  0.884880  0.134520  1.0  0.7748
  C  C197  1  0.076600  0.190600  0.818000  1.0  -0.0677
  C  C198  1  0.121680  0.134520  0.884880  1.0  0.7669
  C  C199  1  0.318000  0.914800  0.576600  1.0  -0.0676
  C  C200  1  0.384880  0.858920  0.621680  1.0  0.7743
  C  C201  1  0.414800  0.576600  0.818000  1.0  -0.0685
  C  C202  1  0.358920  0.621680  0.884880  1.0  0.7737
  C  C203  1  0.690600  0.818000  0.576600  1.0  -0.0716
  C  C204  1  0.634520  0.884880  0.621680  1.0  0.7714
  C  C205  1  0.318000  0.190600  0.914800  1.0  -0.0734
  C  C206  1  0.384880  0.134520  0.858920  1.0  0.7687
  C  C207  1  0.076600  0.914800  0.190600  1.0  -0.0694
  C  C208  1  0.121680  0.858920  0.134520  1.0  0.772
  O  O209  1  0.688470  0.371190  0.646270  1.0  -0.6055
  O  O210  1  0.590620  0.451180  0.578360  1.0  -0.6578
  O  O211  1  0.871190  0.188470  0.294070  1.0  -0.6047
  O  O212  1  0.951180  0.090620  0.379840  1.0  -0.6553
  O  O213  1  0.146270  0.294070  0.188470  1.0  -0.6052
  O  O214  1  0.078360  0.379840  0.090620  1.0  -0.6588
  O  O215  1  0.794070  0.646270  0.371190  1.0  -0.6058
  O  O216  1  0.879840  0.578360  0.451180  1.0  -0.6559
  O  O217  1  0.688470  0.646270  0.294070  1.0  -0.6074
  O  O218  1  0.590620  0.578360  0.379840  1.0  -0.6575
  O  O219  1  0.871190  0.294070  0.646270  1.0  -0.6089
  O  O220  1  0.951180  0.379840  0.578360  1.0  -0.6573
  O  O221  1  0.146270  0.188470  0.371190  1.0  -0.6085
  O  O222  1  0.078360  0.090620  0.451180  1.0  -0.6568
  O  O223  1  0.794070  0.371190  0.188470  1.0  -0.608
  O  O224  1  0.879840  0.451180  0.090620  1.0  -0.6587
  O  O225  1  0.688470  0.294070  0.371190  1.0  -0.6061
  O  O226  1  0.590620  0.379840  0.451180  1.0  -0.6584
  O  O227  1  0.871190  0.646270  0.188470  1.0  -0.61
  O  O228  1  0.951180  0.578360  0.090620  1.0  -0.6548
  O  O229  1  0.146270  0.371190  0.294070  1.0  -0.6078
  O  O230  1  0.078360  0.451180  0.379840  1.0  -0.6568
  O  O231  1  0.794070  0.188470  0.646270  1.0  -0.6052
  O  O232  1  0.879840  0.090620  0.578360  1.0  -0.6553
  O  O233  1  0.628810  0.311530  0.853730  1.0  -0.6043
  O  O234  1  0.548820  0.409380  0.921640  1.0  -0.6561
  O  O235  1  0.811530  0.128810  0.205930  1.0  -0.6053
  O  O236  1  0.909380  0.048820  0.120160  1.0  -0.6576
  O  O237  1  0.705930  0.853730  0.311530  1.0  -0.6051
  O  O238  1  0.620160  0.921640  0.409380  1.0  -0.6569
  O  O239  1  0.353730  0.205930  0.128810  1.0  -0.6066
  O  O240  1  0.421640  0.120160  0.048820  1.0  -0.6578
  O  O241  1  0.353730  0.311530  0.205930  1.0  -0.6089
  O  O242  1  0.421640  0.409380  0.120160  1.0  -0.6567
  O  O243  1  0.705930  0.128810  0.853730  1.0  -0.6066
  O  O244  1  0.620160  0.048820  0.921640  1.0  -0.658
  O  O245  1  0.811530  0.853730  0.128810  1.0  -0.6078
  O  O246  1  0.909380  0.921640  0.048820  1.0  -0.657
  O  O247  1  0.628810  0.205930  0.311530  1.0  -0.6075
  O  O248  1  0.548820  0.120160  0.409380  1.0  -0.6571
  O  O249  1  0.705930  0.311530  0.128810  1.0  -0.6041
  O  O250  1  0.620160  0.409380  0.048820  1.0  -0.6559
  O  O251  1  0.353730  0.128810  0.311530  1.0  -0.6092
  O  O252  1  0.421640  0.048820  0.409380  1.0  -0.6565
  O  O253  1  0.628810  0.853730  0.205930  1.0  -0.6098
  O  O254  1  0.548820  0.921640  0.120160  1.0  -0.6547
  O  O255  1  0.811530  0.205930  0.853730  1.0  -0.6071
  O  O256  1  0.909380  0.120160  0.921640  1.0  -0.6581
  O  O257  1  0.311530  0.628810  0.353730  1.0  -0.6044
  O  O258  1  0.409380  0.548820  0.421640  1.0  -0.6566
  O  O259  1  0.128810  0.811530  0.705930  1.0  -0.6048
  O  O260  1  0.048820  0.909380  0.620160  1.0  -0.6566
  O  O261  1  0.853730  0.705930  0.811530  1.0  -0.6054
  O  O262  1  0.921640  0.620160  0.909380  1.0  -0.6574
  O  O263  1  0.205930  0.353730  0.628810  1.0  -0.6059
  O  O264  1  0.120160  0.421640  0.548820  1.0  -0.6566
  O  O265  1  0.311530  0.353730  0.705930  1.0  -0.6075
  O  O266  1  0.409380  0.421640  0.620160  1.0  -0.657
  O  O267  1  0.128810  0.705930  0.353730  1.0  -0.6086
  O  O268  1  0.048820  0.620160  0.421640  1.0  -0.6582
  O  O269  1  0.853730  0.811530  0.628810  1.0  -0.6089
  O  O270  1  0.921640  0.909380  0.548820  1.0  -0.6566
  O  O271  1  0.205930  0.628810  0.811530  1.0  -0.606
  O  O272  1  0.120160  0.548820  0.909380  1.0  -0.6566
  O  O273  1  0.311530  0.705930  0.628810  1.0  -0.6046
  O  O274  1  0.409380  0.620160  0.548820  1.0  -0.6566
  O  O275  1  0.128810  0.353730  0.811530  1.0  -0.6082
  O  O276  1  0.048820  0.421640  0.909380  1.0  -0.6546
  O  O277  1  0.853730  0.628810  0.705930  1.0  -0.6103
  O  O278  1  0.921640  0.548820  0.620160  1.0  -0.6562
  O  O279  1  0.205930  0.811530  0.353730  1.0  -0.6061
  O  O280  1  0.120160  0.909380  0.421640  1.0  -0.6574
  O  O281  1  0.371190  0.688470  0.146270  1.0  -0.6054
  O  O282  1  0.451180  0.590620  0.078360  1.0  -0.6553
  O  O283  1  0.188470  0.871190  0.794070  1.0  -0.6049
  O  O284  1  0.090620  0.951180  0.879840  1.0  -0.6574
  O  O285  1  0.294070  0.146270  0.688470  1.0  -0.6059
  O  O286  1  0.379840  0.078360  0.590620  1.0  -0.6561
  O  O287  1  0.646270  0.794070  0.871190  1.0  -0.6052
  O  O288  1  0.578360  0.879840  0.951180  1.0  -0.6583
  O  O289  1  0.646270  0.688470  0.794070  1.0  -0.6085
  O  O290  1  0.578360  0.590620  0.879840  1.0  -0.6566
  O  O291  1  0.294070  0.871190  0.146270  1.0  -0.607
  O  O292  1  0.379840  0.951180  0.078360  1.0  -0.6577
  O  O293  1  0.188470  0.146270  0.871190  1.0  -0.6071
  O  O294  1  0.090620  0.078360  0.951180  1.0  -0.6572
  O  O295  1  0.371190  0.794070  0.688470  1.0  -0.609
  O  O296  1  0.451180  0.879840  0.590620  1.0  -0.6581
  O  O297  1  0.294070  0.688470  0.871190  1.0  -0.6068
  O  O298  1  0.379840  0.590620  0.951180  1.0  -0.6573
  O  O299  1  0.646270  0.871190  0.688470  1.0  -0.609
  O  O300  1  0.578360  0.951180  0.590620  1.0  -0.6571
  O  O301  1  0.371190  0.146270  0.794070  1.0  -0.6087
  O  O302  1  0.451180  0.078360  0.879840  1.0  -0.6547
  O  O303  1  0.188470  0.794070  0.146270  1.0  -0.6052
  O  O304  1  0.090620  0.879840  0.078360  1.0  -0.6572
  O  O305  1  0.620500  0.250000  0.750000  1.0  -0.2346
  O  O306  1  0.750000  0.120500  0.379500  1.0  -0.234
  O  O307  1  0.250000  0.379500  0.120500  1.0  -0.2354
  O  O308  1  0.879500  0.750000  0.250000  1.0  -0.2351
  O  O309  1  0.620500  0.750000  0.379500  1.0  -0.2346
  O  O310  1  0.750000  0.379500  0.750000  1.0  -0.2358
  O  O311  1  0.250000  0.120500  0.250000  1.0  -0.2346
  O  O312  1  0.879500  0.250000  0.120500  1.0  -0.2354
  O  O313  1  0.620500  0.379500  0.250000  1.0  -0.2352
  O  O314  1  0.750000  0.750000  0.120500  1.0  -0.2339
  O  O315  1  0.250000  0.250000  0.379500  1.0  -0.2346
  O  O316  1  0.879500  0.120500  0.750000  1.0  -0.2354
  O  O317  1  0.379500  0.750000  0.250000  1.0  -0.2351
  O  O318  1  0.250000  0.879500  0.620500  1.0  -0.2354
  O  O319  1  0.750000  0.620500  0.879500  1.0  -0.234
  O  O320  1  0.120500  0.250000  0.750000  1.0  -0.2346
  O  O321  1  0.379500  0.250000  0.620500  1.0  -0.2354
  O  O322  1  0.250000  0.620500  0.250000  1.0  -0.2346
  O  O323  1  0.750000  0.879500  0.750000  1.0  -0.2358
  O  O324  1  0.120500  0.750000  0.879500  1.0  -0.2346
  O  O325  1  0.379500  0.620500  0.750000  1.0  -0.2354
  O  O326  1  0.250000  0.250000  0.879500  1.0  -0.2346
  O  O327  1  0.750000  0.750000  0.620500  1.0  -0.2339
  O  O328  1  0.120500  0.879500  0.250000  1.0  -0.2352
