# generated using pymatgen
data_CaYH12(C4O5)3
_symmetry_space_group_name_H-M   'P 1'
_cell_length_a   18.74470000
_cell_length_b   18.74470000
_cell_length_c   18.74470000
_cell_angle_alpha   60.00000000
_cell_angle_beta   60.00000000
_cell_angle_gamma   60.00000000
_symmetry_Int_Tables_number   1
_chemical_formula_structural   CaYH12(C4O5)3
_chemical_formula_sum   'Ca8 Y8 H96 C96 O120'
_cell_volume   4657.15277126
_cell_formula_units_Z   8
loop_
 _symmetry_equiv_pos_site_id
 _symmetry_equiv_pos_as_xyz
  1  'x, y, z'
loop_
 _atom_site_type_symbol
 _atom_site_label
 _atom_site_symmetry_multiplicity
 _atom_site_fract_x
 _atom_site_fract_y
 _atom_site_fract_z
 _atom_site_occupancy
 _atom_site_charge
  Ca  Ca1  1  0.500000  0.500000  0.500000  1.0  1.5051
  Ca  Ca2  1  0.000000  0.000000  0.500000  1.0  1.5051
  Ca  Ca3  1  0.000000  0.500000  0.000000  1.0  1.5051
  Ca  Ca4  1  0.000000  0.500000  0.500000  1.0  1.5051
  Ca  Ca5  1  0.500000  0.500000  0.000000  1.0  1.5051
  Ca  Ca6  1  0.000000  0.000000  0.000000  1.0  1.5051
  Ca  Ca7  1  0.500000  0.000000  0.500000  1.0  1.5051
  Ca  Ca8  1  0.500000  0.000000  0.000000  1.0  1.5051
  Y  Y9  1  0.750000  0.250000  0.250000  1.0  1.8127
  Y  Y10  1  0.750000  0.250000  0.750000  1.0  1.8127
  Y  Y11  1  0.750000  0.750000  0.250000  1.0  1.8127
  Y  Y12  1  0.250000  0.250000  0.250000  1.0  1.8127
  Y  Y13  1  0.250000  0.750000  0.750000  1.0  1.8127
  Y  Y14  1  0.250000  0.750000  0.250000  1.0  1.8127
  Y  Y15  1  0.250000  0.250000  0.750000  1.0  1.8127
  Y  Y16  1  0.750000  0.750000  0.750000  1.0  1.8127
  H  H17  1  0.516300  0.415500  0.345300  1.0  0.1044
  H  H18  1  0.575700  0.473900  0.295300  1.0  0.102
  H  H19  1  0.915500  0.016300  0.722900  1.0  0.1012
  H  H20  1  0.973900  0.075700  0.655100  1.0  0.0995
  H  H21  1  0.845300  0.722900  0.016300  1.0  0.1019
  H  H22  1  0.795300  0.655100  0.075700  1.0  0.1016
  H  H23  1  0.222900  0.345300  0.415500  1.0  0.1021
  H  H24  1  0.155100  0.295300  0.473900  1.0  0.1019
  H  H25  1  0.516300  0.345300  0.722900  1.0  0.1039
  H  H26  1  0.575700  0.295300  0.655100  1.0  0.1004
  H  H27  1  0.915500  0.722900  0.345300  1.0  0.1015
  H  H28  1  0.973900  0.655100  0.295300  1.0  0.1014
  H  H29  1  0.845300  0.016300  0.415500  1.0  0.1005
  H  H30  1  0.795300  0.075700  0.473900  1.0  0.1003
  H  H31  1  0.222900  0.415500  0.016300  1.0  0.1017
  H  H32  1  0.155100  0.473900  0.075700  1.0  0.1019
  H  H33  1  0.516300  0.722900  0.415500  1.0  0.1037
  H  H34  1  0.575700  0.655100  0.473900  1.0  0.1015
  H  H35  1  0.915500  0.345300  0.016300  1.0  0.1016
  H  H36  1  0.973900  0.295300  0.075700  1.0  0.1011
  H  H37  1  0.845300  0.415500  0.722900  1.0  0.1023
  H  H38  1  0.795300  0.473900  0.655100  1.0  0.102
  H  H39  1  0.222900  0.016300  0.345300  1.0  0.1006
  H  H40  1  0.155100  0.075700  0.295300  1.0  0.1009
  H  H41  1  0.584500  0.483700  0.154700  1.0  0.1027
  H  H42  1  0.526100  0.424300  0.204700  1.0  0.1018
  H  H43  1  0.983700  0.084500  0.777100  1.0  0.1027
  H  H44  1  0.924300  0.026100  0.844900  1.0  0.1026
  H  H45  1  0.277100  0.154700  0.483700  1.0  0.1024
  H  H46  1  0.344900  0.204700  0.424300  1.0  0.1005
  H  H47  1  0.654700  0.777100  0.084500  1.0  0.1018
  H  H48  1  0.704700  0.844900  0.026100  1.0  0.101
  H  H49  1  0.654700  0.483700  0.777100  1.0  0.102
  H  H50  1  0.704700  0.424300  0.844900  1.0  0.101
  H  H51  1  0.277100  0.084500  0.154700  1.0  0.1011
  H  H52  1  0.344900  0.026100  0.204700  1.0  0.1022
  H  H53  1  0.983700  0.154700  0.084500  1.0  0.103
  H  H54  1  0.924300  0.204700  0.026100  1.0  0.1004
  H  H55  1  0.584500  0.777100  0.483700  1.0  0.1016
  H  H56  1  0.526100  0.844900  0.424300  1.0  0.1012
  H  H57  1  0.277100  0.483700  0.084500  1.0  0.1018
  H  H58  1  0.344900  0.424300  0.026100  1.0  0.1
  H  H59  1  0.654700  0.084500  0.483700  1.0  0.102
  H  H60  1  0.704700  0.026100  0.424300  1.0  0.1021
  H  H61  1  0.584500  0.154700  0.777100  1.0  0.102
  H  H62  1  0.526100  0.204700  0.844900  1.0  0.1011
  H  H63  1  0.983700  0.777100  0.154700  1.0  0.1024
  H  H64  1  0.924300  0.844900  0.204700  1.0  0.1013
  H  H65  1  0.483700  0.584500  0.654700  1.0  0.1027
  H  H66  1  0.424300  0.526100  0.704700  1.0  0.1021
  H  H67  1  0.084500  0.983700  0.277100  1.0  0.1027
  H  H68  1  0.026100  0.924300  0.344900  1.0  0.1021
  H  H69  1  0.154700  0.277100  0.983700  1.0  0.1021
  H  H70  1  0.204700  0.344900  0.924300  1.0  0.1011
  H  H71  1  0.777100  0.654700  0.584500  1.0  0.102
  H  H72  1  0.844900  0.704700  0.526100  1.0  0.1005
  H  H73  1  0.483700  0.654700  0.277100  1.0  0.1029
  H  H74  1  0.424300  0.704700  0.344900  1.0  0.1016
  H  H75  1  0.084500  0.277100  0.654700  1.0  0.1017
  H  H76  1  0.026100  0.344900  0.704700  1.0  0.1006
  H  H77  1  0.154700  0.983700  0.584500  1.0  0.1019
  H  H78  1  0.204700  0.924300  0.526100  1.0  0.1
  H  H79  1  0.777100  0.584500  0.983700  1.0  0.1016
  H  H80  1  0.844900  0.526100  0.924300  1.0  0.1022
  H  H81  1  0.483700  0.277100  0.584500  1.0  0.1026
  H  H82  1  0.424300  0.344900  0.526100  1.0  0.101
  H  H83  1  0.084500  0.654700  0.983700  1.0  0.1018
  H  H84  1  0.026100  0.704700  0.924300  1.0  0.1016
  H  H85  1  0.154700  0.584500  0.277100  1.0  0.1018
  H  H86  1  0.204700  0.526100  0.344900  1.0  0.1022
  H  H87  1  0.777100  0.983700  0.654700  1.0  0.1016
  H  H88  1  0.844900  0.924300  0.704700  1.0  0.1006
  H  H89  1  0.415500  0.516300  0.845300  1.0  0.1012
  H  H90  1  0.473900  0.575700  0.795300  1.0  0.0998
  H  H91  1  0.016300  0.915500  0.222900  1.0  0.1043
  H  H92  1  0.075700  0.973900  0.155100  1.0  0.1019
  H  H93  1  0.722900  0.845300  0.516300  1.0  0.1021
  H  H94  1  0.655100  0.795300  0.575700  1.0  0.1017
  H  H95  1  0.345300  0.222900  0.915500  1.0  0.102
  H  H96  1  0.295300  0.155100  0.973900  1.0  0.1018
  H  H97  1  0.345300  0.516300  0.222900  1.0  0.1009
  H  H98  1  0.295300  0.575700  0.155100  1.0  0.0998
  H  H99  1  0.722900  0.915500  0.845300  1.0  0.1019
  H  H100  1  0.655100  0.973900  0.795300  1.0  0.1023
  H  H101  1  0.016300  0.845300  0.915500  1.0  0.104
  H  H102  1  0.075700  0.795300  0.973900  1.0  0.1011
  H  H103  1  0.415500  0.222900  0.516300  1.0  0.1014
  H  H104  1  0.473900  0.155100  0.575700  1.0  0.1014
  H  H105  1  0.722900  0.516300  0.915500  1.0  0.1002
  H  H106  1  0.655100  0.575700  0.973900  1.0  0.1009
  H  H107  1  0.345300  0.915500  0.516300  1.0  0.1019
  H  H108  1  0.295300  0.973900  0.575700  1.0  0.1015
  H  H109  1  0.415500  0.845300  0.222900  1.0  0.1016
  H  H110  1  0.473900  0.795300  0.155100  1.0  0.1011
  H  H111  1  0.016300  0.222900  0.845300  1.0  0.1038
  H  H112  1  0.075700  0.155100  0.795300  1.0  0.1011
  C  C113  1  0.576430  0.414370  0.318370  1.0  -0.0941
  C  C114  1  0.620930  0.360250  0.384570  1.0  0.7549
  C  C115  1  0.914370  0.076430  0.690830  1.0  -0.0924
  C  C116  1  0.860250  0.120930  0.634250  1.0  0.7548
  C  C117  1  0.818370  0.690830  0.076430  1.0  -0.0969
  C  C118  1  0.884570  0.634250  0.120930  1.0  0.7488
  C  C119  1  0.190830  0.318370  0.414370  1.0  -0.1006
  C  C120  1  0.134250  0.384570  0.360250  1.0  0.7528
  C  C121  1  0.576430  0.318370  0.690830  1.0  -0.0934
  C  C122  1  0.620930  0.384570  0.634250  1.0  0.7476
  C  C123  1  0.914370  0.690830  0.318370  1.0  -0.0917
  C  C124  1  0.860250  0.634250  0.384570  1.0  0.7426
  C  C125  1  0.818370  0.076430  0.414370  1.0  -0.0933
  C  C126  1  0.884570  0.120930  0.360250  1.0  0.748
  C  C127  1  0.190830  0.414370  0.076430  1.0  -0.0922
  C  C128  1  0.134250  0.360250  0.120930  1.0  0.7449
  C  C129  1  0.576430  0.690830  0.414370  1.0  -0.0929
  C  C130  1  0.620930  0.634250  0.360250  1.0  0.7495
  C  C131  1  0.914370  0.318370  0.076430  1.0  -0.0924
  C  C132  1  0.860250  0.384570  0.120930  1.0  0.7553
  C  C133  1  0.818370  0.414370  0.690830  1.0  -0.0919
  C  C134  1  0.884570  0.360250  0.634250  1.0  0.7527
  C  C135  1  0.190830  0.076430  0.318370  1.0  -0.0933
  C  C136  1  0.134250  0.120930  0.384570  1.0  0.7513
  C  C137  1  0.585630  0.423570  0.181630  1.0  -0.0937
  C  C138  1  0.639750  0.379070  0.115430  1.0  0.7522
  C  C139  1  0.923570  0.085630  0.809170  1.0  -0.0937
  C  C140  1  0.879070  0.139750  0.865750  1.0  0.7554
  C  C141  1  0.309170  0.181630  0.423570  1.0  -0.1002
  C  C142  1  0.365750  0.115430  0.379070  1.0  0.7509
  C  C143  1  0.681630  0.809170  0.085630  1.0  -0.097
  C  C144  1  0.615430  0.865750  0.139750  1.0  0.7513
  C  C145  1  0.681630  0.423570  0.809170  1.0  -0.0918
  C  C146  1  0.615430  0.379070  0.865750  1.0  0.7453
  C  C147  1  0.309170  0.085630  0.181630  1.0  -0.0932
  C  C148  1  0.365750  0.139750  0.115430  1.0  0.7462
  C  C149  1  0.923570  0.181630  0.085630  1.0  -0.0938
  C  C150  1  0.879070  0.115430  0.139750  1.0  0.7472
  C  C151  1  0.585630  0.809170  0.423570  1.0  -0.0927
  C  C152  1  0.639750  0.865750  0.379070  1.0  0.7469
  C  C153  1  0.309170  0.423570  0.085630  1.0  -0.0917
  C  C154  1  0.365750  0.379070  0.139750  1.0  0.7505
  C  C155  1  0.681630  0.085630  0.423570  1.0  -0.094
  C  C156  1  0.615430  0.139750  0.379070  1.0  0.753
  C  C157  1  0.585630  0.181630  0.809170  1.0  -0.0932
  C  C158  1  0.639750  0.115430  0.865750  1.0  0.7546
  C  C159  1  0.923570  0.809170  0.181630  1.0  -0.0917
  C  C160  1  0.879070  0.865750  0.115430  1.0  0.7528
  C  C161  1  0.423570  0.585630  0.681630  1.0  -0.0939
  C  C162  1  0.379070  0.639750  0.615430  1.0  0.7548
  C  C163  1  0.085630  0.923570  0.309170  1.0  -0.0933
  C  C164  1  0.139750  0.879070  0.365750  1.0  0.7532
  C  C165  1  0.181630  0.309170  0.923570  1.0  -0.0988
  C  C166  1  0.115430  0.365750  0.879070  1.0  0.7518
  C  C167  1  0.809170  0.681630  0.585630  1.0  -0.0977
  C  C168  1  0.865750  0.615430  0.639750  1.0  0.7516
  C  C169  1  0.423570  0.681630  0.309170  1.0  -0.0932
  C  C170  1  0.379070  0.615430  0.365750  1.0  0.7477
  C  C171  1  0.085630  0.309170  0.681630  1.0  -0.0925
  C  C172  1  0.139750  0.365750  0.615430  1.0  0.7471
  C  C173  1  0.181630  0.923570  0.585630  1.0  -0.0925
  C  C174  1  0.115430  0.879070  0.639750  1.0  0.745
  C  C175  1  0.809170  0.585630  0.923570  1.0  -0.0936
  C  C176  1  0.865750  0.639750  0.879070  1.0  0.7462
  C  C177  1  0.423570  0.309170  0.585630  1.0  -0.0922
  C  C178  1  0.379070  0.365750  0.639750  1.0  0.7515
  C  C179  1  0.085630  0.681630  0.923570  1.0  -0.0932
  C  C180  1  0.139750  0.615430  0.879070  1.0  0.7535
  C  C181  1  0.181630  0.585630  0.309170  1.0  -0.0941
  C  C182  1  0.115430  0.639750  0.365750  1.0  0.7535
  C  C183  1  0.809170  0.923570  0.681630  1.0  -0.0912
  C  C184  1  0.865750  0.879070  0.615430  1.0  0.7503
  C  C185  1  0.414370  0.576430  0.818370  1.0  -0.0922
  C  C186  1  0.360250  0.620930  0.884570  1.0  0.7548
  C  C187  1  0.076430  0.914370  0.190830  1.0  -0.0945
  C  C188  1  0.120930  0.860250  0.134250  1.0  0.754
  C  C189  1  0.690830  0.818370  0.576430  1.0  -0.0978
  C  C190  1  0.634250  0.884570  0.620930  1.0  0.7524
  C  C191  1  0.318370  0.190830  0.914370  1.0  -0.099
  C  C192  1  0.384570  0.134250  0.860250  1.0  0.7492
  C  C193  1  0.318370  0.576430  0.190830  1.0  -0.093
  C  C194  1  0.384570  0.620930  0.134250  1.0  0.7478
  C  C195  1  0.690830  0.914370  0.818370  1.0  -0.0919
  C  C196  1  0.634250  0.860250  0.884570  1.0  0.745
  C  C197  1  0.076430  0.818370  0.914370  1.0  -0.0937
  C  C198  1  0.120930  0.884570  0.860250  1.0  0.7478
  C  C199  1  0.414370  0.190830  0.576430  1.0  -0.0922
  C  C200  1  0.360250  0.134250  0.620930  1.0  0.742
  C  C201  1  0.690830  0.576430  0.914370  1.0  -0.0935
  C  C202  1  0.634250  0.620930  0.860250  1.0  0.7528
  C  C203  1  0.318370  0.914370  0.576430  1.0  -0.0925
  C  C204  1  0.384570  0.860250  0.620930  1.0  0.7544
  C  C205  1  0.414370  0.818370  0.190830  1.0  -0.092
  C  C206  1  0.360250  0.884570  0.134250  1.0  0.7551
  C  C207  1  0.076430  0.190830  0.818370  1.0  -0.0932
  C  C208  1  0.120930  0.134250  0.884570  1.0  0.7481
  O  O209  1  0.687140  0.295280  0.371820  1.0  -0.6128
  O  O210  1  0.589440  0.381160  0.450500  1.0  -0.673
  O  O211  1  0.795280  0.187140  0.645760  1.0  -0.6122
  O  O212  1  0.881160  0.089440  0.578900  1.0  -0.6694
  O  O213  1  0.871820  0.645760  0.187140  1.0  -0.6157
  O  O214  1  0.950500  0.578900  0.089440  1.0  -0.6699
  O  O215  1  0.145760  0.371820  0.295280  1.0  -0.614
  O  O216  1  0.078900  0.450500  0.381160  1.0  -0.6718
  O  O217  1  0.687140  0.371820  0.645760  1.0  -0.6116
  O  O218  1  0.589440  0.450500  0.578900  1.0  -0.6725
  O  O219  1  0.795280  0.645760  0.371820  1.0  -0.6119
  O  O220  1  0.881160  0.578900  0.450500  1.0  -0.6707
  O  O221  1  0.871820  0.187140  0.295280  1.0  -0.61
  O  O222  1  0.950500  0.089440  0.381160  1.0  -0.67
  O  O223  1  0.145760  0.295280  0.187140  1.0  -0.6112
  O  O224  1  0.078900  0.381160  0.089440  1.0  -0.6732
  O  O225  1  0.687140  0.645760  0.295280  1.0  -0.6142
  O  O226  1  0.589440  0.578900  0.381160  1.0  -0.6722
  O  O227  1  0.795280  0.371820  0.187140  1.0  -0.615
  O  O228  1  0.881160  0.450500  0.089440  1.0  -0.6732
  O  O229  1  0.871820  0.295280  0.645760  1.0  -0.6158
  O  O230  1  0.950500  0.381160  0.578900  1.0  -0.6713
  O  O231  1  0.145760  0.187140  0.371820  1.0  -0.6141
  O  O232  1  0.078900  0.089440  0.450500  1.0  -0.6718
  O  O233  1  0.704720  0.312860  0.128180  1.0  -0.6112
  O  O234  1  0.618840  0.410560  0.049500  1.0  -0.67
  O  O235  1  0.812860  0.204720  0.854240  1.0  -0.6135
  O  O236  1  0.910560  0.118840  0.921100  1.0  -0.6725
  O  O237  1  0.354240  0.128180  0.312860  1.0  -0.6158
  O  O238  1  0.421100  0.049500  0.410560  1.0  -0.6713
  O  O239  1  0.628180  0.854240  0.204720  1.0  -0.6161
  O  O240  1  0.549500  0.921100  0.118840  1.0  -0.6692
  O  O241  1  0.628180  0.312860  0.854240  1.0  -0.6088
  O  O242  1  0.549500  0.410560  0.921100  1.0  -0.6708
  O  O243  1  0.354240  0.204720  0.128180  1.0  -0.6126
  O  O244  1  0.421100  0.118840  0.049500  1.0  -0.6722
  O  O245  1  0.812860  0.128180  0.204720  1.0  -0.6096
  O  O246  1  0.910560  0.049500  0.118840  1.0  -0.6719
  O  O247  1  0.704720  0.854240  0.312860  1.0  -0.6119
  O  O248  1  0.618840  0.921100  0.410560  1.0  -0.6711
  O  O249  1  0.354240  0.312860  0.204720  1.0  -0.615
  O  O250  1  0.421100  0.410560  0.118840  1.0  -0.6717
  O  O251  1  0.628180  0.204720  0.312860  1.0  -0.6153
  O  O252  1  0.549500  0.118840  0.410560  1.0  -0.6709
  O  O253  1  0.704720  0.128180  0.854240  1.0  -0.6134
  O  O254  1  0.618840  0.049500  0.921100  1.0  -0.6725
  O  O255  1  0.812860  0.854240  0.128180  1.0  -0.614
  O  O256  1  0.910560  0.921100  0.049500  1.0  -0.6714
  O  O257  1  0.312860  0.704720  0.628180  1.0  -0.6113
  O  O258  1  0.410560  0.618840  0.549500  1.0  -0.6709
  O  O259  1  0.204720  0.812860  0.354240  1.0  -0.6123
  O  O260  1  0.118840  0.910560  0.421100  1.0  -0.6717
  O  O261  1  0.128180  0.354240  0.812860  1.0  -0.6139
  O  O262  1  0.049500  0.421100  0.910560  1.0  -0.6687
  O  O263  1  0.854240  0.628180  0.704720  1.0  -0.6172
  O  O264  1  0.921100  0.549500  0.618840  1.0  -0.6713
  O  O265  1  0.312860  0.628180  0.354240  1.0  -0.6083
  O  O266  1  0.410560  0.549500  0.421100  1.0  -0.6711
  O  O267  1  0.204720  0.354240  0.628180  1.0  -0.6123
  O  O268  1  0.118840  0.421100  0.549500  1.0  -0.6709
  O  O269  1  0.128180  0.812860  0.704720  1.0  -0.6093
  O  O270  1  0.049500  0.910560  0.618840  1.0  -0.6711
  O  O271  1  0.854240  0.704720  0.812860  1.0  -0.6118
  O  O272  1  0.921100  0.618840  0.910560  1.0  -0.6719
  O  O273  1  0.312860  0.354240  0.704720  1.0  -0.6137
  O  O274  1  0.410560  0.421100  0.618840  1.0  -0.6716
  O  O275  1  0.204720  0.628180  0.812860  1.0  -0.6135
  O  O276  1  0.118840  0.549500  0.910560  1.0  -0.6706
  O  O277  1  0.128180  0.704720  0.354240  1.0  -0.6154
  O  O278  1  0.049500  0.618840  0.421100  1.0  -0.6722
  O  O279  1  0.854240  0.812860  0.628180  1.0  -0.6151
  O  O280  1  0.921100  0.910560  0.549500  1.0  -0.6714
  O  O281  1  0.295280  0.687140  0.871820  1.0  -0.6136
  O  O282  1  0.381160  0.589440  0.950500  1.0  -0.6721
  O  O283  1  0.187140  0.795280  0.145760  1.0  -0.6118
  O  O284  1  0.089440  0.881160  0.078900  1.0  -0.6715
  O  O285  1  0.645760  0.871820  0.687140  1.0  -0.6156
  O  O286  1  0.578900  0.950500  0.589440  1.0  -0.6721
  O  O287  1  0.371820  0.145760  0.795280  1.0  -0.6147
  O  O288  1  0.450500  0.078900  0.881160  1.0  -0.6695
  O  O289  1  0.371820  0.687140  0.145760  1.0  -0.611
  O  O290  1  0.450500  0.589440  0.078900  1.0  -0.6697
  O  O291  1  0.645760  0.795280  0.871820  1.0  -0.6117
  O  O292  1  0.578900  0.881160  0.950500  1.0  -0.6728
  O  O293  1  0.187140  0.871820  0.795280  1.0  -0.6108
  O  O294  1  0.089440  0.950500  0.881160  1.0  -0.6722
  O  O295  1  0.295280  0.145760  0.687140  1.0  -0.6117
  O  O296  1  0.381160  0.078900  0.589440  1.0  -0.6708
  O  O297  1  0.645760  0.687140  0.795280  1.0  -0.6143
  O  O298  1  0.578900  0.589440  0.881160  1.0  -0.6711
  O  O299  1  0.371820  0.795280  0.687140  1.0  -0.6157
  O  O300  1  0.450500  0.881160  0.589440  1.0  -0.6726
  O  O301  1  0.295280  0.871820  0.145760  1.0  -0.6148
  O  O302  1  0.381160  0.950500  0.078900  1.0  -0.6718
  O  O303  1  0.187140  0.145760  0.871820  1.0  -0.6137
  O  O304  1  0.089440  0.078900  0.950500  1.0  -0.6722
  O  O305  1  0.620100  0.379900  0.250000  1.0  -0.2579
  O  O306  1  0.879900  0.120100  0.750000  1.0  -0.2576
  O  O307  1  0.750000  0.750000  0.120100  1.0  -0.2561
  O  O308  1  0.250000  0.250000  0.379900  1.0  -0.2561
  O  O309  1  0.620100  0.250000  0.750000  1.0  -0.2573
  O  O310  1  0.879900  0.750000  0.250000  1.0  -0.2562
  O  O311  1  0.750000  0.120100  0.379900  1.0  -0.2556
  O  O312  1  0.250000  0.379900  0.120100  1.0  -0.2576
  O  O313  1  0.620100  0.750000  0.379900  1.0  -0.2566
  O  O314  1  0.879900  0.250000  0.120100  1.0  -0.257
  O  O315  1  0.750000  0.379900  0.750000  1.0  -0.2574
  O  O316  1  0.250000  0.120100  0.250000  1.0  -0.2567
  O  O317  1  0.379900  0.620100  0.750000  1.0  -0.2576
  O  O318  1  0.120100  0.879900  0.250000  1.0  -0.2579
  O  O319  1  0.250000  0.250000  0.879900  1.0  -0.2561
  O  O320  1  0.750000  0.750000  0.620100  1.0  -0.2561
  O  O321  1  0.379900  0.750000  0.250000  1.0  -0.2562
  O  O322  1  0.120100  0.250000  0.750000  1.0  -0.2573
  O  O323  1  0.250000  0.879900  0.620100  1.0  -0.2576
  O  O324  1  0.750000  0.620100  0.879900  1.0  -0.2556
  O  O325  1  0.379900  0.250000  0.620100  1.0  -0.257
  O  O326  1  0.120100  0.750000  0.879900  1.0  -0.2566
  O  O327  1  0.250000  0.620100  0.250000  1.0  -0.2567
  O  O328  1  0.750000  0.879900  0.750000  1.0  -0.2574
