# generated using pymatgen
data_CaTmH12(C4O5)3
_symmetry_space_group_name_H-M   'P 1'
_cell_length_a   18.67590000
_cell_length_b   18.67590000
_cell_length_c   18.67590000
_cell_angle_alpha   60.00000000
_cell_angle_beta   60.00000000
_cell_angle_gamma   60.00000000
_symmetry_Int_Tables_number   1
_chemical_formula_structural   CaTmH12(C4O5)3
_chemical_formula_sum   'Ca8 Tm8 H96 C96 O120'
_cell_volume   4606.06032622
_cell_formula_units_Z   8
loop_
 _symmetry_equiv_pos_site_id
 _symmetry_equiv_pos_as_xyz
  1  'x, y, z'
loop_
 _atom_site_type_symbol
 _atom_site_label
 _atom_site_symmetry_multiplicity
 _atom_site_fract_x
 _atom_site_fract_y
 _atom_site_fract_z
 _atom_site_occupancy
 _atom_site_charge
  Ca  Ca1  1  0.500000  0.500000  0.500000  1.0  1.5133
  Ca  Ca2  1  0.000000  0.000000  0.500000  1.0  1.5133
  Ca  Ca3  1  0.000000  0.500000  0.000000  1.0  1.5133
  Ca  Ca4  1  0.000000  0.500000  0.500000  1.0  1.5133
  Ca  Ca5  1  0.500000  0.500000  0.000000  1.0  1.5133
  Ca  Ca6  1  0.000000  0.000000  0.000000  1.0  1.5133
  Ca  Ca7  1  0.500000  0.000000  0.500000  1.0  1.5133
  Ca  Ca8  1  0.500000  0.000000  0.000000  1.0  1.5133
  Tm  Tm9  1  0.750000  0.250000  0.250000  1.0  2.1111
  Tm  Tm10  1  0.750000  0.250000  0.750000  1.0  2.1111
  Tm  Tm11  1  0.750000  0.750000  0.250000  1.0  2.1111
  Tm  Tm12  1  0.250000  0.250000  0.250000  1.0  2.1111
  Tm  Tm13  1  0.250000  0.750000  0.750000  1.0  2.1111
  Tm  Tm14  1  0.250000  0.750000  0.250000  1.0  2.1111
  Tm  Tm15  1  0.250000  0.250000  0.750000  1.0  2.1111
  Tm  Tm16  1  0.750000  0.750000  0.750000  1.0  2.1111
  H  H17  1  0.516500  0.416300  0.344100  1.0  0.1026
  H  H18  1  0.577500  0.473500  0.294300  1.0  0.0998
  H  H19  1  0.916300  0.016500  0.723100  1.0  0.0997
  H  H20  1  0.973500  0.077500  0.654700  1.0  0.0977
  H  H21  1  0.844100  0.723100  0.016500  1.0  0.1016
  H  H22  1  0.794300  0.654700  0.077500  1.0  0.0995
  H  H23  1  0.223100  0.344100  0.416300  1.0  0.1019
  H  H24  1  0.154700  0.294300  0.473500  1.0  0.0995
  H  H25  1  0.516500  0.344100  0.723100  1.0  0.1033
  H  H26  1  0.577500  0.294300  0.654700  1.0  0.0986
  H  H27  1  0.916300  0.723100  0.344100  1.0  0.101
  H  H28  1  0.973500  0.654700  0.294300  1.0  0.0994
  H  H29  1  0.844100  0.016500  0.416300  1.0  0.0994
  H  H30  1  0.794300  0.077500  0.473500  1.0  0.0983
  H  H31  1  0.223100  0.416300  0.016500  1.0  0.1013
  H  H32  1  0.154700  0.473500  0.077500  1.0  0.0999
  H  H33  1  0.516500  0.723100  0.416300  1.0  0.1031
  H  H34  1  0.577500  0.654700  0.473500  1.0  0.0995
  H  H35  1  0.916300  0.344100  0.016500  1.0  0.1016
  H  H36  1  0.973500  0.294300  0.077500  1.0  0.0991
  H  H37  1  0.844100  0.416300  0.723100  1.0  0.1015
  H  H38  1  0.794300  0.473500  0.654700  1.0  0.0997
  H  H39  1  0.223100  0.016500  0.344100  1.0  0.0995
  H  H40  1  0.154700  0.077500  0.294300  1.0  0.0989
  H  H41  1  0.583700  0.483500  0.155900  1.0  0.1018
  H  H42  1  0.526500  0.422500  0.205700  1.0  0.0997
  H  H43  1  0.983500  0.083700  0.776900  1.0  0.1023
  H  H44  1  0.922500  0.026500  0.845300  1.0  0.1004
  H  H45  1  0.276900  0.155900  0.483500  1.0  0.1022
  H  H46  1  0.345300  0.205700  0.422500  1.0  0.0988
  H  H47  1  0.655900  0.776900  0.083700  1.0  0.1015
  H  H48  1  0.705700  0.845300  0.026500  1.0  0.0993
  H  H49  1  0.655900  0.483500  0.776900  1.0  0.1019
  H  H50  1  0.705700  0.422500  0.845300  1.0  0.099
  H  H51  1  0.276900  0.083700  0.155900  1.0  0.1012
  H  H52  1  0.345300  0.026500  0.205700  1.0  0.1002
  H  H53  1  0.983500  0.155900  0.083700  1.0  0.1024
  H  H54  1  0.922500  0.205700  0.026500  1.0  0.0983
  H  H55  1  0.583700  0.776900  0.483500  1.0  0.101
  H  H56  1  0.526500  0.845300  0.422500  1.0  0.0993
  H  H57  1  0.276900  0.483500  0.083700  1.0  0.1014
  H  H58  1  0.345300  0.422500  0.026500  1.0  0.0986
  H  H59  1  0.655900  0.083700  0.483500  1.0  0.1018
  H  H60  1  0.705700  0.026500  0.422500  1.0  0.0998
  H  H61  1  0.583700  0.155900  0.776900  1.0  0.1019
  H  H62  1  0.526500  0.205700  0.845300  1.0  0.0986
  H  H63  1  0.983500  0.776900  0.155900  1.0  0.1017
  H  H64  1  0.922500  0.845300  0.205700  1.0  0.0994
  H  H65  1  0.483500  0.583700  0.655900  1.0  0.102
  H  H66  1  0.422500  0.526500  0.705700  1.0  0.1001
  H  H67  1  0.083700  0.983500  0.276900  1.0  0.1016
  H  H68  1  0.026500  0.922500  0.345300  1.0  0.0997
  H  H69  1  0.155900  0.276900  0.983500  1.0  0.1015
  H  H70  1  0.205700  0.345300  0.922500  1.0  0.0994
  H  H71  1  0.776900  0.655900  0.583700  1.0  0.1016
  H  H72  1  0.845300  0.705700  0.526500  1.0  0.0989
  H  H73  1  0.483500  0.655900  0.276900  1.0  0.1019
  H  H74  1  0.422500  0.705700  0.345300  1.0  0.0993
  H  H75  1  0.083700  0.276900  0.655900  1.0  0.1011
  H  H76  1  0.026500  0.345300  0.705700  1.0  0.0987
  H  H77  1  0.155900  0.983500  0.583700  1.0  0.1013
  H  H78  1  0.205700  0.922500  0.526500  1.0  0.0981
  H  H79  1  0.776900  0.583700  0.983500  1.0  0.1008
  H  H80  1  0.845300  0.526500  0.922500  1.0  0.1004
  H  H81  1  0.483500  0.276900  0.583700  1.0  0.1016
  H  H82  1  0.422500  0.345300  0.526500  1.0  0.0994
  H  H83  1  0.083700  0.655900  0.983500  1.0  0.1011
  H  H84  1  0.026500  0.705700  0.922500  1.0  0.0991
  H  H85  1  0.155900  0.583700  0.276900  1.0  0.1017
  H  H86  1  0.205700  0.526500  0.345300  1.0  0.1002
  H  H87  1  0.776900  0.983500  0.655900  1.0  0.1013
  H  H88  1  0.845300  0.922500  0.705700  1.0  0.099
  H  H89  1  0.416300  0.516500  0.844100  1.0  0.1001
  H  H90  1  0.473500  0.577500  0.794300  1.0  0.0976
  H  H91  1  0.016500  0.916300  0.223100  1.0  0.1027
  H  H92  1  0.077500  0.973500  0.154700  1.0  0.1
  H  H93  1  0.723100  0.844100  0.516500  1.0  0.1023
  H  H94  1  0.654700  0.794300  0.577500  1.0  0.0994
  H  H95  1  0.344100  0.223100  0.916300  1.0  0.1019
  H  H96  1  0.294300  0.154700  0.973500  1.0  0.0996
  H  H97  1  0.344100  0.516500  0.223100  1.0  0.1002
  H  H98  1  0.294300  0.577500  0.154700  1.0  0.098
  H  H99  1  0.723100  0.916300  0.844100  1.0  0.1015
  H  H100  1  0.654700  0.973500  0.794300  1.0  0.1004
  H  H101  1  0.016500  0.844100  0.916300  1.0  0.1037
  H  H102  1  0.077500  0.794300  0.973500  1.0  0.0992
  H  H103  1  0.416300  0.223100  0.516500  1.0  0.1015
  H  H104  1  0.473500  0.154700  0.577500  1.0  0.0994
  H  H105  1  0.723100  0.516500  0.916300  1.0  0.0995
  H  H106  1  0.654700  0.577500  0.973500  1.0  0.0987
  H  H107  1  0.344100  0.916300  0.516500  1.0  0.1018
  H  H108  1  0.294300  0.973500  0.577500  1.0  0.0991
  H  H109  1  0.416300  0.844100  0.223100  1.0  0.1014
  H  H110  1  0.473500  0.794300  0.154700  1.0  0.0989
  H  H111  1  0.016500  0.223100  0.844100  1.0  0.1033
  H  H112  1  0.077500  0.154700  0.794300  1.0  0.0991
  C  C113  1  0.577220  0.414180  0.317480  1.0  -0.0828
  C  C114  1  0.621400  0.358600  0.385600  1.0  0.7652
  C  C115  1  0.914180  0.077220  0.691120  1.0  -0.0823
  C  C116  1  0.858600  0.121400  0.634400  1.0  0.764
  C  C117  1  0.817480  0.691120  0.077220  1.0  -0.0842
  C  C118  1  0.885600  0.634400  0.121400  1.0  0.7599
  C  C119  1  0.191120  0.317480  0.414180  1.0  -0.0867
  C  C120  1  0.134400  0.385600  0.358600  1.0  0.7622
  C  C121  1  0.577220  0.317480  0.691120  1.0  -0.0812
  C  C122  1  0.621400  0.385600  0.634400  1.0  0.7581
  C  C123  1  0.914180  0.691120  0.317480  1.0  -0.0812
  C  C124  1  0.858600  0.634400  0.385600  1.0  0.7542
  C  C125  1  0.817480  0.077220  0.414180  1.0  -0.0807
  C  C126  1  0.885600  0.121400  0.358600  1.0  0.7591
  C  C127  1  0.191120  0.414180  0.077220  1.0  -0.0805
  C  C128  1  0.134400  0.358600  0.121400  1.0  0.7559
  C  C129  1  0.577220  0.691120  0.414180  1.0  -0.0801
  C  C130  1  0.621400  0.634400  0.358600  1.0  0.7592
  C  C131  1  0.914180  0.317480  0.077220  1.0  -0.0813
  C  C132  1  0.858600  0.385600  0.121400  1.0  0.7658
  C  C133  1  0.817480  0.414180  0.691120  1.0  -0.0804
  C  C134  1  0.885600  0.358600  0.634400  1.0  0.7632
  C  C135  1  0.191120  0.077220  0.317480  1.0  -0.0806
  C  C136  1  0.134400  0.121400  0.385600  1.0  0.7613
  C  C137  1  0.585820  0.422780  0.182520  1.0  -0.0822
  C  C138  1  0.641400  0.378600  0.114400  1.0  0.7623
  C  C139  1  0.922780  0.085820  0.808880  1.0  -0.084
  C  C140  1  0.878600  0.141400  0.865600  1.0  0.7646
  C  C141  1  0.308880  0.182520  0.422780  1.0  -0.0872
  C  C142  1  0.365600  0.114400  0.378600  1.0  0.7612
  C  C143  1  0.682520  0.808880  0.085820  1.0  -0.0842
  C  C144  1  0.614400  0.865600  0.141400  1.0  0.7618
  C  C145  1  0.682520  0.422780  0.808880  1.0  -0.0799
  C  C146  1  0.614400  0.378600  0.865600  1.0  0.7573
  C  C147  1  0.308880  0.085820  0.182520  1.0  -0.0821
  C  C148  1  0.365600  0.141400  0.114400  1.0  0.7569
  C  C149  1  0.922780  0.182520  0.085820  1.0  -0.0824
  C  C150  1  0.878600  0.114400  0.141400  1.0  0.7574
  C  C151  1  0.585820  0.808880  0.422780  1.0  -0.0809
  C  C152  1  0.641400  0.865600  0.378600  1.0  0.7571
  C  C153  1  0.308880  0.422780  0.085820  1.0  -0.0802
  C  C154  1  0.365600  0.378600  0.141400  1.0  0.7611
  C  C155  1  0.682520  0.085820  0.422780  1.0  -0.0819
  C  C156  1  0.614400  0.141400  0.378600  1.0  0.7638
  C  C157  1  0.585820  0.182520  0.808880  1.0  -0.0807
  C  C158  1  0.641400  0.114400  0.865600  1.0  0.766
  C  C159  1  0.922780  0.808880  0.182520  1.0  -0.0809
  C  C160  1  0.878600  0.865600  0.114400  1.0  0.7625
  C  C161  1  0.422780  0.585820  0.682520  1.0  -0.0845
  C  C162  1  0.378600  0.641400  0.614400  1.0  0.7637
  C  C163  1  0.085820  0.922780  0.308880  1.0  -0.0815
  C  C164  1  0.141400  0.878600  0.365600  1.0  0.7642
  C  C165  1  0.182520  0.308880  0.922780  1.0  -0.086
  C  C166  1  0.114400  0.365600  0.878600  1.0  0.7626
  C  C167  1  0.808880  0.682520  0.585820  1.0  -0.0847
  C  C168  1  0.865600  0.614400  0.641400  1.0  0.7623
  C  C169  1  0.422780  0.682520  0.308880  1.0  -0.0818
  C  C170  1  0.378600  0.614400  0.365600  1.0  0.758
  C  C171  1  0.085820  0.308880  0.682520  1.0  -0.081
  C  C172  1  0.141400  0.365600  0.614400  1.0  0.7571
  C  C173  1  0.182520  0.922780  0.585820  1.0  -0.0806
  C  C174  1  0.114400  0.878600  0.641400  1.0  0.7567
  C  C175  1  0.808880  0.585820  0.922780  1.0  -0.0821
  C  C176  1  0.865600  0.641400  0.878600  1.0  0.7571
  C  C177  1  0.422780  0.308880  0.585820  1.0  -0.0814
  C  C178  1  0.378600  0.365600  0.641400  1.0  0.7611
  C  C179  1  0.085820  0.682520  0.922780  1.0  -0.0807
  C  C180  1  0.141400  0.614400  0.878600  1.0  0.7643
  C  C181  1  0.182520  0.585820  0.308880  1.0  -0.0818
  C  C182  1  0.114400  0.641400  0.365600  1.0  0.7643
  C  C183  1  0.808880  0.922780  0.682520  1.0  -0.08
  C  C184  1  0.865600  0.878600  0.614400  1.0  0.7609
  C  C185  1  0.414180  0.577220  0.817480  1.0  -0.0818
  C  C186  1  0.358600  0.621400  0.885600  1.0  0.7647
  C  C187  1  0.077220  0.914180  0.191120  1.0  -0.0834
  C  C188  1  0.121400  0.858600  0.134400  1.0  0.7629
  C  C189  1  0.691120  0.817480  0.577220  1.0  -0.0843
  C  C190  1  0.634400  0.885600  0.621400  1.0  0.7618
  C  C191  1  0.317480  0.191120  0.914180  1.0  -0.0868
  C  C192  1  0.385600  0.134400  0.858600  1.0  0.7604
  C  C193  1  0.317480  0.577220  0.191120  1.0  -0.0809
  C  C194  1  0.385600  0.621400  0.134400  1.0  0.7586
  C  C195  1  0.691120  0.914180  0.817480  1.0  -0.0801
  C  C196  1  0.634400  0.858600  0.885600  1.0  0.756
  C  C197  1  0.077220  0.817480  0.914180  1.0  -0.0808
  C  C198  1  0.121400  0.885600  0.858600  1.0  0.7586
  C  C199  1  0.414180  0.191120  0.577220  1.0  -0.0818
  C  C200  1  0.358600  0.134400  0.621400  1.0  0.7538
  C  C201  1  0.691120  0.577220  0.914180  1.0  -0.0805
  C  C202  1  0.634400  0.621400  0.858600  1.0  0.7627
  C  C203  1  0.317480  0.914180  0.577220  1.0  -0.0807
  C  C204  1  0.385600  0.858600  0.621400  1.0  0.7656
  C  C205  1  0.414180  0.817480  0.191120  1.0  -0.081
  C  C206  1  0.358600  0.885600  0.134400  1.0  0.7654
  C  C207  1  0.077220  0.191120  0.817480  1.0  -0.0803
  C  C208  1  0.121400  0.134400  0.885600  1.0  0.7579
  O  O209  1  0.688120  0.294060  0.371780  1.0  -0.6439
  O  O210  1  0.590200  0.380440  0.451340  1.0  -0.6765
  O  O211  1  0.794060  0.188120  0.646040  1.0  -0.6433
  O  O212  1  0.880440  0.090200  0.578020  1.0  -0.6725
  O  O213  1  0.871780  0.646040  0.188120  1.0  -0.6475
  O  O214  1  0.951340  0.578020  0.090200  1.0  -0.6729
  O  O215  1  0.146040  0.371780  0.294060  1.0  -0.6452
  O  O216  1  0.078020  0.451340  0.380440  1.0  -0.6751
  O  O217  1  0.688120  0.371780  0.646040  1.0  -0.6434
  O  O218  1  0.590200  0.451340  0.578020  1.0  -0.6763
  O  O219  1  0.794060  0.646040  0.371780  1.0  -0.6434
  O  O220  1  0.880440  0.578020  0.451340  1.0  -0.6735
  O  O221  1  0.871780  0.188120  0.294060  1.0  -0.6425
  O  O222  1  0.951340  0.090200  0.380440  1.0  -0.6729
  O  O223  1  0.146040  0.294060  0.188120  1.0  -0.6437
  O  O224  1  0.078020  0.380440  0.090200  1.0  -0.6765
  O  O225  1  0.688120  0.646040  0.294060  1.0  -0.6452
  O  O226  1  0.590200  0.578020  0.380440  1.0  -0.6754
  O  O227  1  0.794060  0.371780  0.188120  1.0  -0.6457
  O  O228  1  0.880440  0.451340  0.090200  1.0  -0.6765
  O  O229  1  0.871780  0.294060  0.646040  1.0  -0.6466
  O  O230  1  0.951340  0.380440  0.578020  1.0  -0.6744
  O  O231  1  0.146040  0.188120  0.371780  1.0  -0.6454
  O  O232  1  0.078020  0.090200  0.451340  1.0  -0.6749
  O  O233  1  0.705940  0.311880  0.128220  1.0  -0.6426
  O  O234  1  0.619560  0.409800  0.048660  1.0  -0.6734
  O  O235  1  0.811880  0.205940  0.853960  1.0  -0.6446
  O  O236  1  0.909800  0.119560  0.921980  1.0  -0.676
  O  O237  1  0.353960  0.128220  0.311880  1.0  -0.6472
  O  O238  1  0.421980  0.048660  0.409800  1.0  -0.6746
  O  O239  1  0.628220  0.853960  0.205940  1.0  -0.6473
  O  O240  1  0.548660  0.921980  0.119560  1.0  -0.6727
  O  O241  1  0.628220  0.311880  0.853960  1.0  -0.6425
  O  O242  1  0.548660  0.409800  0.921980  1.0  -0.6738
  O  O243  1  0.353960  0.205940  0.128220  1.0  -0.6447
  O  O244  1  0.421980  0.119560  0.048660  1.0  -0.6758
  O  O245  1  0.811880  0.128220  0.205940  1.0  -0.6428
  O  O246  1  0.909800  0.048660  0.119560  1.0  -0.6757
  O  O247  1  0.705940  0.853960  0.311880  1.0  -0.6429
  O  O248  1  0.619560  0.921980  0.409800  1.0  -0.6741
  O  O249  1  0.353960  0.311880  0.205940  1.0  -0.6469
  O  O250  1  0.421980  0.409800  0.119560  1.0  -0.675
  O  O251  1  0.628220  0.205940  0.311880  1.0  -0.6453
  O  O252  1  0.548660  0.119560  0.409800  1.0  -0.6748
  O  O253  1  0.705940  0.128220  0.853960  1.0  -0.6442
  O  O254  1  0.619560  0.048660  0.921980  1.0  -0.676
  O  O255  1  0.811880  0.853960  0.128220  1.0  -0.645
  O  O256  1  0.909800  0.921980  0.048660  1.0  -0.6743
  O  O257  1  0.311880  0.705940  0.628220  1.0  -0.6428
  O  O258  1  0.409800  0.619560  0.548660  1.0  -0.6746
  O  O259  1  0.205940  0.811880  0.353960  1.0  -0.6437
  O  O260  1  0.119560  0.909800  0.421980  1.0  -0.6748
  O  O261  1  0.128220  0.353960  0.811880  1.0  -0.6457
  O  O262  1  0.048660  0.421980  0.909800  1.0  -0.6717
  O  O263  1  0.853960  0.628220  0.705940  1.0  -0.6485
  O  O264  1  0.921980  0.548660  0.619560  1.0  -0.6741
  O  O265  1  0.311880  0.628220  0.353960  1.0  -0.6421
  O  O266  1  0.409800  0.548660  0.421980  1.0  -0.6742
  O  O267  1  0.205940  0.353960  0.628220  1.0  -0.6435
  O  O268  1  0.119560  0.421980  0.548660  1.0  -0.6735
  O  O269  1  0.128220  0.811880  0.705940  1.0  -0.6425
  O  O270  1  0.048660  0.909800  0.619560  1.0  -0.6742
  O  O271  1  0.853960  0.705940  0.811880  1.0  -0.6437
  O  O272  1  0.921980  0.619560  0.909800  1.0  -0.6751
  O  O273  1  0.311880  0.353960  0.705940  1.0  -0.6447
  O  O274  1  0.409800  0.421980  0.619560  1.0  -0.674
  O  O275  1  0.205940  0.628220  0.811880  1.0  -0.6439
  O  O276  1  0.119560  0.548660  0.909800  1.0  -0.6739
  O  O277  1  0.128220  0.705940  0.353960  1.0  -0.6462
  O  O278  1  0.048660  0.619560  0.421980  1.0  -0.6757
  O  O279  1  0.853960  0.811880  0.628220  1.0  -0.6469
  O  O280  1  0.921980  0.909800  0.548660  1.0  -0.6743
  O  O281  1  0.294060  0.688120  0.871780  1.0  -0.6444
  O  O282  1  0.380440  0.590200  0.951340  1.0  -0.6745
  O  O283  1  0.188120  0.794060  0.146040  1.0  -0.6433
  O  O284  1  0.090200  0.880440  0.078020  1.0  -0.6746
  O  O285  1  0.646040  0.871780  0.688120  1.0  -0.6462
  O  O286  1  0.578020  0.951340  0.590200  1.0  -0.675
  O  O287  1  0.371780  0.146040  0.794060  1.0  -0.6465
  O  O288  1  0.451340  0.078020  0.880440  1.0  -0.6721
  O  O289  1  0.371780  0.688120  0.146040  1.0  -0.643
  O  O290  1  0.451340  0.590200  0.078020  1.0  -0.6727
  O  O291  1  0.646040  0.794060  0.871780  1.0  -0.6438
  O  O292  1  0.578020  0.880440  0.951340  1.0  -0.6756
  O  O293  1  0.188120  0.871780  0.794060  1.0  -0.643
  O  O294  1  0.090200  0.951340  0.880440  1.0  -0.6755
  O  O295  1  0.294060  0.146040  0.688120  1.0  -0.6434
  O  O296  1  0.380440  0.078020  0.590200  1.0  -0.6734
  O  O297  1  0.646040  0.688120  0.794060  1.0  -0.6455
  O  O298  1  0.578020  0.590200  0.880440  1.0  -0.6743
  O  O299  1  0.371780  0.794060  0.688120  1.0  -0.6467
  O  O300  1  0.451340  0.880440  0.590200  1.0  -0.675
  O  O301  1  0.294060  0.871780  0.146040  1.0  -0.6451
  O  O302  1  0.380440  0.951340  0.078020  1.0  -0.6751
  O  O303  1  0.188120  0.146040  0.871780  1.0  -0.6449
  O  O304  1  0.090200  0.078020  0.951340  1.0  -0.6748
  O  O305  1  0.620180  0.379820  0.250000  1.0  -0.3295
  O  O306  1  0.879820  0.120180  0.750000  1.0  -0.3291
  O  O307  1  0.750000  0.750000  0.120180  1.0  -0.3283
  O  O308  1  0.250000  0.250000  0.379820  1.0  -0.3293
  O  O309  1  0.620180  0.250000  0.750000  1.0  -0.3292
  O  O310  1  0.879820  0.750000  0.250000  1.0  -0.329
  O  O311  1  0.750000  0.120180  0.379820  1.0  -0.3283
  O  O312  1  0.250000  0.379820  0.120180  1.0  -0.3296
  O  O313  1  0.620180  0.750000  0.379820  1.0  -0.3288
  O  O314  1  0.879820  0.250000  0.120180  1.0  -0.3295
  O  O315  1  0.750000  0.379820  0.750000  1.0  -0.3297
  O  O316  1  0.250000  0.120180  0.250000  1.0  -0.329
  O  O317  1  0.379820  0.620180  0.750000  1.0  -0.3291
  O  O318  1  0.120180  0.879820  0.250000  1.0  -0.3295
  O  O319  1  0.250000  0.250000  0.879820  1.0  -0.3293
  O  O320  1  0.750000  0.750000  0.620180  1.0  -0.3283
  O  O321  1  0.379820  0.750000  0.250000  1.0  -0.329
  O  O322  1  0.120180  0.250000  0.750000  1.0  -0.3292
  O  O323  1  0.250000  0.879820  0.620180  1.0  -0.3296
  O  O324  1  0.750000  0.620180  0.879820  1.0  -0.3283
  O  O325  1  0.379820  0.250000  0.620180  1.0  -0.3295
  O  O326  1  0.120180  0.750000  0.879820  1.0  -0.3288
  O  O327  1  0.250000  0.620180  0.250000  1.0  -0.329
  O  O328  1  0.750000  0.879820  0.750000  1.0  -0.3297
