# generated using pymatgen
data_CaTbH12(C4O5)3
_symmetry_space_group_name_H-M   'P 1'
_cell_length_a   18.81820000
_cell_length_b   18.81820000
_cell_length_c   18.81820000
_cell_angle_alpha   60.00000000
_cell_angle_beta   60.00000000
_cell_angle_gamma   60.00000000
_symmetry_Int_Tables_number   1
_chemical_formula_structural   CaTbH12(C4O5)3
_chemical_formula_sum   'Ca8 Tb8 H96 C96 O120'
_cell_volume   4712.15146656
_cell_formula_units_Z   8
loop_
 _symmetry_equiv_pos_site_id
 _symmetry_equiv_pos_as_xyz
  1  'x, y, z'
loop_
 _atom_site_type_symbol
 _atom_site_label
 _atom_site_symmetry_multiplicity
 _atom_site_fract_x
 _atom_site_fract_y
 _atom_site_fract_z
 _atom_site_occupancy
 _atom_site_charge
  Ca  Ca1  1  0.500000  0.500000  0.500000  1.0  1.5068
  Ca  Ca2  1  0.000000  0.000000  0.500000  1.0  1.5068
  Ca  Ca3  1  0.000000  0.500000  0.000000  1.0  1.5068
  Ca  Ca4  1  0.000000  0.500000  0.500000  1.0  1.5068
  Ca  Ca5  1  0.500000  0.500000  0.000000  1.0  1.5068
  Ca  Ca6  1  0.000000  0.000000  0.000000  1.0  1.5068
  Ca  Ca7  1  0.500000  0.000000  0.500000  1.0  1.5068
  Ca  Ca8  1  0.500000  0.000000  0.000000  1.0  1.5068
  Tb  Tb9  1  0.750000  0.250000  0.250000  1.0  2.1521
  Tb  Tb10  1  0.750000  0.250000  0.750000  1.0  2.1521
  Tb  Tb11  1  0.750000  0.750000  0.250000  1.0  2.1521
  Tb  Tb12  1  0.250000  0.250000  0.250000  1.0  2.1521
  Tb  Tb13  1  0.250000  0.750000  0.750000  1.0  2.1521
  Tb  Tb14  1  0.250000  0.750000  0.250000  1.0  2.1521
  Tb  Tb15  1  0.250000  0.250000  0.750000  1.0  2.1521
  Tb  Tb16  1  0.750000  0.750000  0.750000  1.0  2.1521
  H  H17  1  0.516200  0.415400  0.345200  1.0  0.0956
  H  H18  1  0.575000  0.474000  0.295200  1.0  0.0918
  H  H19  1  0.915400  0.016200  0.723200  1.0  0.0924
  H  H20  1  0.974000  0.075000  0.655800  1.0  0.0872
  H  H21  1  0.845200  0.723200  0.016200  1.0  0.0935
  H  H22  1  0.795200  0.655800  0.075000  1.0  0.0912
  H  H23  1  0.223200  0.345200  0.415400  1.0  0.0937
  H  H24  1  0.155800  0.295200  0.474000  1.0  0.0915
  H  H25  1  0.516200  0.345200  0.723200  1.0  0.095
  H  H26  1  0.575000  0.295200  0.655800  1.0  0.0903
  H  H27  1  0.915400  0.723200  0.345200  1.0  0.0936
  H  H28  1  0.974000  0.655800  0.295200  1.0  0.091
  H  H29  1  0.845200  0.016200  0.415400  1.0  0.0919
  H  H30  1  0.795200  0.075000  0.474000  1.0  0.09
  H  H31  1  0.223200  0.415400  0.016200  1.0  0.0938
  H  H32  1  0.155800  0.474000  0.075000  1.0  0.0918
  H  H33  1  0.516200  0.723200  0.415400  1.0  0.095
  H  H34  1  0.575000  0.655800  0.474000  1.0  0.0913
  H  H35  1  0.915400  0.345200  0.016200  1.0  0.0935
  H  H36  1  0.974000  0.295200  0.075000  1.0  0.0921
  H  H37  1  0.845200  0.415400  0.723200  1.0  0.0943
  H  H38  1  0.795200  0.474000  0.655800  1.0  0.092
  H  H39  1  0.223200  0.016200  0.345200  1.0  0.0922
  H  H40  1  0.155800  0.075000  0.295200  1.0  0.0914
  H  H41  1  0.584600  0.483800  0.154800  1.0  0.0936
  H  H42  1  0.526000  0.425000  0.204800  1.0  0.0912
  H  H43  1  0.983800  0.084600  0.776800  1.0  0.0919
  H  H44  1  0.925000  0.026000  0.844200  1.0  0.092
  H  H45  1  0.276800  0.154800  0.483800  1.0  0.0944
  H  H46  1  0.344200  0.204800  0.425000  1.0  0.0908
  H  H47  1  0.654800  0.776800  0.084600  1.0  0.0933
  H  H48  1  0.704800  0.844200  0.026000  1.0  0.0914
  H  H49  1  0.654800  0.483800  0.776800  1.0  0.0932
  H  H50  1  0.704800  0.425000  0.844200  1.0  0.0907
  H  H51  1  0.276800  0.084600  0.154800  1.0  0.0933
  H  H52  1  0.344200  0.026000  0.204800  1.0  0.0922
  H  H53  1  0.983800  0.154800  0.084600  1.0  0.0943
  H  H54  1  0.925000  0.204800  0.026000  1.0  0.0904
  H  H55  1  0.584600  0.776800  0.483800  1.0  0.0934
  H  H56  1  0.526000  0.844200  0.425000  1.0  0.0913
  H  H57  1  0.276800  0.483800  0.084600  1.0  0.0931
  H  H58  1  0.344200  0.425000  0.026000  1.0  0.0912
  H  H59  1  0.654800  0.084600  0.483800  1.0  0.094
  H  H60  1  0.704800  0.026000  0.425000  1.0  0.092
  H  H61  1  0.584600  0.154800  0.776800  1.0  0.0938
  H  H62  1  0.526000  0.204800  0.844200  1.0  0.0916
  H  H63  1  0.983800  0.776800  0.154800  1.0  0.0936
  H  H64  1  0.925000  0.844200  0.204800  1.0  0.0915
  H  H65  1  0.483800  0.584600  0.654800  1.0  0.0918
  H  H66  1  0.425000  0.526000  0.704800  1.0  0.092
  H  H67  1  0.084600  0.983800  0.276800  1.0  0.0937
  H  H68  1  0.026000  0.925000  0.344200  1.0  0.0911
  H  H69  1  0.154800  0.276800  0.983800  1.0  0.0938
  H  H70  1  0.204800  0.344200  0.925000  1.0  0.0915
  H  H71  1  0.776800  0.654800  0.584600  1.0  0.0937
  H  H72  1  0.844200  0.704800  0.526000  1.0  0.0907
  H  H73  1  0.483800  0.654800  0.276800  1.0  0.0938
  H  H74  1  0.425000  0.704800  0.344200  1.0  0.0911
  H  H75  1  0.084600  0.276800  0.654800  1.0  0.0935
  H  H76  1  0.026000  0.344200  0.704800  1.0  0.0908
  H  H77  1  0.154800  0.983800  0.584600  1.0  0.0931
  H  H78  1  0.204800  0.925000  0.526000  1.0  0.0898
  H  H79  1  0.776800  0.584600  0.983800  1.0  0.0936
  H  H80  1  0.844200  0.526000  0.925000  1.0  0.0923
  H  H81  1  0.483800  0.276800  0.584600  1.0  0.094
  H  H82  1  0.425000  0.344200  0.526000  1.0  0.0918
  H  H83  1  0.084600  0.654800  0.983800  1.0  0.0938
  H  H84  1  0.026000  0.704800  0.925000  1.0  0.0918
  H  H85  1  0.154800  0.584600  0.276800  1.0  0.0938
  H  H86  1  0.204800  0.526000  0.344200  1.0  0.0925
  H  H87  1  0.776800  0.983800  0.654800  1.0  0.0932
  H  H88  1  0.844200  0.925000  0.704800  1.0  0.0915
  H  H89  1  0.415400  0.516200  0.845200  1.0  0.0925
  H  H90  1  0.474000  0.575000  0.795200  1.0  0.0872
  H  H91  1  0.016200  0.915400  0.223200  1.0  0.0954
  H  H92  1  0.075000  0.974000  0.155800  1.0  0.092
  H  H93  1  0.723200  0.845200  0.516200  1.0  0.0935
  H  H94  1  0.655800  0.795200  0.575000  1.0  0.0912
  H  H95  1  0.345200  0.223200  0.915400  1.0  0.0937
  H  H96  1  0.295200  0.155800  0.974000  1.0  0.0916
  H  H97  1  0.345200  0.516200  0.223200  1.0  0.0924
  H  H98  1  0.295200  0.575000  0.155800  1.0  0.0899
  H  H99  1  0.723200  0.915400  0.845200  1.0  0.094
  H  H100  1  0.655800  0.974000  0.795200  1.0  0.0921
  H  H101  1  0.016200  0.845200  0.915400  1.0  0.095
  H  H102  1  0.075000  0.795200  0.974000  1.0  0.0907
  H  H103  1  0.415400  0.223200  0.516200  1.0  0.0935
  H  H104  1  0.474000  0.155800  0.575000  1.0  0.091
  H  H105  1  0.723200  0.516200  0.915400  1.0  0.0919
  H  H106  1  0.655800  0.575000  0.974000  1.0  0.0909
  H  H107  1  0.345200  0.915400  0.516200  1.0  0.0939
  H  H108  1  0.295200  0.974000  0.575000  1.0  0.0918
  H  H109  1  0.415400  0.845200  0.223200  1.0  0.0936
  H  H110  1  0.474000  0.795200  0.155800  1.0  0.0916
  H  H111  1  0.016200  0.223200  0.845200  1.0  0.095
  H  H112  1  0.075000  0.155800  0.795200  1.0  0.0912
  C  C113  1  0.575960  0.414640  0.318220  1.0  -0.0999
  C  C114  1  0.620400  0.360860  0.384700  1.0  0.7496
  C  C115  1  0.914640  0.075960  0.691180  1.0  -0.0986
  C  C116  1  0.860860  0.120400  0.634040  1.0  0.749
  C  C117  1  0.818220  0.691180  0.075960  1.0  -0.1023
  C  C118  1  0.884700  0.634040  0.120400  1.0  0.746
  C  C119  1  0.191180  0.318220  0.414640  1.0  -0.1084
  C  C120  1  0.134040  0.384700  0.360860  1.0  0.7468
  C  C121  1  0.575960  0.318220  0.691180  1.0  -0.0995
  C  C122  1  0.620400  0.384700  0.634040  1.0  0.7426
  C  C123  1  0.914640  0.691180  0.318220  1.0  -0.0984
  C  C124  1  0.860860  0.634040  0.384700  1.0  0.7384
  C  C125  1  0.818220  0.075960  0.414640  1.0  -0.0992
  C  C126  1  0.884700  0.120400  0.360860  1.0  0.7425
  C  C127  1  0.191180  0.414640  0.075960  1.0  -0.0989
  C  C128  1  0.134040  0.360860  0.120400  1.0  0.7406
  C  C129  1  0.575960  0.691180  0.414640  1.0  -0.0985
  C  C130  1  0.620400  0.634040  0.360860  1.0  0.745
  C  C131  1  0.914640  0.318220  0.075960  1.0  -0.0993
  C  C132  1  0.860860  0.384700  0.120400  1.0  0.7505
  C  C133  1  0.818220  0.414640  0.691180  1.0  -0.0982
  C  C134  1  0.884700  0.360860  0.634040  1.0  0.7479
  C  C135  1  0.191180  0.075960  0.318220  1.0  -0.0998
  C  C136  1  0.134040  0.120400  0.384700  1.0  0.7456
  C  C137  1  0.585360  0.424040  0.181780  1.0  -0.0999
  C  C138  1  0.639140  0.379600  0.115300  1.0  0.7468
  C  C139  1  0.924040  0.085360  0.808820  1.0  -0.0998
  C  C140  1  0.879600  0.139140  0.865960  1.0  0.75
  C  C141  1  0.308820  0.181780  0.424040  1.0  -0.1079
  C  C142  1  0.365960  0.115300  0.379600  1.0  0.7458
  C  C143  1  0.681780  0.808820  0.085360  1.0  -0.1025
  C  C144  1  0.615300  0.865960  0.139140  1.0  0.7477
  C  C145  1  0.681780  0.424040  0.808820  1.0  -0.0987
  C  C146  1  0.615300  0.379600  0.865960  1.0  0.7412
  C  C147  1  0.308820  0.085360  0.181780  1.0  -0.0987
  C  C148  1  0.365960  0.139140  0.115300  1.0  0.741
  C  C149  1  0.924040  0.181780  0.085360  1.0  -0.1006
  C  C150  1  0.879600  0.115300  0.139140  1.0  0.7419
  C  C151  1  0.585360  0.808820  0.424040  1.0  -0.0985
  C  C152  1  0.639140  0.865960  0.379600  1.0  0.7413
  C  C153  1  0.308820  0.424040  0.085360  1.0  -0.0986
  C  C154  1  0.365960  0.379600  0.139140  1.0  0.7459
  C  C155  1  0.681780  0.085360  0.424040  1.0  -0.1001
  C  C156  1  0.615300  0.139140  0.379600  1.0  0.7484
  C  C157  1  0.585360  0.181780  0.808820  1.0  -0.0993
  C  C158  1  0.639140  0.115300  0.865960  1.0  0.7496
  C  C159  1  0.924040  0.808820  0.181780  1.0  -0.0983
  C  C160  1  0.879600  0.865960  0.115300  1.0  0.7464
  C  C161  1  0.424040  0.585360  0.681780  1.0  -0.1001
  C  C162  1  0.379600  0.639140  0.615300  1.0  0.7491
  C  C163  1  0.085360  0.924040  0.308820  1.0  -0.0996
  C  C164  1  0.139140  0.879600  0.365960  1.0  0.7482
  C  C165  1  0.181780  0.308820  0.924040  1.0  -0.1066
  C  C166  1  0.115300  0.365960  0.879600  1.0  0.7473
  C  C167  1  0.808820  0.681780  0.585360  1.0  -0.1033
  C  C168  1  0.865960  0.615300  0.639140  1.0  0.7478
  C  C169  1  0.424040  0.681780  0.308820  1.0  -0.1001
  C  C170  1  0.379600  0.615300  0.365960  1.0  0.7425
  C  C171  1  0.085360  0.308820  0.681780  1.0  -0.0981
  C  C172  1  0.139140  0.365960  0.615300  1.0  0.7414
  C  C173  1  0.181780  0.924040  0.585360  1.0  -0.0994
  C  C174  1  0.115300  0.879600  0.639140  1.0  0.7408
  C  C175  1  0.808820  0.585360  0.924040  1.0  -0.0989
  C  C176  1  0.865960  0.639140  0.879600  1.0  0.7411
  C  C177  1  0.424040  0.308820  0.585360  1.0  -0.0987
  C  C178  1  0.379600  0.365960  0.639140  1.0  0.7457
  C  C179  1  0.085360  0.681780  0.924040  1.0  -0.0993
  C  C180  1  0.139140  0.615300  0.879600  1.0  0.7488
  C  C181  1  0.181780  0.585360  0.308820  1.0  -0.1
  C  C182  1  0.115300  0.639140  0.365960  1.0  0.7486
  C  C183  1  0.808820  0.924040  0.681780  1.0  -0.098
  C  C184  1  0.865960  0.879600  0.615300  1.0  0.7448
  C  C185  1  0.414640  0.575960  0.818220  1.0  -0.0982
  C  C186  1  0.360860  0.620400  0.884700  1.0  0.7489
  C  C187  1  0.075960  0.914640  0.191180  1.0  -0.1003
  C  C188  1  0.120400  0.860860  0.134040  1.0  0.7484
  C  C189  1  0.691180  0.818220  0.575960  1.0  -0.104
  C  C190  1  0.634040  0.884700  0.620400  1.0  0.7473
  C  C191  1  0.318220  0.191180  0.914640  1.0  -0.1069
  C  C192  1  0.384700  0.134040  0.860860  1.0  0.7451
  C  C193  1  0.318220  0.575960  0.191180  1.0  -0.0991
  C  C194  1  0.384700  0.620400  0.134040  1.0  0.7421
  C  C195  1  0.691180  0.914640  0.818220  1.0  -0.0985
  C  C196  1  0.634040  0.860860  0.884700  1.0  0.7406
  C  C197  1  0.075960  0.818220  0.914640  1.0  -0.0996
  C  C198  1  0.120400  0.884700  0.860860  1.0  0.7428
  C  C199  1  0.414640  0.191180  0.575960  1.0  -0.0987
  C  C200  1  0.360860  0.134040  0.620400  1.0  0.7378
  C  C201  1  0.691180  0.575960  0.914640  1.0  -0.0995
  C  C202  1  0.634040  0.620400  0.860860  1.0  0.7467
  C  C203  1  0.318220  0.914640  0.575960  1.0  -0.0988
  C  C204  1  0.384700  0.860860  0.620400  1.0  0.7495
  C  C205  1  0.414640  0.818220  0.191180  1.0  -0.0989
  C  C206  1  0.360860  0.884700  0.134040  1.0  0.7502
  C  C207  1  0.075960  0.191180  0.818220  1.0  -0.0986
  C  C208  1  0.120400  0.134040  0.884700  1.0  0.7443
  O  O209  1  0.686380  0.296180  0.372300  1.0  -0.6247
  O  O210  1  0.589050  0.382550  0.449690  1.0  -0.6867
  O  O211  1  0.796180  0.186380  0.645140  1.0  -0.6243
  O  O212  1  0.882550  0.089050  0.578710  1.0  -0.6838
  O  O213  1  0.872300  0.645140  0.186380  1.0  -0.628
  O  O214  1  0.949690  0.578710  0.089050  1.0  -0.6834
  O  O215  1  0.145140  0.372300  0.296180  1.0  -0.6261
  O  O216  1  0.078710  0.449690  0.382550  1.0  -0.6857
  O  O217  1  0.686380  0.372300  0.645140  1.0  -0.6241
  O  O218  1  0.589050  0.449690  0.578710  1.0  -0.6866
  O  O219  1  0.796180  0.645140  0.372300  1.0  -0.6235
  O  O220  1  0.882550  0.578710  0.449690  1.0  -0.6845
  O  O221  1  0.872300  0.186380  0.296180  1.0  -0.6228
  O  O222  1  0.949690  0.089050  0.382550  1.0  -0.6837
  O  O223  1  0.145140  0.296180  0.186380  1.0  -0.6239
  O  O224  1  0.078710  0.382550  0.089050  1.0  -0.687
  O  O225  1  0.686380  0.645140  0.296180  1.0  -0.6256
  O  O226  1  0.589050  0.578710  0.382550  1.0  -0.6859
  O  O227  1  0.796180  0.372300  0.186380  1.0  -0.6265
  O  O228  1  0.882550  0.449690  0.089050  1.0  -0.6865
  O  O229  1  0.872300  0.296180  0.645140  1.0  -0.6279
  O  O230  1  0.949690  0.382550  0.578710  1.0  -0.6851
  O  O231  1  0.145140  0.186380  0.372300  1.0  -0.6264
  O  O232  1  0.078710  0.089050  0.449690  1.0  -0.686
  O  O233  1  0.703820  0.313620  0.127700  1.0  -0.6239
  O  O234  1  0.617450  0.410950  0.050310  1.0  -0.6847
  O  O235  1  0.813620  0.203820  0.854860  1.0  -0.6256
  O  O236  1  0.910950  0.117450  0.921290  1.0  -0.6863
  O  O237  1  0.354860  0.127700  0.313620  1.0  -0.6285
  O  O238  1  0.421290  0.050310  0.410950  1.0  -0.6855
  O  O239  1  0.627700  0.854860  0.203820  1.0  -0.6286
  O  O240  1  0.550310  0.921290  0.117450  1.0  -0.683
  O  O241  1  0.627700  0.313620  0.854860  1.0  -0.6225
  O  O242  1  0.550310  0.410950  0.921290  1.0  -0.6845
  O  O243  1  0.354860  0.203820  0.127700  1.0  -0.6255
  O  O244  1  0.421290  0.117450  0.050310  1.0  -0.6857
  O  O245  1  0.813620  0.127700  0.203820  1.0  -0.6218
  O  O246  1  0.910950  0.050310  0.117450  1.0  -0.6864
  O  O247  1  0.703820  0.854860  0.313620  1.0  -0.6246
  O  O248  1  0.617450  0.921290  0.410950  1.0  -0.685
  O  O249  1  0.354860  0.313620  0.203820  1.0  -0.6279
  O  O250  1  0.421290  0.410950  0.117450  1.0  -0.6855
  O  O251  1  0.627700  0.203820  0.313620  1.0  -0.6272
  O  O252  1  0.550310  0.117450  0.410950  1.0  -0.6856
  O  O253  1  0.703820  0.127700  0.854860  1.0  -0.6254
  O  O254  1  0.617450  0.050310  0.921290  1.0  -0.6861
  O  O255  1  0.813620  0.854860  0.127700  1.0  -0.6266
  O  O256  1  0.910950  0.921290  0.050310  1.0  -0.6856
  O  O257  1  0.313620  0.703820  0.627700  1.0  -0.6231
  O  O258  1  0.410950  0.617450  0.550310  1.0  -0.687
  O  O259  1  0.203820  0.813620  0.354860  1.0  -0.6246
  O  O260  1  0.117450  0.910950  0.421290  1.0  -0.6854
  O  O261  1  0.127700  0.354860  0.813620  1.0  -0.6263
  O  O262  1  0.050310  0.421290  0.910950  1.0  -0.6831
  O  O263  1  0.854860  0.627700  0.703820  1.0  -0.6298
  O  O264  1  0.921290  0.550310  0.617450  1.0  -0.6856
  O  O265  1  0.313620  0.627700  0.354860  1.0  -0.6222
  O  O266  1  0.410950  0.550310  0.421290  1.0  -0.6855
  O  O267  1  0.203820  0.354860  0.627700  1.0  -0.6248
  O  O268  1  0.117450  0.421290  0.550310  1.0  -0.6849
  O  O269  1  0.127700  0.813620  0.703820  1.0  -0.6218
  O  O270  1  0.050310  0.910950  0.617450  1.0  -0.6857
  O  O271  1  0.854860  0.703820  0.813620  1.0  -0.6247
  O  O272  1  0.921290  0.617450  0.910950  1.0  -0.6861
  O  O273  1  0.313620  0.354860  0.703820  1.0  -0.6263
  O  O274  1  0.410950  0.421290  0.617450  1.0  -0.6863
  O  O275  1  0.203820  0.627700  0.813620  1.0  -0.6254
  O  O276  1  0.117450  0.550310  0.910950  1.0  -0.6855
  O  O277  1  0.127700  0.703820  0.354860  1.0  -0.6274
  O  O278  1  0.050310  0.617450  0.421290  1.0  -0.6865
  O  O279  1  0.854860  0.813620  0.627700  1.0  -0.6283
  O  O280  1  0.921290  0.910950  0.550310  1.0  -0.6853
  O  O281  1  0.296180  0.686380  0.872300  1.0  -0.6254
  O  O282  1  0.382550  0.589050  0.949690  1.0  -0.6857
  O  O283  1  0.186380  0.796180  0.145140  1.0  -0.6243
  O  O284  1  0.089050  0.882550  0.078710  1.0  -0.6866
  O  O285  1  0.645140  0.872300  0.686380  1.0  -0.628
  O  O286  1  0.578710  0.949690  0.589050  1.0  -0.6862
  O  O287  1  0.372300  0.145140  0.796180  1.0  -0.6271
  O  O288  1  0.449690  0.078710  0.882550  1.0  -0.6836
  O  O289  1  0.372300  0.686380  0.145140  1.0  -0.6228
  O  O290  1  0.449690  0.589050  0.078710  1.0  -0.6844
  O  O291  1  0.645140  0.796180  0.872300  1.0  -0.6244
  O  O292  1  0.578710  0.882550  0.949690  1.0  -0.6874
  O  O293  1  0.186380  0.872300  0.796180  1.0  -0.6244
  O  O294  1  0.089050  0.949690  0.882550  1.0  -0.6861
  O  O295  1  0.296180  0.145140  0.686380  1.0  -0.623
  O  O296  1  0.382550  0.078710  0.589050  1.0  -0.6843
  O  O297  1  0.645140  0.686380  0.796180  1.0  -0.6265
  O  O298  1  0.578710  0.589050  0.882550  1.0  -0.6859
  O  O299  1  0.372300  0.796180  0.686380  1.0  -0.6279
  O  O300  1  0.449690  0.882550  0.589050  1.0  -0.6864
  O  O301  1  0.296180  0.872300  0.145140  1.0  -0.6264
  O  O302  1  0.382550  0.949690  0.078710  1.0  -0.6861
  O  O303  1  0.186380  0.145140  0.872300  1.0  -0.6253
  O  O304  1  0.089050  0.078710  0.949690  1.0  -0.6862
  O  O305  1  0.619700  0.380300  0.250000  1.0  -0.2588
  O  O306  1  0.880300  0.119700  0.750000  1.0  -0.2583
  O  O307  1  0.750000  0.750000  0.119700  1.0  -0.2566
  O  O308  1  0.250000  0.250000  0.380300  1.0  -0.2575
  O  O309  1  0.619700  0.250000  0.750000  1.0  -0.2579
  O  O310  1  0.880300  0.750000  0.250000  1.0  -0.2574
  O  O311  1  0.750000  0.119700  0.380300  1.0  -0.257
  O  O312  1  0.250000  0.380300  0.119700  1.0  -0.2581
  O  O313  1  0.619700  0.750000  0.380300  1.0  -0.2577
  O  O314  1  0.880300  0.250000  0.119700  1.0  -0.2578
  O  O315  1  0.750000  0.380300  0.750000  1.0  -0.2582
  O  O316  1  0.250000  0.119700  0.250000  1.0  -0.2576
  O  O317  1  0.380300  0.619700  0.750000  1.0  -0.2583
  O  O318  1  0.119700  0.880300  0.250000  1.0  -0.2588
  O  O319  1  0.250000  0.250000  0.880300  1.0  -0.2575
  O  O320  1  0.750000  0.750000  0.619700  1.0  -0.2566
  O  O321  1  0.380300  0.750000  0.250000  1.0  -0.2574
  O  O322  1  0.119700  0.250000  0.750000  1.0  -0.2579
  O  O323  1  0.250000  0.880300  0.619700  1.0  -0.2581
  O  O324  1  0.750000  0.619700  0.880300  1.0  -0.257
  O  O325  1  0.380300  0.250000  0.619700  1.0  -0.2578
  O  O326  1  0.119700  0.750000  0.880300  1.0  -0.2577
  O  O327  1  0.250000  0.619700  0.250000  1.0  -0.2576
  O  O328  1  0.750000  0.880300  0.750000  1.0  -0.2582
