# generated using pymatgen
data_CaLuH12(C4O5)3
_symmetry_space_group_name_H-M   'P 1'
_cell_length_a   18.62500000
_cell_length_b   18.62500000
_cell_length_c   18.62500000
_cell_angle_alpha   60.00000000
_cell_angle_beta   60.00000000
_cell_angle_gamma   60.00000000
_symmetry_Int_Tables_number   1
_chemical_formula_structural   CaLuH12(C4O5)3
_chemical_formula_sum   'Ca8 Lu8 H96 C96 O120'
_cell_volume   4568.50228461
_cell_formula_units_Z   8
loop_
 _symmetry_equiv_pos_site_id
 _symmetry_equiv_pos_as_xyz
  1  'x, y, z'
loop_
 _atom_site_type_symbol
 _atom_site_label
 _atom_site_symmetry_multiplicity
 _atom_site_fract_x
 _atom_site_fract_y
 _atom_site_fract_z
 _atom_site_occupancy
 _atom_site_charge
  Ca  Ca1  1  0.500000  0.500000  0.500000  1.0  1.5078
  Ca  Ca2  1  0.000000  0.000000  0.500000  1.0  1.5078
  Ca  Ca3  1  0.000000  0.500000  0.000000  1.0  1.5078
  Ca  Ca4  1  0.000000  0.500000  0.500000  1.0  1.5078
  Ca  Ca5  1  0.500000  0.500000  0.000000  1.0  1.5078
  Ca  Ca6  1  0.000000  0.000000  0.000000  1.0  1.5078
  Ca  Ca7  1  0.500000  0.000000  0.500000  1.0  1.5078
  Ca  Ca8  1  0.500000  0.000000  0.000000  1.0  1.5078
  Lu  Lu9  1  0.750000  0.250000  0.250000  1.0  1.5676
  Lu  Lu10  1  0.750000  0.250000  0.750000  1.0  1.5676
  Lu  Lu11  1  0.750000  0.750000  0.250000  1.0  1.5676
  Lu  Lu12  1  0.250000  0.250000  0.250000  1.0  1.5676
  Lu  Lu13  1  0.250000  0.750000  0.750000  1.0  1.5676
  Lu  Lu14  1  0.250000  0.750000  0.250000  1.0  1.5676
  Lu  Lu15  1  0.250000  0.250000  0.750000  1.0  1.5676
  Lu  Lu16  1  0.750000  0.750000  0.750000  1.0  1.5676
  H  H17  1  0.516300  0.416100  0.344700  1.0  0.1056
  H  H18  1  0.577400  0.473600  0.294600  1.0  0.1062
  H  H19  1  0.916100  0.016300  0.722900  1.0  0.1025
  H  H20  1  0.973600  0.077400  0.654400  1.0  0.104
  H  H21  1  0.844700  0.722900  0.016300  1.0  0.1031
  H  H22  1  0.794600  0.654400  0.077400  1.0  0.1057
  H  H23  1  0.222900  0.344700  0.416100  1.0  0.1034
  H  H24  1  0.154400  0.294600  0.473600  1.0  0.1056
  H  H25  1  0.516300  0.344700  0.722900  1.0  0.1049
  H  H26  1  0.577400  0.294600  0.654400  1.0  0.1047
  H  H27  1  0.916100  0.722900  0.344700  1.0  0.1029
  H  H28  1  0.973600  0.654400  0.294600  1.0  0.1054
  H  H29  1  0.844700  0.016300  0.416100  1.0  0.1023
  H  H30  1  0.794600  0.077400  0.473600  1.0  0.1045
  H  H31  1  0.222900  0.416100  0.016300  1.0  0.103
  H  H32  1  0.154400  0.473600  0.077400  1.0  0.1062
  H  H33  1  0.516300  0.722900  0.416100  1.0  0.1047
  H  H34  1  0.577400  0.654400  0.473600  1.0  0.1057
  H  H35  1  0.916100  0.344700  0.016300  1.0  0.1031
  H  H36  1  0.973600  0.294600  0.077400  1.0  0.1052
  H  H37  1  0.844700  0.416100  0.722900  1.0  0.1033
  H  H38  1  0.794600  0.473600  0.654400  1.0  0.1059
  H  H39  1  0.222900  0.016300  0.344700  1.0  0.1022
  H  H40  1  0.154400  0.077400  0.294600  1.0  0.1051
  H  H41  1  0.583900  0.483700  0.155300  1.0  0.1034
  H  H42  1  0.526400  0.422600  0.205400  1.0  0.1062
  H  H43  1  0.983700  0.083900  0.777100  1.0  0.1041
  H  H44  1  0.922600  0.026400  0.845600  1.0  0.1068
  H  H45  1  0.277100  0.155300  0.483700  1.0  0.1035
  H  H46  1  0.345600  0.205400  0.422600  1.0  0.1048
  H  H47  1  0.655300  0.777100  0.083900  1.0  0.1029
  H  H48  1  0.705400  0.845600  0.026400  1.0  0.1056
  H  H49  1  0.655300  0.483700  0.777100  1.0  0.1032
  H  H50  1  0.705400  0.422600  0.845600  1.0  0.105
  H  H51  1  0.277100  0.083900  0.155300  1.0  0.1027
  H  H52  1  0.345600  0.026400  0.205400  1.0  0.1065
  H  H53  1  0.983700  0.155300  0.083900  1.0  0.104
  H  H54  1  0.922600  0.205400  0.026400  1.0  0.1045
  H  H55  1  0.583900  0.777100  0.483700  1.0  0.1028
  H  H56  1  0.526400  0.845600  0.422600  1.0  0.1054
  H  H57  1  0.277100  0.483700  0.083900  1.0  0.1029
  H  H58  1  0.345600  0.422600  0.026400  1.0  0.1046
  H  H59  1  0.655300  0.083900  0.483700  1.0  0.1032
  H  H60  1  0.705400  0.026400  0.422600  1.0  0.1062
  H  H61  1  0.583900  0.155300  0.777100  1.0  0.1033
  H  H62  1  0.526400  0.205400  0.845600  1.0  0.1047
  H  H63  1  0.983700  0.777100  0.155300  1.0  0.1033
  H  H64  1  0.922600  0.845600  0.205400  1.0  0.1056
  H  H65  1  0.483700  0.583900  0.655300  1.0  0.104
  H  H66  1  0.422600  0.526400  0.705400  1.0  0.1065
  H  H67  1  0.083900  0.983700  0.277100  1.0  0.1035
  H  H68  1  0.026400  0.922600  0.345600  1.0  0.1063
  H  H69  1  0.155300  0.277100  0.983700  1.0  0.1031
  H  H70  1  0.205400  0.345600  0.922600  1.0  0.1055
  H  H71  1  0.777100  0.655300  0.583900  1.0  0.1033
  H  H72  1  0.845600  0.705400  0.526400  1.0  0.105
  H  H73  1  0.483700  0.655300  0.277100  1.0  0.1039
  H  H74  1  0.422600  0.705400  0.345600  1.0  0.1054
  H  H75  1  0.083900  0.277100  0.655300  1.0  0.103
  H  H76  1  0.026400  0.345600  0.705400  1.0  0.1047
  H  H77  1  0.155300  0.983700  0.583900  1.0  0.1029
  H  H78  1  0.205400  0.922600  0.526400  1.0  0.1043
  H  H79  1  0.777100  0.583900  0.983700  1.0  0.1028
  H  H80  1  0.845600  0.526400  0.922600  1.0  0.1067
  H  H81  1  0.483700  0.277100  0.583900  1.0  0.1036
  H  H82  1  0.422600  0.345600  0.526400  1.0  0.1056
  H  H83  1  0.083900  0.655300  0.983700  1.0  0.1031
  H  H84  1  0.026400  0.705400  0.922600  1.0  0.1052
  H  H85  1  0.155300  0.583900  0.277100  1.0  0.1033
  H  H86  1  0.205400  0.526400  0.345600  1.0  0.1064
  H  H87  1  0.777100  0.983700  0.655300  1.0  0.103
  H  H88  1  0.845600  0.922600  0.705400  1.0  0.105
  H  H89  1  0.416100  0.516300  0.844700  1.0  0.1025
  H  H90  1  0.473600  0.577400  0.794600  1.0  0.104
  H  H91  1  0.016300  0.916100  0.222900  1.0  0.1055
  H  H92  1  0.077400  0.973600  0.154400  1.0  0.1064
  H  H93  1  0.722900  0.844700  0.516300  1.0  0.1034
  H  H94  1  0.654400  0.794600  0.577400  1.0  0.1056
  H  H95  1  0.344700  0.222900  0.916100  1.0  0.1031
  H  H96  1  0.294600  0.154400  0.973600  1.0  0.1058
  H  H97  1  0.344700  0.516300  0.222900  1.0  0.1024
  H  H98  1  0.294600  0.577400  0.154400  1.0  0.1042
  H  H99  1  0.722900  0.916100  0.844700  1.0  0.1031
  H  H100  1  0.654400  0.973600  0.794600  1.0  0.1067
  H  H101  1  0.016300  0.844700  0.916100  1.0  0.1051
  H  H102  1  0.077400  0.794600  0.973600  1.0  0.1052
  H  H103  1  0.416100  0.222900  0.516300  1.0  0.1027
  H  H104  1  0.473600  0.154400  0.577400  1.0  0.1054
  H  H105  1  0.722900  0.516300  0.916100  1.0  0.102
  H  H106  1  0.654400  0.577400  0.973600  1.0  0.1048
  H  H107  1  0.344700  0.916100  0.516300  1.0  0.1031
  H  H108  1  0.294600  0.973600  0.577400  1.0  0.1053
  H  H109  1  0.416100  0.844700  0.222900  1.0  0.103
  H  H110  1  0.473600  0.794600  0.154400  1.0  0.1051
  H  H111  1  0.016300  0.222900  0.844700  1.0  0.1046
  H  H112  1  0.077400  0.154400  0.794600  1.0  0.1053
  C  C113  1  0.577040  0.414160  0.317920  1.0  -0.0855
  C  C114  1  0.621920  0.358280  0.385520  1.0  0.7613
  C  C115  1  0.914160  0.077040  0.690880  1.0  -0.0834
  C  C116  1  0.858280  0.121920  0.634280  1.0  0.7599
  C  C117  1  0.817920  0.690880  0.077040  1.0  -0.0872
  C  C118  1  0.885520  0.634280  0.121920  1.0  0.7557
  C  C119  1  0.190880  0.317920  0.414160  1.0  -0.0898
  C  C120  1  0.134280  0.385520  0.358280  1.0  0.7582
  C  C121  1  0.577040  0.317920  0.690880  1.0  -0.0845
  C  C122  1  0.621920  0.385520  0.634280  1.0  0.7545
  C  C123  1  0.914160  0.690880  0.317920  1.0  -0.0837
  C  C124  1  0.858280  0.634280  0.385520  1.0  0.7504
  C  C125  1  0.817920  0.077040  0.414160  1.0  -0.0842
  C  C126  1  0.885520  0.121920  0.358280  1.0  0.7553
  C  C127  1  0.190880  0.414160  0.077040  1.0  -0.0834
  C  C128  1  0.134280  0.358280  0.121920  1.0  0.7519
  C  C129  1  0.577040  0.690880  0.414160  1.0  -0.0834
  C  C130  1  0.621920  0.634280  0.358280  1.0  0.7556
  C  C131  1  0.914160  0.317920  0.077040  1.0  -0.0839
  C  C132  1  0.858280  0.385520  0.121920  1.0  0.7619
  C  C133  1  0.817920  0.414160  0.690880  1.0  -0.0835
  C  C134  1  0.885520  0.358280  0.634280  1.0  0.7596
  C  C135  1  0.190880  0.077040  0.317920  1.0  -0.0835
  C  C136  1  0.134280  0.121920  0.385520  1.0  0.7572
  C  C137  1  0.585840  0.422960  0.182080  1.0  -0.0838
  C  C138  1  0.641720  0.378080  0.114480  1.0  0.758
  C  C139  1  0.922960  0.085840  0.809120  1.0  -0.0857
  C  C140  1  0.878080  0.141720  0.865720  1.0  0.7605
  C  C141  1  0.309120  0.182080  0.422960  1.0  -0.0901
  C  C142  1  0.365720  0.114480  0.378080  1.0  0.7571
  C  C143  1  0.682080  0.809120  0.085840  1.0  -0.0874
  C  C144  1  0.614480  0.865720  0.141720  1.0  0.7581
  C  C145  1  0.682080  0.422960  0.809120  1.0  -0.083
  C  C146  1  0.614480  0.378080  0.865720  1.0  0.7529
  C  C147  1  0.309120  0.085840  0.182080  1.0  -0.0851
  C  C148  1  0.365720  0.141720  0.114480  1.0  0.7525
  C  C149  1  0.922960  0.182080  0.085840  1.0  -0.0852
  C  C150  1  0.878080  0.114480  0.141720  1.0  0.7544
  C  C151  1  0.585840  0.809120  0.422960  1.0  -0.084
  C  C152  1  0.641720  0.865720  0.378080  1.0  0.7532
  C  C153  1  0.309120  0.422960  0.085840  1.0  -0.0829
  C  C154  1  0.365720  0.378080  0.141720  1.0  0.7571
  C  C155  1  0.682080  0.085840  0.422960  1.0  -0.0852
  C  C156  1  0.614480  0.141720  0.378080  1.0  0.7602
  C  C157  1  0.585840  0.182080  0.809120  1.0  -0.0842
  C  C158  1  0.641720  0.114480  0.865720  1.0  0.7624
  C  C159  1  0.922960  0.809120  0.182080  1.0  -0.0838
  C  C160  1  0.878080  0.865720  0.114480  1.0  0.7587
  C  C161  1  0.422960  0.585840  0.682080  1.0  -0.0855
  C  C162  1  0.378080  0.641720  0.614480  1.0  0.7601
  C  C163  1  0.085840  0.922960  0.309120  1.0  -0.0843
  C  C164  1  0.141720  0.878080  0.365720  1.0  0.7594
  C  C165  1  0.182080  0.309120  0.922960  1.0  -0.0889
  C  C166  1  0.114480  0.365720  0.878080  1.0  0.7587
  C  C167  1  0.809120  0.682080  0.585840  1.0  -0.0878
  C  C168  1  0.865720  0.614480  0.641720  1.0  0.7579
  C  C169  1  0.422960  0.682080  0.309120  1.0  -0.0849
  C  C170  1  0.378080  0.614480  0.365720  1.0  0.7548
  C  C171  1  0.085840  0.309120  0.682080  1.0  -0.084
  C  C172  1  0.141720  0.365720  0.614480  1.0  0.7532
  C  C173  1  0.182080  0.922960  0.585840  1.0  -0.0831
  C  C174  1  0.114480  0.878080  0.641720  1.0  0.7526
  C  C175  1  0.809120  0.585840  0.922960  1.0  -0.0853
  C  C176  1  0.865720  0.641720  0.878080  1.0  0.7527
  C  C177  1  0.422960  0.309120  0.585840  1.0  -0.0839
  C  C178  1  0.378080  0.365720  0.641720  1.0  0.7573
  C  C179  1  0.085840  0.682080  0.922960  1.0  -0.0844
  C  C180  1  0.141720  0.614480  0.878080  1.0  0.7606
  C  C181  1  0.182080  0.585840  0.309120  1.0  -0.0851
  C  C182  1  0.114480  0.641720  0.365720  1.0  0.7608
  C  C183  1  0.809120  0.922960  0.682080  1.0  -0.0832
  C  C184  1  0.865720  0.878080  0.614480  1.0  0.7573
  C  C185  1  0.414160  0.577040  0.817920  1.0  -0.0837
  C  C186  1  0.358280  0.621920  0.885520  1.0  0.7607
  C  C187  1  0.077040  0.914160  0.190880  1.0  -0.0851
  C  C188  1  0.121920  0.858280  0.134280  1.0  0.7593
  C  C189  1  0.690880  0.817920  0.577040  1.0  -0.0875
  C  C190  1  0.634280  0.885520  0.621920  1.0  0.7577
  C  C191  1  0.317920  0.190880  0.914160  1.0  -0.0895
  C  C192  1  0.385520  0.134280  0.858280  1.0  0.7565
  C  C193  1  0.317920  0.577040  0.190880  1.0  -0.0841
  C  C194  1  0.385520  0.621920  0.134280  1.0  0.7549
  C  C195  1  0.690880  0.914160  0.817920  1.0  -0.0832
  C  C196  1  0.634280  0.858280  0.885520  1.0  0.7521
  C  C197  1  0.077040  0.817920  0.914160  1.0  -0.0844
  C  C198  1  0.121920  0.885520  0.858280  1.0  0.7548
  C  C199  1  0.414160  0.190880  0.577040  1.0  -0.0842
  C  C200  1  0.358280  0.134280  0.621920  1.0  0.7499
  C  C201  1  0.690880  0.577040  0.914160  1.0  -0.0837
  C  C202  1  0.634280  0.621920  0.858280  1.0  0.7589
  C  C203  1  0.317920  0.914160  0.577040  1.0  -0.0836
  C  C204  1  0.385520  0.858280  0.621920  1.0  0.7619
  C  C205  1  0.414160  0.817920  0.190880  1.0  -0.0837
  C  C206  1  0.358280  0.885520  0.134280  1.0  0.7614
  C  C207  1  0.077040  0.190880  0.817920  1.0  -0.0833
  C  C208  1  0.121920  0.134280  0.885520  1.0  0.7536
  O  O209  1  0.688720  0.293620  0.371140  1.0  -0.6125
  O  O210  1  0.590870  0.379230  0.451710  1.0  -0.6691
  O  O211  1  0.793620  0.188720  0.646520  1.0  -0.6118
  O  O212  1  0.879230  0.090870  0.578190  1.0  -0.6663
  O  O213  1  0.871140  0.646520  0.188720  1.0  -0.6165
  O  O214  1  0.951710  0.578190  0.090870  1.0  -0.6662
  O  O215  1  0.146520  0.371140  0.293620  1.0  -0.6139
  O  O216  1  0.078190  0.451710  0.379230  1.0  -0.6686
  O  O217  1  0.688720  0.371140  0.646520  1.0  -0.6109
  O  O218  1  0.590870  0.451710  0.578190  1.0  -0.6696
  O  O219  1  0.793620  0.646520  0.371140  1.0  -0.6123
  O  O220  1  0.879230  0.578190  0.451710  1.0  -0.6672
  O  O221  1  0.871140  0.188720  0.293620  1.0  -0.6111
  O  O222  1  0.951710  0.090870  0.379230  1.0  -0.6667
  O  O223  1  0.146520  0.293620  0.188720  1.0  -0.6112
  O  O224  1  0.078190  0.379230  0.090870  1.0  -0.6701
  O  O225  1  0.688720  0.646520  0.293620  1.0  -0.6143
  O  O226  1  0.590870  0.578190  0.379230  1.0  -0.6689
  O  O227  1  0.793620  0.371140  0.188720  1.0  -0.6135
  O  O228  1  0.879230  0.451710  0.090870  1.0  -0.6694
  O  O229  1  0.871140  0.293620  0.646520  1.0  -0.615
  O  O230  1  0.951710  0.379230  0.578190  1.0  -0.6678
  O  O231  1  0.146520  0.188720  0.371140  1.0  -0.6138
  O  O232  1  0.078190  0.090870  0.451710  1.0  -0.6687
  O  O233  1  0.706380  0.311280  0.128860  1.0  -0.611
  O  O234  1  0.620770  0.409130  0.048290  1.0  -0.6675
  O  O235  1  0.811280  0.206380  0.853480  1.0  -0.6129
  O  O236  1  0.909130  0.120770  0.921810  1.0  -0.6689
  O  O237  1  0.353480  0.128860  0.311280  1.0  -0.6152
  O  O238  1  0.421810  0.048290  0.409130  1.0  -0.6685
  O  O239  1  0.628860  0.853480  0.206380  1.0  -0.6148
  O  O240  1  0.548290  0.921810  0.120770  1.0  -0.6657
  O  O241  1  0.628860  0.311280  0.853480  1.0  -0.6111
  O  O242  1  0.548290  0.409130  0.921810  1.0  -0.6677
  O  O243  1  0.353480  0.206380  0.128860  1.0  -0.612
  O  O244  1  0.421810  0.120770  0.048290  1.0  -0.6695
  O  O245  1  0.811280  0.128860  0.206380  1.0  -0.6103
  O  O246  1  0.909130  0.048290  0.120770  1.0  -0.6696
  O  O247  1  0.706380  0.853480  0.311280  1.0  -0.6109
  O  O248  1  0.620770  0.921810  0.409130  1.0  -0.6671
  O  O249  1  0.353480  0.311280  0.206380  1.0  -0.6148
  O  O250  1  0.421810  0.409130  0.120770  1.0  -0.6686
  O  O251  1  0.628860  0.206380  0.311280  1.0  -0.6141
  O  O252  1  0.548290  0.120770  0.409130  1.0  -0.668
  O  O253  1  0.706380  0.128860  0.853480  1.0  -0.613
  O  O254  1  0.620770  0.048290  0.921810  1.0  -0.6689
  O  O255  1  0.811280  0.853480  0.128860  1.0  -0.6129
  O  O256  1  0.909130  0.921810  0.048290  1.0  -0.6679
  O  O257  1  0.311280  0.706380  0.628860  1.0  -0.6112
  O  O258  1  0.409130  0.620770  0.548290  1.0  -0.6675
  O  O259  1  0.206380  0.811280  0.353480  1.0  -0.6126
  O  O260  1  0.120770  0.909130  0.421810  1.0  -0.6682
  O  O261  1  0.128860  0.353480  0.811280  1.0  -0.6134
  O  O262  1  0.048290  0.421810  0.909130  1.0  -0.6651
  O  O263  1  0.853480  0.628860  0.706380  1.0  -0.6167
  O  O264  1  0.921810  0.548290  0.620770  1.0  -0.6679
  O  O265  1  0.311280  0.628860  0.353480  1.0  -0.6101
  O  O266  1  0.409130  0.548290  0.421810  1.0  -0.668
  O  O267  1  0.206380  0.353480  0.628860  1.0  -0.6115
  O  O268  1  0.120770  0.421810  0.548290  1.0  -0.6668
  O  O269  1  0.128860  0.811280  0.706380  1.0  -0.6107
  O  O270  1  0.048290  0.909130  0.620770  1.0  -0.668
  O  O271  1  0.853480  0.706380  0.811280  1.0  -0.6114
  O  O272  1  0.921810  0.620770  0.909130  1.0  -0.6684
  O  O273  1  0.311280  0.353480  0.706380  1.0  -0.6126
  O  O274  1  0.409130  0.421810  0.620770  1.0  -0.6673
  O  O275  1  0.206380  0.628860  0.811280  1.0  -0.6125
  O  O276  1  0.120770  0.548290  0.909130  1.0  -0.6672
  O  O277  1  0.128860  0.706380  0.353480  1.0  -0.6149
  O  O278  1  0.048290  0.620770  0.421810  1.0  -0.6688
  O  O279  1  0.853480  0.811280  0.628860  1.0  -0.6146
  O  O280  1  0.921810  0.909130  0.548290  1.0  -0.6681
  O  O281  1  0.293620  0.688720  0.871140  1.0  -0.6126
  O  O282  1  0.379230  0.590870  0.951710  1.0  -0.6673
  O  O283  1  0.188720  0.793620  0.146520  1.0  -0.6121
  O  O284  1  0.090870  0.879230  0.078190  1.0  -0.668
  O  O285  1  0.646520  0.871140  0.688720  1.0  -0.6145
  O  O286  1  0.578190  0.951710  0.590870  1.0  -0.6684
  O  O287  1  0.371140  0.146520  0.793620  1.0  -0.6153
  O  O288  1  0.451710  0.078190  0.879230  1.0  -0.6654
  O  O289  1  0.371140  0.688720  0.146520  1.0  -0.6112
  O  O290  1  0.451710  0.590870  0.078190  1.0  -0.6666
  O  O291  1  0.646520  0.793620  0.871140  1.0  -0.6112
  O  O292  1  0.578190  0.879230  0.951710  1.0  -0.6691
  O  O293  1  0.188720  0.871140  0.793620  1.0  -0.6109
  O  O294  1  0.090870  0.951710  0.879230  1.0  -0.6687
  O  O295  1  0.293620  0.146520  0.688720  1.0  -0.6123
  O  O296  1  0.379230  0.078190  0.590870  1.0  -0.667
  O  O297  1  0.646520  0.688720  0.793620  1.0  -0.614
  O  O298  1  0.578190  0.590870  0.879230  1.0  -0.6682
  O  O299  1  0.371140  0.793620  0.688720  1.0  -0.6152
  O  O300  1  0.451710  0.879230  0.590870  1.0  -0.6682
  O  O301  1  0.293620  0.871140  0.146520  1.0  -0.6134
  O  O302  1  0.379230  0.951710  0.078190  1.0  -0.6681
  O  O303  1  0.188720  0.146520  0.871140  1.0  -0.6142
  O  O304  1  0.090870  0.078190  0.951710  1.0  -0.6683
  O  O305  1  0.620740  0.379260  0.250000  1.0  -0.2258
  O  O306  1  0.879260  0.120740  0.750000  1.0  -0.2257
  O  O307  1  0.750000  0.750000  0.120740  1.0  -0.2248
  O  O308  1  0.250000  0.250000  0.379260  1.0  -0.2253
  O  O309  1  0.620740  0.250000  0.750000  1.0  -0.2254
  O  O310  1  0.879260  0.750000  0.250000  1.0  -0.2249
  O  O311  1  0.750000  0.120740  0.379260  1.0  -0.2242
  O  O312  1  0.250000  0.379260  0.120740  1.0  -0.2254
  O  O313  1  0.620740  0.750000  0.379260  1.0  -0.2252
  O  O314  1  0.879260  0.250000  0.120740  1.0  -0.2253
  O  O315  1  0.750000  0.379260  0.750000  1.0  -0.2255
  O  O316  1  0.250000  0.120740  0.250000  1.0  -0.2248
  O  O317  1  0.379260  0.620740  0.750000  1.0  -0.2257
  O  O318  1  0.120740  0.879260  0.250000  1.0  -0.2258
  O  O319  1  0.250000  0.250000  0.879260  1.0  -0.2253
  O  O320  1  0.750000  0.750000  0.620740  1.0  -0.2248
  O  O321  1  0.379260  0.750000  0.250000  1.0  -0.2249
  O  O322  1  0.120740  0.250000  0.750000  1.0  -0.2254
  O  O323  1  0.250000  0.879260  0.620740  1.0  -0.2254
  O  O324  1  0.750000  0.620740  0.879260  1.0  -0.2242
  O  O325  1  0.379260  0.250000  0.620740  1.0  -0.2253
  O  O326  1  0.120740  0.750000  0.879260  1.0  -0.2252
  O  O327  1  0.250000  0.620740  0.250000  1.0  -0.2248
  O  O328  1  0.750000  0.879260  0.750000  1.0  -0.2255
