# generated using pymatgen
data_ErH4(CO)4
_symmetry_space_group_name_H-M   'P 1'
_cell_length_a   13.04700000
_cell_length_b   11.68930000
_cell_length_c   7.82440000
_cell_angle_alpha   90.00000000
_cell_angle_beta   109.95400000
_cell_angle_gamma   90.00000000
_symmetry_Int_Tables_number   1
_chemical_formula_structural   ErH4(CO)4
_chemical_formula_sum   'Er4 H16 C16 O16'
_cell_volume   1121.66398730
_cell_formula_units_Z   4
loop_
 _symmetry_equiv_pos_site_id
 _symmetry_equiv_pos_as_xyz
  1  'x, y, z'
loop_
 _atom_site_type_symbol
 _atom_site_label
 _atom_site_symmetry_multiplicity
 _atom_site_fract_x
 _atom_site_fract_y
 _atom_site_fract_z
 _atom_site_occupancy
 _atom_site_charge
  Er  Er1  1  0.000000  0.055400  0.750000  1.0  1.5645
  Er  Er2  1  0.500000  0.555400  0.750000  1.0  1.5645
  Er  Er3  1  0.000000  0.944600  0.250000  1.0  1.5655
  Er  Er4  1  0.500000  0.444600  0.250000  1.0  1.5655
  H  H5  1  0.176800  0.714900  0.086900  1.0  0.1406
  H  H6  1  0.265600  0.809500  0.163600  1.0  0.1429
  H  H7  1  0.676800  0.214900  0.086900  1.0  0.1406
  H  H8  1  0.765600  0.309500  0.163600  1.0  0.1429
  H  H9  1  0.823200  0.714900  0.413100  1.0  0.142
  H  H10  1  0.734400  0.809500  0.336400  1.0  0.1434
  H  H11  1  0.323200  0.214900  0.413100  1.0  0.142
  H  H12  1  0.234400  0.309500  0.336400  1.0  0.1434
  H  H13  1  0.823200  0.285100  0.913100  1.0  0.1424
  H  H14  1  0.734400  0.190500  0.836400  1.0  0.1435
  H  H15  1  0.323200  0.785100  0.913100  1.0  0.1424
  H  H16  1  0.234400  0.690500  0.836400  1.0  0.1435
  H  H17  1  0.176800  0.285100  0.586900  1.0  0.1407
  H  H18  1  0.265600  0.190500  0.663600  1.0  0.1428
  H  H19  1  0.676800  0.785100  0.586900  1.0  0.1407
  H  H20  1  0.765600  0.690500  0.663600  1.0  0.1428
  C  C21  1  0.135700  0.866200  0.950400  1.0  0.7049
  C  C22  1  0.216400  0.775800  0.052500  1.0  -0.3248
  C  C23  1  0.635700  0.366200  0.950400  1.0  0.7049
  C  C24  1  0.716400  0.275800  0.052500  1.0  -0.3248
  C  C25  1  0.864300  0.866200  0.549600  1.0  0.7049
  C  C26  1  0.783600  0.775800  0.447500  1.0  -0.3249
  C  C27  1  0.364300  0.366200  0.549600  1.0  0.7049
  C  C28  1  0.283600  0.275800  0.447500  1.0  -0.3249
  C  C29  1  0.864300  0.133800  0.049600  1.0  0.7085
  C  C30  1  0.783600  0.224200  0.947500  1.0  -0.3237
  C  C31  1  0.364300  0.633800  0.049600  1.0  0.7085
  C  C32  1  0.283600  0.724200  0.947500  1.0  -0.3237
  C  C33  1  0.135700  0.133800  0.450400  1.0  0.7082
  C  C34  1  0.216400  0.224200  0.552500  1.0  -0.3228
  C  C35  1  0.635700  0.633800  0.450400  1.0  0.7082
  C  C36  1  0.716400  0.724200  0.552500  1.0  -0.3228
  O  O37  1  0.131100  0.901500  0.796700  1.0  -0.5987
  O  O38  1  0.072900  0.911000  0.027000  1.0  -0.8499
  O  O39  1  0.631100  0.401500  0.796700  1.0  -0.5987
  O  O40  1  0.572900  0.411000  0.027000  1.0  -0.8499
  O  O41  1  0.868900  0.901500  0.703300  1.0  -0.6016
  O  O42  1  0.927100  0.911000  0.473000  1.0  -0.8511
  O  O43  1  0.368900  0.401500  0.703300  1.0  -0.6016
  O  O44  1  0.427100  0.411000  0.473000  1.0  -0.8511
  O  O45  1  0.868900  0.098500  0.203300  1.0  -0.6011
  O  O46  1  0.927100  0.089000  0.973000  1.0  -0.85
  O  O47  1  0.368900  0.598500  0.203300  1.0  -0.6011
  O  O48  1  0.427100  0.589000  0.973000  1.0  -0.85
  O  O49  1  0.131100  0.098500  0.296700  1.0  -0.5982
  O  O50  1  0.072900  0.089000  0.527000  1.0  -0.8481
  O  O51  1  0.631100  0.598500  0.296700  1.0  -0.5982
  O  O52  1  0.572900  0.589000  0.527000  1.0  -0.8481
