# generated using pymatgen
data_Zn3P2H18C21NO14
_symmetry_space_group_name_H-M   'P 1'
_cell_length_a   17.48660000
_cell_length_b   17.48660000
_cell_length_c   17.48660000
_cell_angle_alpha   96.52200000
_cell_angle_beta   116.30900000
_cell_angle_gamma   116.30900000
_symmetry_Int_Tables_number   1
_chemical_formula_structural   Zn3P2H18C21NO14
_chemical_formula_sum   'Zn12 P8 H72 C84 N4 O56'
_cell_volume   3964.05441451
_cell_formula_units_Z   4
loop_
 _symmetry_equiv_pos_site_id
 _symmetry_equiv_pos_as_xyz
  1  'x, y, z'
loop_
 _atom_site_type_symbol
 _atom_site_label
 _atom_site_symmetry_multiplicity
 _atom_site_fract_x
 _atom_site_fract_y
 _atom_site_fract_z
 _atom_site_occupancy
 _atom_site_charge
  Zn  Zn1  1  0.507980  0.957290  0.998150  1.0  1.0572
  Zn  Zn2  1  0.492020  0.490170  0.449310  1.0  1.0617
  Zn  Zn3  1  0.959140  0.001850  0.509830  1.0  1.0573
  Zn  Zn4  1  0.040860  0.550690  0.042710  1.0  1.0571
  Zn  Zn5  1  0.459140  0.259830  0.251850  1.0  1.0558
  Zn  Zn6  1  0.540860  0.792710  0.800690  1.0  1.0573
  Zn  Zn7  1  0.992020  0.199310  0.740170  1.0  1.0581
  Zn  Zn8  1  0.007980  0.748150  0.207290  1.0  1.0616
  Zn  Zn9  1  0.875300  0.500300  0.125000  1.0  1.0149
  Zn  Zn10  1  0.124700  0.249700  0.625000  1.0  1.0103
  Zn  Zn11  1  0.375300  0.875000  0.750300  1.0  1.0134
  Zn  Zn12  1  0.624700  0.375000  0.499700  1.0  1.0146
  P  P13  1  0.614390  0.997430  0.893980  1.0  1.551
  P  P14  1  0.385610  0.279590  0.383040  1.0  1.5531
  P  P15  1  0.103450  0.106020  0.720410  1.0  1.5488
  P  P16  1  0.896550  0.616960  0.002570  1.0  1.5497
  P  P17  1  0.603450  0.470410  0.356020  1.0  1.5507
  P  P18  1  0.396550  0.752570  0.866960  1.0  1.55
  P  P19  1  0.885610  0.133040  0.529590  1.0  1.5497
  P  P20  1  0.114390  0.643980  0.247430  1.0  1.55
  H  H21  1  0.724500  0.194300  0.994200  1.0  0.1184
  H  H22  1  0.929700  0.312000  0.928500  1.0  0.107
  H  H23  1  0.740400  0.035900  0.824300  1.0  0.1113
  H  H24  1  0.275500  0.269700  0.469800  1.0  0.1188
  H  H25  1  0.070300  0.998800  0.382300  1.0  0.1077
  H  H26  1  0.259600  0.083900  0.295500  1.0  0.1126
  H  H27  1  0.200100  0.005800  0.730300  1.0  0.1168
  H  H28  1  0.383500  0.071500  0.001200  1.0  0.1069
  H  H29  1  0.211600  0.175700  0.916100  1.0  0.1117
  H  H30  1  0.799900  0.530200  0.805700  1.0  0.1176
  H  H31  1  0.616500  0.617700  0.688000  1.0  0.1072
  H  H32  1  0.788400  0.704500  0.964100  1.0  0.1116
  H  H33  1  0.700100  0.480300  0.255800  1.0  0.1191
  H  H34  1  0.883500  0.751200  0.321500  1.0  0.1064
  H  H35  1  0.711600  0.666100  0.425700  1.0  0.1125
  H  H36  1  0.299900  0.555700  0.780200  1.0  0.1176
  H  H37  1  0.116500  0.438000  0.867700  1.0  0.1068
  H  H38  1  0.288400  0.714100  0.954500  1.0  0.1124
  H  H39  1  0.775500  0.219800  0.519700  1.0  0.1186
  H  H40  1  0.570300  0.132300  0.248800  1.0  0.1077
  H  H41  1  0.759600  0.045500  0.333900  1.0  0.1111
  H  H42  1  0.224500  0.744200  0.444300  1.0  0.1178
  H  H43  1  0.429700  0.678500  0.562000  1.0  0.1074
  H  H44  1  0.240400  0.574300  0.285900  1.0  0.1125
  H  H45  1  0.292300  0.868000  0.257500  1.0  0.1429
  H  H46  1  0.307400  0.809400  0.198400  1.0  0.1287
  H  H47  1  0.418600  0.928900  0.217500  1.0  0.1251
  H  H48  1  0.385600  0.984500  0.255900  1.0  0.1021
  H  H49  1  0.356900  0.024800  0.147100  1.0  0.1035
  H  H50  1  0.165800  0.832400  0.160600  1.0  0.1581
  H  H51  1  0.110500  0.784800  0.992500  1.0  0.1394
  H  H52  1  0.111000  0.859000  0.051600  1.0  0.1243
  H  H53  1  0.211400  0.951100  0.032500  1.0  0.1123
  H  H54  1  0.228600  0.879700  0.994100  1.0  0.0992
  H  H55  1  0.377700  0.959800  0.102900  1.0  0.1013
  H  H56  1  0.171800  0.755200  0.089400  1.0  0.1532
  H  H57  1  0.707700  0.965200  0.575700  1.0  0.1376
  H  H58  1  0.692600  0.891000  0.502000  1.0  0.1263
  H  H59  1  0.581400  0.798900  0.510300  1.0  0.1053
  H  H60  1  0.614400  0.870300  0.598900  1.0  0.1081
  H  H61  1  0.643100  0.790200  0.667900  1.0  0.0998
  H  H62  1  0.834200  0.994800  0.666667  1.0  0.158
  H  H63  1  0.889500  0.882000  0.674300  1.0  0.1452
  H  H64  1  0.889000  0.940600  0.748000  1.0  0.1227
  H  H65  1  0.788600  0.821100  0.739700  1.0  0.1064
  H  H66  1  0.771400  0.765500  0.651100  1.0  0.0981
  H  H67  1  0.622300  0.725200  0.582100  1.0  0.1024
  H  H68  1  0.828200  0.917600  0.583400  1.0  0.1552
  H  H69  1  0.610500  0.742500  0.034800  1.0  0.1403
  H  H70  1  0.611000  0.801600  0.109000  1.0  0.1239
  H  H71  1  0.711400  0.782500  0.201100  1.0  0.106
  H  H72  1  0.728600  0.744100  0.129700  1.0  0.1001
  H  H73  1  0.877700  0.852900  0.209800  1.0  0.1037
  H  H74  1  0.671800  0.839400  0.005200  1.0  0.1572
  H  H75  1  0.792300  0.007500  0.118000  1.0  0.1375
  H  H76  1  0.807400  0.948400  0.059400  1.0  0.1247
  H  H77  1  0.918600  0.967500  0.178900  1.0  0.1071
  H  H78  1  0.885600  0.005900  0.234500  1.0  0.1003
  H  H79  1  0.856900  0.897100  0.274800  1.0  0.0998
  H  H80  1  0.665800  0.910600  0.082400  1.0  0.1566
  H  H81  1  0.389500  0.424300  0.132000  1.0  0.1444
  H  H82  1  0.389000  0.498000  0.190600  1.0  0.1204
  H  H83  1  0.288600  0.489700  0.071100  1.0  0.1071
  H  H84  1  0.271400  0.401100  0.015500  1.0  0.1036
  H  H85  1  0.122300  0.332100  0.975200  1.0  0.0995
  H  H86  1  0.328200  0.333400  0.167600  1.0  0.1549
  H  H87  1  0.207700  0.325700  0.215200  1.0  0.1436
  H  H88  1  0.192600  0.252000  0.141000  1.0  0.1246
  H  H89  1  0.081400  0.260300  0.048900  1.0  0.1047
  H  H90  1  0.114400  0.348900  0.120300  1.0  0.1011
  H  H91  1  0.143100  0.417900  0.040200  1.0  0.1015
  H  H92  1  0.334200  0.416600  0.244800  1.0  0.1587
  C  C93  1  0.718600  0.100100  0.909500  1.0  -0.2281
  C  C94  1  0.753900  0.188300  0.962800  1.0  0.0417
  C  C95  1  0.832100  0.267200  0.970100  1.0  -0.145
  C  C96  1  0.876800  0.259100  0.923100  1.0  0.0012
  C  C97  1  0.842900  0.173300  0.868600  1.0  -0.143
  C  C98  1  0.763600  0.093900  0.861500  1.0  0.0395
  C  C99  1  0.663300  0.506500  0.636600  1.0  0.711
  C  C100  1  0.886900  0.161900  0.816000  1.0  0.6916
  C  C101  1  0.281400  0.190900  0.381500  1.0  -0.2284
  C  C102  1  0.246100  0.208900  0.434400  1.0  0.043
  C  C103  1  0.167900  0.138000  0.435100  1.0  -0.1456
  C  C104  1  0.123200  0.046300  0.382300  1.0  0.0006
  C  C105  1  0.157100  0.025700  0.330400  1.0  -0.1412
  C  C106  1  0.236400  0.097900  0.330300  1.0  0.0386
  C  C107  1  0.336700  0.973300  0.843200  1.0  0.7038
  C  C108  1  0.113100  0.929100  0.275000  1.0  0.6904
  C  C109  1  0.190600  0.090500  0.809100  1.0  -0.2281
  C  C110  1  0.225500  0.037200  0.791100  1.0  0.0406
  C  C111  1  0.297100  0.029900  0.862000  1.0  -0.144
  C  C112  1  0.336000  0.076900  0.953700  1.0  0.003
  C  C113  1  0.304700  0.131400  0.974300  1.0  -0.1387
  C  C114  1  0.232400  0.138500  0.902100  1.0  0.0402
  C  C115  1  0.869900  0.363400  0.026700  1.0  0.7102
  C  C116  1  0.345900  0.184000  0.070900  1.0  0.6911
  C  C117  1  0.809400  0.618500  0.899900  1.0  -0.2271
  C  C118  1  0.774500  0.565600  0.811700  1.0  0.043
  C  C119  1  0.702900  0.564900  0.732800  1.0  -0.1448
  C  C120  1  0.664000  0.617700  0.740900  1.0  -0.0016
  C  C121  1  0.695300  0.669600  0.826700  1.0  -0.1385
  C  C122  1  0.767600  0.669700  0.906100  1.0  0.0398
  C  C123  1  0.130100  0.156800  0.493500  1.0  0.7082
  C  C124  1  0.654100  0.725000  0.838100  1.0  0.6907
  C  C125  1  0.690600  0.559100  0.340500  1.0  -0.2292
  C  C126  1  0.725500  0.541100  0.287200  1.0  0.0425
  C  C127  1  0.797100  0.612000  0.279900  1.0  -0.1449
  C  C128  1  0.836000  0.703700  0.326900  1.0  0.001
  C  C129  1  0.804700  0.724300  0.381400  1.0  -0.1413
  C  C130  1  0.732400  0.652100  0.388500  1.0  0.038
  C  C131  1  0.369900  0.776700  0.613400  1.0  0.713
  C  C132  1  0.845900  0.820900  0.434000  1.0  0.6911
  C  C133  1  0.309400  0.649900  0.868500  1.0  -0.228
  C  C134  1  0.274500  0.561700  0.815600  1.0  0.0409
  C  C135  1  0.202900  0.482800  0.814900  1.0  -0.1447
  C  C136  1  0.164000  0.490900  0.867700  1.0  0.0023
  C  C137  1  0.195300  0.576700  0.919600  1.0  -0.1414
  C  C138  1  0.267600  0.656100  0.919700  1.0  0.0382
  C  C139  1  0.630100  0.243500  0.406800  1.0  0.7079
  C  C140  1  0.154100  0.588100  0.975000  1.0  0.6889
  C  C141  1  0.781400  0.131500  0.440900  1.0  -0.2293
  C  C142  1  0.746100  0.184400  0.458900  1.0  0.0427
  C  C143  1  0.667900  0.185100  0.388000  1.0  -0.1462
  C  C144  1  0.623200  0.132300  0.296300  1.0  -0.0029
  C  C145  1  0.657100  0.080400  0.275700  1.0  -0.1419
  C  C146  1  0.736400  0.080300  0.347900  1.0  0.0405
  C  C147  1  0.836700  0.593200  0.223300  1.0  0.7074
  C  C148  1  0.613100  0.025000  0.179100  1.0  0.6915
  C  C149  1  0.218600  0.659500  0.350100  1.0  -0.2293
  C  C150  1  0.253900  0.712800  0.438300  1.0  0.0431
  C  C151  1  0.332100  0.720100  0.517200  1.0  -0.1454
  C  C152  1  0.376800  0.673100  0.509100  1.0  1e-04
  C  C153  1  0.342900  0.618600  0.423300  1.0  -0.1404
  C  C154  1  0.263600  0.611500  0.343900  1.0  0.0385
  C  C155  1  0.163300  0.386600  0.756500  1.0  0.7057
  C  C156  1  0.386900  0.566000  0.411900  1.0  0.6888
  C  C157  1  0.287500  0.853100  0.199800  1.0  -0.0316
  C  C158  1  0.361100  0.933800  0.203500  1.0  -0.1824
  C  C159  1  0.153300  0.837700  0.050200  1.0  -0.0271
  C  C160  1  0.230300  0.907600  0.046500  1.0  -0.1853
  C  C161  1  0.336100  0.961100  0.125000  1.0  -0.1951
  C  C162  1  0.712500  0.912300  0.565600  1.0  -0.0296
  C  C163  1  0.638900  0.842400  0.572700  1.0  -0.1794
  C  C164  1  0.846700  0.896900  0.684400  1.0  -0.0274
  C  C165  1  0.769700  0.816200  0.677300  1.0  -0.1823
  C  C166  1  0.663900  0.788900  0.625000  1.0  -0.1958
  C  C167  1  0.653300  0.800200  0.087700  1.0  -0.0294
  C  C168  1  0.730300  0.796500  0.157600  1.0  -0.1851
  C  C169  1  0.787500  0.949800  0.103100  1.0  -0.0301
  C  C170  1  0.861100  0.953500  0.183800  1.0  -0.1847
  C  C171  1  0.836100  0.875000  0.211100  1.0  -0.1963
  C  C172  1  0.346700  0.434400  0.146900  1.0  -0.0299
  C  C173  1  0.269700  0.427300  0.066200  1.0  -0.1856
  C  C174  1  0.212500  0.315600  0.162300  1.0  -0.0296
  C  C175  1  0.138900  0.322700  0.092400  1.0  -0.1823
  C  C176  1  0.163900  0.375000  0.038900  1.0  -0.1953
  N  N177  1  0.179300  0.804300  0.125000  1.0  -0.1052
  N  N178  1  0.820700  0.945700  0.625000  1.0  -0.1028
  N  N179  1  0.679300  0.875000  0.054300  1.0  -0.1039
  N  N180  1  0.320700  0.375000  0.195700  1.0  -0.1068
  O  O181  1  0.834000  0.538400  0.021200  1.0  -0.7405
  O  O182  1  0.620300  0.017300  0.983200  1.0  -0.809
  O  O183  1  0.955100  0.710300  0.078800  1.0  -0.806
  O  O184  1  0.604200  0.514400  0.572000  1.0  -0.6414
  O  O185  1  0.695000  0.455500  0.630300  1.0  -0.5936
  O  O186  1  0.952600  0.236400  0.818200  1.0  -0.5962
  O  O187  1  0.687000  0.775000  0.913400  1.0  -0.6028
  O  O188  1  0.166000  0.187200  0.704400  1.0  -0.7415
  O  O189  1  0.379700  0.362900  0.397000  1.0  -0.8049
  O  O190  1  0.044900  0.123700  0.755200  1.0  -0.8091
  O  O191  1  0.395800  0.967800  0.910200  1.0  -0.6429
  O  O192  1  0.305000  0.935300  0.760500  1.0  -0.5938
  O  O193  1  0.047400  0.865600  0.283800  1.0  -0.5965
  O  O194  1  0.313000  0.226400  0.088000  1.0  -0.6024
  O  O195  1  0.517200  0.978800  0.812800  1.0  -0.7429
  O  O196  1  0.034100  0.016800  0.637100  1.0  -0.8066
  O  O197  1  0.631500  0.921200  0.876300  1.0  -0.807
  O  O198  1  0.942400  0.428000  0.032200  1.0  -0.643
  O  O199  1  0.825200  0.369700  0.064700  1.0  -0.5942
  O  O200  1  0.418200  0.181800  0.134400  1.0  -0.5965
  O  O201  1  0.861600  0.086600  0.773600  1.0  -0.6037
  O  O202  1  0.482800  0.295600  0.461600  1.0  -0.7405
  O  O203  1  0.965900  0.603000  0.982700  1.0  -0.8074
  O  O204  1  0.368500  0.244800  0.289700  1.0  -0.8082
  O  O205  1  0.057600  0.089800  0.485600  1.0  -0.6449
  O  O206  1  0.174800  0.239500  0.544500  1.0  -0.5927
  O  O207  1  0.581800  0.716200  0.763600  1.0  -0.5971
  O  O208  1  0.138400  0.912000  0.225000  1.0  -0.6048
  O  O209  1  0.017200  0.562800  0.228800  1.0  -0.7407
  O  O210  1  0.534100  0.387100  0.266800  1.0  -0.8069
  O  O211  1  0.131500  0.626300  0.171200  1.0  -0.8064
  O  O212  1  0.442400  0.782200  0.678000  1.0  -0.6401
  O  O213  1  0.325200  0.814700  0.619700  1.0  -0.5947
  O  O214  1  0.918200  0.884400  0.431800  1.0  -0.5971
  O  O215  1  0.361600  0.523600  0.336600  1.0  -0.6012
  O  O216  1  0.982800  0.211600  0.545600  1.0  -0.7433
  O  O217  1  0.465900  0.732700  0.853000  1.0  -0.81
  O  O218  1  0.868500  0.039700  0.494800  1.0  -0.806
  O  O219  1  0.557600  0.235600  0.339800  1.0  -0.6405
  O  O220  1  0.674800  0.294500  0.489500  1.0  -0.5947
  O  O221  1  0.081800  0.513600  0.966200  1.0  -0.5963
  O  O222  1  0.638400  0.975000  0.162000  1.0  -0.6032
  O  O223  1  0.666000  0.454400  0.437200  1.0  -0.7387
  O  O224  1  0.879700  0.147000  0.612900  1.0  -0.8071
  O  O225  1  0.544900  0.505200  0.373700  1.0  -0.8074
  O  O226  1  0.895800  0.660200  0.217800  1.0  -0.6443
  O  O227  1  0.805000  0.510500  0.185300  1.0  -0.5918
  O  O228  1  0.547400  0.033800  0.115600  1.0  -0.5937
  O  O229  1  0.813000  0.838000  0.476400  1.0  -0.6051
  O  O230  1  0.334000  0.771200  0.788400  1.0  -0.7398
  O  O231  1  0.120300  0.733200  0.267300  1.0  -0.8052
  O  O232  1  0.455100  0.828800  0.960300  1.0  -0.8082
  O  O233  1  0.104200  0.322000  0.764400  1.0  -0.6439
  O  O234  1  0.195000  0.380300  0.705500  1.0  -0.5939
  O  O235  1  0.452600  0.568200  0.486400  1.0  -0.5925
  O  O236  1  0.187000  0.663400  0.025000  1.0  -0.6023
