# generated using pymatgen
data_Ti2P3(HO6)2
_symmetry_space_group_name_H-M   'P 1'
_cell_length_a   12.70200000
_cell_length_b   9.36500000
_cell_length_c   11.25300000
_cell_angle_alpha   90.00000000
_cell_angle_beta   90.00000000
_cell_angle_gamma   90.00000000
_symmetry_Int_Tables_number   1
_chemical_formula_structural   Ti2P3(HO6)2
_chemical_formula_sum   'Ti8 P12 H8 O48'
_cell_volume   1338.59195019
_cell_formula_units_Z   4
loop_
 _symmetry_equiv_pos_site_id
 _symmetry_equiv_pos_as_xyz
  1  'x, y, z'
loop_
 _atom_site_type_symbol
 _atom_site_label
 _atom_site_symmetry_multiplicity
 _atom_site_fract_x
 _atom_site_fract_y
 _atom_site_fract_z
 _atom_site_occupancy
 _atom_site_charge
  Ti  Ti1  1  0.257990  0.250000  0.250000  1.0  1.941
  Ti  Ti2  1  0.242010  0.750000  0.250000  1.0  1.9404
  Ti  Ti3  1  0.742010  0.750000  0.750000  1.0  1.9404
  Ti  Ti4  1  0.757990  0.250000  0.750000  1.0  1.941
  Ti  Ti5  1  0.000000  0.000000  0.000000  1.0  1.6243
  Ti  Ti6  1  0.500000  0.000000  0.000000  1.0  1.6243
  Ti  Ti7  1  0.500000  0.500000  0.500000  1.0  1.6243
  Ti  Ti8  1  0.000000  0.500000  0.500000  1.0  1.6243
  P  P9  1  0.424720  0.511600  0.200560  1.0  1.7958
  P  P10  1  0.075280  0.488400  0.200560  1.0  1.7938
  P  P11  1  0.075280  0.011600  0.299440  1.0  1.7943
  P  P12  1  0.424720  0.988400  0.299440  1.0  1.7962
  P  P13  1  0.575280  0.488400  0.799440  1.0  1.7943
  P  P14  1  0.924720  0.511600  0.799440  1.0  1.7961
  P  P15  1  0.924720  0.988400  0.700560  1.0  1.7959
  P  P16  1  0.575280  0.011600  0.700560  1.0  1.7937
  P  P17  1  0.250000  0.000000  0.033700  1.0  2.0409
  P  P18  1  0.250000  0.500000  0.466300  1.0  2.0444
  P  P19  1  0.750000  0.000000  0.966300  1.0  2.0446
  P  P20  1  0.750000  0.500000  0.533700  1.0  2.0411
  H  H21  1  0.569700  0.503200  0.138600  1.0  0.4523
  H  H22  1  0.930300  0.496800  0.138600  1.0  0.4544
  H  H23  1  0.930300  0.003200  0.361400  1.0  0.4543
  H  H24  1  0.569700  0.996800  0.361400  1.0  0.4521
  H  H25  1  0.430300  0.496800  0.861400  1.0  0.4597
  H  H26  1  0.069700  0.503200  0.861400  1.0  0.4574
  H  H27  1  0.069700  0.996800  0.638600  1.0  0.4574
  H  H28  1  0.430300  0.003200  0.638600  1.0  0.4602
  O  O29  1  0.237800  0.868200  0.112400  1.0  -0.9405
  O  O30  1  0.514100  0.530600  0.109500  1.0  -0.6911
  O  O31  1  0.373200  0.367800  0.176700  1.0  -0.8418
  O  O32  1  0.344900  0.629900  0.176800  1.0  -0.9401
  O  O33  1  0.153400  0.014800  0.955900  1.0  -0.7548
  O  O34  1  0.031000  0.477300  0.324700  1.0  -0.8876
  O  O35  1  0.262200  0.131800  0.112400  1.0  -0.9421
  O  O36  1  0.985900  0.469400  0.109500  1.0  -0.6889
  O  O37  1  0.126800  0.632200  0.176700  1.0  -0.8408
  O  O38  1  0.155100  0.370100  0.176800  1.0  -0.9395
  O  O39  1  0.346600  0.985200  0.955900  1.0  -0.7541
  O  O40  1  0.469000  0.522700  0.324700  1.0  -0.8872
  O  O41  1  0.262200  0.368200  0.387600  1.0  -0.94
  O  O42  1  0.985900  0.030600  0.390500  1.0  -0.6894
  O  O43  1  0.126800  0.867800  0.323300  1.0  -0.8418
  O  O44  1  0.155100  0.129900  0.323200  1.0  -0.94
  O  O45  1  0.346600  0.514800  0.544100  1.0  -0.7544
  O  O46  1  0.469000  0.977300  0.175300  1.0  -0.8886
  O  O47  1  0.237800  0.631800  0.387600  1.0  -0.9415
  O  O48  1  0.514100  0.969400  0.390500  1.0  -0.6906
  O  O49  1  0.373200  0.132200  0.323300  1.0  -0.8414
  O  O50  1  0.344900  0.870100  0.323200  1.0  -0.9405
  O  O51  1  0.153400  0.485200  0.544100  1.0  -0.7544
  O  O52  1  0.031000  0.022700  0.175300  1.0  -0.8889
  O  O53  1  0.762200  0.131800  0.887600  1.0  -0.9416
  O  O54  1  0.485900  0.469400  0.890500  1.0  -0.6878
  O  O55  1  0.626800  0.632200  0.823300  1.0  -0.8413
  O  O56  1  0.655100  0.370100  0.823200  1.0  -0.9401
  O  O57  1  0.846600  0.985200  0.044100  1.0  -0.7541
  O  O58  1  0.969000  0.522700  0.675300  1.0  -0.8872
  O  O59  1  0.737800  0.868200  0.887600  1.0  -0.9399
  O  O60  1  0.014100  0.530600  0.890500  1.0  -0.6918
  O  O61  1  0.873200  0.367800  0.823300  1.0  -0.842
  O  O62  1  0.844900  0.629900  0.823200  1.0  -0.9404
  O  O63  1  0.653400  0.014800  0.044100  1.0  -0.7547
  O  O64  1  0.531000  0.477300  0.675300  1.0  -0.8889
  O  O65  1  0.737800  0.631800  0.612400  1.0  -0.9418
  O  O66  1  0.014100  0.969400  0.609500  1.0  -0.6901
  O  O67  1  0.873200  0.132200  0.676700  1.0  -0.8407
  O  O68  1  0.844900  0.870100  0.676800  1.0  -0.9403
  O  O69  1  0.653400  0.485200  0.455900  1.0  -0.7546
  O  O70  1  0.531000  0.022700  0.824700  1.0  -0.8879
  O  O71  1  0.762200  0.368200  0.612400  1.0  -0.9408
  O  O72  1  0.485900  0.030600  0.609500  1.0  -0.6903
  O  O73  1  0.626800  0.867800  0.676700  1.0  -0.8419
  O  O74  1  0.655100  0.129900  0.676800  1.0  -0.9392
  O  O75  1  0.846600  0.514800  0.455900  1.0  -0.7542
  O  O76  1  0.969000  0.977300  0.824700  1.0  -0.8874
