# generated using pymatgen
data_Co4H24C37O22
_symmetry_space_group_name_H-M   'P 1'
_cell_length_a   11.25200000
_cell_length_b   20.07800000
_cell_length_c   20.07800000
_cell_angle_alpha   90.00000000
_cell_angle_beta   90.00000000
_cell_angle_gamma   90.00000000
_symmetry_Int_Tables_number   1
_chemical_formula_structural   Co4H24C37O22
_chemical_formula_sum   'Co8 H48 C74 O44'
_cell_volume   4535.97469717
_cell_formula_units_Z   2
loop_
 _symmetry_equiv_pos_site_id
 _symmetry_equiv_pos_as_xyz
  1  'x, y, z'
loop_
 _atom_site_type_symbol
 _atom_site_label
 _atom_site_symmetry_multiplicity
 _atom_site_fract_x
 _atom_site_fract_y
 _atom_site_fract_z
 _atom_site_occupancy
 _atom_site_charge
  Co  Co1  1  0.536430  0.255360  0.755360  1.0  1.0349
  Co  Co2  1  0.419890  0.372260  0.872260  1.0  1.0367
  Co  Co3  1  0.536430  0.744640  0.244640  1.0  1.0339
  Co  Co4  1  0.419890  0.627740  0.127740  1.0  1.0401
  Co  Co5  1  0.463570  0.755360  0.744640  1.0  1.0334
  Co  Co6  1  0.580110  0.872260  0.627740  1.0  1.0348
  Co  Co7  1  0.463570  0.244640  0.255360  1.0  1.0355
  Co  Co8  1  0.580110  0.127740  0.372260  1.0  1.0384
  H  H9  1  0.344800  0.319300  0.770900  1.0  0.3641
  H  H10  1  0.747900  0.163000  0.900400  1.0  0.1075
  H  H11  1  0.789000  0.122400  0.095000  1.0  0.0903
  H  H12  1  0.557400  0.264000  0.036600  1.0  0.1152
  H  H13  1  0.970100  0.087200  0.054700  1.0  0.0698
  H  H14  1  0.863600  0.034400  0.062000  1.0  0.0771
  H  H15  1  0.344800  0.680700  0.229100  1.0  0.3623
  H  H16  1  0.747900  0.837000  0.099600  1.0  0.1064
  H  H17  1  0.789000  0.877600  0.905000  1.0  0.0893
  H  H18  1  0.557400  0.736000  0.963400  1.0  0.1146
  H  H19  1  0.970100  0.912800  0.945300  1.0  0.0696
  H  H20  1  0.863600  0.965600  0.938000  1.0  0.077
  H  H21  1  0.655200  0.770900  0.680700  1.0  0.3622
  H  H22  1  0.252100  0.900400  0.837000  1.0  0.1059
  H  H23  1  0.211000  0.095000  0.877600  1.0  0.0889
  H  H24  1  0.442600  0.036600  0.736000  1.0  0.1157
  H  H25  1  0.029900  0.054700  0.912800  1.0  0.0698
  H  H26  1  0.136400  0.062000  0.965600  1.0  0.074
  H  H27  1  0.655200  0.229100  0.319300  1.0  0.3635
  H  H28  1  0.252100  0.099600  0.163000  1.0  0.1065
  H  H29  1  0.211000  0.905000  0.122400  1.0  0.0876
  H  H30  1  0.442600  0.963400  0.264000  1.0  0.1158
  H  H31  1  0.029900  0.945300  0.087200  1.0  0.0702
  H  H32  1  0.136400  0.938000  0.034400  1.0  0.0749
  H  H33  1  0.655200  0.180700  0.270900  1.0  0.3619
  H  H34  1  0.252100  0.337000  0.400400  1.0  0.1072
  H  H35  1  0.211000  0.377600  0.595000  1.0  0.0901
  H  H36  1  0.442600  0.236000  0.536600  1.0  0.1148
  H  H37  1  0.029900  0.412800  0.554700  1.0  0.0698
  H  H38  1  0.136400  0.465600  0.562000  1.0  0.0758
  H  H39  1  0.655200  0.819300  0.729100  1.0  0.3621
  H  H40  1  0.252100  0.663000  0.599600  1.0  0.1067
  H  H41  1  0.211000  0.622400  0.405000  1.0  0.0904
  H  H42  1  0.442600  0.764000  0.463400  1.0  0.1154
  H  H43  1  0.029900  0.587200  0.445300  1.0  0.0702
  H  H44  1  0.136400  0.534400  0.438000  1.0  0.0769
  H  H45  1  0.344800  0.729100  0.180700  1.0  0.3647
  H  H46  1  0.747900  0.599600  0.337000  1.0  0.1063
  H  H47  1  0.789000  0.405000  0.377600  1.0  0.0876
  H  H48  1  0.557400  0.463400  0.236000  1.0  0.1159
  H  H49  1  0.970100  0.445300  0.412800  1.0  0.0699
  H  H50  1  0.863600  0.438000  0.465600  1.0  0.0758
  H  H51  1  0.344800  0.270900  0.819300  1.0  0.3651
  H  H52  1  0.747900  0.400400  0.663000  1.0  0.1063
  H  H53  1  0.789000  0.595000  0.622400  1.0  0.0884
  H  H54  1  0.557400  0.536600  0.764000  1.0  0.1155
  H  H55  1  0.970100  0.554700  0.587200  1.0  0.07
  H  H56  1  0.863600  0.562000  0.534400  1.0  0.0752
  C  C57  1  0.594200  0.259200  0.903700  1.0  0.7445
  C  C58  1  0.646900  0.219900  0.959500  1.0  -0.1387
  C  C59  1  0.727500  0.171400  0.945600  1.0  -0.0938
  C  C60  1  0.783000  0.132400  0.997400  1.0  0.308
  C  C61  1  0.750800  0.145400  0.059700  1.0  -0.1926
  C  C62  1  0.662300  0.192000  0.074800  1.0  -0.1119
  C  C63  1  0.613600  0.230400  0.025800  1.0  0.0213
  C  C64  1  0.627800  0.201100  0.148200  1.0  0.6872
  C  C65  1  0.920900  0.054400  0.030400  1.0  0.0673
  C  C66  1  0.594200  0.740800  0.096300  1.0  0.7443
  C  C67  1  0.646900  0.780100  0.040500  1.0  -0.1388
  C  C68  1  0.727500  0.828600  0.054400  1.0  -0.0935
  C  C69  1  0.783000  0.867600  0.002600  1.0  0.307
  C  C70  1  0.750800  0.854600  0.940300  1.0  -0.1927
  C  C71  1  0.662300  0.808000  0.925200  1.0  -0.1131
  C  C72  1  0.613600  0.769600  0.974200  1.0  0.0215
  C  C73  1  0.627800  0.798900  0.851800  1.0  0.6866
  C  C74  1  0.920900  0.945600  0.969600  1.0  0.0687
  C  C75  1  0.405800  0.903700  0.740800  1.0  0.742
  C  C76  1  0.353100  0.959500  0.780100  1.0  -0.1396
  C  C77  1  0.272500  0.945600  0.828600  1.0  -0.094
  C  C78  1  0.217000  0.997400  0.867600  1.0  0.3059
  C  C79  1  0.249200  0.059700  0.854600  1.0  -0.1937
  C  C80  1  0.337700  0.074800  0.808000  1.0  -0.1117
  C  C81  1  0.386400  0.025800  0.769600  1.0  0.0193
  C  C82  1  0.372200  0.148200  0.798900  1.0  0.686
  C  C83  1  0.079100  0.030400  0.945600  1.0  0.0688
  C  C84  1  0.405800  0.096300  0.259200  1.0  0.7427
  C  C85  1  0.353100  0.040500  0.219900  1.0  -0.1394
  C  C86  1  0.272500  0.054400  0.171400  1.0  -0.0945
  C  C87  1  0.217000  0.002600  0.132400  1.0  0.3053
  C  C88  1  0.249200  0.940300  0.145400  1.0  -0.1939
  C  C89  1  0.337700  0.925200  0.192000  1.0  -0.1111
  C  C90  1  0.386400  0.974200  0.230400  1.0  0.0206
  C  C91  1  0.372200  0.851800  0.201100  1.0  0.6859
  C  C92  1  0.079100  0.969600  0.054400  1.0  0.0707
  C  C93  1  0.405800  0.240800  0.403700  1.0  0.7433
  C  C94  1  0.353100  0.280100  0.459500  1.0  -0.1382
  C  C95  1  0.272500  0.328600  0.445600  1.0  -0.0937
  C  C96  1  0.217000  0.367600  0.497400  1.0  0.3071
  C  C97  1  0.249200  0.354600  0.559700  1.0  -0.1923
  C  C98  1  0.337700  0.308000  0.574800  1.0  -0.1131
  C  C99  1  0.386400  0.269600  0.525800  1.0  0.0216
  C  C100  1  0.372200  0.298900  0.648200  1.0  0.6868
  C  C101  1  0.079100  0.445600  0.530400  1.0  0.0676
  C  C102  1  0.405800  0.759200  0.596300  1.0  0.7431
  C  C103  1  0.353100  0.719900  0.540500  1.0  -0.1381
  C  C104  1  0.272500  0.671400  0.554400  1.0  -0.0953
  C  C105  1  0.217000  0.632400  0.502600  1.0  0.3066
  C  C106  1  0.249200  0.645400  0.440300  1.0  -0.1924
  C  C107  1  0.337700  0.692000  0.425200  1.0  -0.1135
  C  C108  1  0.386400  0.730400  0.474200  1.0  0.0211
  C  C109  1  0.372200  0.701100  0.351800  1.0  0.6849
  C  C110  1  0.079100  0.554400  0.469600  1.0  0.0676
  C  C111  1  0.594200  0.596300  0.240800  1.0  0.7431
  C  C112  1  0.646900  0.540500  0.280100  1.0  -0.1401
  C  C113  1  0.727500  0.554400  0.328600  1.0  -0.0937
  C  C114  1  0.783000  0.502600  0.367600  1.0  0.306
  C  C115  1  0.750800  0.440300  0.354600  1.0  -0.1938
  C  C116  1  0.662300  0.425200  0.308000  1.0  -0.111
  C  C117  1  0.613600  0.474200  0.269600  1.0  0.0198
  C  C118  1  0.627800  0.351800  0.298900  1.0  0.6857
  C  C119  1  0.920900  0.469600  0.445600  1.0  0.0702
  C  C120  1  0.594200  0.403700  0.759200  1.0  0.7441
  C  C121  1  0.646900  0.459500  0.719900  1.0  -0.1396
  C  C122  1  0.727500  0.445600  0.671400  1.0  -0.0932
  C  C123  1  0.783000  0.497400  0.632400  1.0  0.3055
  C  C124  1  0.750800  0.559700  0.645400  1.0  -0.1935
  C  C125  1  0.662300  0.574800  0.692000  1.0  -0.1105
  C  C126  1  0.613600  0.525800  0.730400  1.0  0.0202
  C  C127  1  0.627800  0.648200  0.701100  1.0  0.685
  C  C128  1  0.920900  0.530400  0.554400  1.0  0.0711
  C  C129  1  0.000000  0.000000  0.000000  1.0  -0.0273
  C  C130  1  0.000000  0.500000  0.500000  1.0  -0.0273
  O  O131  1  0.614800  0.240110  0.846400  1.0  -0.6232
  O  O132  1  0.530400  0.308600  0.920540  1.0  -0.655
  O  O133  1  0.540100  0.236680  0.161670  1.0  -0.5834
  O  O134  1  0.690700  0.170200  0.189900  1.0  -0.5869
  O  O135  1  0.860100  0.085700  0.977980  1.0  -0.2758
  O  O136  1  0.614800  0.759890  0.153600  1.0  -0.6237
  O  O137  1  0.530400  0.691400  0.079460  1.0  -0.6547
  O  O138  1  0.540100  0.763320  0.838330  1.0  -0.5844
  O  O139  1  0.690700  0.829800  0.810100  1.0  -0.5881
  O  O140  1  0.860100  0.914300  0.022020  1.0  -0.2775
  O  O141  1  0.385200  0.846400  0.759890  1.0  -0.6275
  O  O142  1  0.469600  0.920540  0.691400  1.0  -0.6589
  O  O143  1  0.459900  0.161670  0.763320  1.0  -0.5834
  O  O144  1  0.309300  0.189900  0.829800  1.0  -0.5854
  O  O145  1  0.139900  0.977980  0.914300  1.0  -0.2749
  O  O146  1  0.385200  0.153600  0.240110  1.0  -0.6297
  O  O147  1  0.469600  0.079460  0.308600  1.0  -0.6563
  O  O148  1  0.459900  0.838330  0.236680  1.0  -0.5837
  O  O149  1  0.309300  0.810100  0.170200  1.0  -0.5851
  O  O150  1  0.139900  0.022020  0.085700  1.0  -0.2765
  O  O151  1  0.385200  0.259890  0.346400  1.0  -0.6246
  O  O152  1  0.469600  0.191400  0.420540  1.0  -0.6559
  O  O153  1  0.459900  0.263320  0.661670  1.0  -0.5843
  O  O154  1  0.309300  0.329800  0.689900  1.0  -0.5859
  O  O155  1  0.139900  0.414300  0.477980  1.0  -0.2758
  O  O156  1  0.385200  0.740110  0.653600  1.0  -0.6241
  O  O157  1  0.469600  0.808600  0.579460  1.0  -0.6572
  O  O158  1  0.459900  0.736680  0.338330  1.0  -0.5842
  O  O159  1  0.309300  0.670200  0.310100  1.0  -0.5849
  O  O160  1  0.139900  0.585700  0.522020  1.0  -0.2758
  O  O161  1  0.614800  0.653600  0.259890  1.0  -0.6279
  O  O162  1  0.530400  0.579460  0.191400  1.0  -0.6543
  O  O163  1  0.540100  0.338330  0.263320  1.0  -0.5834
  O  O164  1  0.690700  0.310100  0.329800  1.0  -0.5868
  O  O165  1  0.860100  0.522020  0.414300  1.0  -0.276
  O  O166  1  0.614800  0.346400  0.740110  1.0  -0.6284
  O  O167  1  0.530400  0.420540  0.808600  1.0  -0.6549
  O  O168  1  0.540100  0.661670  0.736680  1.0  -0.5827
  O  O169  1  0.690700  0.689900  0.670200  1.0  -0.5874
  O  O170  1  0.860100  0.477980  0.585700  1.0  -0.2747
  O  O171  1  0.384800  0.302890  0.802890  1.0  -0.8184
  O  O172  1  0.384800  0.697110  0.197110  1.0  -0.8169
  O  O173  1  0.615200  0.802890  0.697110  1.0  -0.8162
  O  O174  1  0.615200  0.197110  0.302890  1.0  -0.8172
