# generated using pymatgen
data_Zn4H36C48O19
_symmetry_space_group_name_H-M   'P 1'
_cell_length_a   17.10310000
_cell_length_b   17.10310000
_cell_length_c   17.10310000
_cell_angle_alpha   87.66670000
_cell_angle_beta   87.66670000
_cell_angle_gamma   87.66670000
_symmetry_Int_Tables_number   1
_chemical_formula_structural   Zn4H36C48O19
_chemical_formula_sum   'Zn8 H72 C96 O38'
_cell_volume   4990.81523832
_cell_formula_units_Z   2
loop_
 _symmetry_equiv_pos_site_id
 _symmetry_equiv_pos_as_xyz
  1  'x, y, z'
loop_
 _atom_site_type_symbol
 _atom_site_label
 _atom_site_symmetry_multiplicity
 _atom_site_fract_x
 _atom_site_fract_y
 _atom_site_fract_z
 _atom_site_occupancy
 _atom_site_charge
  Zn  Zn1  1  0.884250  0.884280  0.753740  1.0  1.0662
  Zn  Zn2  1  0.753740  0.884250  0.884280  1.0  1.0663
  Zn  Zn3  1  0.884280  0.753740  0.884250  1.0  1.0659
  Zn  Zn4  1  0.753470  0.753470  0.753470  1.0  1.1907
  Zn  Zn5  1  0.115750  0.115720  0.246260  1.0  1.0659
  Zn  Zn6  1  0.246260  0.115750  0.115720  1.0  1.0663
  Zn  Zn7  1  0.115720  0.246260  0.115750  1.0  1.0659
  Zn  Zn8  1  0.246530  0.246530  0.246530  1.0  1.1912
  H  H9  1  0.908600  0.914000  0.503300  1.0  0.11
  H  H10  1  0.762100  0.731700  0.386300  1.0  0.115
  H  H11  1  0.770200  0.729000  0.521600  1.0  0.1083
  H  H12  1  0.990100  0.014300  0.342800  1.0  0.1008
  H  H13  1  0.949100  0.000700  0.427700  1.0  0.0799
  H  H14  1  0.016100  0.940100  0.397000  1.0  0.0788
  H  H15  1  0.717800  0.884100  0.134200  1.0  0.104
  H  H16  1  0.923800  0.751600  0.258100  1.0  0.1085
  H  H17  1  0.916200  0.749500  0.122600  1.0  0.1003
  H  H18  1  0.608700  0.963000  0.281400  1.0  0.0996
  H  H19  1  0.660300  0.972200  0.201700  1.0  0.0758
  H  H20  1  0.613000  0.894300  0.220400  1.0  0.0783
  H  H21  1  0.503300  0.908600  0.914000  1.0  0.1084
  H  H22  1  0.386300  0.762100  0.731700  1.0  0.114
  H  H23  1  0.521600  0.770200  0.729000  1.0  0.1102
  H  H24  1  0.342800  0.990100  0.014300  1.0  0.1
  H  H25  1  0.427700  0.949100  0.000700  1.0  0.0815
  H  H26  1  0.397000  0.016100  0.940100  1.0  0.0792
  H  H27  1  0.134200  0.717800  0.884100  1.0  0.1039
  H  H28  1  0.258100  0.923800  0.751600  1.0  0.1079
  H  H29  1  0.122600  0.916200  0.749500  1.0  0.1008
  H  H30  1  0.281400  0.608700  0.963000  1.0  0.1023
  H  H31  1  0.201700  0.660300  0.972200  1.0  0.077
  H  H32  1  0.220400  0.613000  0.894300  1.0  0.0759
  H  H33  1  0.914000  0.503300  0.908600  1.0  0.109
  H  H34  1  0.731700  0.386300  0.762100  1.0  0.1148
  H  H35  1  0.729000  0.521600  0.770200  1.0  0.1088
  H  H36  1  0.014300  0.342800  0.990100  1.0  0.1016
  H  H37  1  0.000700  0.427700  0.949100  1.0  0.0808
  H  H38  1  0.940100  0.397000  0.016100  1.0  0.0748
  H  H39  1  0.884100  0.134200  0.717800  1.0  0.1041
  H  H40  1  0.751600  0.258100  0.923800  1.0  0.1075
  H  H41  1  0.749500  0.122600  0.916200  1.0  0.1001
  H  H42  1  0.963000  0.281400  0.608700  1.0  0.1004
  H  H43  1  0.972200  0.201700  0.660300  1.0  0.0778
  H  H44  1  0.894300  0.220400  0.613000  1.0  0.0749
  H  H45  1  0.091400  0.086000  0.496700  1.0  0.1097
  H  H46  1  0.237900  0.268300  0.613700  1.0  0.1157
  H  H47  1  0.229800  0.271000  0.478400  1.0  0.1092
  H  H48  1  0.009900  0.985700  0.657200  1.0  0.1002
  H  H49  1  0.050900  0.999300  0.572300  1.0  0.0799
  H  H50  1  0.983900  0.059900  0.603000  1.0  0.0736
  H  H51  1  0.282200  0.115900  0.865800  1.0  0.1038
  H  H52  1  0.076200  0.248400  0.741900  1.0  0.108
  H  H53  1  0.083800  0.250500  0.877400  1.0  0.1001
  H  H54  1  0.391300  0.037000  0.718600  1.0  0.1
  H  H55  1  0.339700  0.027800  0.798300  1.0  0.0773
  H  H56  1  0.387000  0.105700  0.779600  1.0  0.0803
  H  H57  1  0.496700  0.091400  0.086000  1.0  0.1085
  H  H58  1  0.613700  0.237900  0.268300  1.0  0.1149
  H  H59  1  0.478400  0.229800  0.271000  1.0  0.1098
  H  H60  1  0.657200  0.009900  0.985700  1.0  0.0995
  H  H61  1  0.572300  0.050900  0.999300  1.0  0.0798
  H  H62  1  0.603000  0.983900  0.059900  1.0  0.0771
  H  H63  1  0.865800  0.282200  0.115900  1.0  0.1036
  H  H64  1  0.741900  0.076200  0.248400  1.0  0.1073
  H  H65  1  0.877400  0.083800  0.250500  1.0  0.1012
  H  H66  1  0.718600  0.391300  0.037000  1.0  0.1006
  H  H67  1  0.798300  0.339700  0.027800  1.0  0.0764
  H  H68  1  0.779600  0.387000  0.105700  1.0  0.0774
  H  H69  1  0.086000  0.496700  0.091400  1.0  0.1091
  H  H70  1  0.268300  0.613700  0.237900  1.0  0.1147
  H  H71  1  0.271000  0.478400  0.229800  1.0  0.1093
  H  H72  1  0.985700  0.657200  0.009900  1.0  0.103
  H  H73  1  0.999300  0.572300  0.050900  1.0  0.081
  H  H74  1  0.059900  0.603000  0.983900  1.0  0.0732
  H  H75  1  0.115900  0.865800  0.282200  1.0  0.1041
  H  H76  1  0.248400  0.741900  0.076200  1.0  0.1083
  H  H77  1  0.250500  0.877400  0.083800  1.0  0.1005
  H  H78  1  0.037000  0.718600  0.391300  1.0  0.1014
  H  H79  1  0.027800  0.798300  0.339700  1.0  0.0815
  H  H80  1  0.105700  0.779600  0.387000  1.0  0.0772
  C  C81  1  0.842900  0.820500  0.612400  1.0  0.7435
  C  C82  1  0.839200  0.821400  0.524900  1.0  -0.1141
  C  C83  1  0.878900  0.876600  0.479200  1.0  -0.1993
  C  C84  1  0.875600  0.877200  0.398800  1.0  0.2152
  C  C85  1  0.832200  0.822200  0.363700  1.0  -0.0123
  C  C86  1  0.792800  0.768600  0.409900  1.0  -0.1179
  C  C87  1  0.796900  0.767500  0.490300  1.0  -0.0819
  C  C88  1  0.972000  0.974000  0.382000  1.0  -0.0142
  C  C89  1  0.810800  0.819500  0.028400  1.0  0.7061
  C  C90  1  0.816900  0.819000  0.115200  1.0  -0.0982
  C  C91  1  0.760600  0.857800  0.159100  1.0  -0.216
  C  C92  1  0.765400  0.859500  0.239900  1.0  0.2436
  C  C93  1  0.827400  0.821800  0.276500  1.0  -0.0331
  C  C94  1  0.882400  0.779900  0.232800  1.0  -0.113
  C  C95  1  0.877800  0.778400  0.152500  1.0  -0.0632
  C  C96  1  0.642500  0.935200  0.243300  1.0  -0.0133
  C  C97  1  0.612400  0.842900  0.820500  1.0  0.7397
  C  C98  1  0.524900  0.839200  0.821400  1.0  -0.1145
  C  C99  1  0.479200  0.878900  0.876600  1.0  -0.1984
  C  C100  1  0.398800  0.875600  0.877200  1.0  0.2143
  C  C101  1  0.363700  0.832200  0.822200  1.0  -0.0103
  C  C102  1  0.409900  0.792800  0.768600  1.0  -0.1198
  C  C103  1  0.490300  0.796900  0.767500  1.0  -0.0838
  C  C104  1  0.382000  0.972000  0.974000  1.0  -0.0157
  C  C105  1  0.028400  0.810800  0.819500  1.0  0.705
  C  C106  1  0.115200  0.816900  0.819000  1.0  -0.0996
  C  C107  1  0.159100  0.760600  0.857800  1.0  -0.2144
  C  C108  1  0.239900  0.765400  0.859500  1.0  0.2424
  C  C109  1  0.276500  0.827400  0.821800  1.0  -0.0332
  C  C110  1  0.232800  0.882400  0.779900  1.0  -0.1129
  C  C111  1  0.152500  0.877800  0.778400  1.0  -0.0662
  C  C112  1  0.243300  0.642500  0.935200  1.0  -0.0117
  C  C113  1  0.820500  0.612400  0.842900  1.0  0.7421
  C  C114  1  0.821400  0.524900  0.839200  1.0  -0.1132
  C  C115  1  0.876600  0.479200  0.878900  1.0  -0.1951
  C  C116  1  0.877200  0.398800  0.875600  1.0  0.2137
  C  C117  1  0.822200  0.363700  0.832200  1.0  -0.0111
  C  C118  1  0.768600  0.409900  0.792800  1.0  -0.1188
  C  C119  1  0.767500  0.490300  0.796900  1.0  -0.0823
  C  C120  1  0.974000  0.382000  0.972000  1.0  -0.017
  C  C121  1  0.819500  0.028400  0.810800  1.0  0.705
  C  C122  1  0.819000  0.115200  0.816900  1.0  -0.1032
  C  C123  1  0.857800  0.159100  0.760600  1.0  -0.214
  C  C124  1  0.859500  0.239900  0.765400  1.0  0.2398
  C  C125  1  0.821800  0.276500  0.827400  1.0  -0.0339
  C  C126  1  0.779900  0.232800  0.882400  1.0  -0.1099
  C  C127  1  0.778400  0.152500  0.877800  1.0  -0.0641
  C  C128  1  0.935200  0.243300  0.642500  1.0  -0.011
  C  C129  1  0.157100  0.179500  0.387600  1.0  0.7427
  C  C130  1  0.160800  0.178600  0.475100  1.0  -0.114
  C  C131  1  0.121100  0.123400  0.520800  1.0  -0.2007
  C  C132  1  0.124400  0.122800  0.601200  1.0  0.2166
  C  C133  1  0.167800  0.177800  0.636300  1.0  -0.0109
  C  C134  1  0.207200  0.231400  0.590100  1.0  -0.1178
  C  C135  1  0.203100  0.232500  0.509700  1.0  -0.0803
  C  C136  1  0.028000  0.026000  0.618000  1.0  -0.0158
  C  C137  1  0.189200  0.180500  0.971600  1.0  0.7062
  C  C138  1  0.183100  0.181000  0.884800  1.0  -0.1001
  C  C139  1  0.239400  0.142200  0.840900  1.0  -0.2144
  C  C140  1  0.234600  0.140500  0.760100  1.0  0.2452
  C  C141  1  0.172600  0.178200  0.723500  1.0  -0.0336
  C  C142  1  0.117600  0.220100  0.767200  1.0  -0.1127
  C  C143  1  0.122200  0.221600  0.847500  1.0  -0.0636
  C  C144  1  0.357500  0.064800  0.756700  1.0  -0.0121
  C  C145  1  0.387600  0.157100  0.179500  1.0  0.7403
  C  C146  1  0.475100  0.160800  0.178600  1.0  -0.1139
  C  C147  1  0.520800  0.121100  0.123400  1.0  -0.1984
  C  C148  1  0.601200  0.124400  0.122800  1.0  0.216
  C  C149  1  0.636300  0.167800  0.177800  1.0  -0.0101
  C  C150  1  0.590100  0.207200  0.231400  1.0  -0.12
  C  C151  1  0.509700  0.203100  0.232500  1.0  -0.0837
  C  C152  1  0.618000  0.028000  0.026000  1.0  -0.0171
  C  C153  1  0.971600  0.189200  0.180500  1.0  0.7047
  C  C154  1  0.884800  0.183100  0.181000  1.0  -0.0982
  C  C155  1  0.840900  0.239400  0.142200  1.0  -0.2158
  C  C156  1  0.760100  0.234600  0.140500  1.0  0.2412
  C  C157  1  0.723500  0.172600  0.178200  1.0  -0.0332
  C  C158  1  0.767200  0.117600  0.220100  1.0  -0.1137
  C  C159  1  0.847500  0.122200  0.221600  1.0  -0.0637
  C  C160  1  0.756700  0.357500  0.064800  1.0  -0.0109
  C  C161  1  0.179500  0.387600  0.157100  1.0  0.7396
  C  C162  1  0.178600  0.475100  0.160800  1.0  -0.113
  C  C163  1  0.123400  0.520800  0.121100  1.0  -0.1985
  C  C164  1  0.122800  0.601200  0.124400  1.0  0.2144
  C  C165  1  0.177800  0.636300  0.167800  1.0  -0.0095
  C  C166  1  0.231400  0.590100  0.207200  1.0  -0.1175
  C  C167  1  0.232500  0.509700  0.203100  1.0  -0.08
  C  C168  1  0.026000  0.618000  0.028000  1.0  -0.0162
  C  C169  1  0.180500  0.971600  0.189200  1.0  0.7045
  C  C170  1  0.181000  0.884800  0.183100  1.0  -0.0996
  C  C171  1  0.142200  0.840900  0.239400  1.0  -0.2161
  C  C172  1  0.140500  0.760100  0.234600  1.0  0.2407
  C  C173  1  0.178200  0.723500  0.172600  1.0  -0.0333
  C  C174  1  0.220100  0.767200  0.117600  1.0  -0.1112
  C  C175  1  0.221600  0.847500  0.122200  1.0  -0.0645
  C  C176  1  0.064800  0.756700  0.357500  1.0  -0.0102
  O  O177  1  0.810600  0.769300  0.652100  1.0  -0.6697
  O  O178  1  0.881000  0.871900  0.641100  1.0  -0.6007
  O  O179  1  0.913000  0.929000  0.348000  1.0  -0.2595
  O  O180  1  0.765100  0.868600  0.994700  1.0  -0.615
  O  O181  1  0.851100  0.766800  0.996400  1.0  -0.6044
  O  O182  1  0.710300  0.899300  0.282200  1.0  -0.2827
  O  O183  1  0.652100  0.810600  0.769300  1.0  -0.6677
  O  O184  1  0.641100  0.881000  0.871900  1.0  -0.5998
  O  O185  1  0.348000  0.913000  0.929000  1.0  -0.2598
  O  O186  1  0.994700  0.765100  0.868600  1.0  -0.6154
  O  O187  1  0.996400  0.851100  0.766800  1.0  -0.605
  O  O188  1  0.282200  0.710300  0.899300  1.0  -0.2835
  O  O189  1  0.769300  0.652100  0.810600  1.0  -0.6677
  O  O190  1  0.871900  0.641100  0.881000  1.0  -0.5999
  O  O191  1  0.929000  0.348000  0.913000  1.0  -0.2599
  O  O192  1  0.868600  0.994700  0.765100  1.0  -0.6149
  O  O193  1  0.766800  0.996400  0.851100  1.0  -0.6069
  O  O194  1  0.899300  0.282200  0.710300  1.0  -0.2791
  O  O195  1  0.818100  0.818100  0.818100  1.0  -1.2579
  O  O196  1  0.189400  0.230700  0.347900  1.0  -0.6719
  O  O197  1  0.119000  0.128100  0.358900  1.0  -0.6
  O  O198  1  0.087000  0.071000  0.652000  1.0  -0.2588
  O  O199  1  0.234900  0.131400  0.005300  1.0  -0.6141
  O  O200  1  0.148900  0.233200  0.003600  1.0  -0.6047
  O  O201  1  0.289700  0.100700  0.717800  1.0  -0.2814
  O  O202  1  0.347900  0.189400  0.230700  1.0  -0.6686
  O  O203  1  0.358900  0.119000  0.128100  1.0  -0.5998
  O  O204  1  0.652000  0.087000  0.071000  1.0  -0.2569
  O  O205  1  0.005300  0.234900  0.131400  1.0  -0.6149
  O  O206  1  0.003600  0.148900  0.233200  1.0  -0.6047
  O  O207  1  0.717800  0.289700  0.100700  1.0  -0.2819
  O  O208  1  0.230700  0.347900  0.189400  1.0  -0.6673
  O  O209  1  0.128100  0.358900  0.119000  1.0  -0.5994
  O  O210  1  0.071000  0.652000  0.087000  1.0  -0.2617
  O  O211  1  0.131400  0.005300  0.234900  1.0  -0.6161
  O  O212  1  0.233200  0.003600  0.148900  1.0  -0.6059
  O  O213  1  0.100700  0.717800  0.289700  1.0  -0.2822
  O  O214  1  0.181900  0.181900  0.181900  1.0  -1.2584
