# generated using pymatgen
data_FeAg2H8(C2N)8
_symmetry_space_group_name_H-M   'P 1'
_cell_length_a   26.24200000
_cell_length_b   26.24200000
_cell_length_c   9.56440000
_cell_angle_alpha   90.00000000
_cell_angle_beta   90.00000000
_cell_angle_gamma   120.00000000
_symmetry_Int_Tables_number   1
_chemical_formula_structural   FeAg2H8(C2N)8
_chemical_formula_sum   'Fe9 Ag18 H72 C144 N72'
_cell_volume   5704.03556611
_cell_formula_units_Z   9
loop_
 _symmetry_equiv_pos_site_id
 _symmetry_equiv_pos_as_xyz
  1  'x, y, z'
loop_
 _atom_site_type_symbol
 _atom_site_label
 _atom_site_symmetry_multiplicity
 _atom_site_fract_x
 _atom_site_fract_y
 _atom_site_fract_z
 _atom_site_occupancy
 _atom_site_charge
  Fe  Fe1  1  0.333333  0.166670  0.166670  1.0  0.5151
  Fe  Fe2  1  0.000000  0.500000  0.500000  1.0  0.5183
  Fe  Fe3  1  0.833330  0.166670  0.166670  1.0  0.515
  Fe  Fe4  1  0.500000  0.500000  0.500000  1.0  0.5183
  Fe  Fe5  1  0.833330  0.666667  0.166670  1.0  0.5151
  Fe  Fe6  1  0.500000  0.000000  0.500000  1.0  0.5183
  Fe  Fe7  1  0.166670  0.333333  0.833330  1.0  0.516
  Fe  Fe8  1  0.166670  0.833330  0.833330  1.0  0.5162
  Fe  Fe9  1  0.666667  0.833330  0.833330  1.0  0.516
  Ag  Ag10  1  0.298600  0.298600  0.500000  1.0  0.3374
  Ag  Ag11  1  0.965270  0.631930  0.833330  1.0  0.3373
  Ag  Ag12  1  0.631930  0.965270  0.166670  1.0  0.3373
  Ag  Ag13  1  0.701400  0.000000  0.500000  1.0  0.3374
  Ag  Ag14  1  0.368070  0.333333  0.833330  1.0  0.3375
  Ag  Ag15  1  0.034730  0.666667  0.166670  1.0  0.3375
  Ag  Ag16  1  0.000000  0.701400  0.500000  1.0  0.3375
  Ag  Ag17  1  0.666667  0.034730  0.833330  1.0  0.3377
  Ag  Ag18  1  0.333333  0.368070  0.166670  1.0  0.3378
  Ag  Ag19  1  0.701400  0.701400  0.500000  1.0  0.3378
  Ag  Ag20  1  0.368070  0.034730  0.833330  1.0  0.3377
  Ag  Ag21  1  0.034730  0.368070  0.166670  1.0  0.3377
  Ag  Ag22  1  0.298600  0.000000  0.500000  1.0  0.3366
  Ag  Ag23  1  0.965270  0.333333  0.833330  1.0  0.3368
  Ag  Ag24  1  0.631930  0.666667  0.166670  1.0  0.3369
  Ag  Ag25  1  0.000000  0.298600  0.500000  1.0  0.3371
  Ag  Ag26  1  0.666667  0.631930  0.833330  1.0  0.3373
  Ag  Ag27  1  0.333333  0.965270  0.166670  1.0  0.3372
  H  H28  1  0.430400  0.290100  0.175100  1.0  0.1048
  H  H29  1  0.532600  0.343100  0.170500  1.0  0.1288
  H  H30  1  0.097070  0.623430  0.508430  1.0  0.1048
  H  H31  1  0.199270  0.676430  0.503830  1.0  0.1288
  H  H32  1  0.763730  0.956770  0.841770  1.0  0.1048
  H  H33  1  0.865930  0.009770  0.837170  1.0  0.1289
  H  H34  1  0.709900  0.140300  0.175100  1.0  0.1055
  H  H35  1  0.656900  0.189500  0.170500  1.0  0.1313
  H  H36  1  0.376570  0.473630  0.508430  1.0  0.1055
  H  H37  1  0.323570  0.522830  0.503830  1.0  0.1308
  H  H38  1  0.043230  0.806970  0.841770  1.0  0.1055
  H  H39  1  0.990230  0.856170  0.837170  1.0  0.1325
  H  H40  1  0.859700  0.569600  0.175100  1.0  0.1057
  H  H41  1  0.810500  0.467400  0.170500  1.0  0.133
  H  H42  1  0.526370  0.902930  0.508430  1.0  0.1057
  H  H43  1  0.477170  0.800730  0.503830  1.0  0.1329
  H  H44  1  0.193030  0.236270  0.841770  1.0  0.1057
  H  H45  1  0.143830  0.134070  0.837170  1.0  0.1312
  H  H46  1  0.290100  0.430400  0.824900  1.0  0.1065
  H  H47  1  0.343100  0.532600  0.829500  1.0  0.1313
  H  H48  1  0.956770  0.763730  0.158230  1.0  0.1065
  H  H49  1  0.009770  0.865930  0.162830  1.0  0.1314
  H  H50  1  0.623430  0.097070  0.491570  1.0  0.1065
  H  H51  1  0.676430  0.199270  0.496170  1.0  0.1313
  H  H52  1  0.140300  0.709900  0.824900  1.0  0.1054
  H  H53  1  0.189500  0.656900  0.829500  1.0  0.13
  H  H54  1  0.806970  0.043230  0.158230  1.0  0.1054
  H  H55  1  0.856170  0.990230  0.162830  1.0  0.132
  H  H56  1  0.473630  0.376570  0.491570  1.0  0.1054
  H  H57  1  0.522830  0.323570  0.496170  1.0  0.1294
  H  H58  1  0.569600  0.859700  0.824900  1.0  0.1051
  H  H59  1  0.467400  0.810500  0.829500  1.0  0.1335
  H  H60  1  0.236270  0.193030  0.158230  1.0  0.1051
  H  H61  1  0.134070  0.143830  0.162830  1.0  0.1313
  H  H62  1  0.902930  0.526370  0.491570  1.0  0.1051
  H  H63  1  0.800730  0.477170  0.496170  1.0  0.1334
  H  H64  1  0.569600  0.709900  0.824900  1.0  0.1054
  H  H65  1  0.467400  0.656900  0.829500  1.0  0.1292
  H  H66  1  0.236270  0.043230  0.158230  1.0  0.1054
  H  H67  1  0.134070  0.990230  0.162830  1.0  0.1293
  H  H68  1  0.902930  0.376570  0.491570  1.0  0.1054
  H  H69  1  0.800730  0.323570  0.496170  1.0  0.1292
  H  H70  1  0.290100  0.859700  0.824900  1.0  0.1051
  H  H71  1  0.343100  0.810500  0.829500  1.0  0.1321
  H  H72  1  0.956770  0.193030  0.158230  1.0  0.1051
  H  H73  1  0.009770  0.143830  0.162830  1.0  0.1334
  H  H74  1  0.623430  0.526370  0.491570  1.0  0.1051
  H  H75  1  0.676430  0.477170  0.496170  1.0  0.1312
  H  H76  1  0.140300  0.430400  0.824900  1.0  0.1066
  H  H77  1  0.189500  0.532600  0.829500  1.0  0.1339
  H  H78  1  0.806970  0.763730  0.158230  1.0  0.1067
  H  H79  1  0.856170  0.865930  0.162830  1.0  0.1315
  H  H80  1  0.473630  0.097070  0.491570  1.0  0.1066
  H  H81  1  0.522830  0.199270  0.496170  1.0  0.1338
  H  H82  1  0.709900  0.569600  0.175100  1.0  0.1061
  H  H83  1  0.656900  0.467400  0.170500  1.0  0.1306
  H  H84  1  0.376570  0.902930  0.508430  1.0  0.106
  H  H85  1  0.323570  0.800730  0.503830  1.0  0.1306
  H  H86  1  0.043230  0.236270  0.841770  1.0  0.106
  H  H87  1  0.990230  0.134070  0.837170  1.0  0.1306
  H  H88  1  0.859700  0.290100  0.175100  1.0  0.1052
  H  H89  1  0.810500  0.343100  0.170500  1.0  0.13
  H  H90  1  0.526370  0.623430  0.508430  1.0  0.1052
  H  H91  1  0.477170  0.676430  0.503830  1.0  0.1288
  H  H92  1  0.193030  0.956770  0.841770  1.0  0.1052
  H  H93  1  0.143830  0.009770  0.837170  1.0  0.1314
  H  H94  1  0.430400  0.140300  0.175100  1.0  0.1056
  H  H95  1  0.532600  0.189500  0.170500  1.0  0.1326
  H  H96  1  0.097070  0.473630  0.508430  1.0  0.1056
  H  H97  1  0.199270  0.522830  0.503830  1.0  0.1326
  H  H98  1  0.763730  0.806970  0.841770  1.0  0.1056
  H  H99  1  0.865930  0.856170  0.837170  1.0  0.1308
  C  C100  1  0.451200  0.270000  0.173500  1.0  0.1671
  C  C101  1  0.512700  0.302200  0.171300  1.0  -0.0577
  C  C102  1  0.326900  0.251600  0.381500  1.0  -0.0338
  C  C103  1  0.117870  0.603330  0.506830  1.0  0.167
  C  C104  1  0.179370  0.635530  0.504630  1.0  -0.0577
  C  C105  1  0.993570  0.584930  0.714830  1.0  -0.032
  C  C106  1  0.784530  0.936670  0.840170  1.0  0.1698
  C  C107  1  0.846030  0.968870  0.837970  1.0  -0.0578
  C  C108  1  0.660230  0.918270  0.048170  1.0  -0.0109
  C  C109  1  0.730000  0.181200  0.173500  1.0  0.1683
  C  C110  1  0.697800  0.210500  0.171300  1.0  -0.0575
  C  C111  1  0.748400  0.075300  0.381500  1.0  -0.0116
  C  C112  1  0.396670  0.514530  0.506830  1.0  0.1684
  C  C113  1  0.364470  0.543830  0.504630  1.0  -0.0574
  C  C114  1  0.415070  0.408630  0.714830  1.0  -0.0116
  C  C115  1  0.063330  0.847870  0.840170  1.0  0.1683
  C  C116  1  0.031130  0.877170  0.837970  1.0  -0.0575
  C  C117  1  0.081730  0.741970  0.048170  1.0  -0.0116
  C  C118  1  0.818800  0.548800  0.173500  1.0  0.1683
  C  C119  1  0.789500  0.487300  0.171300  1.0  -0.0576
  C  C120  1  0.924700  0.673100  0.381500  1.0  -0.0224
  C  C121  1  0.485470  0.882130  0.506830  1.0  0.1683
  C  C122  1  0.456170  0.820630  0.504630  1.0  -0.0576
  C  C123  1  0.591370  0.006430  0.714830  1.0  -0.0102
  C  C124  1  0.152130  0.215470  0.840170  1.0  0.1668
  C  C125  1  0.122830  0.153970  0.837970  1.0  -0.0575
  C  C126  1  0.258030  0.339770  0.048170  1.0  -0.0333
  C  C127  1  0.270000  0.451200  0.826500  1.0  0.1666
  C  C128  1  0.302200  0.512700  0.828700  1.0  -0.0576
  C  C129  1  0.251600  0.326900  0.618500  1.0  -0.0302
  C  C130  1  0.936670  0.784530  0.159830  1.0  0.1686
  C  C131  1  0.968870  0.846030  0.162030  1.0  -0.0577
  C  C132  1  0.918270  0.660230  0.951830  1.0  -0.0089
  C  C133  1  0.603330  0.117870  0.493170  1.0  0.1666
  C  C134  1  0.635530  0.179370  0.495370  1.0  -0.0578
  C  C135  1  0.584930  0.993570  0.285170  1.0  -0.0279
  C  C136  1  0.181200  0.730000  0.826500  1.0  0.1693
  C  C137  1  0.210500  0.697800  0.828700  1.0  -0.058
  C  C138  1  0.075300  0.748400  0.618500  1.0  -0.0101
  C  C139  1  0.847870  0.063330  0.159830  1.0  0.1693
  C  C140  1  0.877170  0.031130  0.162030  1.0  -0.0581
  C  C141  1  0.741970  0.081730  0.951830  1.0  -0.0101
  C  C142  1  0.514530  0.396670  0.493170  1.0  0.1694
  C  C143  1  0.543830  0.364470  0.495370  1.0  -0.058
  C  C144  1  0.408630  0.415070  0.285170  1.0  -0.0101
  C  C145  1  0.548800  0.818800  0.826500  1.0  0.1687
  C  C146  1  0.487300  0.789500  0.828700  1.0  -0.0595
  C  C147  1  0.673100  0.924700  0.618500  1.0  -0.0238
  C  C148  1  0.215470  0.152130  0.159830  1.0  0.1672
  C  C149  1  0.153970  0.122830  0.162030  1.0  -0.0595
  C  C150  1  0.339770  0.258030  0.951830  1.0  -0.034
  C  C151  1  0.882130  0.485470  0.493170  1.0  0.1687
  C  C152  1  0.820630  0.456170  0.495370  1.0  -0.0595
  C  C153  1  0.006430  0.591370  0.285170  1.0  -0.0116
  C  C154  1  0.548800  0.730000  0.826500  1.0  0.1712
  C  C155  1  0.487300  0.697800  0.828700  1.0  -0.0573
  C  C156  1  0.673100  0.748400  0.618500  1.0  -0.0318
  C  C157  1  0.215470  0.063330  0.159830  1.0  0.1731
  C  C158  1  0.153970  0.031130  0.162030  1.0  -0.0574
  C  C159  1  0.339770  0.081730  0.951830  1.0  -0.0102
  C  C160  1  0.882130  0.396670  0.493170  1.0  0.1712
  C  C161  1  0.820630  0.364470  0.495370  1.0  -0.0573
  C  C162  1  0.006430  0.415070  0.285170  1.0  -0.0297
  C  C163  1  0.270000  0.818800  0.826500  1.0  0.1736
  C  C164  1  0.302200  0.789500  0.828700  1.0  -0.0582
  C  C165  1  0.251600  0.924700  0.618500  1.0  -0.0111
  C  C166  1  0.936670  0.152130  0.159830  1.0  0.1736
  C  C167  1  0.968870  0.122830  0.162030  1.0  -0.0583
  C  C168  1  0.918270  0.258030  0.951830  1.0  -0.0111
  C  C169  1  0.603330  0.485470  0.493170  1.0  0.1737
  C  C170  1  0.635530  0.456170  0.495370  1.0  -0.0582
  C  C171  1  0.584930  0.591370  0.285170  1.0  -0.0111
  C  C172  1  0.181200  0.451200  0.826500  1.0  0.1739
  C  C173  1  0.210500  0.512700  0.828700  1.0  -0.059
  C  C174  1  0.075300  0.326900  0.618500  1.0  -0.02
  C  C175  1  0.847870  0.784530  0.159830  1.0  0.1727
  C  C176  1  0.877170  0.846030  0.162030  1.0  -0.0589
  C  C177  1  0.741970  0.660230  0.951830  1.0  -0.0308
  C  C178  1  0.514530  0.117870  0.493170  1.0  0.1739
  C  C179  1  0.543830  0.179370  0.495370  1.0  -0.059
  C  C180  1  0.408630  0.993570  0.285170  1.0  -0.0085
  C  C181  1  0.730000  0.548800  0.173500  1.0  0.1713
  C  C182  1  0.697800  0.487300  0.171300  1.0  -0.0571
  C  C183  1  0.748400  0.673100  0.381500  1.0  -0.0325
  C  C184  1  0.396670  0.882130  0.506830  1.0  0.1713
  C  C185  1  0.364470  0.820630  0.504630  1.0  -0.0571
  C  C186  1  0.415070  0.006430  0.714830  1.0  -0.0303
  C  C187  1  0.063330  0.215470  0.840170  1.0  0.1734
  C  C188  1  0.031130  0.153970  0.837970  1.0  -0.0572
  C  C189  1  0.081730  0.339770  0.048170  1.0  -0.0095
  C  C190  1  0.818800  0.270000  0.173500  1.0  0.1734
  C  C191  1  0.789500  0.302200  0.171300  1.0  -0.0587
  C  C192  1  0.924700  0.251600  0.381500  1.0  -0.0115
  C  C193  1  0.485470  0.603330  0.506830  1.0  0.1735
  C  C194  1  0.456170  0.635530  0.504630  1.0  -0.0586
  C  C195  1  0.591370  0.584930  0.714830  1.0  -0.0115
  C  C196  1  0.152130  0.936670  0.840170  1.0  0.1734
  C  C197  1  0.122830  0.968870  0.837970  1.0  -0.0587
  C  C198  1  0.258030  0.918270  0.048170  1.0  -0.0115
  C  C199  1  0.451200  0.181200  0.173500  1.0  0.1729
  C  C200  1  0.512700  0.210500  0.171300  1.0  -0.0579
  C  C201  1  0.326900  0.075300  0.381500  1.0  -0.0241
  C  C202  1  0.117870  0.514530  0.506830  1.0  0.1729
  C  C203  1  0.179370  0.543830  0.504630  1.0  -0.0579
  C  C204  1  0.993570  0.408630  0.714830  1.0  -0.0112
  C  C205  1  0.784530  0.847870  0.840170  1.0  0.1708
  C  C206  1  0.846030  0.877170  0.837970  1.0  -0.0578
  C  C207  1  0.660230  0.741970  0.048170  1.0  -0.0353
  C  C208  1  0.543800  0.271900  0.170200  1.0  -0.1045
  C  C209  1  0.608900  0.304450  0.164500  1.0  0.3569
  C  C210  1  0.210470  0.605230  0.503530  1.0  -0.1045
  C  C211  1  0.275570  0.637780  0.497830  1.0  0.3569
  C  C212  1  0.877130  0.938570  0.836870  1.0  -0.1045
  C  C213  1  0.942230  0.971120  0.831170  1.0  0.3566
  C  C214  1  0.728100  0.271900  0.170200  1.0  -0.1085
  C  C215  1  0.695550  0.304450  0.164500  1.0  0.3562
  C  C216  1  0.394770  0.605230  0.503530  1.0  -0.1085
  C  C217  1  0.362220  0.637780  0.497830  1.0  0.3562
  C  C218  1  0.061430  0.938570  0.836870  1.0  -0.1088
  C  C219  1  0.028880  0.971120  0.831170  1.0  0.3535
  C  C220  1  0.728100  0.456200  0.170200  1.0  -0.1036
  C  C221  1  0.695550  0.391100  0.164500  1.0  0.3576
  C  C222  1  0.394770  0.789530  0.503530  1.0  -0.1036
  C  C223  1  0.362220  0.724430  0.497830  1.0  0.3576
  C  C224  1  0.061430  0.122870  0.836870  1.0  -0.1036
  C  C225  1  0.028880  0.057770  0.831170  1.0  0.3572
  C  C226  1  0.271900  0.543800  0.829800  1.0  -0.1039
  C  C227  1  0.304450  0.608900  0.835500  1.0  0.3618
  C  C228  1  0.938570  0.877130  0.163130  1.0  -0.1039
  C  C229  1  0.971120  0.942230  0.168830  1.0  0.3616
  C  C230  1  0.605230  0.210470  0.496470  1.0  -0.1039
  C  C231  1  0.637780  0.275570  0.502170  1.0  0.3618
  C  C232  1  0.271900  0.728100  0.829800  1.0  -0.1085
  C  C233  1  0.304450  0.695550  0.835500  1.0  0.3609
  C  C234  1  0.938570  0.061430  0.163130  1.0  -0.1087
  C  C235  1  0.971120  0.028880  0.168830  1.0  0.3584
  C  C236  1  0.605230  0.394770  0.496470  1.0  -0.1085
  C  C237  1  0.637780  0.362220  0.502170  1.0  0.3609
  C  C238  1  0.456200  0.728100  0.829800  1.0  -0.1054
  C  C239  1  0.391100  0.695550  0.835500  1.0  0.3602
  C  C240  1  0.122870  0.061430  0.163130  1.0  -0.1054
  C  C241  1  0.057770  0.028880  0.168830  1.0  0.36
  C  C242  1  0.789530  0.394770  0.496470  1.0  -0.1054
  C  C243  1  0.724430  0.362220  0.502170  1.0  0.3602
  N  N244  1  0.331700  0.218800  0.307600  1.0  -0.3485
  N  N245  1  0.998370  0.552130  0.640930  1.0  -0.3485
  N  N246  1  0.665030  0.885470  0.974270  1.0  -0.3491
  N  N247  1  0.781200  0.112900  0.307600  1.0  -0.3493
  N  N248  1  0.447870  0.446230  0.640930  1.0  -0.3494
  N  N249  1  0.114530  0.779570  0.974270  1.0  -0.3493
  N  N250  1  0.887100  0.668300  0.307600  1.0  -0.3471
  N  N251  1  0.553770  0.001630  0.640930  1.0  -0.3469
  N  N252  1  0.220430  0.334970  0.974270  1.0  -0.3456
  N  N253  1  0.218800  0.331700  0.692400  1.0  -0.3442
  N  N254  1  0.885470  0.665030  0.025730  1.0  -0.3448
  N  N255  1  0.552130  0.998370  0.359070  1.0  -0.3443
  N  N256  1  0.112900  0.781200  0.692400  1.0  -0.3451
  N  N257  1  0.779570  0.114530  0.025730  1.0  -0.3451
  N  N258  1  0.446230  0.447870  0.359070  1.0  -0.3452
  N  N259  1  0.668300  0.887100  0.692400  1.0  -0.3467
  N  N260  1  0.334970  0.220430  0.025730  1.0  -0.3457
  N  N261  1  0.001630  0.553770  0.359070  1.0  -0.3466
  N  N262  1  0.668300  0.781200  0.692400  1.0  -0.3447
  N  N263  1  0.334970  0.114530  0.025730  1.0  -0.3449
  N  N264  1  0.001630  0.447870  0.359070  1.0  -0.3447
  N  N265  1  0.218800  0.887100  0.692400  1.0  -0.3469
  N  N266  1  0.885470  0.220430  0.025730  1.0  -0.3469
  N  N267  1  0.552130  0.553770  0.359070  1.0  -0.347
  N  N268  1  0.112900  0.331700  0.692400  1.0  -0.3447
  N  N269  1  0.779570  0.665030  0.025730  1.0  -0.344
  N  N270  1  0.446230  0.998370  0.359070  1.0  -0.3446
  N  N271  1  0.781200  0.668300  0.307600  1.0  -0.3472
  N  N272  1  0.447870  0.001630  0.640930  1.0  -0.3472
  N  N273  1  0.114530  0.334970  0.974270  1.0  -0.3483
  N  N274  1  0.887100  0.218800  0.307600  1.0  -0.3485
  N  N275  1  0.553770  0.552130  0.640930  1.0  -0.3486
  N  N276  1  0.220430  0.885470  0.974270  1.0  -0.3485
  N  N277  1  0.331700  0.112900  0.307600  1.0  -0.349
  N  N278  1  0.998370  0.446230  0.640930  1.0  -0.3488
  N  N279  1  0.665030  0.779570  0.974270  1.0  -0.3479
  N  N280  1  0.421000  0.210500  0.173300  1.0  -0.3025
  N  N281  1  0.087670  0.543830  0.506630  1.0  -0.3039
  N  N282  1  0.754330  0.877170  0.839970  1.0  -0.3025
  N  N283  1  0.789500  0.210500  0.173300  1.0  -0.3016
  N  N284  1  0.456170  0.543830  0.506630  1.0  -0.3017
  N  N285  1  0.122830  0.877170  0.839970  1.0  -0.3017
  N  N286  1  0.789500  0.579000  0.173300  1.0  -0.3035
  N  N287  1  0.456170  0.912330  0.506630  1.0  -0.305
  N  N288  1  0.122830  0.245670  0.839970  1.0  -0.3035
  N  N289  1  0.210500  0.421000  0.826700  1.0  -0.3049
  N  N290  1  0.877170  0.754330  0.160030  1.0  -0.3049
  N  N291  1  0.543830  0.087670  0.493370  1.0  -0.3063
  N  N292  1  0.210500  0.789500  0.826700  1.0  -0.3014
  N  N293  1  0.877170  0.122830  0.160030  1.0  -0.3015
  N  N294  1  0.543830  0.456170  0.493370  1.0  -0.3015
  N  N295  1  0.579000  0.789500  0.826700  1.0  -0.3026
  N  N296  1  0.245670  0.122830  0.160030  1.0  -0.3026
  N  N297  1  0.912330  0.456170  0.493370  1.0  -0.3037
  N  N298  1  0.636140  0.363860  0.165400  1.0  -0.511
  N  N299  1  0.302810  0.697190  0.498730  1.0  -0.511
  N  N300  1  0.969470  0.030530  0.832070  1.0  -0.5114
  N  N301  1  0.636140  0.272280  0.165400  1.0  -0.5119
  N  N302  1  0.302810  0.605610  0.498730  1.0  -0.5119
  N  N303  1  0.969470  0.938950  0.832070  1.0  -0.5117
  N  N304  1  0.727720  0.363860  0.165400  1.0  -0.5118
  N  N305  1  0.394390  0.697190  0.498730  1.0  -0.5118
  N  N306  1  0.061050  0.030530  0.832070  1.0  -0.5116
  N  N307  1  0.363860  0.636140  0.834600  1.0  -0.5107
  N  N308  1  0.030530  0.969470  0.167930  1.0  -0.5112
  N  N309  1  0.697190  0.302810  0.501270  1.0  -0.5107
  N  N310  1  0.272280  0.636140  0.834600  1.0  -0.5144
  N  N311  1  0.938950  0.969470  0.167930  1.0  -0.5141
  N  N312  1  0.605610  0.302810  0.501270  1.0  -0.5144
  N  N313  1  0.363860  0.727720  0.834600  1.0  -0.513
  N  N314  1  0.030530  0.061050  0.167930  1.0  -0.5127
  N  N315  1  0.697190  0.394390  0.501270  1.0  -0.513
