# generated using pymatgen
data_FeAg2H8(C2N)8
_symmetry_space_group_name_H-M   'P 1'
_cell_length_a   9.10300000
_cell_length_b   15.45370000
_cell_length_c   15.45370000
_cell_angle_alpha   63.75760000
_cell_angle_beta   78.67640000
_cell_angle_gamma   101.32400000
_symmetry_Int_Tables_number   1
_chemical_formula_structural   FeAg2H8(C2N)8
_chemical_formula_sum   'Fe3 Ag6 H24 C48 N24'
_cell_volume   1810.10676694
_cell_formula_units_Z   3
loop_
 _symmetry_equiv_pos_site_id
 _symmetry_equiv_pos_as_xyz
  1  'x, y, z'
loop_
 _atom_site_type_symbol
 _atom_site_label
 _atom_site_symmetry_multiplicity
 _atom_site_fract_x
 _atom_site_fract_y
 _atom_site_fract_z
 _atom_site_occupancy
 _atom_site_charge
  Fe  Fe1  1  0.500000  0.500000  0.000000  1.0  0.6777
  Fe  Fe2  1  0.500000  0.000000  0.500000  1.0  0.6777
  Fe  Fe3  1  0.000000  0.500000  0.500000  1.0  0.6777
  Ag  Ag4  1  0.304370  0.608740  0.695630  1.0  0.3286
  Ag  Ag5  1  0.000000  0.695630  0.695630  1.0  0.3299
  Ag  Ag6  1  0.695630  0.695630  0.608740  1.0  0.3294
  Ag  Ag7  1  0.695630  0.391260  0.304370  1.0  0.3281
  Ag  Ag8  1  0.000000  0.304370  0.304370  1.0  0.3298
  Ag  Ag9  1  0.304370  0.304370  0.391260  1.0  0.3295
  H  H10  1  0.477300  0.572700  0.148600  1.0  0.0867
  H  H11  1  0.529600  0.720100  0.154400  1.0  0.1196
  H  H12  1  0.625900  0.148600  0.278700  1.0  0.0862
  H  H13  1  0.684000  0.154400  0.125500  1.0  0.1214
  H  H14  1  0.904600  0.278700  0.572700  1.0  0.0878
  H  H15  1  0.809500  0.125500  0.720100  1.0  0.1202
  H  H16  1  0.374100  0.278700  0.148600  1.0  0.0875
  H  H17  1  0.316000  0.125500  0.154400  1.0  0.121
  H  H18  1  0.095400  0.572700  0.278700  1.0  0.0866
  H  H19  1  0.190500  0.720100  0.125500  1.0  0.1201
  H  H20  1  0.522700  0.148600  0.572700  1.0  0.086
  H  H21  1  0.470400  0.154400  0.720100  1.0  0.1213
  H  H22  1  0.522700  0.427300  0.851400  1.0  0.0867
  H  H23  1  0.470400  0.279900  0.845600  1.0  0.1196
  H  H24  1  0.374100  0.851400  0.721300  1.0  0.0858
  H  H25  1  0.316000  0.845600  0.874500  1.0  0.1215
  H  H26  1  0.095400  0.721300  0.427300  1.0  0.0873
  H  H27  1  0.190500  0.874500  0.279900  1.0  0.1215
  H  H28  1  0.625900  0.721300  0.851400  1.0  0.0877
  H  H29  1  0.684000  0.874500  0.845600  1.0  0.1203
  H  H30  1  0.904600  0.427300  0.721300  1.0  0.0862
  H  H31  1  0.809500  0.279900  0.874500  1.0  0.1198
  H  H32  1  0.477300  0.851400  0.427300  1.0  0.0863
  H  H33  1  0.529600  0.845600  0.279900  1.0  0.1199
  C  C34  1  0.521400  0.634400  0.087600  1.0  0.176
  C  C35  1  0.551000  0.722600  0.091800  1.0  -0.0982
  C  C36  1  0.364600  0.586000  0.823200  1.0  -0.0248
  C  C37  1  0.609000  0.087600  0.278000  1.0  0.1768
  C  C38  1  0.642800  0.091800  0.185600  1.0  -0.1057
  C  C39  1  0.187800  0.823200  0.590800  1.0  -1e-04
  C  C40  1  0.887000  0.278000  0.634400  1.0  0.1793
  C  C41  1  0.828400  0.185600  0.722600  1.0  -0.1063
  C  C42  1  0.778600  0.590800  0.586000  1.0  -0.0193
  C  C43  1  0.391000  0.278000  0.087600  1.0  0.1755
  C  C44  1  0.357200  0.185600  0.091800  1.0  -0.108
  C  C45  1  0.812200  0.590800  0.823200  1.0  -0.0118
  C  C46  1  0.113000  0.634400  0.278000  1.0  0.1768
  C  C47  1  0.171600  0.722600  0.185600  1.0  -0.101
  C  C48  1  0.221400  0.586000  0.590800  1.0  -0.0008
  C  C49  1  0.478600  0.087600  0.634400  1.0  0.1752
  C  C50  1  0.449000  0.091800  0.722600  1.0  -0.1021
  C  C51  1  0.635400  0.823200  0.586000  1.0  -0.0188
  C  C52  1  0.478600  0.365600  0.912400  1.0  0.1748
  C  C53  1  0.449000  0.277400  0.908200  1.0  -0.0982
  C  C54  1  0.635400  0.414000  0.176800  1.0  -0.022
  C  C55  1  0.391000  0.912400  0.722000  1.0  0.1772
  C  C56  1  0.357200  0.908200  0.814400  1.0  -0.1051
  C  C57  1  0.812200  0.176800  0.409200  1.0  0.0004
  C  C58  1  0.113000  0.722000  0.365600  1.0  0.1799
  C  C59  1  0.171600  0.814400  0.277400  1.0  -0.1087
  C  C60  1  0.221400  0.409200  0.414000  1.0  -0.0208
  C  C61  1  0.609000  0.722000  0.912400  1.0  0.1743
  C  C62  1  0.642800  0.814400  0.908200  1.0  -0.1075
  C  C63  1  0.187800  0.409200  0.176800  1.0  -0.0134
  C  C64  1  0.887000  0.365600  0.722000  1.0  0.1778
  C  C65  1  0.828400  0.277400  0.814400  1.0  -0.1083
  C  C66  1  0.778600  0.414000  0.409200  1.0  -0.0052
  C  C67  1  0.521400  0.912400  0.365600  1.0  0.1754
  C  C68  1  0.551000  0.908200  0.277400  1.0  -0.101
  C  C69  1  0.364600  0.176800  0.414000  1.0  -0.0195
  C  C70  1  0.615000  0.818000  0.000000  1.0  -0.1002
  C  C71  1  0.651100  0.914300  0.000000  1.0  0.3903
  C  C72  1  0.615000  0.000000  0.182000  1.0  -0.1033
  C  C73  1  0.651100  0.000000  0.085700  1.0  0.3873
  C  C74  1  0.797000  0.182000  0.818000  1.0  -0.1004
  C  C75  1  0.736800  0.085700  0.914300  1.0  0.3873
  C  C76  1  0.385000  0.182000  0.000000  1.0  -0.0971
  C  C77  1  0.348900  0.085700  0.000000  1.0  0.3917
  C  C78  1  0.203000  0.818000  0.182000  1.0  -0.0966
  C  C79  1  0.263200  0.914300  0.085700  1.0  0.3886
  C  C80  1  0.385000  0.000000  0.818000  1.0  -0.0998
  C  C81  1  0.348900  0.000000  0.914300  1.0  0.3878
  N  N82  1  0.406600  0.556100  0.893200  1.0  -0.3447
  N  N83  1  0.299800  0.893200  0.550700  1.0  -0.3434
  N  N84  1  0.850500  0.550700  0.556100  1.0  -0.3403
  N  N85  1  0.700200  0.550700  0.893200  1.0  -0.34
  N  N86  1  0.149500  0.556100  0.550700  1.0  -0.3396
  N  N87  1  0.593400  0.893200  0.556100  1.0  -0.3408
  N  N88  1  0.593400  0.443900  0.106800  1.0  -0.3404
  N  N89  1  0.700200  0.106800  0.449300  1.0  -0.3391
  N  N90  1  0.149500  0.449300  0.443900  1.0  -0.3382
  N  N91  1  0.299800  0.449300  0.106800  1.0  -0.3392
  N  N92  1  0.850500  0.443900  0.449300  1.0  -0.3412
  N  N93  1  0.406600  0.106800  0.443900  1.0  -0.339
  N  N94  1  0.552700  0.632000  0.000000  1.0  -0.2928
  N  N95  1  0.552700  0.000000  0.368000  1.0  -0.301
  N  N96  1  0.920700  0.368000  0.632000  1.0  -0.3016
  N  N97  1  0.447300  0.368000  0.000000  1.0  -0.2932
  N  N98  1  0.079300  0.632000  0.368000  1.0  -0.3009
  N  N99  1  0.447300  0.000000  0.632000  1.0  -0.3027
  N  N100  1  0.705550  0.000000  0.910350  1.0  -0.5079
  N  N101  1  0.615900  0.910350  0.089650  1.0  -0.5121
  N  N102  1  0.705550  0.089650  0.000000  1.0  -0.5113
  N  N103  1  0.384100  0.089650  0.910350  1.0  -0.5101
  N  N104  1  0.294450  0.000000  0.089650  1.0  -0.5138
  N  N105  1  0.294450  0.910350  0.000000  1.0  -0.5108
