# generated using pymatgen
data_FeH8Au2(C2N)8
_symmetry_space_group_name_H-M   'P 1'
_cell_length_a   26.22700000
_cell_length_b   26.22700000
_cell_length_c   9.35410000
_cell_angle_alpha   90.00000000
_cell_angle_beta   90.00000000
_cell_angle_gamma   120.00000000
_symmetry_Int_Tables_number   1
_chemical_formula_structural   FeH8Au2(C2N)8
_chemical_formula_sum   'Fe9 H72 Au18 C144 N72'
_cell_volume   5572.24075850
_cell_formula_units_Z   9
loop_
 _symmetry_equiv_pos_site_id
 _symmetry_equiv_pos_as_xyz
  1  'x, y, z'
loop_
 _atom_site_type_symbol
 _atom_site_label
 _atom_site_symmetry_multiplicity
 _atom_site_fract_x
 _atom_site_fract_y
 _atom_site_fract_z
 _atom_site_occupancy
 _atom_site_charge
  Fe  Fe1  1  0.500000  0.000000  0.000000  1.0  0.5406
  Fe  Fe2  1  0.166670  0.333333  0.333333  1.0  0.5388
  Fe  Fe3  1  0.833330  0.666667  0.666667  1.0  0.5399
  Fe  Fe4  1  0.000000  0.500000  0.000000  1.0  0.5406
  Fe  Fe5  1  0.666667  0.833330  0.333333  1.0  0.5389
  Fe  Fe6  1  0.333333  0.166670  0.666667  1.0  0.5397
  Fe  Fe7  1  0.500000  0.500000  0.000000  1.0  0.5406
  Fe  Fe8  1  0.166670  0.833330  0.333333  1.0  0.5388
  Fe  Fe9  1  0.833330  0.166670  0.666667  1.0  0.5398
  H  H10  1  0.525700  0.902900  0.008600  1.0  0.0982
  H  H11  1  0.477800  0.801200  0.004200  1.0  0.1339
  H  H12  1  0.192370  0.236230  0.341930  1.0  0.0982
  H  H13  1  0.144470  0.134530  0.337530  1.0  0.137
  H  H14  1  0.859030  0.569570  0.675270  1.0  0.0982
  H  H15  1  0.811130  0.467870  0.670870  1.0  0.1339
  H  H16  1  0.097100  0.622800  0.008600  1.0  0.097
  H  H17  1  0.198800  0.676600  0.004200  1.0  0.1316
  H  H18  1  0.763770  0.956130  0.341930  1.0  0.097
  H  H19  1  0.865470  0.009930  0.337530  1.0  0.1315
  H  H20  1  0.430430  0.289470  0.675270  1.0  0.097
  H  H21  1  0.532130  0.343270  0.670870  1.0  0.1316
  H  H22  1  0.377200  0.474300  0.008600  1.0  0.097
  H  H23  1  0.323400  0.522200  0.004200  1.0  0.1366
  H  H24  1  0.043870  0.807630  0.341930  1.0  0.097
  H  H25  1  0.990070  0.855530  0.337530  1.0  0.1336
  H  H26  1  0.710530  0.140970  0.675270  1.0  0.097
  H  H27  1  0.656730  0.188870  0.670870  1.0  0.1366
  H  H28  1  0.902900  0.525700  0.991400  1.0  0.0968
  H  H29  1  0.801200  0.477800  0.995800  1.0  0.1336
  H  H30  1  0.569570  0.859030  0.324730  1.0  0.0968
  H  H31  1  0.467870  0.811130  0.329130  1.0  0.1336
  H  H32  1  0.236230  0.192370  0.658070  1.0  0.0969
  H  H33  1  0.134530  0.144470  0.662470  1.0  0.137
  H  H34  1  0.622800  0.097100  0.991400  1.0  0.0988
  H  H35  1  0.676600  0.198800  0.995800  1.0  0.1337
  H  H36  1  0.289470  0.430430  0.324730  1.0  0.0988
  H  H37  1  0.343270  0.532130  0.329130  1.0  0.1337
  H  H38  1  0.956130  0.763770  0.658070  1.0  0.0988
  H  H39  1  0.009930  0.865470  0.662470  1.0  0.1337
  H  H40  1  0.474300  0.377200  0.991400  1.0  0.0975
  H  H41  1  0.522200  0.323400  0.995800  1.0  0.1363
  H  H42  1  0.140970  0.710530  0.324730  1.0  0.0975
  H  H43  1  0.188870  0.656730  0.329130  1.0  0.1363
  H  H44  1  0.807630  0.043870  0.658070  1.0  0.0975
  H  H45  1  0.855530  0.990070  0.662470  1.0  0.1322
  H  H46  1  0.474300  0.097100  0.991400  1.0  0.0986
  H  H47  1  0.522200  0.198800  0.995800  1.0  0.1338
  H  H48  1  0.140970  0.430430  0.324730  1.0  0.0986
  H  H49  1  0.188870  0.532130  0.329130  1.0  0.1338
  H  H50  1  0.807630  0.763770  0.658070  1.0  0.0987
  H  H51  1  0.855530  0.865470  0.662470  1.0  0.1375
  H  H52  1  0.902900  0.377200  0.991400  1.0  0.0974
  H  H53  1  0.801200  0.323400  0.995800  1.0  0.1325
  H  H54  1  0.569570  0.710530  0.324730  1.0  0.0974
  H  H55  1  0.467870  0.656730  0.329130  1.0  0.1325
  H  H56  1  0.236230  0.043870  0.658070  1.0  0.0974
  H  H57  1  0.134530  0.990070  0.662470  1.0  0.1324
  H  H58  1  0.622800  0.525700  0.991400  1.0  0.097
  H  H59  1  0.676600  0.477800  0.995800  1.0  0.1375
  H  H60  1  0.289470  0.859030  0.324730  1.0  0.097
  H  H61  1  0.343270  0.811130  0.329130  1.0  0.1375
  H  H62  1  0.956130  0.192370  0.658070  1.0  0.097
  H  H63  1  0.009930  0.144470  0.662470  1.0  0.1339
  H  H64  1  0.097100  0.474300  0.008600  1.0  0.0972
  H  H65  1  0.198800  0.522200  0.004200  1.0  0.1335
  H  H66  1  0.763770  0.807630  0.341930  1.0  0.0973
  H  H67  1  0.865470  0.855530  0.337530  1.0  0.1367
  H  H68  1  0.430430  0.140970  0.675270  1.0  0.0972
  H  H69  1  0.532130  0.188870  0.670870  1.0  0.1335
  H  H70  1  0.377200  0.902900  0.008600  1.0  0.0983
  H  H71  1  0.323400  0.801200  0.004200  1.0  0.1334
  H  H72  1  0.043870  0.236230  0.341930  1.0  0.0983
  H  H73  1  0.990070  0.134530  0.337530  1.0  0.1334
  H  H74  1  0.710530  0.569570  0.675270  1.0  0.0983
  H  H75  1  0.656730  0.467870  0.670870  1.0  0.1334
  H  H76  1  0.525700  0.622800  0.008600  1.0  0.0973
  H  H77  1  0.477800  0.676600  0.004200  1.0  0.135
  H  H78  1  0.192370  0.956130  0.341930  1.0  0.0973
  H  H79  1  0.144470  0.009930  0.337530  1.0  0.1314
  H  H80  1  0.859030  0.289470  0.675270  1.0  0.0973
  H  H81  1  0.811130  0.343270  0.670870  1.0  0.135
  Au  Au82  1  0.626250  0.959590  0.666667  1.0  0.1601
  Au  Au83  1  0.292920  0.292920  0.000000  1.0  0.1602
  Au  Au84  1  0.040410  0.666667  0.666667  1.0  0.1593
  Au  Au85  1  0.707080  0.000000  0.000000  1.0  0.1593
  Au  Au86  1  0.333333  0.373750  0.666667  1.0  0.1605
  Au  Au87  1  0.000000  0.707080  0.000000  1.0  0.1605
  Au  Au88  1  0.959590  0.626250  0.333333  1.0  0.1601
  Au  Au89  1  0.666667  0.040410  0.333333  1.0  0.1605
  Au  Au90  1  0.373750  0.333333  0.333333  1.0  0.1593
  Au  Au91  1  0.373750  0.040410  0.333333  1.0  0.1592
  Au  Au92  1  0.959590  0.333333  0.333333  1.0  0.1603
  Au  Au93  1  0.666667  0.626250  0.333333  1.0  0.1596
  Au  Au94  1  0.040410  0.373750  0.666667  1.0  0.1592
  Au  Au95  1  0.707080  0.707080  0.000000  1.0  0.1592
  Au  Au96  1  0.333333  0.959590  0.666667  1.0  0.1595
  Au  Au97  1  0.000000  0.292920  0.000000  1.0  0.1595
  Au  Au98  1  0.626250  0.666667  0.666667  1.0  0.1603
  Au  Au99  1  0.292920  0.000000  0.000000  1.0  0.1603
  C  C100  1  0.484800  0.881900  0.006500  1.0  0.1896
  C  C101  1  0.456200  0.820400  0.004000  1.0  -0.0858
  C  C102  1  0.583200  0.989400  0.782800  1.0  0.0189
  C  C103  1  0.151470  0.215230  0.339830  1.0  0.1892
  C  C104  1  0.122870  0.153730  0.337330  1.0  -0.0919
  C  C105  1  0.249870  0.322730  0.116130  1.0  0.023
  C  C106  1  0.818130  0.548570  0.673170  1.0  0.1896
  C  C107  1  0.789530  0.487070  0.670670  1.0  -0.0858
  C  C108  1  0.916530  0.656070  0.449470  1.0  0.0189
  C  C109  1  0.118100  0.602900  0.006500  1.0  0.1894
  C  C110  1  0.179600  0.635800  0.004000  1.0  -0.0918
  C  C111  1  0.010600  0.593800  0.782800  1.0  0.0212
  C  C112  1  0.784770  0.936230  0.339830  1.0  0.1895
  C  C113  1  0.846270  0.969130  0.337330  1.0  -0.0867
  C  C114  1  0.677270  0.927130  0.116130  1.0  0.0169
  C  C115  1  0.451430  0.269570  0.673170  1.0  0.1894
  C  C116  1  0.512930  0.302470  0.670670  1.0  -0.0918
  C  C117  1  0.343930  0.260470  0.449470  1.0  0.0209
  C  C118  1  0.397100  0.515200  0.006500  1.0  0.1894
  C  C119  1  0.364200  0.543800  0.004000  1.0  -0.091
  C  C120  1  0.406200  0.416800  0.782800  1.0  0.0213
  C  C121  1  0.063770  0.848530  0.339830  1.0  0.1894
  C  C122  1  0.030870  0.877130  0.337330  1.0  -0.091
  C  C123  1  0.072870  0.750130  0.116130  1.0  0.0212
  C  C124  1  0.730430  0.181870  0.673170  1.0  0.1894
  C  C125  1  0.697530  0.210470  0.670670  1.0  -0.091
  C  C126  1  0.739530  0.083470  0.449470  1.0  0.0216
  C  C127  1  0.881900  0.484800  0.993500  1.0  0.19
  C  C128  1  0.820400  0.456200  0.996000  1.0  -0.086
  C  C129  1  0.989400  0.583200  0.217200  1.0  0.0138
  C  C130  1  0.548570  0.818130  0.326830  1.0  0.19
  C  C131  1  0.487070  0.789530  0.329330  1.0  -0.086
  C  C132  1  0.656070  0.916530  0.550530  1.0  0.0138
  C  C133  1  0.215230  0.151470  0.660170  1.0  0.1891
  C  C134  1  0.153730  0.122870  0.662670  1.0  -0.0934
  C  C135  1  0.322730  0.249870  0.883870  1.0  0.0183
  C  C136  1  0.602900  0.118100  0.993500  1.0  0.189
  C  C137  1  0.635800  0.179600  0.996000  1.0  -0.092
  C  C138  1  0.593800  0.010600  0.217200  1.0  0.0205
  C  C139  1  0.269570  0.451430  0.326830  1.0  0.189
  C  C140  1  0.302470  0.512930  0.329330  1.0  -0.092
  C  C141  1  0.260470  0.343930  0.550530  1.0  0.0202
  C  C142  1  0.936230  0.784770  0.660170  1.0  0.19
  C  C143  1  0.969130  0.846270  0.662670  1.0  -0.0858
  C  C144  1  0.927130  0.677270  0.883870  1.0  0.0156
  C  C145  1  0.515200  0.397100  0.993500  1.0  0.1892
  C  C146  1  0.543800  0.364200  0.996000  1.0  -0.0909
  C  C147  1  0.416800  0.406200  0.217200  1.0  0.0182
  C  C148  1  0.181870  0.730430  0.326830  1.0  0.1892
  C  C149  1  0.210470  0.697530  0.329330  1.0  -0.0909
  C  C150  1  0.083470  0.739530  0.550530  1.0  0.0184
  C  C151  1  0.848530  0.063770  0.660170  1.0  0.1892
  C  C152  1  0.877130  0.030870  0.662670  1.0  -0.0909
  C  C153  1  0.750130  0.072870  0.883870  1.0  0.018
  C  C154  1  0.515200  0.118100  0.993500  1.0  0.1929
  C  C155  1  0.543800  0.179600  0.996000  1.0  -0.0896
  C  C156  1  0.416800  0.010600  0.217200  1.0  0.0157
  C  C157  1  0.181870  0.451430  0.326830  1.0  0.1929
  C  C158  1  0.210470  0.512930  0.329330  1.0  -0.0896
  C  C159  1  0.083470  0.343930  0.550530  1.0  0.0157
  C  C160  1  0.848530  0.784770  0.660170  1.0  0.1921
  C  C161  1  0.877130  0.846270  0.662670  1.0  -0.0947
  C  C162  1  0.750130  0.677270  0.883870  1.0  0.0202
  C  C163  1  0.881900  0.397100  0.993500  1.0  0.1913
  C  C164  1  0.820400  0.364200  0.996000  1.0  -0.0918
  C  C165  1  0.989400  0.406200  0.217200  1.0  0.0188
  C  C166  1  0.548570  0.730430  0.326830  1.0  0.1913
  C  C167  1  0.487070  0.697530  0.329330  1.0  -0.0918
  C  C168  1  0.656070  0.739530  0.550530  1.0  0.0185
  C  C169  1  0.215230  0.063770  0.660170  1.0  0.1929
  C  C170  1  0.153730  0.030870  0.662670  1.0  -0.0868
  C  C171  1  0.322730  0.072870  0.883870  1.0  0.0139
  C  C172  1  0.602900  0.484800  0.993500  1.0  0.1919
  C  C173  1  0.635800  0.456200  0.996000  1.0  -0.0943
  C  C174  1  0.593800  0.583200  0.217200  1.0  0.0185
  C  C175  1  0.269570  0.818130  0.326830  1.0  0.1919
  C  C176  1  0.302470  0.789530  0.329330  1.0  -0.0943
  C  C177  1  0.260470  0.916530  0.550530  1.0  0.0188
  C  C178  1  0.936230  0.151470  0.660170  1.0  0.1919
  C  C179  1  0.969130  0.122870  0.662670  1.0  -0.0943
  C  C180  1  0.927130  0.249870  0.883870  1.0  0.0184
  C  C181  1  0.118100  0.515200  0.006500  1.0  0.1919
  C  C182  1  0.179600  0.543800  0.004000  1.0  -0.088
  C  C183  1  0.010600  0.416800  0.782800  1.0  0.0172
  C  C184  1  0.784770  0.848530  0.339830  1.0  0.1919
  C  C185  1  0.846270  0.877130  0.337330  1.0  -0.0937
  C  C186  1  0.677270  0.750130  0.116130  1.0  0.0211
  C  C187  1  0.451430  0.181870  0.673170  1.0  0.1919
  C  C188  1  0.512930  0.210470  0.670670  1.0  -0.088
  C  C189  1  0.343930  0.083470  0.449470  1.0  0.0172
  C  C190  1  0.397100  0.881900  0.006500  1.0  0.1921
  C  C191  1  0.364200  0.820400  0.004000  1.0  -0.0931
  C  C192  1  0.406200  0.989400  0.782800  1.0  0.023
  C  C193  1  0.063770  0.215230  0.339830  1.0  0.1924
  C  C194  1  0.030870  0.153730  0.337330  1.0  -0.0879
  C  C195  1  0.072870  0.322730  0.116130  1.0  0.0191
  C  C196  1  0.730430  0.548570  0.673170  1.0  0.1921
  C  C197  1  0.697530  0.487070  0.670670  1.0  -0.0931
  C  C198  1  0.739530  0.656070  0.449470  1.0  0.0227
  C  C199  1  0.484800  0.602900  0.006500  1.0  0.1915
  C  C200  1  0.456200  0.635800  0.004000  1.0  -0.0933
  C  C201  1  0.583200  0.593800  0.782800  1.0  0.0209
  C  C202  1  0.151470  0.936230  0.339830  1.0  0.1915
  C  C203  1  0.122870  0.969130  0.337330  1.0  -0.0932
  C  C204  1  0.249870  0.927130  0.116130  1.0  0.0207
  C  C205  1  0.818130  0.269570  0.673170  1.0  0.1915
  C  C206  1  0.789530  0.302470  0.670670  1.0  -0.0933
  C  C207  1  0.916530  0.260470  0.449470  1.0  0.0212
  C  C208  1  0.393900  0.787800  0.001000  1.0  -0.0655
  C  C209  1  0.362100  0.724200  0.995100  1.0  0.4115
  C  C210  1  0.060570  0.121130  0.334330  1.0  -0.0655
  C  C211  1  0.028770  0.057530  0.328430  1.0  0.4104
  C  C212  1  0.727230  0.454470  0.667670  1.0  -0.0655
  C  C213  1  0.695430  0.390870  0.661770  1.0  0.4115
  C  C214  1  0.212200  0.606100  0.001000  1.0  -0.0675
  C  C215  1  0.275800  0.637900  0.995100  1.0  0.4109
  C  C216  1  0.878870  0.939430  0.334330  1.0  -0.0675
  C  C217  1  0.942470  0.971230  0.328430  1.0  0.4099
  C  C218  1  0.545530  0.272770  0.667670  1.0  -0.0675
  C  C219  1  0.609130  0.304570  0.661770  1.0  0.4109
  C  C220  1  0.393900  0.606100  0.001000  1.0  -0.0682
  C  C221  1  0.362100  0.637900  0.995100  1.0  0.4068
  C  C222  1  0.060570  0.939430  0.334330  1.0  -0.0682
  C  C223  1  0.028770  0.971230  0.328430  1.0  0.4106
  C  C224  1  0.727230  0.272770  0.667670  1.0  -0.0682
  C  C225  1  0.695430  0.304570  0.661770  1.0  0.4068
  C  C226  1  0.787800  0.393900  0.999000  1.0  -0.071
  C  C227  1  0.724200  0.362100  0.004900  1.0  0.4155
  C  C228  1  0.454470  0.727230  0.332330  1.0  -0.071
  C  C229  1  0.390870  0.695430  0.338230  1.0  0.4155
  C  C230  1  0.121130  0.060570  0.665670  1.0  -0.071
  C  C231  1  0.057530  0.028770  0.671570  1.0  0.4143
  C  C232  1  0.606100  0.212200  0.999000  1.0  -0.0671
  C  C233  1  0.637900  0.275800  0.004900  1.0  0.4164
  C  C234  1  0.272770  0.545530  0.332330  1.0  -0.0671
  C  C235  1  0.304570  0.609130  0.338230  1.0  0.4164
  C  C236  1  0.939430  0.878870  0.665670  1.0  -0.0672
  C  C237  1  0.971230  0.942470  0.671570  1.0  0.4151
  C  C238  1  0.606100  0.393900  0.999000  1.0  -0.0689
  C  C239  1  0.637900  0.362100  0.004900  1.0  0.4125
  C  C240  1  0.272770  0.727230  0.332330  1.0  -0.0689
  C  C241  1  0.304570  0.695430  0.338230  1.0  0.4125
  C  C242  1  0.939430  0.060570  0.665670  1.0  -0.069
  C  C243  1  0.971230  0.028770  0.671570  1.0  0.4168
  N  N244  1  0.552100  0.997500  0.855900  1.0  -0.3372
  N  N245  1  0.218770  0.330830  0.189230  1.0  -0.3422
  N  N246  1  0.885430  0.664170  0.522570  1.0  -0.3351
  N  N247  1  0.002500  0.554600  0.855900  1.0  -0.3364
  N  N248  1  0.669170  0.887930  0.189230  1.0  -0.3361
  N  N249  1  0.335830  0.221270  0.522570  1.0  -0.3423
  N  N250  1  0.445400  0.447900  0.855900  1.0  -0.3417
  N  N251  1  0.112070  0.781230  0.189230  1.0  -0.3417
  N  N252  1  0.778730  0.114570  0.522570  1.0  -0.3417
  N  N253  1  0.997500  0.552100  0.144100  1.0  -0.3389
  N  N254  1  0.664170  0.885430  0.477430  1.0  -0.3379
  N  N255  1  0.330830  0.218770  0.810770  1.0  -0.3442
  N  N256  1  0.554600  0.002500  0.144100  1.0  -0.3368
  N  N257  1  0.221270  0.335830  0.477430  1.0  -0.3423
  N  N258  1  0.887930  0.669170  0.810770  1.0  -0.3362
  N  N259  1  0.447900  0.445400  0.144100  1.0  -0.3449
  N  N260  1  0.114570  0.778730  0.477430  1.0  -0.3448
  N  N261  1  0.781230  0.112070  0.810770  1.0  -0.3449
  N  N262  1  0.447900  0.002500  0.144100  1.0  -0.338
  N  N263  1  0.114570  0.335830  0.477430  1.0  -0.3376
  N  N264  1  0.781230  0.669170  0.810770  1.0  -0.3432
  N  N265  1  0.997500  0.445400  0.144100  1.0  -0.3394
  N  N266  1  0.664170  0.778730  0.477430  1.0  -0.3452
  N  N267  1  0.330830  0.112070  0.810770  1.0  -0.3387
  N  N268  1  0.554600  0.552100  0.144100  1.0  -0.3434
  N  N269  1  0.221270  0.885430  0.477430  1.0  -0.3433
  N  N270  1  0.887930  0.218770  0.810770  1.0  -0.3434
  N  N271  1  0.002500  0.447900  0.855900  1.0  -0.338
  N  N272  1  0.669170  0.781230  0.189230  1.0  -0.3431
  N  N273  1  0.335830  0.114570  0.522570  1.0  -0.3358
  N  N274  1  0.445400  0.997500  0.855900  1.0  -0.336
  N  N275  1  0.112070  0.330830  0.189230  1.0  -0.3354
  N  N276  1  0.778730  0.664170  0.522570  1.0  -0.3414
  N  N277  1  0.552100  0.554600  0.855900  1.0  -0.3433
  N  N278  1  0.218770  0.887930  0.189230  1.0  -0.3433
  N  N279  1  0.885430  0.221270  0.522570  1.0  -0.3433
  N  N280  1  0.456000  0.912000  0.005900  1.0  -0.281
  N  N281  1  0.122670  0.245330  0.339230  1.0  -0.281
  N  N282  1  0.789330  0.578670  0.672570  1.0  -0.281
  N  N283  1  0.088000  0.544000  0.005900  1.0  -0.2792
  N  N284  1  0.754670  0.877330  0.339230  1.0  -0.2792
  N  N285  1  0.421330  0.210670  0.672570  1.0  -0.2792
  N  N286  1  0.456000  0.544000  0.005900  1.0  -0.2704
  N  N287  1  0.122670  0.877330  0.339230  1.0  -0.2704
  N  N288  1  0.789330  0.210670  0.672570  1.0  -0.2704
  N  N289  1  0.912000  0.456000  0.994100  1.0  -0.2785
  N  N290  1  0.578670  0.789330  0.327430  1.0  -0.2785
  N  N291  1  0.245330  0.122670  0.660770  1.0  -0.2785
  N  N292  1  0.544000  0.088000  0.994100  1.0  -0.2805
  N  N293  1  0.210670  0.421330  0.327430  1.0  -0.2805
  N  N294  1  0.877330  0.754670  0.660770  1.0  -0.2805
  N  N295  1  0.544000  0.456000  0.994100  1.0  -0.2716
  N  N296  1  0.210670  0.789330  0.327430  1.0  -0.2716
  N  N297  1  0.877330  0.122670  0.660770  1.0  -0.2716
  N  N298  1  0.393800  0.696900  0.996400  1.0  -0.5171
  N  N299  1  0.060470  0.030230  0.329730  1.0  -0.5172
  N  N300  1  0.727130  0.363570  0.663070  1.0  -0.5171
  N  N301  1  0.303100  0.696900  0.996400  1.0  -0.5174
  N  N302  1  0.969770  0.030230  0.329730  1.0  -0.5177
  N  N303  1  0.636430  0.363570  0.663070  1.0  -0.5174
  N  N304  1  0.303100  0.606200  0.996400  1.0  -0.5181
  N  N305  1  0.969770  0.939530  0.329730  1.0  -0.5183
  N  N306  1  0.636430  0.272870  0.663070  1.0  -0.5181
  N  N307  1  0.696900  0.393800  0.003600  1.0  -0.5189
  N  N308  1  0.363570  0.727130  0.336930  1.0  -0.5189
  N  N309  1  0.030230  0.060470  0.670270  1.0  -0.519
  N  N310  1  0.696900  0.303100  0.003600  1.0  -0.5157
  N  N311  1  0.363570  0.636430  0.336930  1.0  -0.5157
  N  N312  1  0.030230  0.969770  0.670270  1.0  -0.516
  N  N313  1  0.606200  0.303100  0.003600  1.0  -0.5199
  N  N314  1  0.272870  0.636430  0.336930  1.0  -0.5199
  N  N315  1  0.939530  0.969770  0.670270  1.0  -0.52
