# generated using pymatgen
data_FeH8Au2(C2N)8
_symmetry_space_group_name_H-M   'P 1'
_cell_length_a   9.75120000
_cell_length_b   15.85470000
_cell_length_c   15.85470000
_cell_angle_alpha   64.09020000
_cell_angle_beta   78.16980000
_cell_angle_gamma   101.83000000
_symmetry_Int_Tables_number   1
_chemical_formula_structural   FeH8Au2(C2N)8
_chemical_formula_sum   'Fe3 H24 Au6 C48 N24'
_cell_volume   2033.56090729
_cell_formula_units_Z   3
loop_
 _symmetry_equiv_pos_site_id
 _symmetry_equiv_pos_as_xyz
  1  'x, y, z'
loop_
 _atom_site_type_symbol
 _atom_site_label
 _atom_site_symmetry_multiplicity
 _atom_site_fract_x
 _atom_site_fract_y
 _atom_site_fract_z
 _atom_site_occupancy
 _atom_site_charge
  Fe  Fe1  1  0.000000  0.500000  0.000000  1.0  0.4725
  Fe  Fe2  1  0.000000  0.000000  0.500000  1.0  0.4725
  Fe  Fe3  1  0.500000  0.500000  0.500000  1.0  0.4725
  H  H4  1  0.976000  0.583800  0.144200  1.0  0.103
  H  H5  1  0.024200  0.728900  0.148900  1.0  0.1505
  H  H6  1  0.120200  0.144200  0.272000  1.0  0.1032
  H  H7  1  0.173100  0.148900  0.122200  1.0  0.1522
  H  H8  1  0.392200  0.272000  0.583800  1.0  0.1032
  H  H9  1  0.295300  0.122200  0.728900  1.0  0.1531
  H  H10  1  0.879800  0.272000  0.144200  1.0  0.103
  H  H11  1  0.826900  0.122200  0.148900  1.0  0.1521
  H  H12  1  0.607800  0.583800  0.272000  1.0  0.103
  H  H13  1  0.704700  0.728900  0.122200  1.0  0.1515
  H  H14  1  0.024000  0.144200  0.583800  1.0  0.1032
  H  H15  1  0.975800  0.148900  0.728900  1.0  0.1528
  H  H16  1  0.024000  0.416200  0.855800  1.0  0.1034
  H  H17  1  0.975800  0.271100  0.851100  1.0  0.1502
  H  H18  1  0.879800  0.855800  0.728000  1.0  0.103
  H  H19  1  0.826900  0.851100  0.877800  1.0  0.1516
  H  H20  1  0.607800  0.728000  0.416200  1.0  0.1028
  H  H21  1  0.704700  0.877800  0.271100  1.0  0.1531
  H  H22  1  0.120200  0.728000  0.855800  1.0  0.1029
  H  H23  1  0.173100  0.877800  0.851100  1.0  0.1522
  H  H24  1  0.392200  0.416200  0.728000  1.0  0.1034
  H  H25  1  0.295300  0.271100  0.877800  1.0  0.1517
  H  H26  1  0.976000  0.855800  0.416200  1.0  0.1031
  H  H27  1  0.024200  0.851100  0.271100  1.0  0.1526
  Au  Au28  1  0.207840  0.415680  0.292160  1.0  0.1782
  Au  Au29  1  0.500000  0.292160  0.292160  1.0  0.1792
  Au  Au30  1  0.792160  0.292160  0.415680  1.0  0.1762
  Au  Au31  1  0.792160  0.584320  0.707840  1.0  0.1783
  Au  Au32  1  0.500000  0.707840  0.707840  1.0  0.1776
  Au  Au33  1  0.207840  0.707840  0.584320  1.0  0.177
  C  C34  1  0.015300  0.643900  0.084600  1.0  0.2067
  C  C35  1  0.044800  0.730600  0.088200  1.0  -0.1108
  C  C36  1  0.133000  0.424200  0.182600  1.0  0.0285
  C  C37  1  0.099900  0.084600  0.271500  1.0  0.2072
  C  C38  1  0.133000  0.088200  0.181200  1.0  -0.1204
  C  C39  1  0.315600  0.182600  0.393200  1.0  0.0239
  C  C40  1  0.371400  0.271500  0.643900  1.0  0.2064
  C  C41  1  0.314200  0.181200  0.730600  1.0  -0.1174
  C  C42  1  0.708800  0.393200  0.424200  1.0  0.0283
  C  C43  1  0.900100  0.271500  0.084600  1.0  0.207
  C  C44  1  0.867000  0.181200  0.088200  1.0  -0.1225
  C  C45  1  0.684400  0.393200  0.182600  1.0  0.0222
  C  C46  1  0.628600  0.643900  0.271500  1.0  0.2066
  C  C47  1  0.685800  0.730600  0.181200  1.0  -0.1183
  C  C48  1  0.291200  0.424200  0.393200  1.0  0.0223
  C  C49  1  0.984700  0.084600  0.643900  1.0  0.2092
  C  C50  1  0.955200  0.088200  0.730600  1.0  -0.1129
  C  C51  1  0.867000  0.182600  0.424200  1.0  0.0292
  C  C52  1  0.984700  0.356100  0.915400  1.0  0.2068
  C  C53  1  0.955200  0.269400  0.911800  1.0  -0.1132
  C  C54  1  0.867000  0.575800  0.817400  1.0  0.0273
  C  C55  1  0.900100  0.915400  0.728500  1.0  0.2069
  C  C56  1  0.867000  0.911800  0.818800  1.0  -0.1185
  C  C57  1  0.684400  0.817400  0.606800  1.0  0.0241
  C  C58  1  0.628600  0.728500  0.356100  1.0  0.2069
  C  C59  1  0.685800  0.818800  0.269400  1.0  -0.1187
  C  C60  1  0.291200  0.606800  0.575800  1.0  0.0293
  C  C61  1  0.099900  0.728500  0.915400  1.0  0.2058
  C  C62  1  0.133000  0.818800  0.911800  1.0  -0.1199
  C  C63  1  0.315600  0.606800  0.817400  1.0  0.0216
  C  C64  1  0.371400  0.356100  0.728500  1.0  0.2075
  C  C65  1  0.314200  0.269400  0.818800  1.0  -0.1171
  C  C66  1  0.708800  0.575800  0.606800  1.0  0.0235
  C  C67  1  0.015300  0.915400  0.356100  1.0  0.2079
  C  C68  1  0.044800  0.911800  0.269400  1.0  -0.1115
  C  C69  1  0.133000  0.817400  0.575800  1.0  0.0299
  C  C70  1  0.105850  0.820150  0.000000  1.0  -0.0516
  C  C71  1  0.139950  0.916750  0.000000  1.0  0.413
  C  C72  1  0.105850  0.000000  0.179850  1.0  -0.0534
  C  C73  1  0.139950  0.000000  0.083250  1.0  0.4236
  C  C74  1  0.285700  0.179850  0.820150  1.0  -0.0464
  C  C75  1  0.223200  0.083250  0.916750  1.0  0.4143
  C  C76  1  0.894150  0.179850  0.000000  1.0  -0.049
  C  C77  1  0.860050  0.083250  0.000000  1.0  0.4152
  C  C78  1  0.714300  0.820150  0.179850  1.0  -0.0439
  C  C79  1  0.776800  0.916750  0.083250  1.0  0.4164
  C  C80  1  0.894150  0.000000  0.820150  1.0  -0.0524
  C  C81  1  0.860050  0.000000  0.916750  1.0  0.4241
  N  N82  1  0.090600  0.441900  0.117500  1.0  -0.3686
  N  N83  1  0.208100  0.117500  0.440600  1.0  -0.3639
  N  N84  1  0.648700  0.440600  0.441900  1.0  -0.3759
  N  N85  1  0.791900  0.440600  0.117500  1.0  -0.3711
  N  N86  1  0.351300  0.441900  0.440600  1.0  -0.3616
  N  N87  1  0.909400  0.117500  0.441900  1.0  -0.3758
  N  N88  1  0.909400  0.558100  0.882500  1.0  -0.3682
  N  N89  1  0.791900  0.882500  0.559400  1.0  -0.3639
  N  N90  1  0.351300  0.559400  0.558100  1.0  -0.3762
  N  N91  1  0.208100  0.559400  0.882500  1.0  -0.3702
  N  N92  1  0.648700  0.558100  0.559400  1.0  -0.3618
  N  N93  1  0.090600  0.882500  0.558100  1.0  -0.3758
  N  N94  1  0.040200  0.641800  0.000000  1.0  -0.2871
  N  N95  1  0.040200  0.000000  0.358200  1.0  -0.2898
  N  N96  1  0.398400  0.358200  0.641800  1.0  -0.2924
  N  N97  1  0.959800  0.358200  0.000000  1.0  -0.288
  N  N98  1  0.601600  0.641800  0.358200  1.0  -0.2933
  N  N99  1  0.959800  0.000000  0.641800  1.0  -0.2889
  N  N100  1  0.108600  0.912100  0.087900  1.0  -0.4956
  N  N101  1  0.196500  0.087900  0.000000  1.0  -0.4952
  N  N102  1  0.196500  0.000000  0.912100  1.0  -0.4948
  N  N103  1  0.803500  0.000000  0.087900  1.0  -0.4985
  N  N104  1  0.803500  0.912100  0.000000  1.0  -0.4957
  N  N105  1  0.891400  0.087900  0.912100  1.0  -0.496
