# generated using pymatgen
data_FeAg2H8(C2N)8
_symmetry_space_group_name_H-M   'P 1'
_cell_length_a   9.96960000
_cell_length_b   15.73890000
_cell_length_c   15.73890000
_cell_angle_alpha   64.33390000
_cell_angle_beta   77.81050000
_cell_angle_gamma   102.19000000
_symmetry_Int_Tables_number   1
_chemical_formula_structural   FeAg2H8(C2N)8
_chemical_formula_sum   'Fe3 Ag6 H24 C48 N24'
_cell_volume   2043.37836790
_cell_formula_units_Z   3
loop_
 _symmetry_equiv_pos_site_id
 _symmetry_equiv_pos_as_xyz
  1  'x, y, z'
loop_
 _atom_site_type_symbol
 _atom_site_label
 _atom_site_symmetry_multiplicity
 _atom_site_fract_x
 _atom_site_fract_y
 _atom_site_fract_z
 _atom_site_occupancy
 _atom_site_charge
  Fe  Fe1  1  0.500000  0.000000  0.500000  1.0  0.8043
  Fe  Fe2  1  0.000000  0.500000  0.500000  1.0  0.8043
  Fe  Fe3  1  0.500000  0.500000  0.000000  1.0  0.8043
  Ag  Ag4  1  0.703380  0.703380  0.593240  1.0  0.3618
  Ag  Ag5  1  0.296620  0.593240  0.703380  1.0  0.3598
  Ag  Ag6  1  0.000000  0.703380  0.703380  1.0  0.3609
  Ag  Ag7  1  0.296620  0.296620  0.406760  1.0  0.3611
  Ag  Ag8  1  0.703380  0.406760  0.296620  1.0  0.3607
  Ag  Ag9  1  0.000000  0.296620  0.296620  1.0  0.3607
  H  H10  1  0.469100  0.853700  0.419600  1.0  0.0949
  H  H11  1  0.516800  0.850400  0.272000  1.0  0.1295
  H  H12  1  0.888700  0.419600  0.726700  1.0  0.0955
  H  H13  1  0.788800  0.272000  0.877600  1.0  0.1289
  H  H14  1  0.615400  0.726700  0.853700  1.0  0.0954
  H  H15  1  0.666400  0.877600  0.850400  1.0  0.1301
  H  H16  1  0.111300  0.726700  0.419600  1.0  0.0953
  H  H17  1  0.211200  0.877600  0.272000  1.0  0.131
  H  H18  1  0.384600  0.853700  0.726700  1.0  0.0944
  H  H19  1  0.333600  0.850400  0.877600  1.0  0.1291
  H  H20  1  0.530900  0.419600  0.853700  1.0  0.0954
  H  H21  1  0.483200  0.272000  0.850400  1.0  0.1291
  H  H22  1  0.530900  0.146300  0.580400  1.0  0.0953
  H  H23  1  0.483200  0.149600  0.728000  1.0  0.1304
  H  H24  1  0.111300  0.580400  0.273300  1.0  0.095
  H  H25  1  0.211200  0.728000  0.122400  1.0  0.1293
  H  H26  1  0.384600  0.273300  0.146300  1.0  0.0953
  H  H27  1  0.333600  0.122400  0.149600  1.0  0.1296
  H  H28  1  0.888700  0.273300  0.580400  1.0  0.0955
  H  H29  1  0.788800  0.122400  0.728000  1.0  0.1304
  H  H30  1  0.615400  0.146300  0.273300  1.0  0.0955
  H  H31  1  0.666400  0.149600  0.122400  1.0  0.1284
  H  H32  1  0.469100  0.580400  0.146300  1.0  0.0951
  H  H33  1  0.516800  0.728000  0.149600  1.0  0.1283
  C  C34  1  0.511100  0.914100  0.358800  1.0  0.1782
  C  C35  1  0.539600  0.911400  0.270900  1.0  -0.1273
  C  C36  1  0.627100  0.817700  0.578000  1.0  -0.0331
  C  C37  1  0.869900  0.358800  0.727100  1.0  0.1773
  C  C38  1  0.810500  0.270900  0.817700  1.0  -0.125
  C  C39  1  0.205100  0.578000  0.604300  1.0  -0.0207
  C  C40  1  0.597000  0.727100  0.914100  1.0  0.1822
  C  C41  1  0.628200  0.817700  0.911400  1.0  -0.1277
  C  C42  1  0.809400  0.604300  0.817700  1.0  -0.0321
  C  C43  1  0.130100  0.727100  0.358800  1.0  0.1759
  C  C44  1  0.189500  0.817700  0.270900  1.0  -0.1308
  C  C45  1  0.794900  0.604300  0.578000  1.0  -0.0324
  C  C46  1  0.403000  0.914100  0.727100  1.0  0.1806
  C  C47  1  0.371800  0.911400  0.817700  1.0  -0.1258
  C  C48  1  0.190600  0.817700  0.604300  1.0  -0.0185
  C  C49  1  0.488900  0.358800  0.914100  1.0  0.1775
  C  C50  1  0.460400  0.270900  0.911400  1.0  -0.1265
  C  C51  1  0.372900  0.578000  0.817700  1.0  -0.03
  C  C52  1  0.488900  0.085900  0.641200  1.0  0.1829
  C  C53  1  0.460400  0.088600  0.729100  1.0  -0.1273
  C  C54  1  0.372900  0.182300  0.422000  1.0  -0.0333
  C  C55  1  0.130100  0.641200  0.272900  1.0  0.1803
  C  C56  1  0.189500  0.729100  0.182300  1.0  -0.1277
  C  C57  1  0.794900  0.422000  0.395700  1.0  -0.0209
  C  C58  1  0.403000  0.272900  0.085900  1.0  0.1853
  C  C59  1  0.371800  0.182300  0.088600  1.0  -0.1277
  C  C60  1  0.190600  0.395700  0.182300  1.0  -0.0312
  C  C61  1  0.869900  0.272900  0.641200  1.0  0.1781
  C  C62  1  0.810500  0.182300  0.729100  1.0  -0.1308
  C  C63  1  0.205100  0.395700  0.422000  1.0  -0.0338
  C  C64  1  0.597000  0.085900  0.272900  1.0  0.1857
  C  C65  1  0.628200  0.088600  0.182300  1.0  -0.1258
  C  C66  1  0.809400  0.182300  0.395700  1.0  -0.02
  C  C67  1  0.511100  0.641200  0.085900  1.0  0.1809
  C  C68  1  0.539600  0.729100  0.088600  1.0  -0.1263
  C  C69  1  0.627100  0.422000  0.182300  1.0  -0.0298
  C  C70  1  0.602150  0.000000  0.181450  1.0  -0.0446
  C  C71  1  0.634500  0.000000  0.083200  1.0  0.3868
  C  C72  1  0.783600  0.181450  0.818550  1.0  -0.041
  C  C73  1  0.717700  0.083200  0.916800  1.0  0.3915
  C  C74  1  0.602150  0.818550  0.000000  1.0  -0.043
  C  C75  1  0.634500  0.916800  0.000000  1.0  0.3948
  C  C76  1  0.216400  0.818550  0.181450  1.0  -0.0375
  C  C77  1  0.282300  0.916800  0.083200  1.0  0.3951
  C  C78  1  0.397850  0.000000  0.818550  1.0  -0.0434
  C  C79  1  0.365500  0.000000  0.916800  1.0  0.3887
  C  C80  1  0.397850  0.181450  0.000000  1.0  -0.0399
  C  C81  1  0.365500  0.083200  0.000000  1.0  0.3979
  N  N82  1  0.587900  0.885800  0.555500  1.0  -0.409
  N  N83  1  0.143400  0.555500  0.558700  1.0  -0.4129
  N  N84  1  0.702100  0.558700  0.885800  1.0  -0.4089
  N  N85  1  0.856600  0.558700  0.555500  1.0  -0.4106
  N  N86  1  0.297900  0.885800  0.558700  1.0  -0.4136
  N  N87  1  0.412100  0.555500  0.885800  1.0  -0.4149
  N  N88  1  0.412100  0.114200  0.444500  1.0  -0.4111
  N  N89  1  0.856600  0.444500  0.441300  1.0  -0.414
  N  N90  1  0.297900  0.441300  0.114200  1.0  -0.4105
  N  N91  1  0.143400  0.441300  0.444500  1.0  -0.4087
  N  N92  1  0.702100  0.114200  0.441300  1.0  -0.4134
  N  N93  1  0.587900  0.444500  0.114200  1.0  -0.4141
  N  N94  1  0.541500  0.000000  0.360100  1.0  -0.2939
  N  N95  1  0.901600  0.360100  0.639900  1.0  -0.2981
  N  N96  1  0.541500  0.639900  0.000000  1.0  -0.2911
  N  N97  1  0.098400  0.639900  0.360100  1.0  -0.2963
  N  N98  1  0.458500  0.000000  0.639900  1.0  -0.2946
  N  N99  1  0.458500  0.360100  0.000000  1.0  -0.2922
  N  N100  1  0.605420  0.911780  0.088220  1.0  -0.4951
  N  N101  1  0.693640  0.088220  0.000000  1.0  -0.4953
  N  N102  1  0.693640  0.000000  0.911780  1.0  -0.4955
  N  N103  1  0.306360  0.000000  0.088220  1.0  -0.4966
  N  N104  1  0.306360  0.911780  0.000000  1.0  -0.4948
  N  N105  1  0.394580  0.088220  0.911780  1.0  -0.4951
