# generated using pymatgen
data_Zn3H13(C2O)16
_symmetry_space_group_name_H-M   'P 1'
_cell_length_a   11.36000000
_cell_length_b   11.79900000
_cell_length_c   16.35000000
_cell_angle_alpha   74.01700000
_cell_angle_beta   82.91400000
_cell_angle_gamma   63.63400000
_symmetry_Int_Tables_number   1
_chemical_formula_structural   Zn3H13(C2O)16
_chemical_formula_sum   'Zn6 H26 C64 O32'
_cell_volume   1887.62460478
_cell_formula_units_Z   2
loop_
 _symmetry_equiv_pos_site_id
 _symmetry_equiv_pos_as_xyz
  1  'x, y, z'
loop_
 _atom_site_type_symbol
 _atom_site_label
 _atom_site_symmetry_multiplicity
 _atom_site_fract_x
 _atom_site_fract_y
 _atom_site_fract_z
 _atom_site_occupancy
 _atom_site_charge
  Zn  Zn1  1  0.072620  0.832440  0.548570  1.0  1.0569
  Zn  Zn2  1  0.393310  0.617030  0.640100  1.0  1.0712
  Zn  Zn3  1  0.203680  0.558840  0.247110  1.0  1.0599
  Zn  Zn4  1  0.927380  0.167560  0.451430  1.0  1.0589
  Zn  Zn5  1  0.606690  0.382970  0.359900  1.0  1.0711
  Zn  Zn6  1  0.796320  0.441160  0.752890  1.0  1.0587
  H  H7  1  0.028800  0.509300  0.404900  1.0  0.1288
  H  H8  1  0.634900  0.672100  0.400800  1.0  0.1476
  H  H9  1  0.826300  0.888100  0.398300  1.0  0.1223
  H  H10  1  0.491200  0.795900  0.466900  1.0  0.1401
  H  H11  1  0.237400  0.174300  0.403400  1.0  0.1328
  H  H12  1  0.617000  0.063700  0.340000  1.0  0.1259
  H  H13  1  0.321500  0.720000  0.833100  1.0  0.1148
  H  H14  1  0.196900  0.977500  0.977100  1.0  0.1458
  H  H15  1  0.008700  0.059600  0.760800  1.0  0.1383
  H  H16  1  0.517600  0.675600  0.877200  1.0  0.1289
  H  H17  1  0.682800  0.497000  0.108100  1.0  0.1324
  H  H18  1  0.303500  0.764600  0.083600  1.0  0.1427
  H  H19  1  0.642300  0.572300  0.234200  1.0  0.1789
  H  H20  1  0.971200  0.490700  0.595100  1.0  0.1285
  H  H21  1  0.365100  0.327900  0.599200  1.0  0.1466
  H  H22  1  0.173700  0.111900  0.601700  1.0  0.1229
  H  H23  1  0.508800  0.204100  0.533100  1.0  0.1408
  H  H24  1  0.762600  0.825700  0.596600  1.0  0.134
  H  H25  1  0.383000  0.936300  0.660000  1.0  0.126
  H  H26  1  0.678500  0.280000  0.166900  1.0  0.1152
  H  H27  1  0.803100  0.022500  0.022900  1.0  0.147
  H  H28  1  0.991300  0.940400  0.239200  1.0  0.1382
  H  H29  1  0.482400  0.324400  0.122800  1.0  0.127
  H  H30  1  0.317200  0.503000  0.891900  1.0  0.1324
  H  H31  1  0.696500  0.235400  0.916400  1.0  0.143
  H  H32  1  0.357700  0.427700  0.765800  1.0  0.1799
  C  C33  1  0.073600  0.711000  0.396800  1.0  0.7078
  C  C34  1  0.945600  0.700200  0.398700  1.0  -0.0596
  C  C35  1  0.948500  0.582100  0.402500  1.0  -0.0107
  C  C36  1  0.831000  0.569700  0.403000  1.0  -0.1267
  C  C37  1  0.713300  0.679000  0.401000  1.0  -0.051
  C  C38  1  0.709500  0.800800  0.399300  1.0  0.0601
  C  C39  1  0.826700  0.809000  0.398700  1.0  -0.0453
  C  C40  1  0.828200  0.442400  0.407700  1.0  0.7167
  C  C41  1  0.577000  0.912200  0.400600  1.0  0.0558
  C  C42  1  0.474200  0.882400  0.441100  1.0  -0.0786
  C  C43  1  0.346900  0.980200  0.443400  1.0  -0.1286
  C  C44  1  0.322600  0.108700  0.405000  1.0  0.0244
  C  C45  1  0.423400  0.139900  0.369400  1.0  -0.1227
  C  C46  1  0.550000  0.041500  0.366000  1.0  -0.0339
  C  C47  1  0.401700  0.280800  0.334500  1.0  0.7324
  C  C48  1  0.242400  0.939600  0.484100  1.0  0.6863
  C  C49  1  0.149900  0.831700  0.713500  1.0  0.7354
  C  C50  1  0.161400  0.882200  0.786200  1.0  -0.1479
  C  C51  1  0.262900  0.800200  0.843100  1.0  -0.0741
  C  C52  1  0.280400  0.831300  0.912200  1.0  0.0736
  C  C53  1  0.190200  0.955200  0.928100  1.0  -0.0511
  C  C54  1  0.093500  0.039800  0.868700  1.0  -0.1227
  C  C55  1  0.076900  0.002800  0.798800  1.0  0.0091
  C  C56  1  0.997900  0.170500  0.881900  1.0  0.7373
  C  C57  1  0.394400  0.740500  0.970900  1.0  0.0875
  C  C58  1  0.511900  0.664500  0.935900  1.0  -0.0853
  C  C59  1  0.620500  0.572900  0.985300  1.0  -0.144
  C  C60  1  0.610100  0.554700  0.073900  1.0  -0.0333
  C  C61  1  0.493000  0.621800  0.110000  1.0  -0.0137
  C  C62  1  0.382200  0.718000  0.058600  1.0  -0.0527
  C  C63  1  0.741500  0.489500  0.941900  1.0  0.7578
  C  C64  1  0.476100  0.587900  0.204800  1.0  0.6998
  C  C65  1  0.926400  0.289000  0.603200  1.0  0.711
  C  C66  1  0.054400  0.299800  0.601300  1.0  -0.059
  C  C67  1  0.051500  0.417900  0.597500  1.0  -0.0117
  C  C68  1  0.169000  0.430300  0.597000  1.0  -0.1249
  C  C69  1  0.286700  0.321000  0.599000  1.0  -0.0503
  C  C70  1  0.290500  0.199200  0.600700  1.0  0.0625
  C  C71  1  0.173300  0.191000  0.601300  1.0  -0.0447
  C  C72  1  0.171800  0.557600  0.592300  1.0  0.7161
  C  C73  1  0.423000  0.087800  0.599400  1.0  0.0597
  C  C74  1  0.525800  0.117600  0.558900  1.0  -0.0778
  C  C75  1  0.653100  0.019800  0.556600  1.0  -0.1279
  C  C76  1  0.677400  0.891300  0.595000  1.0  0.0242
  C  C77  1  0.576600  0.860100  0.630600  1.0  -0.1206
  C  C78  1  0.450000  0.958500  0.634000  1.0  -0.0346
  C  C79  1  0.598300  0.719200  0.665500  1.0  0.7317
  C  C80  1  0.757600  0.060400  0.515900  1.0  0.6856
  C  C81  1  0.850100  0.168300  0.286500  1.0  0.7348
  C  C82  1  0.838600  0.117800  0.213800  1.0  -0.1489
  C  C83  1  0.737100  0.199800  0.156900  1.0  -0.0748
  C  C84  1  0.719600  0.168700  0.087800  1.0  0.0727
  C  C85  1  0.809800  0.044800  0.071900  1.0  -0.0492
  C  C86  1  0.906500  0.960200  0.131300  1.0  -0.122
  C  C87  1  0.923100  0.997200  0.201200  1.0  0.009
  C  C88  1  0.002100  0.829500  0.118100  1.0  0.7362
  C  C89  1  0.605600  0.259500  0.029100  1.0  0.0855
  C  C90  1  0.488100  0.335500  0.064100  1.0  -0.0848
  C  C91  1  0.379500  0.427100  0.014700  1.0  -0.1431
  C  C92  1  0.389900  0.445300  0.926100  1.0  -0.0329
  C  C93  1  0.507000  0.378200  0.890000  1.0  -0.0132
  C  C94  1  0.617800  0.282000  0.941400  1.0  -0.0535
  C  C95  1  0.258500  0.510500  0.058100  1.0  0.7598
  C  C96  1  0.523900  0.412100  0.795200  1.0  0.6989
  O  O97  1  0.168300  0.632100  0.363000  1.0  -0.6554
  O  O98  1  0.917500  0.246100  0.823400  1.0  -0.6505
  O  O99  1  0.936600  0.349100  0.397800  1.0  -0.5768
  O  O100  1  0.722400  0.435900  0.422900  1.0  -0.587
  O  O101  1  0.502900  0.301100  0.318600  1.0  -0.6079
  O  O102  1  0.285700  0.364000  0.324800  1.0  -0.5757
  O  O103  1  0.124300  0.020100  0.471600  1.0  -0.6765
  O  O104  1  0.273200  0.824400  0.528300  1.0  -0.629
  O  O105  1  0.079500  0.795800  0.426300  1.0  -0.6145
  O  O106  1  0.008300  0.201700  0.947300  1.0  -0.5211
  O  O107  1  0.053300  0.906300  0.661200  1.0  -0.5979
  O  O108  1  0.229500  0.721200  0.708600  1.0  -0.5859
  O  O109  1  0.579600  0.539700  0.249500  1.0  -0.6453
  O  O110  1  0.368200  0.603600  0.236000  1.0  -0.6237
  O  O111  1  0.834400  0.402000  0.989300  1.0  -0.5225
  O  O112  1  0.736800  0.514900  0.863700  1.0  -0.609
  O  O113  1  0.831700  0.367900  0.637000  1.0  -0.6554
  O  O114  1  0.082500  0.753900  0.176600  1.0  -0.6494
  O  O115  1  0.063400  0.650900  0.602200  1.0  -0.577
  O  O116  1  0.277600  0.564100  0.577100  1.0  -0.587
  O  O117  1  0.497100  0.698900  0.681400  1.0  -0.6067
  O  O118  1  0.714300  0.636000  0.675200  1.0  -0.576
  O  O119  1  0.875700  0.979900  0.528400  1.0  -0.6771
  O  O120  1  0.726800  0.175600  0.471700  1.0  -0.6277
  O  O121  1  0.920500  0.204200  0.573700  1.0  -0.6146
  O  O122  1  0.991700  0.798300  0.052700  1.0  -0.52
  O  O123  1  0.946700  0.093700  0.338800  1.0  -0.5974
  O  O124  1  0.770500  0.278800  0.291400  1.0  -0.5855
  O  O125  1  0.420400  0.460300  0.750500  1.0  -0.6444
  O  O126  1  0.631800  0.396400  0.764000  1.0  -0.6228
  O  O127  1  0.165600  0.598000  0.010700  1.0  -0.5218
  O  O128  1  0.263200  0.485100  0.136300  1.0  -0.6117
