# generated using pymatgen
data_Zn3P4(HO3)4
_symmetry_space_group_name_H-M   'P 1'
_cell_length_a   12.10900000
_cell_length_b   9.20900000
_cell_length_c   16.08100000
_cell_angle_alpha   90.00000000
_cell_angle_beta   92.94000000
_cell_angle_gamma   90.00000000
_symmetry_Int_Tables_number   1
_chemical_formula_structural   Zn3P4(HO3)4
_chemical_formula_sum   'Zn12 P16 H16 O48'
_cell_volume   1790.86070078
_cell_formula_units_Z   4
loop_
 _symmetry_equiv_pos_site_id
 _symmetry_equiv_pos_as_xyz
  1  'x, y, z'
loop_
 _atom_site_type_symbol
 _atom_site_label
 _atom_site_symmetry_multiplicity
 _atom_site_fract_x
 _atom_site_fract_y
 _atom_site_fract_z
 _atom_site_occupancy
 _atom_site_charge
  Zn  Zn1  1  0.007840  0.756950  0.798290  1.0  1.1764
  Zn  Zn2  1  0.221180  0.751960  0.586780  1.0  1.152
  Zn  Zn3  1  0.230400  0.673820  0.999010  1.0  1.1538
  Zn  Zn4  1  0.492160  0.256950  0.701710  1.0  1.1771
  Zn  Zn5  1  0.278820  0.251960  0.913220  1.0  1.1522
  Zn  Zn6  1  0.269600  0.173820  0.500990  1.0  1.152
  Zn  Zn7  1  0.992160  0.243050  0.201710  1.0  1.1772
  Zn  Zn8  1  0.778820  0.248040  0.413220  1.0  1.152
  Zn  Zn9  1  0.769600  0.326180  0.000990  1.0  1.1523
  Zn  Zn10  1  0.507840  0.743050  0.298290  1.0  1.1764
  Zn  Zn11  1  0.721180  0.748040  0.086780  1.0  1.1518
  Zn  Zn12  1  0.730400  0.826180  0.499010  1.0  1.1543
  P  P13  1  0.962370  0.835200  0.605300  1.0  1.5277
  P  P14  1  0.856360  0.625800  0.936530  1.0  1.5836
  P  P15  1  0.137420  0.969200  0.932870  1.0  1.6149
  P  P16  1  0.204400  0.526300  0.815170  1.0  1.6521
  P  P17  1  0.537630  0.335200  0.894700  1.0  1.5273
  P  P18  1  0.643640  0.125800  0.563470  1.0  1.5725
  P  P19  1  0.362580  0.469200  0.567130  1.0  1.6148
  P  P20  1  0.295600  0.026300  0.684830  1.0  1.6507
  P  P21  1  0.037630  0.164800  0.394700  1.0  1.529
  P  P22  1  0.143640  0.374200  0.063470  1.0  1.5732
  P  P23  1  0.862580  0.030800  0.067130  1.0  1.6149
  P  P24  1  0.795600  0.473700  0.184830  1.0  1.6506
  P  P25  1  0.462370  0.664800  0.105300  1.0  1.5293
  P  P26  1  0.356360  0.874200  0.436530  1.0  1.583
  P  P27  1  0.637420  0.530800  0.432870  1.0  1.6158
  P  P28  1  0.704400  0.973700  0.315170  1.0  1.6523
  H  H29  1  0.964000  0.960000  0.567000  1.0  -0.0636
  H  H30  1  0.942000  0.663000  0.983000  1.0  -0.1149
  H  H31  1  0.074000  0.074000  0.959000  1.0  -0.0869
  H  H32  1  0.271000  0.550000  0.755000  1.0  -0.098
  H  H33  1  0.536000  0.460000  0.933000  1.0  -0.0636
  H  H34  1  0.558000  0.163000  0.517000  1.0  -0.1153
  H  H35  1  0.426000  0.574000  0.541000  1.0  -0.0827
  H  H36  1  0.229000  0.050000  0.745000  1.0  -0.104
  H  H37  1  0.036000  0.040000  0.433000  1.0  -0.0651
  H  H38  1  0.058000  0.337000  0.017000  1.0  -0.1152
  H  H39  1  0.926000  0.926000  0.041000  1.0  -0.0843
  H  H40  1  0.729000  0.450000  0.245000  1.0  -0.1042
  H  H41  1  0.464000  0.540000  0.067000  1.0  -0.0643
  H  H42  1  0.442000  0.837000  0.483000  1.0  -0.1145
  H  H43  1  0.574000  0.426000  0.459000  1.0  -0.0881
  H  H44  1  0.771000  0.950000  0.255000  1.0  -0.0978
  O  O45  1  0.063500  0.754800  0.584300  1.0  -0.8689
  O  O46  1  0.943900  0.839300  0.696100  1.0  -0.7439
  O  O47  1  0.089000  0.576100  0.786900  1.0  -0.7709
  O  O48  1  0.081000  0.909600  0.855500  1.0  -0.8711
  O  O49  1  0.876200  0.687500  0.850400  1.0  -0.7611
  O  O50  1  0.755100  0.698100  0.970900  1.0  -0.7482
  O  O51  1  0.199900  0.364700  0.829900  1.0  -0.7822
  O  O52  1  0.242900  0.045500  0.914800  1.0  -0.7603
  O  O53  1  0.153100  0.858100  0.002200  1.0  -0.7635
  O  O54  1  0.866100  0.762600  0.556400  1.0  -0.7637
  O  O55  1  0.847300  0.462100  0.935500  1.0  -0.7808
  O  O56  1  0.255700  0.610900  0.887200  1.0  -0.8749
  O  O57  1  0.436500  0.254800  0.915700  1.0  -0.8697
  O  O58  1  0.556100  0.339300  0.803900  1.0  -0.7411
  O  O59  1  0.411000  0.076100  0.713100  1.0  -0.7712
  O  O60  1  0.419000  0.409600  0.644500  1.0  -0.8724
  O  O61  1  0.623800  0.187500  0.649600  1.0  -0.7615
  O  O62  1  0.744900  0.198100  0.529100  1.0  -0.7507
  O  O63  1  0.300100  0.864700  0.670100  1.0  -0.78
  O  O64  1  0.257100  0.545500  0.585200  1.0  -0.7607
  O  O65  1  0.346900  0.358100  0.497800  1.0  -0.7635
  O  O66  1  0.633900  0.262600  0.943600  1.0  -0.7637
  O  O67  1  0.652700  0.962100  0.564500  1.0  -0.7798
  O  O68  1  0.244300  0.110900  0.612800  1.0  -0.8743
  O  O69  1  0.936500  0.245200  0.415700  1.0  -0.8704
  O  O70  1  0.056100  0.160700  0.303900  1.0  -0.7418
  O  O71  1  0.911000  0.423900  0.213100  1.0  -0.7712
  O  O72  1  0.919000  0.090400  0.144500  1.0  -0.8716
  O  O73  1  0.123800  0.312500  0.149600  1.0  -0.7621
  O  O74  1  0.244900  0.301900  0.029100  1.0  -0.7513
  O  O75  1  0.800100  0.635300  0.170100  1.0  -0.7792
  O  O76  1  0.757100  0.954500  0.085200  1.0  -0.7606
  O  O77  1  0.846900  0.141900  0.997800  1.0  -0.7631
  O  O78  1  0.133900  0.237400  0.443600  1.0  -0.7638
  O  O79  1  0.152700  0.537900  0.064500  1.0  -0.7795
  O  O80  1  0.744300  0.389100  0.112800  1.0  -0.8742
  O  O81  1  0.563500  0.745200  0.084300  1.0  -0.8688
  O  O82  1  0.443900  0.660700  0.196100  1.0  -0.7444
  O  O83  1  0.589000  0.923900  0.286900  1.0  -0.7705
  O  O84  1  0.581000  0.590400  0.355500  1.0  -0.871
  O  O85  1  0.376200  0.812500  0.350400  1.0  -0.7618
  O  O86  1  0.255100  0.801900  0.470900  1.0  -0.7493
  O  O87  1  0.699900  0.135300  0.329900  1.0  -0.781
  O  O88  1  0.742900  0.454500  0.414800  1.0  -0.7603
  O  O89  1  0.653100  0.641900  0.502200  1.0  -0.7631
  O  O90  1  0.366100  0.737400  0.056400  1.0  -0.7643
  O  O91  1  0.347300  0.037900  0.435500  1.0  -0.7811
  O  O92  1  0.755700  0.889100  0.387200  1.0  -0.8747
