# generated using pymatgen
data_NiH22C34(NO)4
_symmetry_space_group_name_H-M   'P 1'
_cell_length_a   8.37220000
_cell_length_b   11.48880000
_cell_length_c   34.92300000
_cell_angle_alpha   90.00000000
_cell_angle_beta   90.00000000
_cell_angle_gamma   105.59000000
_symmetry_Int_Tables_number   1
_chemical_formula_structural   NiH22C34(NO)4
_chemical_formula_sum   'Ni4 H88 C136 N16 O16'
_cell_volume   3235.53840609
_cell_formula_units_Z   4
loop_
 _symmetry_equiv_pos_site_id
 _symmetry_equiv_pos_as_xyz
  1  'x, y, z'
loop_
 _atom_site_type_symbol
 _atom_site_label
 _atom_site_symmetry_multiplicity
 _atom_site_fract_x
 _atom_site_fract_y
 _atom_site_fract_z
 _atom_site_occupancy
 _atom_site_charge
  Ni  Ni1  1  0.476940  0.509100  0.851400  1.0  0.7274
  Ni  Ni2  1  0.523060  0.990900  0.351400  1.0  0.7276
  Ni  Ni3  1  0.523060  0.490900  0.148600  1.0  0.7272
  Ni  Ni4  1  0.476940  0.009100  0.648600  1.0  0.7271
  H  H5  1  0.867600  0.784400  0.780900  1.0  0.0974
  H  H6  1  0.170900  0.876600  0.773600  1.0  0.1273
  H  H7  1  0.379100  0.896500  0.729700  1.0  0.0748
  H  H8  1  0.188100  0.098600  0.664700  1.0  0.0858
  H  H9  1  0.978200  0.089500  0.707500  1.0  0.124
  H  H10  1  0.893300  0.136000  0.771600  1.0  0.1
  H  H11  1  0.532600  0.918700  0.834300  1.0  0.1085
  H  H12  1  0.867800  0.275300  0.817700  1.0  0.121
  H  H13  1  0.773500  0.434700  0.836500  1.0  0.0734
  H  H14  1  0.317200  0.234500  0.837000  1.0  0.0837
  H  H15  1  0.398900  0.068300  0.819300  1.0  0.1279
  H  H16  1  0.852700  0.249100  0.906600  1.0  0.0909
  H  H17  1  0.852100  0.263300  0.021000  1.0  0.1035
  H  H18  1  0.261400  0.431800  0.962400  1.0  0.1015
  H  H19  1  0.325800  0.542800  0.015300  1.0  0.1129
  H  H20  1  0.471300  0.590500  0.070600  1.0  0.069
  H  H21  1  0.191300  0.311600  0.121800  1.0  0.0654
  H  H22  1  0.036500  0.255200  0.068200  1.0  0.1254
  H  H23  1  0.637800  0.094200  0.913300  1.0  0.1219
  H  H24  1  0.357300  0.002500  0.913000  1.0  0.0713
  H  H25  1  0.304600  0.134800  0.011500  1.0  0.0687
  H  H26  1  0.581500  0.232700  0.015000  1.0  0.1231
  H  H27  1  0.132400  0.715600  0.280900  1.0  0.0978
  H  H28  1  0.829100  0.623400  0.273600  1.0  0.1271
  H  H29  1  0.620900  0.603500  0.229700  1.0  0.0744
  H  H30  1  0.811900  0.401400  0.164700  1.0  0.0854
  H  H31  1  0.021800  0.410500  0.207500  1.0  0.1235
  H  H32  1  0.106700  0.364000  0.271600  1.0  0.1004
  H  H33  1  0.467400  0.581300  0.334300  1.0  0.1082
  H  H34  1  0.132200  0.224700  0.317700  1.0  0.1222
  H  H35  1  0.226500  0.065300  0.336500  1.0  0.0734
  H  H36  1  0.682800  0.265500  0.337000  1.0  0.0842
  H  H37  1  0.601100  0.431700  0.319300  1.0  0.128
  H  H38  1  0.147300  0.250900  0.406600  1.0  0.0908
  H  H39  1  0.147900  0.236700  0.521000  1.0  0.1027
  H  H40  1  0.738600  0.068200  0.462400  1.0  0.1017
  H  H41  1  0.674200  0.957200  0.515300  1.0  0.1128
  H  H42  1  0.528700  0.909500  0.570600  1.0  0.0687
  H  H43  1  0.808700  0.188400  0.621800  1.0  0.0658
  H  H44  1  0.963500  0.244800  0.568200  1.0  0.1259
  H  H45  1  0.362200  0.405800  0.413300  1.0  0.1221
  H  H46  1  0.642700  0.497500  0.413000  1.0  0.0718
  H  H47  1  0.695400  0.365200  0.511500  1.0  0.0695
  H  H48  1  0.418500  0.267300  0.515000  1.0  0.1233
  H  H49  1  0.132400  0.215600  0.219100  1.0  0.0975
  H  H50  1  0.829100  0.123400  0.226400  1.0  0.1273
  H  H51  1  0.620900  0.103500  0.270300  1.0  0.0743
  H  H52  1  0.811900  0.901400  0.335300  1.0  0.085
  H  H53  1  0.021800  0.910500  0.292500  1.0  0.1239
  H  H54  1  0.106700  0.864000  0.228400  1.0  0.1003
  H  H55  1  0.467400  0.081300  0.165700  1.0  0.1082
  H  H56  1  0.132200  0.724700  0.182300  1.0  0.1222
  H  H57  1  0.226500  0.565300  0.163500  1.0  0.0735
  H  H58  1  0.682800  0.765500  0.163000  1.0  0.0843
  H  H59  1  0.601100  0.931700  0.180700  1.0  0.1278
  H  H60  1  0.147300  0.750900  0.093400  1.0  0.0922
  H  H61  1  0.147900  0.736700  0.979000  1.0  0.103
  H  H62  1  0.738600  0.568200  0.037600  1.0  0.1023
  H  H63  1  0.674200  0.457200  0.984700  1.0  0.1127
  H  H64  1  0.528700  0.409500  0.929400  1.0  0.0687
  H  H65  1  0.808700  0.688400  0.878200  1.0  0.0655
  H  H66  1  0.963500  0.744800  0.931800  1.0  0.1265
  H  H67  1  0.362200  0.905800  0.086700  1.0  0.1221
  H  H68  1  0.642700  0.997500  0.087000  1.0  0.0717
  H  H69  1  0.695400  0.865200  0.988500  1.0  0.0693
  H  H70  1  0.418500  0.767300  0.985000  1.0  0.1232
  H  H71  1  0.867600  0.284400  0.719100  1.0  0.0971
  H  H72  1  0.170900  0.376600  0.726400  1.0  0.1275
  H  H73  1  0.379100  0.396500  0.770300  1.0  0.0744
  H  H74  1  0.188100  0.598600  0.835300  1.0  0.0852
  H  H75  1  0.978200  0.589500  0.792500  1.0  0.124
  H  H76  1  0.893300  0.636000  0.728400  1.0  0.1
  H  H77  1  0.532600  0.418700  0.665700  1.0  0.1082
  H  H78  1  0.867800  0.775300  0.682300  1.0  0.1209
  H  H79  1  0.773500  0.934700  0.663500  1.0  0.0736
  H  H80  1  0.317200  0.734500  0.663000  1.0  0.0837
  H  H81  1  0.398900  0.568300  0.680700  1.0  0.1275
  H  H82  1  0.852700  0.749100  0.593400  1.0  0.0922
  H  H83  1  0.852100  0.763300  0.479000  1.0  0.1036
  H  H84  1  0.261400  0.931800  0.537600  1.0  0.1017
  H  H85  1  0.325800  0.042800  0.484700  1.0  0.1128
  H  H86  1  0.471300  0.090500  0.429400  1.0  0.0691
  H  H87  1  0.191300  0.811600  0.378200  1.0  0.0654
  H  H88  1  0.036500  0.755200  0.431800  1.0  0.1254
  H  H89  1  0.637800  0.594200  0.586700  1.0  0.1222
  H  H90  1  0.357300  0.502500  0.587000  1.0  0.0712
  H  H91  1  0.304600  0.634800  0.488500  1.0  0.0685
  H  H92  1  0.581500  0.732700  0.485000  1.0  0.1227
  C  C93  1  0.608000  0.711300  0.826070  1.0  0.6041
  C  C94  1  0.687800  0.833400  0.809850  1.0  -0.1053
  C  C95  1  0.826100  0.849700  0.786650  1.0  -0.0701
  C  C96  1  0.903900  0.963900  0.771740  1.0  0.0095
  C  C97  1  0.046100  0.978400  0.745510  1.0  0.1214
  C  C98  1  0.171100  0.922200  0.751620  1.0  -0.218
  C  C99  1  0.295800  0.934300  0.724880  1.0  0.1725
  C  C100  1  0.184400  0.053300  0.686940  1.0  0.1698
  C  C101  1  0.056700  0.047500  0.712390  1.0  -0.2107
  C  C102  1  0.841900  0.059800  0.781350  1.0  -0.0962
  C  C103  1  0.704800  0.045900  0.805080  1.0  0.0197
  C  C104  1  0.626300  0.930300  0.818970  1.0  -0.0698
  C  C105  1  0.644500  0.151100  0.816200  1.0  0.1087
  C  C106  1  0.754900  0.264500  0.821620  1.0  -0.1962
  C  C107  1  0.697000  0.360300  0.832710  1.0  0.169
  C  C108  1  0.429600  0.242700  0.833160  1.0  0.1627
  C  C109  1  0.477700  0.142100  0.822420  1.0  -0.2018
  C  C110  1  0.163500  0.366800  0.891050  1.0  0.6612
  C  C111  1  0.072500  0.342600  0.928680  1.0  -0.116
  C  C112  1  0.907400  0.275300  0.929520  1.0  -0.0704
  C  C113  1  0.822400  0.246300  0.964030  1.0  -0.0072
  C  C114  1  0.906800  0.284100  0.997800  1.0  -0.1099
  C  C115  1  0.072300  0.352500  0.997920  1.0  0.0088
  C  C116  1  0.152700  0.383400  0.962830  1.0  -0.0611
  C  C117  1  0.164400  0.390000  0.034080  1.0  0.1156
  C  C118  1  0.296100  0.492700  0.036530  1.0  -0.2133
  C  C119  1  0.383300  0.521000  0.070110  1.0  0.1746
  C  C120  1  0.220200  0.358600  0.099930  1.0  0.1608
  C  C121  1  0.126100  0.323600  0.067580  1.0  -0.2049
  C  C122  1  0.643600  0.179200  0.963900  1.0  0.1117
  C  C123  1  0.572600  0.106200  0.933720  1.0  -0.2232
  C  C124  1  0.402500  0.050300  0.933880  1.0  0.1822
  C  C125  1  0.372100  0.127400  0.990950  1.0  0.2007
  C  C126  1  0.540000  0.187300  0.993380  1.0  -0.2217
  C  C127  1  0.392000  0.788700  0.326070  1.0  0.6063
  C  C128  1  0.312200  0.666667  0.309850  1.0  -0.113
  C  C129  1  0.173900  0.650300  0.286650  1.0  -0.0684
  C  C130  1  0.096100  0.536100  0.271740  1.0  0.0092
  C  C131  1  0.953900  0.521600  0.245510  1.0  0.1206
  C  C132  1  0.828900  0.577800  0.251620  1.0  -0.2185
  C  C133  1  0.704200  0.565700  0.224880  1.0  0.1723
  C  C134  1  0.815600  0.446700  0.186940  1.0  0.1685
  C  C135  1  0.943300  0.452500  0.212390  1.0  -0.2097
  C  C136  1  0.158100  0.440200  0.281350  1.0  -0.0983
  C  C137  1  0.295200  0.454100  0.305080  1.0  0.0197
  C  C138  1  0.373700  0.569700  0.318970  1.0  -0.0702
  C  C139  1  0.355500  0.348900  0.316200  1.0  0.1087
  C  C140  1  0.245100  0.235500  0.321620  1.0  -0.1956
  C  C141  1  0.303000  0.139700  0.332710  1.0  0.1691
  C  C142  1  0.570400  0.257300  0.333160  1.0  0.1642
  C  C143  1  0.522300  0.357900  0.322420  1.0  -0.2014
  C  C144  1  0.836500  0.133200  0.391050  1.0  0.6613
  C  C145  1  0.927500  0.157400  0.428680  1.0  -0.117
  C  C146  1  0.092600  0.224700  0.429520  1.0  -0.0711
  C  C147  1  0.177600  0.253700  0.464030  1.0  -0.007
  C  C148  1  0.093200  0.215900  0.497800  1.0  -0.1095
  C  C149  1  0.927700  0.147500  0.497920  1.0  0.0091
  C  C150  1  0.847300  0.116600  0.462830  1.0  -0.0608
  C  C151  1  0.835600  0.110000  0.534080  1.0  0.1153
  C  C152  1  0.703900  0.007300  0.536530  1.0  -0.2135
  C  C153  1  0.616700  0.979000  0.570110  1.0  0.1747
  C  C154  1  0.779800  0.141400  0.599930  1.0  0.1603
  C  C155  1  0.873900  0.176400  0.567580  1.0  -0.2076
  C  C156  1  0.356400  0.320800  0.463900  1.0  0.1116
  C  C157  1  0.427400  0.393800  0.433720  1.0  -0.2233
  C  C158  1  0.597500  0.449700  0.433880  1.0  0.184
  C  C159  1  0.627900  0.372600  0.490950  1.0  0.2014
  C  C160  1  0.460000  0.312700  0.493380  1.0  -0.2233
  C  C161  1  0.392000  0.288700  0.173930  1.0  0.604
  C  C162  1  0.312200  0.166600  0.190150  1.0  -0.1053
  C  C163  1  0.173900  0.150300  0.213350  1.0  -0.0702
  C  C164  1  0.096100  0.036100  0.228260  1.0  0.0094
  C  C165  1  0.953900  0.021600  0.254490  1.0  0.1209
  C  C166  1  0.828900  0.077800  0.248380  1.0  -0.2185
  C  C167  1  0.704200  0.065700  0.275120  1.0  0.1724
  C  C168  1  0.815600  0.946700  0.313060  1.0  0.1692
  C  C169  1  0.943300  0.952500  0.287610  1.0  -0.2092
  C  C170  1  0.158100  0.940200  0.218650  1.0  -0.0982
  C  C171  1  0.295200  0.954100  0.194920  1.0  0.0193
  C  C172  1  0.373700  0.069700  0.181030  1.0  -0.0699
  C  C173  1  0.355500  0.848900  0.183800  1.0  0.1085
  C  C174  1  0.245100  0.735500  0.178380  1.0  -0.1953
  C  C175  1  0.303000  0.639700  0.167290  1.0  0.1693
  C  C176  1  0.570400  0.757300  0.166840  1.0  0.1642
  C  C177  1  0.522300  0.857900  0.177580  1.0  -0.2012
  C  C178  1  0.836500  0.633200  0.108950  1.0  0.6611
  C  C179  1  0.927500  0.657400  0.071320  1.0  -0.1172
  C  C180  1  0.092600  0.724700  0.070480  1.0  -0.0705
  C  C181  1  0.177600  0.753700  0.035970  1.0  -0.0064
  C  C182  1  0.093200  0.715900  0.002200  1.0  -0.1101
  C  C183  1  0.927700  0.647500  0.002080  1.0  0.0092
  C  C184  1  0.847300  0.616600  0.037170  1.0  -0.0607
  C  C185  1  0.835600  0.610000  0.965920  1.0  0.1147
  C  C186  1  0.703900  0.507300  0.963470  1.0  -0.2131
  C  C187  1  0.616700  0.479000  0.929890  1.0  0.175
  C  C188  1  0.779800  0.641400  0.900070  1.0  0.1614
  C  C189  1  0.873900  0.676400  0.932420  1.0  -0.2071
  C  C190  1  0.356400  0.820800  0.036100  1.0  0.1118
  C  C191  1  0.427400  0.893800  0.066280  1.0  -0.2225
  C  C192  1  0.597500  0.949700  0.066120  1.0  0.1848
  C  C193  1  0.627900  0.872600  0.009050  1.0  0.2007
  C  C194  1  0.460000  0.812700  0.006620  1.0  -0.2244
  C  C195  1  0.608000  0.211300  0.673930  1.0  0.6035
  C  C196  1  0.687800  0.333400  0.690150  1.0  -0.1062
  C  C197  1  0.826100  0.349700  0.713350  1.0  -0.0705
  C  C198  1  0.903900  0.463900  0.728260  1.0  0.0097
  C  C199  1  0.046100  0.478400  0.754490  1.0  0.1219
  C  C200  1  0.171100  0.422200  0.748380  1.0  -0.2187
  C  C201  1  0.295800  0.434300  0.775120  1.0  0.1727
  C  C202  1  0.184400  0.553300  0.813060  1.0  0.1693
  C  C203  1  0.056700  0.547500  0.787610  1.0  -0.2107
  C  C204  1  0.841900  0.559800  0.718650  1.0  -0.0966
  C  C205  1  0.704800  0.545900  0.694920  1.0  0.0197
  C  C206  1  0.626300  0.430300  0.681030  1.0  -0.0703
  C  C207  1  0.644500  0.651100  0.683800  1.0  0.1084
  C  C208  1  0.754900  0.764500  0.678380  1.0  -0.196
  C  C209  1  0.697000  0.860300  0.667290  1.0  0.1691
  C  C210  1  0.429600  0.742700  0.666840  1.0  0.1627
  C  C211  1  0.477700  0.642100  0.677580  1.0  -0.2013
  C  C212  1  0.163500  0.866800  0.608950  1.0  0.661
  C  C213  1  0.072500  0.842600  0.571320  1.0  -0.1158
  C  C214  1  0.907400  0.775300  0.570480  1.0  -0.0701
  C  C215  1  0.822400  0.746300  0.535970  1.0  -0.0068
  C  C216  1  0.906800  0.784100  0.502200  1.0  -0.1091
  C  C217  1  0.072300  0.852500  0.502080  1.0  0.009
  C  C218  1  0.152700  0.883400  0.537170  1.0  -0.0612
  C  C219  1  0.164400  0.890000  0.465920  1.0  0.1147
  C  C220  1  0.296100  0.992700  0.463470  1.0  -0.2129
  C  C221  1  0.383300  0.021000  0.429890  1.0  0.1748
  C  C222  1  0.220200  0.858600  0.400070  1.0  0.1608
  C  C223  1  0.126100  0.823600  0.432420  1.0  -0.2056
  C  C224  1  0.643600  0.679200  0.536100  1.0  0.1119
  C  C225  1  0.572600  0.606200  0.566280  1.0  -0.2224
  C  C226  1  0.402500  0.550300  0.566120  1.0  0.1835
  C  C227  1  0.372100  0.627400  0.509050  1.0  0.1994
  C  C228  1  0.540000  0.687300  0.506620  1.0  -0.2234
  N  N229  1  0.303600  0.997000  0.692500  1.0  -0.2955
  N  N230  1  0.535700  0.352300  0.838400  1.0  -0.3163
  N  N231  1  0.350400  0.455700  0.102010  1.0  -0.3082
  N  N232  1  0.302500  0.061400  0.961870  1.0  -0.4323
  N  N233  1  0.696400  0.503000  0.192500  1.0  -0.2959
  N  N234  1  0.464300  0.147700  0.338400  1.0  -0.3153
  N  N235  1  0.649600  0.044300  0.602010  1.0  -0.3086
  N  N236  1  0.697500  0.438600  0.461870  1.0  -0.4342
  N  N237  1  0.696400  0.003000  0.307500  1.0  -0.2961
  N  N238  1  0.464300  0.647700  0.161600  1.0  -0.3157
  N  N239  1  0.649600  0.544300  0.897990  1.0  -0.3096
  N  N240  1  0.697500  0.938600  0.038130  1.0  -0.4337
  N  N241  1  0.303600  0.497000  0.807500  1.0  -0.2954
  N  N242  1  0.535700  0.852300  0.661600  1.0  -0.3164
  N  N243  1  0.350400  0.955700  0.397990  1.0  -0.3087
  N  N244  1  0.302500  0.561400  0.538130  1.0  -0.4314
  O  O245  1  0.657200  0.621550  0.815140  1.0  -0.5612
  O  O246  1  0.494500  0.699100  0.850640  1.0  -0.5465
  O  O247  1  0.107500  0.299500  0.863640  1.0  -0.599
  O  O248  1  0.295200  0.454100  0.891130  1.0  -0.5996
  O  O249  1  0.342800  0.878450  0.315140  1.0  -0.5611
  O  O250  1  0.505500  0.800900  0.350640  1.0  -0.5484
  O  O251  1  0.892500  0.200500  0.363640  1.0  -0.5988
  O  O252  1  0.704800  0.045900  0.391130  1.0  -0.5996
  O  O253  1  0.342800  0.378450  0.184860  1.0  -0.5616
  O  O254  1  0.505500  0.300900  0.149360  1.0  -0.5474
  O  O255  1  0.892500  0.700500  0.136360  1.0  -0.5985
  O  O256  1  0.704800  0.545900  0.108870  1.0  -0.6
  O  O257  1  0.657200  0.121550  0.684860  1.0  -0.5618
  O  O258  1  0.494500  0.199100  0.649360  1.0  -0.5459
  O  O259  1  0.107500  0.799500  0.636360  1.0  -0.5984
  O  O260  1  0.295200  0.954100  0.608870  1.0  -0.5995
