# generated using pymatgen
data_CoH22C34(NO)4
_symmetry_space_group_name_H-M   'P 1'
_cell_length_a   8.40730000
_cell_length_b   11.49100000
_cell_length_c   35.10800000
_cell_angle_alpha   90.00000000
_cell_angle_beta   90.00000000
_cell_angle_gamma   105.84200000
_symmetry_Int_Tables_number   1
_chemical_formula_structural   CoH22C34(NO)4
_chemical_formula_sum   'Co4 H88 C136 N16 O16'
_cell_volume   3262.89968334
_cell_formula_units_Z   4
loop_
 _symmetry_equiv_pos_site_id
 _symmetry_equiv_pos_as_xyz
  1  'x, y, z'
loop_
 _atom_site_type_symbol
 _atom_site_label
 _atom_site_symmetry_multiplicity
 _atom_site_fract_x
 _atom_site_fract_y
 _atom_site_fract_z
 _atom_site_occupancy
 _atom_site_charge
  Co  Co1  1  0.474250  0.503770  0.852190  1.0  0.8574
  Co  Co2  1  0.525750  0.996230  0.352190  1.0  0.8556
  Co  Co3  1  0.525750  0.496230  0.147810  1.0  0.8549
  Co  Co4  1  0.474250  0.003770  0.647810  1.0  0.8568
  H  H5  1  0.258500  0.429100  0.962200  1.0  0.1021
  H  H6  1  0.326100  0.541700  0.014000  1.0  0.1124
  H  H7  1  0.471000  0.592000  0.068700  1.0  0.071
  H  H8  1  0.186600  0.317300  0.121200  1.0  0.0673
  H  H9  1  0.032300  0.259900  0.068000  1.0  0.1217
  H  H10  1  0.849400  0.263700  0.020600  1.0  0.1104
  H  H11  1  0.851700  0.245600  0.907000  1.0  0.0968
  H  H12  1  0.584800  0.233100  0.015100  1.0  0.12
  H  H13  1  0.309300  0.136600  0.012800  1.0  0.0733
  H  H14  1  0.354700  0.004900  0.913900  1.0  0.0715
  H  H15  1  0.634900  0.095300  0.913600  1.0  0.1254
  H  H16  1  0.535300  0.916200  0.834400  1.0  0.1114
  H  H17  1  0.869000  0.270700  0.818100  1.0  0.1242
  H  H18  1  0.773500  0.429700  0.836000  1.0  0.0737
  H  H19  1  0.320100  0.229300  0.835800  1.0  0.0725
  H  H20  1  0.401400  0.063500  0.818600  1.0  0.127
  H  H21  1  0.892000  0.132500  0.771500  1.0  0.099
  H  H22  1  0.866200  0.781800  0.780900  1.0  0.097
  H  H23  1  0.979100  0.087500  0.708200  1.0  0.1183
  H  H24  1  0.185800  0.095900  0.665600  1.0  0.0832
  H  H25  1  0.373100  0.892000  0.729500  1.0  0.0749
  H  H26  1  0.168400  0.872700  0.773700  1.0  0.1334
  H  H27  1  0.741500  0.070900  0.462200  1.0  0.1022
  H  H28  1  0.673900  0.958300  0.514000  1.0  0.112
  H  H29  1  0.529000  0.908000  0.568700  1.0  0.071
  H  H30  1  0.813400  0.182700  0.621200  1.0  0.0674
  H  H31  1  0.967700  0.240100  0.568000  1.0  0.1216
  H  H32  1  0.150600  0.236300  0.520600  1.0  0.1091
  H  H33  1  0.148300  0.254400  0.407000  1.0  0.0966
  H  H34  1  0.415200  0.266900  0.515100  1.0  0.1201
  H  H35  1  0.690700  0.363400  0.512800  1.0  0.074
  H  H36  1  0.645300  0.495100  0.413900  1.0  0.0716
  H  H37  1  0.365100  0.404700  0.413600  1.0  0.1254
  H  H38  1  0.464700  0.583800  0.334400  1.0  0.1112
  H  H39  1  0.131000  0.229300  0.318100  1.0  0.1252
  H  H40  1  0.226500  0.070300  0.336000  1.0  0.0735
  H  H41  1  0.679900  0.270700  0.335800  1.0  0.073
  H  H42  1  0.598600  0.436500  0.318600  1.0  0.127
  H  H43  1  0.108000  0.367500  0.271500  1.0  0.0994
  H  H44  1  0.133800  0.718200  0.280900  1.0  0.0969
  H  H45  1  0.020900  0.412500  0.208200  1.0  0.1175
  H  H46  1  0.814200  0.404100  0.165600  1.0  0.0828
  H  H47  1  0.626900  0.608000  0.229500  1.0  0.0748
  H  H48  1  0.831600  0.627300  0.273700  1.0  0.1332
  H  H49  1  0.741500  0.570900  0.037800  1.0  0.1025
  H  H50  1  0.673900  0.458300  0.986000  1.0  0.1119
  H  H51  1  0.529000  0.408000  0.931300  1.0  0.071
  H  H52  1  0.813400  0.682700  0.878800  1.0  0.0672
  H  H53  1  0.967700  0.740100  0.932000  1.0  0.122
  H  H54  1  0.150600  0.736300  0.979400  1.0  0.1088
  H  H55  1  0.148300  0.754400  0.093000  1.0  0.0978
  H  H56  1  0.415200  0.766900  0.984900  1.0  0.1199
  H  H57  1  0.690700  0.863400  0.987200  1.0  0.0739
  H  H58  1  0.645300  0.995100  0.086100  1.0  0.0722
  H  H59  1  0.365100  0.904700  0.086400  1.0  0.126
  H  H60  1  0.464700  0.083800  0.165600  1.0  0.1112
  H  H61  1  0.131000  0.729300  0.181900  1.0  0.1253
  H  H62  1  0.226500  0.570300  0.164000  1.0  0.0731
  H  H63  1  0.679900  0.770700  0.164200  1.0  0.0732
  H  H64  1  0.598600  0.936500  0.181400  1.0  0.1267
  H  H65  1  0.108000  0.867500  0.228500  1.0  0.0994
  H  H66  1  0.133800  0.218200  0.219100  1.0  0.0967
  H  H67  1  0.020900  0.912500  0.291800  1.0  0.1177
  H  H68  1  0.814200  0.904100  0.334400  1.0  0.082
  H  H69  1  0.626900  0.108000  0.270500  1.0  0.0752
  H  H70  1  0.831600  0.127300  0.226300  1.0  0.1333
  H  H71  1  0.258500  0.929100  0.537800  1.0  0.102
  H  H72  1  0.326100  0.041700  0.486000  1.0  0.1124
  H  H73  1  0.471000  0.092000  0.431300  1.0  0.0711
  H  H74  1  0.186600  0.817300  0.378800  1.0  0.0673
  H  H75  1  0.032300  0.759900  0.432000  1.0  0.1217
  H  H76  1  0.849400  0.763700  0.479400  1.0  0.1094
  H  H77  1  0.851700  0.745600  0.593000  1.0  0.0973
  H  H78  1  0.584800  0.733100  0.484900  1.0  0.1194
  H  H79  1  0.309300  0.636600  0.487200  1.0  0.0732
  H  H80  1  0.354700  0.504900  0.586100  1.0  0.0719
  H  H81  1  0.634900  0.595300  0.586400  1.0  0.1264
  H  H82  1  0.535300  0.416200  0.665600  1.0  0.1111
  H  H83  1  0.869000  0.770700  0.681900  1.0  0.124
  H  H84  1  0.773500  0.929700  0.664000  1.0  0.0734
  H  H85  1  0.320100  0.729300  0.664200  1.0  0.0725
  H  H86  1  0.401400  0.563500  0.681400  1.0  0.1266
  H  H87  1  0.892000  0.632500  0.728500  1.0  0.0991
  H  H88  1  0.866200  0.281800  0.719100  1.0  0.0968
  H  H89  1  0.979100  0.587500  0.791800  1.0  0.118
  H  H90  1  0.185800  0.595900  0.834400  1.0  0.0821
  H  H91  1  0.373100  0.392000  0.770500  1.0  0.0749
  H  H92  1  0.168400  0.372700  0.726300  1.0  0.1336
  C  C93  1  0.162800  0.362000  0.891890  1.0  0.6811
  C  C94  1  0.070600  0.339400  0.928850  1.0  -0.1489
  C  C95  1  0.149800  0.381000  0.962790  1.0  -0.0641
  C  C96  1  0.070800  0.352400  0.997470  1.0  -0.0018
  C  C97  1  0.162300  0.391400  0.033520  1.0  0.0822
  C  C98  1  0.295300  0.493100  0.035460  1.0  -0.2141
  C  C99  1  0.382000  0.522900  0.068630  1.0  0.181
  C  C100  1  0.216300  0.363200  0.099170  1.0  0.1698
  C  C101  1  0.123000  0.327600  0.067140  1.0  -0.2044
  C  C102  1  0.904400  0.283900  0.997540  1.0  -0.1041
  C  C103  1  0.821600  0.246200  0.964020  1.0  -0.0305
  C  C104  1  0.906200  0.272800  0.929660  1.0  -0.0959
  C  C105  1  0.642600  0.179500  0.964230  1.0  0.0739
  C  C106  1  0.541400  0.187600  0.993700  1.0  -0.2116
  C  C107  1  0.374600  0.128900  0.992120  1.0  0.1797
  C  C108  1  0.401600  0.052100  0.934690  1.0  0.1682
  C  C109  1  0.570900  0.107100  0.934040  1.0  -0.2103
  C  C110  1  0.610700  0.708500  0.826230  1.0  0.6324
  C  C111  1  0.689200  0.830200  0.810130  1.0  -0.1406
  C  C112  1  0.628100  0.927400  0.818990  1.0  -0.0712
  C  C113  1  0.705500  0.041400  0.804810  1.0  0.0254
  C  C114  1  0.646100  0.147200  0.815960  1.0  0.1093
  C  C115  1  0.756200  0.259700  0.821570  1.0  -0.2032
  C  C116  1  0.697400  0.354900  0.832290  1.0  0.1809
  C  C117  1  0.432300  0.237700  0.832260  1.0  0.1735
  C  C118  1  0.479900  0.137500  0.821780  1.0  -0.2065
  C  C119  1  0.841200  0.056200  0.781280  1.0  -0.111
  C  C120  1  0.903000  0.960300  0.771930  1.0  0.0475
  C  C121  1  0.825500  0.847200  0.786790  1.0  -0.0583
  C  C122  1  0.043400  0.974300  0.745600  1.0  0.1107
  C  C123  1  0.056000  0.044400  0.712900  1.0  -0.2092
  C  C124  1  0.181800  0.050100  0.687540  1.0  0.1669
  C  C125  1  0.290700  0.930200  0.724880  1.0  0.1813
  C  C126  1  0.168000  0.918000  0.751740  1.0  -0.2236
  C  C127  1  0.837200  0.138000  0.391890  1.0  0.6816
  C  C128  1  0.929400  0.160600  0.428850  1.0  -0.1496
  C  C129  1  0.850200  0.119000  0.462790  1.0  -0.0641
  C  C130  1  0.929200  0.147600  0.497470  1.0  -0.0022
  C  C131  1  0.837700  0.108600  0.533520  1.0  0.0822
  C  C132  1  0.704700  0.006900  0.535460  1.0  -0.2147
  C  C133  1  0.618000  0.977100  0.568630  1.0  0.1807
  C  C134  1  0.783700  0.136800  0.599170  1.0  0.1698
  C  C135  1  0.877000  0.172400  0.567140  1.0  -0.2072
  C  C136  1  0.095600  0.216100  0.497540  1.0  -0.1037
  C  C137  1  0.178400  0.253800  0.464020  1.0  -0.0302
  C  C138  1  0.093800  0.227200  0.429660  1.0  -0.0957
  C  C139  1  0.357400  0.320500  0.464230  1.0  0.0738
  C  C140  1  0.458600  0.312400  0.493700  1.0  -0.2129
  C  C141  1  0.625400  0.371100  0.492120  1.0  0.18
  C  C142  1  0.598400  0.447900  0.434690  1.0  0.1692
  C  C143  1  0.429100  0.392900  0.434040  1.0  -0.2102
  C  C144  1  0.389300  0.791500  0.326230  1.0  0.6335
  C  C145  1  0.310800  0.669800  0.310130  1.0  -0.1399
  C  C146  1  0.371900  0.572600  0.318990  1.0  -0.0712
  C  C147  1  0.294500  0.458600  0.304810  1.0  0.0254
  C  C148  1  0.353900  0.352800  0.315960  1.0  0.1091
  C  C149  1  0.243800  0.240300  0.321570  1.0  -0.2029
  C  C150  1  0.302600  0.145100  0.332290  1.0  0.1796
  C  C151  1  0.567700  0.262300  0.332260  1.0  0.1758
  C  C152  1  0.520100  0.362500  0.321780  1.0  -0.2058
  C  C153  1  0.158800  0.443800  0.281280  1.0  -0.1125
  C  C154  1  0.097000  0.539700  0.271930  1.0  0.0471
  C  C155  1  0.174500  0.652800  0.286790  1.0  -0.0582
  C  C156  1  0.956600  0.525700  0.245600  1.0  0.1101
  C  C157  1  0.944000  0.455600  0.212900  1.0  -0.2088
  C  C158  1  0.818200  0.449900  0.187540  1.0  0.1658
  C  C159  1  0.709300  0.569800  0.224880  1.0  0.1806
  C  C160  1  0.832000  0.582000  0.251740  1.0  -0.225
  C  C161  1  0.837200  0.638000  0.108110  1.0  0.6815
  C  C162  1  0.929400  0.660600  0.071150  1.0  -0.1482
  C  C163  1  0.850200  0.619000  0.037210  1.0  -0.0641
  C  C164  1  0.929200  0.647600  0.002530  1.0  -0.0019
  C  C165  1  0.837700  0.608600  0.966480  1.0  0.0818
  C  C166  1  0.704700  0.506900  0.964540  1.0  -0.215
  C  C167  1  0.618000  0.477100  0.931370  1.0  0.181
  C  C168  1  0.783700  0.636800  0.900830  1.0  0.1703
  C  C169  1  0.877000  0.672400  0.932860  1.0  -0.2072
  C  C170  1  0.095600  0.716100  0.002460  1.0  -0.1041
  C  C171  1  0.178400  0.753800  0.035980  1.0  -0.0303
  C  C172  1  0.093800  0.727200  0.070340  1.0  -0.0949
  C  C173  1  0.357400  0.820500  0.035770  1.0  0.0738
  C  C174  1  0.458600  0.812400  0.006300  1.0  -0.2139
  C  C175  1  0.625400  0.871100  0.007880  1.0  0.1796
  C  C176  1  0.598400  0.947900  0.065310  1.0  0.1702
  C  C177  1  0.429100  0.892900  0.065960  1.0  -0.21
  C  C178  1  0.389300  0.291500  0.173770  1.0  0.6331
  C  C179  1  0.310800  0.169800  0.189870  1.0  -0.1407
  C  C180  1  0.371900  0.072600  0.181010  1.0  -0.0709
  C  C181  1  0.294500  0.958600  0.195190  1.0  0.0257
  C  C182  1  0.353900  0.852800  0.184040  1.0  0.1089
  C  C183  1  0.243800  0.740300  0.178430  1.0  -0.2025
  C  C184  1  0.302600  0.645100  0.167710  1.0  0.1798
  C  C185  1  0.567700  0.762300  0.167740  1.0  0.176
  C  C186  1  0.520100  0.862500  0.178220  1.0  -0.2055
  C  C187  1  0.158800  0.943800  0.218720  1.0  -0.1123
  C  C188  1  0.097000  0.039700  0.228070  1.0  0.0472
  C  C189  1  0.174500  0.152800  0.213210  1.0  -0.0586
  C  C190  1  0.956600  0.025700  0.254400  1.0  0.1102
  C  C191  1  0.944000  0.955600  0.287100  1.0  -0.2084
  C  C192  1  0.818200  0.949900  0.312460  1.0  0.1668
  C  C193  1  0.709300  0.069800  0.275120  1.0  0.1808
  C  C194  1  0.832000  0.082000  0.248260  1.0  -0.226
  C  C195  1  0.162800  0.862000  0.608110  1.0  0.6814
  C  C196  1  0.070600  0.839400  0.571150  1.0  -0.1481
  C  C197  1  0.149800  0.881000  0.537210  1.0  -0.0642
  C  C198  1  0.070800  0.852400  0.502530  1.0  -0.0015
  C  C199  1  0.162300  0.891400  0.466480  1.0  0.0814
  C  C200  1  0.295300  0.993100  0.464540  1.0  -0.2147
  C  C201  1  0.382000  0.022900  0.431370  1.0  0.1813
  C  C202  1  0.216300  0.863200  0.400830  1.0  0.1692
  C  C203  1  0.123000  0.827600  0.432860  1.0  -0.2059
  C  C204  1  0.904400  0.783900  0.502460  1.0  -0.1036
  C  C205  1  0.821600  0.746200  0.535980  1.0  -0.0304
  C  C206  1  0.906200  0.772800  0.570340  1.0  -0.0953
  C  C207  1  0.642600  0.679500  0.535770  1.0  0.0736
  C  C208  1  0.541400  0.687600  0.506300  1.0  -0.2129
  C  C209  1  0.374600  0.628900  0.507880  1.0  0.179
  C  C210  1  0.401600  0.552100  0.565310  1.0  0.1695
  C  C211  1  0.570900  0.607100  0.565960  1.0  -0.2097
  C  C212  1  0.610700  0.208500  0.673770  1.0  0.6321
  C  C213  1  0.689200  0.330200  0.689870  1.0  -0.1416
  C  C214  1  0.628100  0.427400  0.681010  1.0  -0.071
  C  C215  1  0.705500  0.541400  0.695190  1.0  0.0257
  C  C216  1  0.646100  0.647200  0.684040  1.0  0.1092
  C  C217  1  0.756200  0.759700  0.678430  1.0  -0.2028
  C  C218  1  0.697400  0.854900  0.667710  1.0  0.181
  C  C219  1  0.432300  0.737700  0.667740  1.0  0.1738
  C  C220  1  0.479900  0.637500  0.678220  1.0  -0.2062
  C  C221  1  0.841200  0.556200  0.718720  1.0  -0.1111
  C  C222  1  0.903000  0.460300  0.728070  1.0  0.0481
  C  C223  1  0.825500  0.347200  0.713210  1.0  -0.0585
  C  C224  1  0.043400  0.474300  0.754400  1.0  0.1112
  C  C225  1  0.056000  0.544400  0.787100  1.0  -0.2094
  C  C226  1  0.181800  0.550100  0.812460  1.0  0.1667
  C  C227  1  0.290700  0.430200  0.775120  1.0  0.1815
  C  C228  1  0.168000  0.418000  0.748260  1.0  -0.2247
  N  N229  1  0.347800  0.460100  0.100740  1.0  -0.3177
  N  N230  1  0.302800  0.063100  0.963280  1.0  -0.4275
  N  N231  1  0.537500  0.346800  0.837760  1.0  -0.3149
  N  N232  1  0.299500  0.992800  0.692770  1.0  -0.3225
  N  N233  1  0.652200  0.039900  0.600740  1.0  -0.3183
  N  N234  1  0.697200  0.436900  0.463280  1.0  -0.4308
  N  N235  1  0.462500  0.153200  0.337760  1.0  -0.3132
  N  N236  1  0.700500  0.507200  0.192770  1.0  -0.3212
  N  N237  1  0.652200  0.539900  0.899260  1.0  -0.3206
  N  N238  1  0.697200  0.936900  0.036720  1.0  -0.4301
  N  N239  1  0.462500  0.653200  0.162240  1.0  -0.3134
  N  N240  1  0.700500  0.007200  0.307230  1.0  -0.3206
  N  N241  1  0.347800  0.960100  0.399260  1.0  -0.3195
  N  N242  1  0.302800  0.563100  0.536720  1.0  -0.4268
  N  N243  1  0.537500  0.846800  0.662240  1.0  -0.3148
  N  N244  1  0.299500  0.492800  0.807230  1.0  -0.3215
  O  O245  1  0.293600  0.450900  0.891710  1.0  -0.6112
  O  O246  1  0.109400  0.294500  0.864570  1.0  -0.5801
  O  O247  1  0.497000  0.696210  0.850620  1.0  -0.5577
  O  O248  1  0.659300  0.619240  0.815750  1.0  -0.5625
  O  O249  1  0.706400  0.049100  0.391710  1.0  -0.6112
  O  O250  1  0.890600  0.205500  0.364570  1.0  -0.5792
  O  O251  1  0.503000  0.803790  0.350620  1.0  -0.5584
  O  O252  1  0.340700  0.880760  0.315750  1.0  -0.5627
  O  O253  1  0.706400  0.549100  0.108290  1.0  -0.6116
  O  O254  1  0.890600  0.705500  0.135430  1.0  -0.579
  O  O255  1  0.503000  0.303790  0.149380  1.0  -0.5573
  O  O256  1  0.340700  0.380760  0.184250  1.0  -0.5631
  O  O257  1  0.293600  0.950900  0.608290  1.0  -0.6112
  O  O258  1  0.109400  0.794500  0.635430  1.0  -0.5797
  O  O259  1  0.497000  0.196210  0.649380  1.0  -0.5561
  O  O260  1  0.659300  0.119240  0.684250  1.0  -0.5633
