# generated using pymatgen
data_YbH60C74S8N12Cl(O5F4)6
_symmetry_space_group_name_H-M   'P 1'
_cell_length_a   20.49500000
_cell_length_b   22.70100000
_cell_length_c   27.43500000
_cell_angle_alpha   84.14600000
_cell_angle_beta   78.93500000
_cell_angle_gamma   67.63600000
_symmetry_Int_Tables_number   1
_chemical_formula_structural   YbH60C74S8N12Cl(O5F4)6
_chemical_formula_sum   'Yb2 H120 C148 S16 N24 Cl2 O60 F48'
_cell_volume   11578.91742491
_cell_formula_units_Z   2
loop_
 _symmetry_equiv_pos_site_id
 _symmetry_equiv_pos_as_xyz
  1  'x, y, z'
loop_
 _atom_site_type_symbol
 _atom_site_label
 _atom_site_symmetry_multiplicity
 _atom_site_fract_x
 _atom_site_fract_y
 _atom_site_fract_z
 _atom_site_occupancy
 _atom_site_charge
  Yb  Yb1  1  0.925830  0.646440  0.723150  1.0  1.2875
  Yb  Yb2  1  0.074170  0.353560  0.276850  1.0  1.2821
  H  H3  1  0.734700  0.631400  0.728800  1.0  0.1318
  H  H4  1  0.662600  0.586300  0.781100  1.0  0.125
  H  H5  1  0.718000  0.632600  0.898200  1.0  0.1158
  H  H6  1  0.792300  0.675800  0.846000  1.0  0.1224
  H  H7  1  0.637800  0.511300  0.836800  1.0  0.128
  H  H8  1  0.561400  0.472400  0.892400  1.0  0.1296
  H  H9  1  0.532000  0.603600  0.988300  1.0  0.1148
  H  H10  1  0.607200  0.642300  0.935100  1.0  0.1304
  H  H11  1  0.438500  0.555900  0.990200  1.0  0.1018
  H  H12  1  0.468200  0.491800  0.959400  1.0  0.0886
  H  H13  1  0.897100  0.756300  0.819200  1.0  0.0832
  H  H14  1  0.808500  0.813700  0.884100  1.0  0.126
  H  H15  1  0.682200  0.891600  0.778300  1.0  0.1014
  H  H16  1  0.766500  0.829800  0.719300  1.0  0.1273
  H  H17  1  0.702400  0.830100  0.935600  1.0  0.117
  H  H18  1  0.625800  0.910300  0.993700  1.0  0.0955
  H  H19  1  0.550100  0.028600  0.898100  1.0  0.0818
  H  H20  1  0.624200  0.973800  0.833700  1.0  0.1202
  H  H21  1  0.502500  0.055500  0.977900  1.0  0.0665
  H  H22  1  0.550800  0.012600  0.017300  1.0  0.0641
  H  H23  1  0.063800  0.709000  0.768400  1.0  0.115
  H  H24  1  0.073000  0.809100  0.770600  1.0  0.1306
  H  H25  1  0.009700  0.851400  0.635500  1.0  0.1177
  H  H26  1  0.006700  0.750700  0.636300  1.0  0.1149
  H  H27  1  0.120800  0.886300  0.745500  1.0  0.1282
  H  H28  1  0.120400  0.988300  0.743600  1.0  0.132
  H  H29  1  0.958300  0.054100  0.668600  1.0  0.1279
  H  H30  1  0.959500  0.952100  0.666500  1.0  0.1107
  H  H31  1  0.058300  0.097500  0.738000  1.0  0.0913
  H  H32  1  0.983200  0.124600  0.718500  1.0  0.1047
  H  H33  1  0.123400  0.524700  0.728300  1.0  0.1213
  H  H34  1  0.240500  0.500000  0.684900  1.0  0.1296
  H  H35  1  0.160000  0.541200  0.556200  1.0  0.1292
  H  H36  1  0.044600  0.563400  0.603100  1.0  0.1234
  H  H37  1  0.341200  0.460800  0.642500  1.0  0.1318
  H  H38  1  0.453500  0.444800  0.596100  1.0  0.1215
  H  H39  1  0.371900  0.526100  0.478900  1.0  0.1022
  H  H40  1  0.254900  0.546200  0.521100  1.0  0.1237
  H  H41  1  0.528800  0.439400  0.524500  1.0  0.0859
  H  H42  1  0.498700  0.449900  0.473100  1.0  0.0931
  H  H43  1  0.949600  0.475300  0.788500  1.0  0.1247
  H  H44  1  0.001600  0.367800  0.768300  1.0  0.1362
  H  H45  1  0.942700  0.420000  0.633000  1.0  0.1291
  H  H46  1  0.892100  0.525900  0.656800  1.0  0.1253
  H  H47  1  0.090300  0.283900  0.723500  1.0  0.1346
  H  H48  1  0.129000  0.175500  0.704100  1.0  0.1318
  H  H49  1  0.974900  0.214500  0.626300  1.0  0.1176
  H  H50  1  0.933700  0.322000  0.643100  1.0  0.1119
  H  H51  1  0.050000  0.110200  0.634500  1.0  0.1006
  H  H52  1  0.120800  0.095600  0.658100  1.0  0.0992
  H  H53  1  0.872100  0.788100  0.633100  1.0  0.1165
  H  H54  1  0.775400  0.859700  0.602900  1.0  0.1178
  H  H55  1  0.715200  0.716900  0.582300  1.0  0.1101
  H  H56  1  0.810500  0.646100  0.614500  1.0  0.1334
  H  H57  1  0.655300  0.918500  0.615600  1.0  0.1173
  H  H58  1  0.560000  0.991200  0.584500  1.0  0.1261
  H  H59  1  0.560100  0.861600  0.495800  1.0  0.134
  H  H60  1  0.656800  0.787100  0.525700  1.0  0.1024
  H  H61  1  0.460400  0.958600  0.508500  1.0  0.0876
  H  H62  1  0.456200  0.007600  0.548300  1.0  0.095
  H  H63  1  0.265300  0.368600  0.271200  1.0  0.1306
  H  H64  1  0.337400  0.413700  0.218900  1.0  0.1254
  H  H65  1  0.282000  0.367400  0.101800  1.0  0.1162
  H  H66  1  0.207700  0.324200  0.154000  1.0  0.1218
  H  H67  1  0.362200  0.488700  0.163200  1.0  0.1281
  H  H68  1  0.438600  0.527600  0.107600  1.0  0.1307
  H  H69  1  0.468000  0.396400  0.011700  1.0  0.1144
  H  H70  1  0.392800  0.357700  0.064900  1.0  0.1298
  H  H71  1  0.561500  0.444100  0.009800  1.0  0.1016
  H  H72  1  0.531800  0.508200  0.040600  1.0  0.0889
  H  H73  1  0.102900  0.243700  0.180800  1.0  0.0822
  H  H74  1  0.191500  0.186300  0.115900  1.0  0.1264
  H  H75  1  0.317800  0.108400  0.221700  1.0  0.1008
  H  H76  1  0.233500  0.170200  0.280700  1.0  0.1264
  H  H77  1  0.297600  0.169900  0.064400  1.0  0.1168
  H  H78  1  0.374200  0.089700  0.006300  1.0  0.0977
  H  H79  1  0.449900  0.971400  0.101900  1.0  0.0815
  H  H80  1  0.375800  0.026200  0.166300  1.0  0.1215
  H  H81  1  0.497500  0.944500  0.022100  1.0  0.0653
  H  H82  1  0.449200  0.987400  0.982700  1.0  0.0673
  H  H83  1  0.936200  0.291000  0.231600  1.0  0.114
  H  H84  1  0.927000  0.190900  0.229400  1.0  0.13
  H  H85  1  0.990300  0.148600  0.364500  1.0  0.1186
  H  H86  1  0.993300  0.249300  0.363700  1.0  0.1143
  H  H87  1  0.879200  0.113700  0.254500  1.0  0.1284
  H  H88  1  0.879600  0.011700  0.256400  1.0  0.1315
  H  H89  1  0.041700  0.945900  0.331400  1.0  0.1278
  H  H90  1  0.040500  0.047900  0.333500  1.0  0.1107
  H  H91  1  0.941700  0.902500  0.262000  1.0  0.0904
  H  H92  1  0.016800  0.875400  0.281500  1.0  0.1063
  H  H93  1  0.876600  0.475300  0.271700  1.0  0.1216
  H  H94  1  0.759500  0.500000  0.315100  1.0  0.1294
  H  H95  1  0.840000  0.458800  0.443800  1.0  0.1286
  H  H96  1  0.955400  0.436600  0.396900  1.0  0.1239
  H  H97  1  0.658800  0.539200  0.357500  1.0  0.1318
  H  H98  1  0.546500  0.555200  0.403900  1.0  0.122
  H  H99  1  0.628100  0.473900  0.521100  1.0  0.102
  H  H100  1  0.745100  0.453800  0.478900  1.0  0.1244
  H  H101  1  0.471200  0.560600  0.475500  1.0  0.086
  H  H102  1  0.501300  0.550100  0.526900  1.0  0.0919
  H  H103  1  0.050400  0.524700  0.211500  1.0  0.1251
  H  H104  1  0.998400  0.632200  0.231700  1.0  0.1351
  H  H105  1  0.057300  0.580000  0.367000  1.0  0.1287
  H  H106  1  0.107900  0.474100  0.343200  1.0  0.126
  H  H107  1  0.909700  0.716100  0.276500  1.0  0.1345
  H  H108  1  0.871000  0.824500  0.295900  1.0  0.1322
  H  H109  1  0.025100  0.785500  0.373700  1.0  0.1184
  H  H110  1  0.066300  0.678000  0.356900  1.0  0.1119
  H  H111  1  0.950000  0.889800  0.365500  1.0  0.0994
  H  H112  1  0.879200  0.904400  0.341900  1.0  0.099
  H  H113  1  0.127900  0.211900  0.366900  1.0  0.1163
  H  H114  1  0.224600  0.140300  0.397100  1.0  0.1175
  H  H115  1  0.284800  0.283100  0.417700  1.0  0.1101
  H  H116  1  0.189500  0.353900  0.385500  1.0  0.1329
  H  H117  1  0.344700  0.081500  0.384400  1.0  0.1174
  H  H118  1  0.440000  0.008800  0.415500  1.0  0.1257
  H  H119  1  0.439900  0.138400  0.504200  1.0  0.1337
  H  H120  1  0.343200  0.212900  0.474300  1.0  0.1024
  H  H121  1  0.539600  0.041400  0.491500  1.0  0.0878
  H  H122  1  0.543800  0.992400  0.451700  1.0  0.0944
  C  C123  1  0.731000  0.632100  0.763800  1.0  0.0314
  C  C124  1  0.687800  0.606300  0.794700  1.0  -0.1523
  C  C125  1  0.680100  0.608700  0.845700  1.0  0.0629
  C  C126  1  0.720100  0.632900  0.863300  1.0  -0.1419
  C  C127  1  0.764600  0.658400  0.832400  1.0  0.0712
  C  C128  1  0.629100  0.581900  0.879500  1.0  0.0816
  C  C129  1  0.615400  0.531200  0.867700  1.0  -0.0655
  C  C130  1  0.569600  0.508800  0.899800  1.0  0.0205
  C  C131  1  0.551700  0.585700  0.956500  1.0  0.0886
  C  C132  1  0.597100  0.608100  0.925300  1.0  -0.1762
  C  C133  1  0.482100  0.519200  0.977800  1.0  0.0005
  C  C134  1  0.851700  0.783800  0.811800  1.0  0.0544
  C  C135  1  0.799700  0.817700  0.850900  1.0  -0.1812
  C  C136  1  0.735400  0.857100  0.837500  1.0  0.0622
  C  C137  1  0.725900  0.862200  0.787100  1.0  -0.112
  C  C138  1  0.775200  0.827800  0.752400  1.0  0.0085
  C  C139  1  0.678900  0.895000  0.876200  1.0  0.0813
  C  C140  1  0.674900  0.872100  0.925400  1.0  -0.1518
  C  C141  1  0.623700  0.919700  0.959300  1.0  0.0466
  C  C142  1  0.582800  0.987300  0.905400  1.0  0.1033
  C  C143  1  0.626900  0.956200  0.866500  1.0  -0.1493
  C  C144  1  0.525000  0.011300  0.990700  1.0  0.014
  C  C145  1  0.052900  0.738900  0.741500  1.0  0.0261
  C  C146  1  0.057700  0.798900  0.743100  1.0  -0.1491
  C  C147  1  0.039900  0.843500  0.704000  1.0  0.0837
  C  C148  1  0.021000  0.823400  0.663400  1.0  -0.1463
  C  C149  1  0.018800  0.763700  0.664000  1.0  0.0174
  C  C150  1  0.041800  0.907700  0.704500  1.0  0.0877
  C  C151  1  0.088100  0.919900  0.728700  1.0  -0.0902
  C  C152  1  0.086900  0.980000  0.728500  1.0  0.055
  C  C153  1  0.991600  0.019200  0.683900  1.0  0.0231
  C  C154  1  0.992900  0.959100  0.682700  1.0  -0.1147
  C  C155  1  0.033900  0.095900  0.710600  1.0  -0.0102
  C  C156  1  0.131800  0.527700  0.693000  1.0  0.0053
  C  C157  1  0.201100  0.513200  0.667500  1.0  -0.1613
  C  C158  1  0.211800  0.518600  0.615300  1.0  0.0475
  C  C159  1  0.153700  0.537300  0.591400  1.0  -0.1359
  C  C160  1  0.085000  0.550800  0.619300  1.0  0.0172
  C  C161  1  0.285700  0.505900  0.587500  1.0  0.0892
  C  C162  1  0.345500  0.475100  0.608700  1.0  -0.1867
  C  C163  1  0.412200  0.464900  0.580700  1.0  0.0439
  C  C164  1  0.365100  0.512100  0.512600  1.0  0.0708
  C  C165  1  0.294700  0.525100  0.537600  1.0  -0.226
  C  C166  1  0.493300  0.469600  0.505000  1.0  0.0528
  C  C167  1  0.947600  0.462800  0.756900  1.0  0.0019
  C  C168  1  0.979300  0.399100  0.744800  1.0  -0.15
  C  C169  1  0.977900  0.382100  0.699000  1.0  0.0916
  C  C170  1  0.944200  0.430500  0.665300  1.0  -0.1571
  C  C171  1  0.913700  0.492800  0.679400  1.0  0.0218
  C  C172  1  0.006200  0.314800  0.685200  1.0  0.0736
  C  C173  1  0.065400  0.270600  0.703700  1.0  -0.1864
  C  C174  1  0.087800  0.206100  0.692900  1.0  -0.007
  C  C175  1  0.997600  0.228700  0.647200  1.0  0.0312
  C  C176  1  0.973700  0.292900  0.656800  1.0  -0.168
  C  C177  1  0.068300  0.118500  0.663000  1.0  0.0691
  C  C178  1  0.838700  0.773700  0.623400  1.0  0.0489
  C  C179  1  0.781700  0.815800  0.605400  1.0  -0.1635
  C  C180  1  0.732900  0.797600  0.590500  1.0  0.1001
  C  C181  1  0.746700  0.732100  0.593700  1.0  -0.1332
  C  C182  1  0.803000  0.690200  0.612300  1.0  0.0582
  C  C183  1  0.669900  0.842400  0.572000  1.0  0.0511
  C  C184  1  0.636600  0.906700  0.590600  1.0  -0.1031
  C  C185  1  0.580400  0.948900  0.572900  1.0  0.0753
  C  C186  1  0.580200  0.872600  0.520300  1.0  -0.0177
  C  C187  1  0.637800  0.829100  0.537800  1.0  -0.1189
  C  C188  1  0.487700  0.980100  0.520700  1.0  0.0626
  C  C189  1  0.961900  0.591400  0.887800  1.0  0.4186
  C  C190  1  0.269000  0.367900  0.236200  1.0  0.0312
  C  C191  1  0.312200  0.393700  0.205300  1.0  -0.1523
  C  C192  1  0.319900  0.391300  0.154300  1.0  0.0649
  C  C193  1  0.279900  0.367100  0.136700  1.0  -0.1413
  C  C194  1  0.235400  0.341600  0.167600  1.0  0.0706
  C  C195  1  0.370900  0.418100  0.120500  1.0  0.0808
  C  C196  1  0.384600  0.468800  0.132300  1.0  -0.0664
  C  C197  1  0.430400  0.491200  0.100200  1.0  0.0222
  C  C198  1  0.448300  0.414300  0.043500  1.0  0.0896
  C  C199  1  0.402900  0.391900  0.074700  1.0  -0.1764
  C  C200  1  0.517900  0.480800  0.022200  1.0  0.0002
  C  C201  1  0.148300  0.216200  0.188200  1.0  0.0532
  C  C202  1  0.200300  0.182300  0.149100  1.0  -0.1808
  C  C203  1  0.264600  0.142900  0.162500  1.0  0.0632
  C  C204  1  0.274100  0.137800  0.212900  1.0  -0.1121
  C  C205  1  0.224800  0.172200  0.247600  1.0  0.0105
  C  C206  1  0.321100  0.105000  0.123800  1.0  0.0818
  C  C207  1  0.325100  0.127900  0.074600  1.0  -0.1531
  C  C208  1  0.376300  0.080300  0.040700  1.0  0.0468
  C  C209  1  0.417200  0.012700  0.094600  1.0  0.1004
  C  C210  1  0.373100  0.043800  0.133500  1.0  -0.1493
  C  C211  1  0.475000  0.988700  0.009300  1.0  0.0126
  C  C212  1  0.947100  0.261100  0.258500  1.0  0.0278
  C  C213  1  0.942300  0.201100  0.256900  1.0  -0.1478
  C  C214  1  0.960100  0.156500  0.296000  1.0  0.0836
  C  C215  1  0.979000  0.176600  0.336600  1.0  -0.1466
  C  C216  1  0.981200  0.236300  0.336000  1.0  0.0184
  C  C217  1  0.958200  0.092300  0.295500  1.0  0.0873
  C  C218  1  0.911900  0.080100  0.271300  1.0  -0.0909
  C  C219  1  0.913100  0.020000  0.271500  1.0  0.0536
  C  C220  1  0.008400  0.980800  0.316100  1.0  0.022
  C  C221  1  0.007100  0.040900  0.317300  1.0  -0.1157
  C  C222  1  0.966100  0.904100  0.289400  1.0  -0.0119
  C  C223  1  0.868200  0.472300  0.307000  1.0  0.008
  C  C224  1  0.798900  0.486800  0.332500  1.0  -0.1597
  C  C225  1  0.788200  0.481400  0.384700  1.0  0.0469
  C  C226  1  0.846300  0.462700  0.408600  1.0  -0.1361
  C  C227  1  0.915000  0.449200  0.380700  1.0  0.0158
  C  C228  1  0.714300  0.494100  0.412500  1.0  0.0881
  C  C229  1  0.654500  0.524900  0.391300  1.0  -0.188
  C  C230  1  0.587800  0.535100  0.419300  1.0  0.0437
  C  C231  1  0.634900  0.487900  0.487400  1.0  0.0718
  C  C232  1  0.705300  0.474900  0.462400  1.0  -0.2254
  C  C233  1  0.506700  0.530400  0.495000  1.0  0.0542
  C  C234  1  0.052400  0.537200  0.243100  1.0  0.0036
  C  C235  1  0.020700  0.600900  0.255200  1.0  -0.151
  C  C236  1  0.022100  0.617900  0.301000  1.0  0.0907
  C  C237  1  0.055800  0.569500  0.334700  1.0  -0.1552
  C  C238  1  0.086300  0.507200  0.320600  1.0  0.0217
  C  C239  1  0.993800  0.685200  0.314800  1.0  0.0742
  C  C240  1  0.934600  0.729400  0.296300  1.0  -0.1895
  C  C241  1  0.912200  0.793900  0.307100  1.0  -0.0085
  C  C242  1  0.002400  0.771300  0.352800  1.0  0.0333
  C  C243  1  0.026300  0.707100  0.343200  1.0  -0.1688
  C  C244  1  0.931700  0.881500  0.337000  1.0  0.0686
  C  C245  1  0.161300  0.226300  0.376600  1.0  0.0495
  C  C246  1  0.218300  0.184200  0.394600  1.0  -0.1641
  C  C247  1  0.267100  0.202400  0.409500  1.0  0.0993
  C  C248  1  0.253300  0.267900  0.406300  1.0  -0.1345
  C  C249  1  0.197000  0.309800  0.387700  1.0  0.0589
  C  C250  1  0.330100  0.157600  0.428000  1.0  0.0511
  C  C251  1  0.363400  0.093300  0.409400  1.0  -0.1051
  C  C252  1  0.419600  0.051100  0.427100  1.0  0.0739
  C  C253  1  0.419800  0.127400  0.479700  1.0  -0.0189
  C  C254  1  0.362200  0.170900  0.462200  1.0  -0.1193
  C  C255  1  0.512300  0.019900  0.479300  1.0  0.0603
  C  C256  1  0.038100  0.408600  0.112200  1.0  0.4182
  C  C257  1  0.202200  0.987200  0.390600  1.0  0.3845
  C  C258  1  0.699300  0.644500  0.476600  1.0  0.4035
  C  C259  1  0.935700  0.287600  0.485900  1.0  0.4638
  C  C260  1  0.248000  0.604600  0.265300  1.0  0.4965
  C  C261  1  0.212300  0.356600  0.979300  1.0  0.4453
  C  C262  1  0.410900  0.360400  0.785900  1.0  0.4297
  C  C263  1  0.495600  0.933600  0.253300  1.0  0.3961
  C  C264  1  0.797800  0.012800  0.609400  1.0  0.3814
  C  C265  1  0.300700  0.355500  0.523400  1.0  0.4027
  C  C266  1  0.064300  0.712400  0.514100  1.0  0.4632
  C  C267  1  0.752000  0.395400  0.734700  1.0  0.4953
  C  C268  1  0.787700  0.643400  0.020700  1.0  0.4471
  C  C269  1  0.589100  0.639600  0.214100  1.0  0.4257
  C  C270  1  0.504400  0.066400  0.746700  1.0  0.3925
  S  S271  1  0.002400  0.602200  0.826600  1.0  1.2966
  S  S272  1  0.997600  0.397800  0.173400  1.0  1.3001
  S  S273  1  0.131820  0.061020  0.404370  1.0  1.2336
  S  S274  1  0.608300  0.679400  0.502430  1.0  1.2245
  S  S275  1  0.881900  0.342840  0.529480  1.0  0.9092
  S  S276  1  0.307600  0.636300  0.231800  1.0  1.1983
  S  S277  1  0.273600  0.303000  0.014800  1.0  1.2917
  S  S278  1  0.370200  0.428100  0.748500  1.0  1.174
  S  S279  1  0.415800  0.990500  0.285000  1.0  1.0763
  S  S280  1  0.868180  0.938980  0.595630  1.0  1.2346
  S  S281  1  0.391700  0.320600  0.497570  1.0  1.2235
  S  S282  1  0.118100  0.657160  0.470520  1.0  0.9095
  S  S283  1  0.692400  0.363700  0.768200  1.0  1.1964
  S  S284  1  0.726400  0.697000  0.985200  1.0  1.2913
  S  S285  1  0.629800  0.571900  0.251500  1.0  1.1736
  S  S286  1  0.584200  0.009500  0.715000  1.0  1.0768
  N  N287  1  0.768600  0.658600  0.783400  1.0  0.3276
  N  N288  1  0.534200  0.541900  0.945100  1.0  0.048
  N  N289  1  0.841100  0.787900  0.765600  1.0  0.2487
  N  N290  1  0.577700  0.971200  0.949100  1.0  0.0208
  N  N291  1  0.033100  0.724100  0.702500  1.0  0.2884
  N  N292  1  0.038000  0.027500  0.706900  1.0  -0.0446
  N  N293  1  0.077100  0.545800  0.668600  1.0  0.3039
  N  N294  1  0.420400  0.482300  0.532800  1.0  0.1117
  N  N295  1  0.914800  0.506100  0.724900  1.0  0.3232
  N  N296  1  0.050300  0.188100  0.666400  1.0  0.0048
  N  N297  1  0.849400  0.710500  0.628000  1.0  0.2515
  N  N298  1  0.551900  0.932000  0.538500  1.0  0.0289
  N  N299  1  0.231400  0.341400  0.216600  1.0  0.326
  N  N300  1  0.465800  0.458100  0.054900  1.0  0.0493
  N  N301  1  0.158900  0.212100  0.234400  1.0  0.2483
  N  N302  1  0.422300  0.028800  0.050900  1.0  0.0186
  N  N303  1  0.966900  0.275900  0.297500  1.0  0.2895
  N  N304  1  0.962000  0.972500  0.293100  1.0  -0.0443
  N  N305  1  0.922900  0.454200  0.331400  1.0  0.3041
  N  N306  1  0.579600  0.517700  0.467200  1.0  0.1108
  N  N307  1  0.085200  0.493900  0.275100  1.0  0.3225
  N  N308  1  0.949700  0.811900  0.333600  1.0  0.007
  N  N309  1  0.150600  0.289500  0.372000  1.0  0.2542
  N  N310  1  0.448100  0.068000  0.461500  1.0  0.0297
  Cl  Cl311  1  0.134700  0.388600  0.637100  1.0  -0.5151
  Cl  Cl312  1  0.865300  0.611400  0.362900  1.0  -0.5146
  O  O313  1  0.808100  0.687000  0.754000  1.0  -0.6132
  O  O314  1  0.891700  0.753700  0.730200  1.0  -0.5973
  O  O315  1  0.028300  0.667100  0.702800  1.0  -0.6061
  O  O316  1  0.012300  0.556300  0.694100  1.0  -0.6236
  O  O317  1  0.883800  0.566300  0.738600  1.0  -0.6026
  O  O318  1  0.907900  0.668300  0.645700  1.0  -0.6091
  O  O319  1  0.951600  0.630900  0.796300  1.0  -0.6901
  O  O320  1  0.036000  0.645000  0.839600  1.0  -0.6028
  O  O321  1  0.055600  0.541500  0.813200  1.0  -0.5064
  O  O322  1  0.191900  0.313000  0.246000  1.0  -0.6133
  O  O323  1  0.108300  0.246300  0.269800  1.0  -0.5985
  O  O324  1  0.971700  0.332900  0.297200  1.0  -0.6063
  O  O325  1  0.987700  0.443700  0.305900  1.0  -0.6238
  O  O326  1  0.116200  0.433700  0.261400  1.0  -0.6027
  O  O327  1  0.092100  0.331700  0.354300  1.0  -0.6083
  O  O328  1  0.048400  0.369100  0.203700  1.0  -0.6902
  O  O329  1  0.964000  0.355000  0.160400  1.0  -0.6039
  O  O330  1  0.944400  0.458500  0.186800  1.0  -0.5091
  O  O331  1  0.149800  0.081900  0.445100  1.0  -0.5294
  O  O332  1  0.136500  0.098800  0.359500  1.0  -0.5718
  O  O333  1  0.069800  0.043900  0.414800  1.0  -0.5535
  O  O334  1  0.623400  0.680100  0.553000  1.0  -0.6088
  O  O335  1  0.581200  0.739800  0.483200  1.0  -0.4839
  O  O336  1  0.576700  0.634600  0.498700  1.0  -0.5142
  O  O337  1  0.892900  0.311500  0.571400  1.0  -0.4773
  O  O338  1  0.910800  0.388900  0.518600  1.0  -0.5321
  O  O339  1  0.817000  0.366800  0.515100  1.0  -0.4874
  O  O340  1  0.258600  0.692500  0.210900  1.0  -0.5653
  O  O341  1  0.340500  0.645000  0.268900  1.0  -0.5174
  O  O342  1  0.349800  0.593800  0.192000  1.0  -0.5633
  O  O343  1  0.303800  0.245400  0.987800  1.0  -0.5133
  O  O344  1  0.234300  0.292100  0.061200  1.0  -0.5427
  O  O345  1  0.323300  0.335400  0.014100  1.0  -0.6128
  O  O346  1  0.315800  0.415600  0.732500  1.0  -0.4842
  O  O347  1  0.422500  0.432000  0.707700  1.0  -0.4979
  O  O348  1  0.345300  0.471700  0.790400  1.0  -0.5954
  O  O349  1  0.421800  0.978400  0.335600  1.0  -0.4988
  O  O350  1  0.409800  0.050200  0.262200  1.0  -0.5216
  O  O351  1  0.366400  0.962800  0.271100  1.0  -0.6047
  O  O352  1  0.850200  0.918100  0.554900  1.0  -0.5324
  O  O353  1  0.863500  0.901200  0.640500  1.0  -0.5743
  O  O354  1  0.930200  0.956100  0.585200  1.0  -0.551
  O  O355  1  0.376600  0.319900  0.447000  1.0  -0.6061
  O  O356  1  0.418800  0.260200  0.516800  1.0  -0.484
  O  O357  1  0.423300  0.365400  0.501300  1.0  -0.5123
  O  O358  1  0.107100  0.688500  0.428600  1.0  -0.4785
  O  O359  1  0.089200  0.611100  0.481400  1.0  -0.5308
  O  O360  1  0.183000  0.633200  0.484900  1.0  -0.4865
  O  O361  1  0.741400  0.307500  0.789100  1.0  -0.5639
  O  O362  1  0.659500  0.355000  0.731100  1.0  -0.5169
  O  O363  1  0.650200  0.406200  0.808000  1.0  -0.5648
  O  O364  1  0.696200  0.754600  0.012200  1.0  -0.5154
  O  O365  1  0.765700  0.707900  0.938800  1.0  -0.545
  O  O366  1  0.676700  0.664600  0.985900  1.0  -0.6096
  O  O367  1  0.684200  0.584400  0.267500  1.0  -0.4844
  O  O368  1  0.577500  0.568000  0.292300  1.0  -0.4977
  O  O369  1  0.654700  0.528300  0.209600  1.0  -0.5941
  O  O370  1  0.578200  0.021600  0.664400  1.0  -0.5
  O  O371  1  0.590200  0.949800  0.737800  1.0  -0.519
  O  O372  1  0.633600  0.037200  0.728900  1.0  -0.6066
  F  F373  1  0.925400  0.554400  0.883500  1.0  -0.1345
  F  F374  1  0.921500  0.652300  0.905700  1.0  -0.1658
  F  F375  1  0.012000  0.560900  0.917600  1.0  -0.158
  F  F376  1  0.074600  0.445600  0.116500  1.0  -0.1296
  F  F377  1  0.078500  0.347700  0.094300  1.0  -0.1689
  F  F378  1  0.988000  0.439100  0.082400  1.0  -0.1567
  F  F379  1  0.266500  0.993800  0.380200  1.0  -0.1395
  F  F380  1  0.193500  0.960700  0.351000  1.0  -0.1427
  F  F381  1  0.206100  0.944900  0.429800  1.0  -0.1619
  F  F382  1  0.700900  0.637700  0.425600  1.0  -0.2727
  F  F383  1  0.734300  0.590200  0.484000  1.0  -0.2072
  F  F384  1  0.733900  0.683900  0.475300  1.0  -0.1729
  F  F385  1  0.999600  0.257400  0.490700  1.0  -0.1687
  F  F386  1  0.935700  0.310400  0.438400  1.0  -0.1839
  F  F387  1  0.916200  0.239500  0.482000  1.0  -0.1751
  F  F388  1  0.286000  0.545300  0.285400  1.0  -0.2164
  F  F389  1  0.204900  0.629500  0.303100  1.0  -0.1446
  F  F390  1  0.213500  0.584200  0.238500  1.0  -0.1664
  F  F391  1  0.170500  0.329100  0.965900  1.0  -0.174
  F  F392  1  0.177600  0.410700  0.007100  1.0  -0.1573
  F  F393  1  0.246300  0.368700  0.934100  1.0  -0.1761
  F  F394  1  0.472800  0.361100  0.795500  1.0  -0.1458
  F  F395  1  0.358900  0.366000  0.828200  1.0  -0.1659
  F  F396  1  0.425700  0.306200  0.762200  1.0  -0.1569
  F  F397  1  0.497000  0.875900  0.273200  1.0  -0.1755
  F  F398  1  0.544700  0.960700  0.256100  1.0  -0.1996
  F  F399  1  0.483000  0.934300  0.205700  1.0  -0.1591
  F  F400  1  0.733500  0.006200  0.619800  1.0  -0.1404
  F  F401  1  0.806500  0.039300  0.649000  1.0  -0.1432
  F  F402  1  0.793900  0.055100  0.570200  1.0  -0.1623
  F  F403  1  0.299100  0.362300  0.574400  1.0  -0.2708
  F  F404  1  0.265700  0.409800  0.516000  1.0  -0.2059
  F  F405  1  0.266100  0.316100  0.524700  1.0  -0.1705
  F  F406  1  0.000400  0.742600  0.509300  1.0  -0.1687
  F  F407  1  0.064300  0.689600  0.561600  1.0  -0.1848
  F  F408  1  0.083800  0.760500  0.518000  1.0  -0.1752
  F  F409  1  0.714000  0.454700  0.714600  1.0  -0.2211
  F  F410  1  0.795100  0.370500  0.696900  1.0  -0.1452
  F  F411  1  0.786500  0.415800  0.761500  1.0  -0.1656
  F  F412  1  0.829500  0.670900  0.034100  1.0  -0.176
  F  F413  1  0.822400  0.589300  0.992900  1.0  -0.1557
  F  F414  1  0.753700  0.631300  0.065900  1.0  -0.1748
  F  F415  1  0.527200  0.638900  0.204500  1.0  -0.1456
  F  F416  1  0.641100  0.634000  0.171800  1.0  -0.1665
  F  F417  1  0.574300  0.693800  0.237800  1.0  -0.1564
  F  F418  1  0.503000  0.124100  0.726800  1.0  -0.1786
  F  F419  1  0.455300  0.039300  0.743900  1.0  -0.1989
  F  F420  1  0.517000  0.065700  0.794300  1.0  -0.1581
