# generated using pymatgen
data_CuH4C8N3O4
_symmetry_space_group_name_H-M   'P 1'
_cell_length_a   4.71010000
_cell_length_b   10.77040000
_cell_length_c   20.02890000
_cell_angle_alpha   90.00000000
_cell_angle_beta   90.00000000
_cell_angle_gamma   95.47200000
_symmetry_Int_Tables_number   1
_chemical_formula_structural   CuH4C8N3O4
_chemical_formula_sum   'Cu4 H16 C32 N12 O16'
_cell_volume   1011.42904301
_cell_formula_units_Z   4
loop_
 _symmetry_equiv_pos_site_id
 _symmetry_equiv_pos_as_xyz
  1  'x, y, z'
loop_
 _atom_site_type_symbol
 _atom_site_label
 _atom_site_symmetry_multiplicity
 _atom_site_fract_x
 _atom_site_fract_y
 _atom_site_fract_z
 _atom_site_occupancy
 _atom_site_charge
  Cu  Cu1  1  0.311000  0.465000  0.663600  1.0  0.7818
  Cu  Cu2  1  0.689000  0.035000  0.163600  1.0  0.7829
  Cu  Cu3  1  0.689000  0.535000  0.336400  1.0  0.783
  Cu  Cu4  1  0.311000  0.965000  0.836400  1.0  0.7818
  H  H5  1  0.234660  0.431350  0.915380  1.0  0.0938
  H  H6  1  0.403610  0.536350  0.816800  1.0  0.1133
  H  H7  1  0.611290  0.355270  0.574960  1.0  0.0882
  H  H8  1  0.179980  0.631980  0.535450  1.0  0.1007
  H  H9  1  0.765340  0.068650  0.415380  1.0  0.0938
  H  H10  1  0.596390  0.963650  0.316800  1.0  0.1129
  H  H11  1  0.388710  0.144730  0.074960  1.0  0.0888
  H  H12  1  0.820020  0.868020  0.035450  1.0  0.1004
  H  H13  1  0.765340  0.568650  0.084620  1.0  0.0942
  H  H14  1  0.596390  0.463650  0.183200  1.0  0.1128
  H  H15  1  0.388710  0.644730  0.425040  1.0  0.0887
  H  H16  1  0.820020  0.368020  0.464550  1.0  0.1007
  H  H17  1  0.234660  0.931350  0.584620  1.0  0.0945
  H  H18  1  0.403610  0.036350  0.683200  1.0  0.1132
  H  H19  1  0.611290  0.855270  0.925040  1.0  0.0876
  H  H20  1  0.179980  0.131980  0.964550  1.0  0.101
  C  C21  1  0.059000  0.300000  0.755000  1.0  0.0799
  C  C22  1  0.957000  0.240000  0.813000  1.0  0.1765
  C  C23  1  0.188000  0.400000  0.872000  1.0  0.1175
  C  C24  1  0.289000  0.459000  0.815400  1.0  0.1074
  C  C25  1  0.007000  0.240000  0.685000  1.0  0.5409
  C  C26  1  0.784000  0.120000  0.820000  1.0  0.5805
  C  C27  1  0.567000  0.416000  0.543000  1.0  0.1035
  C  C28  1  0.314000  0.577000  0.521000  1.0  0.0965
  C  C29  1  0.941000  0.200000  0.255000  1.0  0.0797
  C  C30  1  0.043000  0.260000  0.313000  1.0  0.1761
  C  C31  1  0.812000  0.100000  0.372000  1.0  0.1175
  C  C32  1  0.711000  0.041000  0.315400  1.0  0.107
  C  C33  1  0.993000  0.260000  0.185000  1.0  0.5409
  C  C34  1  0.216000  0.380000  0.320000  1.0  0.5802
  C  C35  1  0.433000  0.084000  0.043000  1.0  0.1027
  C  C36  1  0.686000  0.923000  0.021000  1.0  0.0962
  C  C37  1  0.941000  0.700000  0.245000  1.0  0.0822
  C  C38  1  0.043000  0.760000  0.187000  1.0  0.1766
  C  C39  1  0.812000  0.600000  0.128000  1.0  0.1178
  C  C40  1  0.711000  0.541000  0.184600  1.0  0.1078
  C  C41  1  0.993000  0.760000  0.315000  1.0  0.5408
  C  C42  1  0.216000  0.880000  0.180000  1.0  0.5802
  C  C43  1  0.433000  0.584000  0.457000  1.0  0.1046
  C  C44  1  0.686000  0.423000  0.479000  1.0  0.0958
  C  C45  1  0.059000  0.800000  0.745000  1.0  0.0824
  C  C46  1  0.957000  0.740000  0.687000  1.0  0.1769
  C  C47  1  0.188000  0.900000  0.628000  1.0  0.1173
  C  C48  1  0.289000  0.959000  0.684600  1.0  0.1082
  C  C49  1  0.007000  0.740000  0.815000  1.0  0.5407
  C  C50  1  0.784000  0.620000  0.680000  1.0  0.5805
  C  C51  1  0.567000  0.916000  0.957000  1.0  0.1047
  C  C52  1  0.314000  0.077000  0.979000  1.0  0.0964
  N  N53  1  0.220000  0.404000  0.756300  1.0  -0.2436
  N  N54  1  0.025000  0.290000  0.871000  1.0  -0.3496
  N  N55  1  0.389000  0.493000  0.563200  1.0  -0.2054
  N  N56  1  0.780000  0.096000  0.256300  1.0  -0.244
  N  N57  1  0.975000  0.210000  0.371000  1.0  -0.3486
  N  N58  1  0.611000  0.007000  0.063200  1.0  -0.2051
  N  N59  1  0.780000  0.596000  0.243700  1.0  -0.2447
  N  N60  1  0.975000  0.710000  0.129000  1.0  -0.3494
  N  N61  1  0.611000  0.507000  0.436800  1.0  -0.2033
  N  N62  1  0.220000  0.904000  0.743700  1.0  -0.2445
  N  N63  1  0.025000  0.790000  0.629000  1.0  -0.3507
  N  N64  1  0.389000  0.993000  0.936800  1.0  -0.2034
  O  O65  1  0.129000  0.305000  0.630000  1.0  -0.5797
  O  O66  1  0.872000  0.136000  0.686000  1.0  -0.4872
  O  O67  1  0.495000  0.136000  0.817000  1.0  -0.577
  O  O68  1  0.886000  0.027000  0.837000  1.0  -0.5412
  O  O69  1  0.871000  0.195000  0.130000  1.0  -0.5797
  O  O70  1  0.128000  0.364000  0.186000  1.0  -0.4866
  O  O71  1  0.505000  0.364000  0.317000  1.0  -0.5772
  O  O72  1  0.114000  0.473000  0.337000  1.0  -0.5417
  O  O73  1  0.871000  0.695000  0.370000  1.0  -0.5794
  O  O74  1  0.128000  0.864000  0.314000  1.0  -0.4862
  O  O75  1  0.505000  0.864000  0.183000  1.0  -0.5772
  O  O76  1  0.114000  0.973000  0.163000  1.0  -0.541
  O  O77  1  0.129000  0.805000  0.870000  1.0  -0.5796
  O  O78  1  0.872000  0.636000  0.814000  1.0  -0.4864
  O  O79  1  0.495000  0.636000  0.683000  1.0  -0.577
  O  O80  1  0.886000  0.527000  0.663000  1.0  -0.5408
