# generated using pymatgen
data_CoH30C15N3Cl2O3
_symmetry_space_group_name_H-M   'P 1'
_cell_length_a   11.30100000
_cell_length_b   13.19420000
_cell_length_c   20.32620000
_cell_angle_alpha   102.13000000
_cell_angle_beta   90.00000000
_cell_angle_gamma   115.35700000
_symmetry_Int_Tables_number   1
_chemical_formula_structural   CoH30C15N3Cl2O3
_chemical_formula_sum   'Co4 H120 C60 N12 Cl8 O12'
_cell_volume   2663.72144520
_cell_formula_units_Z   4
loop_
 _symmetry_equiv_pos_site_id
 _symmetry_equiv_pos_as_xyz
  1  'x, y, z'
loop_
 _atom_site_type_symbol
 _atom_site_label
 _atom_site_symmetry_multiplicity
 _atom_site_fract_x
 _atom_site_fract_y
 _atom_site_fract_z
 _atom_site_occupancy
 _atom_site_charge
  Co  Co1  1  0.806720  0.000000  0.250000  1.0  0.7959
  Co  Co2  1  0.193280  0.000000  0.750000  1.0  0.7964
  Co  Co3  1  0.000000  0.500000  0.000000  1.0  0.9504
  Co  Co4  1  0.500000  0.500000  0.500000  1.0  0.9504
  H  H5  1  0.890100  0.668000  0.852200  1.0  0.1249
  H  H6  1  0.867500  0.542400  0.853200  1.0  0.1418
  H  H7  1  0.851500  0.622200  0.918100  1.0  0.1342
  H  H8  1  0.097200  0.784400  0.855400  1.0  0.2714
  H  H9  1  0.293600  0.740200  0.897800  1.0  0.0884
  H  H10  1  0.312100  0.834000  0.857200  1.0  0.1004
  H  H11  1  0.291800  0.953600  0.957600  1.0  0.0886
  H  H12  1  0.284500  0.861400  0.997400  1.0  0.0858
  H  H13  1  0.498300  0.890400  0.975400  1.0  0.086
  H  H14  1  0.505600  0.973600  0.929000  1.0  0.0819
  H  H15  1  0.449900  0.691400  0.036200  1.0  0.1329
  H  H16  1  0.352800  0.561200  0.029200  1.0  0.1368
  H  H17  1  0.329300  0.630400  0.980700  1.0  0.1416
  H  H18  1  0.419300  0.814000  0.117400  1.0  0.2697
  H  H19  1  0.301300  0.788600  0.219700  1.0  0.0855
  H  H20  1  0.174900  0.747600  0.169100  1.0  0.0789
  H  H21  1  0.392100  0.960400  0.189800  1.0  0.0971
  H  H22  1  0.267800  0.919400  0.137400  1.0  0.0844
  H  H23  1  0.130610  0.908420  0.220400  1.0  0.0707
  H  H24  1  0.225920  0.897040  0.271900  1.0  0.0995
  H  H25  1  0.882000  0.640600  0.200500  1.0  0.1233
  H  H26  1  0.834700  0.516200  0.154400  1.0  0.1381
  H  H27  1  0.985100  0.601200  0.167200  1.0  0.1234
  H  H28  1  0.846500  0.755400  0.152200  1.0  0.2775
  H  H29  1  0.811500  0.724600  0.016200  1.0  0.0982
  H  H30  1  0.767000  0.803000  0.069300  1.0  0.0911
  H  H31  1  0.988400  0.940000  0.097900  1.0  0.0871
  H  H32  1  0.031500  0.862200  0.043700  1.0  0.0829
  H  H33  1  0.865600  0.956400  0.007600  1.0  0.092
  H  H34  1  0.928300  0.892000  0.956500  1.0  0.0847
  H  H35  1  0.222100  0.332000  0.647800  1.0  0.1262
  H  H36  1  0.325100  0.457600  0.646800  1.0  0.1443
  H  H37  1  0.229300  0.377800  0.581900  1.0  0.1329
  H  H38  1  0.312800  0.215600  0.644600  1.0  0.2716
  H  H39  1  0.553400  0.259800  0.602200  1.0  0.0877
  H  H40  1  0.478100  0.166000  0.642800  1.0  0.1002
  H  H41  1  0.338200  0.046400  0.542400  1.0  0.0885
  H  H42  1  0.423100  0.138600  0.502600  1.0  0.0862
  H  H43  1  0.607900  0.109600  0.524600  1.0  0.0857
  H  H44  1  0.532000  0.026400  0.571000  1.0  0.0788
  H  H45  1  0.758500  0.308600  0.463800  1.0  0.1323
  H  H46  1  0.791600  0.438800  0.470800  1.0  0.1364
  H  H47  1  0.698900  0.369600  0.519300  1.0  0.1411
  H  H48  1  0.605300  0.186000  0.382600  1.0  0.2699
  H  H49  1  0.512700  0.211400  0.280300  1.0  0.0886
  H  H50  1  0.427300  0.252400  0.330900  1.0  0.0786
  H  H51  1  0.431700  0.039600  0.310200  1.0  0.0966
  H  H52  1  0.348400  0.080600  0.362600  1.0  0.0835
  H  H53  1  0.222190  0.091580  0.279600  1.0  0.07
  H  H54  1  0.328880  0.102960  0.228100  1.0  0.0979
  H  H55  1  0.241400  0.359400  0.299500  1.0  0.1221
  H  H56  1  0.318500  0.483800  0.345600  1.0  0.1402
  H  H57  1  0.383900  0.398800  0.332800  1.0  0.1246
  H  H58  1  0.091100  0.244600  0.347800  1.0  0.2801
  H  H59  1  0.086900  0.275400  0.483800  1.0  0.0981
  H  H60  1  0.964000  0.197000  0.430700  1.0  0.0902
  H  H61  1  0.048400  0.060000  0.402100  1.0  0.0873
  H  H62  1  0.169300  0.137800  0.456300  1.0  0.0829
  H  H63  1  0.909200  0.043600  0.492400  1.0  0.0918
  H  H64  1  0.036300  0.108000  0.543500  1.0  0.0856
  H  H65  1  0.109900  0.332000  0.147800  1.0  0.1254
  H  H66  1  0.132500  0.457600  0.146800  1.0  0.1437
  H  H67  1  0.148500  0.377800  0.081900  1.0  0.1319
  H  H68  1  0.902800  0.215600  0.144600  1.0  0.2703
  H  H69  1  0.706400  0.259800  0.102200  1.0  0.0884
  H  H70  1  0.687900  0.166000  0.142800  1.0  0.0995
  H  H71  1  0.708200  0.046400  0.042400  1.0  0.0892
  H  H72  1  0.715500  0.138600  0.002600  1.0  0.0861
  H  H73  1  0.501700  0.109600  0.024600  1.0  0.0872
  H  H74  1  0.494400  0.026400  0.071000  1.0  0.079
  H  H75  1  0.550100  0.308600  0.963800  1.0  0.1316
  H  H76  1  0.647200  0.438800  0.970800  1.0  0.1362
  H  H77  1  0.670700  0.369600  0.019300  1.0  0.1423
  H  H78  1  0.580700  0.186000  0.882600  1.0  0.2684
  H  H79  1  0.698700  0.211400  0.780300  1.0  0.0878
  H  H80  1  0.825100  0.252400  0.830900  1.0  0.0784
  H  H81  1  0.607900  0.039600  0.810200  1.0  0.0944
  H  H82  1  0.732200  0.080600  0.862600  1.0  0.0839
  H  H83  1  0.869390  0.091580  0.779600  1.0  0.0719
  H  H84  1  0.774080  0.102960  0.728100  1.0  0.0975
  H  H85  1  0.118000  0.359400  0.799500  1.0  0.1224
  H  H86  1  0.165300  0.483800  0.845600  1.0  0.1405
  H  H87  1  0.014900  0.398800  0.832800  1.0  0.1242
  H  H88  1  0.153500  0.244600  0.847800  1.0  0.2799
  H  H89  1  0.188500  0.275400  0.983800  1.0  0.0979
  H  H90  1  0.233000  0.197000  0.930700  1.0  0.0907
  H  H91  1  0.011600  0.060000  0.902100  1.0  0.0879
  H  H92  1  0.968500  0.137800  0.956300  1.0  0.0845
  H  H93  1  0.134400  0.043600  0.992400  1.0  0.0895
  H  H94  1  0.071700  0.108000  0.043500  1.0  0.0854
  H  H95  1  0.777900  0.668000  0.352200  1.0  0.1246
  H  H96  1  0.674900  0.542400  0.353200  1.0  0.1429
  H  H97  1  0.770700  0.622200  0.418100  1.0  0.1341
  H  H98  1  0.687200  0.784400  0.355400  1.0  0.2706
  H  H99  1  0.446600  0.740200  0.397800  1.0  0.0889
  H  H100  1  0.521900  0.834000  0.357200  1.0  0.1001
  H  H101  1  0.661800  0.953600  0.457600  1.0  0.0887
  H  H102  1  0.576900  0.861400  0.497400  1.0  0.0862
  H  H103  1  0.392100  0.890400  0.475400  1.0  0.0866
  H  H104  1  0.468000  0.973600  0.429000  1.0  0.0821
  H  H105  1  0.241500  0.691400  0.536200  1.0  0.1326
  H  H106  1  0.208400  0.561200  0.529200  1.0  0.1367
  H  H107  1  0.301100  0.630400  0.480700  1.0  0.1413
  H  H108  1  0.394700  0.814000  0.617400  1.0  0.2693
  H  H109  1  0.487300  0.788600  0.719700  1.0  0.0857
  H  H110  1  0.572700  0.747600  0.669100  1.0  0.079
  H  H111  1  0.568300  0.960400  0.689800  1.0  0.0962
  H  H112  1  0.651600  0.919400  0.637400  1.0  0.0835
  H  H113  1  0.777810  0.908420  0.720400  1.0  0.072
  H  H114  1  0.671120  0.897040  0.771900  1.0  0.0992
  H  H115  1  0.758600  0.640600  0.700500  1.0  0.1234
  H  H116  1  0.681500  0.516200  0.654400  1.0  0.1379
  H  H117  1  0.616100  0.601200  0.667200  1.0  0.1233
  H  H118  1  0.908900  0.755400  0.652200  1.0  0.2767
  H  H119  1  0.913100  0.724600  0.516200  1.0  0.0981
  H  H120  1  0.036000  0.803000  0.569300  1.0  0.0912
  H  H121  1  0.951600  0.940000  0.597900  1.0  0.0879
  H  H122  1  0.830700  0.862200  0.543700  1.0  0.0849
  H  H123  1  0.090800  0.956400  0.507600  1.0  0.0897
  H  H124  1  0.963700  0.892000  0.456500  1.0  0.0844
  C  C125  1  0.900200  0.620400  0.879500  1.0  -0.4305
  C  C126  1  0.044300  0.665200  0.903000  1.0  0.5166
  C  C127  1  0.269900  0.801600  0.894300  1.0  0.0172
  C  C128  1  0.320400  0.894600  0.959400  1.0  -0.1301
  C  C129  1  0.470800  0.948400  0.969400  1.0  -0.1173
  C  C130  1  0.359700  0.635000  0.025900  1.0  -0.447
  C  C131  1  0.277800  0.669400  0.074600  1.0  0.4198
  C  C132  1  0.269000  0.796400  0.177700  1.0  0.0233
  C  C133  1  0.298500  0.911000  0.179600  1.0  -0.1276
  C  C134  1  0.222050  0.935300  0.236700  1.0  -0.1268
  C  C135  1  0.898000  0.595400  0.161100  1.0  -0.4054
  C  C136  1  0.886000  0.639400  0.100700  1.0  0.4378
  C  C137  1  0.837400  0.780400  0.059400  1.0  0.0215
  C  C138  1  0.961700  0.885200  0.054400  1.0  -0.1126
  C  C139  1  0.943700  0.944000  0.000500  1.0  -0.1053
  C  C140  1  0.279800  0.379600  0.620500  1.0  -0.4299
  C  C141  1  0.379100  0.334800  0.597000  1.0  0.5181
  C  C142  1  0.468300  0.198400  0.605700  1.0  0.0197
  C  C143  1  0.425800  0.105400  0.540600  1.0  -0.129
  C  C144  1  0.522400  0.051600  0.530600  1.0  -0.1184
  C  C145  1  0.724700  0.365000  0.474100  1.0  -0.4466
  C  C146  1  0.608400  0.330600  0.425400  1.0  0.4202
  C  C147  1  0.472600  0.203600  0.322300  1.0  0.0231
  C  C148  1  0.387500  0.089000  0.320400  1.0  -0.1261
  C  C149  1  0.286750  0.064700  0.263300  1.0  -0.1261
  C  C150  1  0.302600  0.404600  0.338900  1.0  -0.4031
  C  C151  1  0.246600  0.360600  0.399300  1.0  0.438
  C  C152  1  0.057000  0.219600  0.440600  1.0  0.0216
  C  C153  1  0.076500  0.114800  0.445600  1.0  -0.1128
  C  C154  1  0.999700  0.056000  0.499500  1.0  -0.1062
  C  C155  1  0.099800  0.379600  0.120500  1.0  -0.431
  C  C156  1  0.955700  0.334800  0.097000  1.0  0.5172
  C  C157  1  0.730100  0.198400  0.105700  1.0  0.0168
  C  C158  1  0.679600  0.105400  0.040600  1.0  -0.1288
  C  C159  1  0.529200  0.051600  0.030600  1.0  -0.1183
  C  C160  1  0.640300  0.365000  0.974100  1.0  -0.4459
  C  C161  1  0.722200  0.330600  0.925400  1.0  0.4189
  C  C162  1  0.731000  0.203600  0.822300  1.0  0.0232
  C  C163  1  0.701500  0.089000  0.820400  1.0  -0.1277
  C  C164  1  0.777950  0.064700  0.763300  1.0  -0.1279
  C  C165  1  0.102000  0.404600  0.838900  1.0  -0.4047
  C  C166  1  0.114000  0.360600  0.899300  1.0  0.4406
  C  C167  1  0.162600  0.219600  0.940600  1.0  0.0217
  C  C168  1  0.038300  0.114800  0.945600  1.0  -0.1127
  C  C169  1  0.056300  0.056000  0.999500  1.0  -0.1077
  C  C170  1  0.720200  0.620400  0.379500  1.0  -0.4325
  C  C171  1  0.620900  0.665200  0.403000  1.0  0.516
  C  C172  1  0.531700  0.801600  0.394300  1.0  0.0175
  C  C173  1  0.574200  0.894600  0.459400  1.0  -0.1298
  C  C174  1  0.477600  0.948400  0.469400  1.0  -0.1166
  C  C175  1  0.275300  0.635000  0.525900  1.0  -0.4467
  C  C176  1  0.391600  0.669400  0.574600  1.0  0.4175
  C  C177  1  0.527400  0.796400  0.677700  1.0  0.021
  C  C178  1  0.612500  0.911000  0.679600  1.0  -0.1284
  C  C179  1  0.713250  0.935300  0.736700  1.0  -0.1271
  C  C180  1  0.697400  0.595400  0.661100  1.0  -0.4039
  C  C181  1  0.753400  0.639400  0.600700  1.0  0.4395
  C  C182  1  0.943000  0.780400  0.559400  1.0  0.0213
  C  C183  1  0.923500  0.885200  0.554400  1.0  -0.1137
  C  C184  1  0.000300  0.944000  0.500500  1.0  -0.1072
  N  N185  1  0.128300  0.754000  0.880000  1.0  -0.3833
  N  N186  1  0.339400  0.767600  0.120700  1.0  -0.3663
  N  N187  1  0.855800  0.727600  0.111300  1.0  -0.3842
  N  N188  1  0.374300  0.246000  0.620000  1.0  -0.3849
  N  N189  1  0.571800  0.232400  0.379300  1.0  -0.3661
  N  N190  1  0.128200  0.272400  0.388700  1.0  -0.385
  N  N191  1  0.871700  0.246000  0.120000  1.0  -0.3832
  N  N192  1  0.660600  0.232400  0.879300  1.0  -0.3675
  N  N193  1  0.144200  0.272400  0.888700  1.0  -0.3838
  N  N194  1  0.625700  0.754000  0.380000  1.0  -0.384
  N  N195  1  0.428200  0.767600  0.620700  1.0  -0.3666
  N  N196  1  0.871800  0.727600  0.611300  1.0  -0.3836
  Cl  Cl197  1  0.656410  0.923940  0.158250  1.0  -0.5257
  Cl  Cl198  1  0.993710  0.141640  0.225140  1.0  -0.5186
  Cl  Cl199  1  0.732470  0.076060  0.341750  1.0  -0.5271
  Cl  Cl200  1  0.852070  0.858360  0.274860  1.0  -0.5147
  Cl  Cl201  1  0.343590  0.076060  0.841750  1.0  -0.5269
  Cl  Cl202  1  0.006290  0.858360  0.774860  1.0  -0.5176
  Cl  Cl203  1  0.267530  0.923940  0.658250  1.0  -0.5259
  Cl  Cl204  1  0.147930  0.141640  0.725140  1.0  -0.5178
  O  O205  1  0.084250  0.619100  0.939050  1.0  -0.5746
  O  O206  1  0.157340  0.611680  0.072800  1.0  -0.5683
  O  O207  1  0.901600  0.597400  0.043100  1.0  -0.5871
  O  O208  1  0.465150  0.380900  0.560950  1.0  -0.5735
  O  O209  1  0.545660  0.388320  0.427200  1.0  -0.5683
  O  O210  1  0.304200  0.402600  0.456900  1.0  -0.5866
  O  O211  1  0.915750  0.380900  0.060950  1.0  -0.5732
  O  O212  1  0.842660  0.388320  0.927200  1.0  -0.5678
  O  O213  1  0.098400  0.402600  0.956900  1.0  -0.584
  O  O214  1  0.534850  0.619100  0.439050  1.0  -0.5748
  O  O215  1  0.454340  0.611680  0.572800  1.0  -0.568
  O  O216  1  0.695800  0.597400  0.543100  1.0  -0.5839
