# generated using pymatgen
data_MnH30C15Br2(NO)3
_symmetry_space_group_name_H-M   'P 1'
_cell_length_a   11.26200000
_cell_length_b   13.43860000
_cell_length_c   21.16000000
_cell_angle_alpha   101.18400000
_cell_angle_beta   90.00000000
_cell_angle_gamma   114.77200000
_symmetry_Int_Tables_number   1
_chemical_formula_structural   MnH30C15Br2(NO)3
_chemical_formula_sum   'Mn4 H120 C60 Br8 N12 O12'
_cell_volume   2840.66821336
_cell_formula_units_Z   4
loop_
 _symmetry_equiv_pos_site_id
 _symmetry_equiv_pos_as_xyz
  1  'x, y, z'
loop_
 _atom_site_type_symbol
 _atom_site_label
 _atom_site_symmetry_multiplicity
 _atom_site_fract_x
 _atom_site_fract_y
 _atom_site_fract_z
 _atom_site_occupancy
 _atom_site_charge
  Mn  Mn1  1  0.821400  0.000000  0.250000  1.0  0.8968
  Mn  Mn2  1  0.178600  0.000000  0.750000  1.0  0.895
  Mn  Mn3  1  0.000000  0.500000  0.000000  1.0  0.9777
  Mn  Mn4  1  0.500000  0.500000  0.500000  1.0  0.9777
  H  H5  1  0.901100  0.674400  0.857300  1.0  0.1172
  H  H6  1  0.880500  0.552000  0.858900  1.0  0.1304
  H  H7  1  0.862300  0.628400  0.920600  1.0  0.1163
  H  H8  1  0.102800  0.789400  0.862000  1.0  0.2829
  H  H9  1  0.297900  0.745800  0.904000  1.0  0.0832
  H  H10  1  0.315600  0.836400  0.863500  1.0  0.0839
  H  H11  1  0.292500  0.953800  0.958500  1.0  0.0825
  H  H12  1  0.286800  0.864600  0.998100  1.0  0.075
  H  H13  1  0.509400  0.977800  0.933400  1.0  0.0754
  H  H14  1  0.503200  0.896200  0.978400  1.0  0.0831
  H  H15  1  0.548100  0.292000  0.950000  1.0  0.1371
  H  H16  1  0.634700  0.421000  0.957500  1.0  0.1426
  H  H17  1  0.659200  0.357200  0.007000  1.0  0.142
  H  H18  1  0.600800  0.185800  0.871500  1.0  0.275
  H  H19  1  0.854900  0.221400  0.855900  1.0  0.092
  H  H20  1  0.786000  0.239400  0.796400  1.0  0.0863
  H  H21  1  0.696200  0.038400  0.845400  1.0  0.1321
  H  H22  1  0.597200  0.059200  0.801800  1.0  0.1091
  H  H23  1  0.759900  0.904200  0.734600  1.0  0.0906
  H  H24  1  0.649800  0.909800  0.780500  1.0  0.0775
  H  H25  1  0.134900  0.365600  0.810500  1.0  0.1373
  H  H26  1  0.188500  0.486000  0.855100  1.0  0.1361
  H  H27  1  0.036800  0.411600  0.841900  1.0  0.1318
  H  H28  1  0.160100  0.245600  0.859500  1.0  0.286
  H  H29  1  0.173800  0.270000  0.990700  1.0  0.0944
  H  H30  1  0.233500  0.200600  0.944200  1.0  0.0919
  H  H31  1  0.021100  0.064000  0.907200  1.0  0.0833
  H  H32  1  0.964500  0.132400  0.956700  1.0  0.0839
  H  H33  1  0.864600  0.953800  0.002600  1.0  0.08
  H  H34  1  0.938400  0.897800  0.956200  1.0  0.0754
  H  H35  1  0.226700  0.325600  0.642700  1.0  0.119
  H  H36  1  0.328500  0.448000  0.641100  1.0  0.1321
  H  H37  1  0.233900  0.371600  0.579400  1.0  0.1138
  H  H38  1  0.313400  0.210600  0.638000  1.0  0.2841
  H  H39  1  0.552100  0.254200  0.596000  1.0  0.0827
  H  H40  1  0.479200  0.163600  0.636500  1.0  0.0826
  H  H41  1  0.338700  0.046200  0.541500  1.0  0.0822
  H  H42  1  0.422200  0.135400  0.501900  1.0  0.0766
  H  H43  1  0.531600  0.022200  0.566600  1.0  0.0744
  H  H44  1  0.607000  0.103800  0.521600  1.0  0.0824
  H  H45  1  0.256100  0.708000  0.550000  1.0  0.1375
  H  H46  1  0.213700  0.579000  0.542500  1.0  0.1423
  H  H47  1  0.302000  0.642800  0.493000  1.0  0.1409
  H  H48  1  0.415000  0.814200  0.628500  1.0  0.2758
  H  H49  1  0.633500  0.778600  0.644100  1.0  0.0915
  H  H50  1  0.546600  0.760600  0.703600  1.0  0.0883
  H  H51  1  0.657800  0.961600  0.654600  1.0  0.129
  H  H52  1  0.538000  0.940800  0.698200  1.0  0.1105
  H  H53  1  0.855700  0.095800  0.765400  1.0  0.0919
  H  H54  1  0.740000  0.090200  0.719500  1.0  0.0765
  H  H55  1  0.769300  0.634400  0.689500  1.0  0.1364
  H  H56  1  0.702500  0.514000  0.644900  1.0  0.1332
  H  H57  1  0.625200  0.588400  0.658100  1.0  0.1314
  H  H58  1  0.914500  0.754400  0.640500  1.0  0.2851
  H  H59  1  0.903800  0.730000  0.509300  1.0  0.0939
  H  H60  1  0.032900  0.799400  0.555800  1.0  0.0919
  H  H61  1  0.957100  0.936000  0.592800  1.0  0.0833
  H  H62  1  0.832100  0.867600  0.543300  1.0  0.0841
  H  H63  1  0.910800  0.046200  0.497400  1.0  0.08
  H  H64  1  0.040600  0.102200  0.543800  1.0  0.0763
  H  H65  1  0.098900  0.325600  0.142700  1.0  0.1181
  H  H66  1  0.119500  0.448000  0.141100  1.0  0.1318
  H  H67  1  0.137700  0.371600  0.079400  1.0  0.1159
  H  H68  1  0.897200  0.210600  0.138000  1.0  0.2832
  H  H69  1  0.702100  0.254200  0.096000  1.0  0.0836
  H  H70  1  0.684400  0.163600  0.136500  1.0  0.0818
  H  H71  1  0.707500  0.046200  0.041500  1.0  0.082
  H  H72  1  0.713200  0.135400  0.001900  1.0  0.076
  H  H73  1  0.490600  0.022200  0.066600  1.0  0.074
  H  H74  1  0.496800  0.103800  0.021600  1.0  0.0816
  H  H75  1  0.451900  0.708000  0.050000  1.0  0.1364
  H  H76  1  0.365300  0.579000  0.042500  1.0  0.1433
  H  H77  1  0.340800  0.642800  0.993000  1.0  0.1421
  H  H78  1  0.399200  0.814200  0.128500  1.0  0.2742
  H  H79  1  0.145100  0.778600  0.144100  1.0  0.0914
  H  H80  1  0.214000  0.760600  0.203600  1.0  0.0872
  H  H81  1  0.303800  0.961600  0.154600  1.0  0.1292
  H  H82  1  0.402800  0.940800  0.198200  1.0  0.1142
  H  H83  1  0.240100  0.095800  0.265400  1.0  0.0895
  H  H84  1  0.350200  0.090200  0.219500  1.0  0.0765
  H  H85  1  0.865100  0.634400  0.189500  1.0  0.1367
  H  H86  1  0.811500  0.514000  0.144900  1.0  0.1342
  H  H87  1  0.963200  0.588400  0.158100  1.0  0.1313
  H  H88  1  0.839900  0.754400  0.140500  1.0  0.2855
  H  H89  1  0.826200  0.730000  0.009300  1.0  0.0943
  H  H90  1  0.766500  0.799400  0.055800  1.0  0.0924
  H  H91  1  0.978900  0.936000  0.092800  1.0  0.0829
  H  H92  1  0.035500  0.867600  0.043300  1.0  0.0821
  H  H93  1  0.135400  0.046200  0.997400  1.0  0.0764
  H  H94  1  0.061600  0.102200  0.043800  1.0  0.0756
  H  H95  1  0.773300  0.674400  0.357300  1.0  0.1181
  H  H96  1  0.671500  0.552000  0.358900  1.0  0.1313
  H  H97  1  0.766100  0.628400  0.420600  1.0  0.1184
  H  H98  1  0.686600  0.789400  0.362000  1.0  0.2812
  H  H99  1  0.447900  0.745800  0.404000  1.0  0.0834
  H  H100  1  0.520800  0.836400  0.363500  1.0  0.0827
  H  H101  1  0.661300  0.953800  0.458500  1.0  0.0815
  H  H102  1  0.577800  0.864600  0.498100  1.0  0.075
  H  H103  1  0.468400  0.977800  0.433400  1.0  0.075
  H  H104  1  0.393000  0.896200  0.478400  1.0  0.0814
  H  H105  1  0.743900  0.292000  0.450000  1.0  0.1368
  H  H106  1  0.786300  0.421000  0.457500  1.0  0.1423
  H  H107  1  0.698000  0.357200  0.507000  1.0  0.1419
  H  H108  1  0.585000  0.185800  0.371500  1.0  0.2736
  H  H109  1  0.366500  0.221400  0.355900  1.0  0.0915
  H  H110  1  0.453400  0.239400  0.296400  1.0  0.0864
  H  H111  1  0.342200  0.038400  0.345400  1.0  0.1315
  H  H112  1  0.462000  0.059200  0.301800  1.0  0.1127
  H  H113  1  0.144300  0.904200  0.234600  1.0  0.0899
  H  H114  1  0.260000  0.909800  0.280500  1.0  0.0764
  H  H115  1  0.230700  0.365600  0.310500  1.0  0.1363
  H  H116  1  0.297500  0.486000  0.355100  1.0  0.1358
  H  H117  1  0.374800  0.411600  0.341900  1.0  0.1325
  H  H118  1  0.085500  0.245600  0.359500  1.0  0.2855
  H  H119  1  0.096200  0.270000  0.490700  1.0  0.094
  H  H120  1  0.967100  0.200600  0.444200  1.0  0.0921
  H  H121  1  0.042900  0.064000  0.407200  1.0  0.0827
  H  H122  1  0.167900  0.132400  0.456700  1.0  0.0819
  H  H123  1  0.089200  0.953800  0.502600  1.0  0.0768
  H  H124  1  0.959400  0.897800  0.456200  1.0  0.0747
  C  C125  1  0.911700  0.627400  0.883700  1.0  -0.4199
  C  C126  1  0.049000  0.669000  0.905100  1.0  0.4356
  C  C127  1  0.273100  0.805200  0.899500  1.0  0.0272
  C  C128  1  0.322900  0.897000  0.961300  1.0  -0.1175
  C  C129  1  0.473700  0.952000  0.972000  1.0  -0.1015
  C  C130  1  0.634400  0.351400  0.962600  1.0  -0.4653
  C  C131  1  0.728700  0.327400  0.921500  1.0  0.4553
  C  C132  1  0.771400  0.203400  0.833000  1.0  -0.0276
  C  C133  1  0.688700  0.078400  0.813200  1.0  -0.1339
  C  C134  1  0.761300  0.063200  0.755300  1.0  -0.151
  C  C135  1  0.120800  0.410800  0.848100  1.0  -0.4386
  C  C136  1  0.123800  0.362200  0.906100  1.0  0.4721
  C  C137  1  0.158700  0.218600  0.949300  1.0  0.0368
  C  C138  1  0.038800  0.114200  0.949300  1.0  -0.125
  C  C139  1  0.054300  0.055000  0.001600  1.0  -0.1167
  C  C140  1  0.284300  0.372600  0.616300  1.0  -0.4174
  C  C141  1  0.380000  0.331000  0.594900  1.0  0.4371
  C  C142  1  0.467900  0.194800  0.600500  1.0  0.0284
  C  C143  1  0.425900  0.103000  0.538700  1.0  -0.1167
  C  C144  1  0.521700  0.048000  0.528000  1.0  -0.1017
  C  C145  1  0.283000  0.648600  0.537400  1.0  -0.4661
  C  C146  1  0.401300  0.672600  0.578500  1.0  0.4544
  C  C147  1  0.568000  0.796600  0.667000  1.0  -0.0286
  C  C148  1  0.610300  0.921600  0.686800  1.0  -0.1331
  C  C149  1  0.698100  0.936800  0.744700  1.0  -0.1535
  C  C150  1  0.710000  0.589200  0.651900  1.0  -0.4383
  C  C151  1  0.761600  0.637800  0.593900  1.0  0.4725
  C  C152  1  0.940100  0.781400  0.550700  1.0  0.0367
  C  C153  1  0.924600  0.885800  0.550700  1.0  -0.1269
  C  C154  1  0.999300  0.945000  0.498400  1.0  -0.1147
  C  C155  1  0.088300  0.372600  0.116300  1.0  -0.4209
  C  C156  1  0.951000  0.331000  0.094900  1.0  0.437
  C  C157  1  0.726900  0.194800  0.100500  1.0  0.0267
  C  C158  1  0.677100  0.103000  0.038700  1.0  -0.1151
  C  C159  1  0.526300  0.048000  0.028000  1.0  -0.1017
  C  C160  1  0.365600  0.648600  0.037400  1.0  -0.4665
  C  C161  1  0.271300  0.672600  0.078500  1.0  0.4553
  C  C162  1  0.228600  0.796600  0.167000  1.0  -0.028
  C  C163  1  0.311300  0.921600  0.186800  1.0  -0.135
  C  C164  1  0.238700  0.936800  0.244700  1.0  -0.15
  C  C165  1  0.879200  0.589200  0.151900  1.0  -0.4391
  C  C166  1  0.876200  0.637800  0.093900  1.0  0.4704
  C  C167  1  0.841300  0.781400  0.050700  1.0  0.0362
  C  C168  1  0.961200  0.885800  0.050700  1.0  -0.1266
  C  C169  1  0.945700  0.945000  0.998400  1.0  -0.1217
  C  C170  1  0.715700  0.627400  0.383700  1.0  -0.4249
  C  C171  1  0.620000  0.669000  0.405100  1.0  0.4359
  C  C172  1  0.532100  0.805200  0.399500  1.0  0.0271
  C  C173  1  0.574100  0.897000  0.461300  1.0  -0.1164
  C  C174  1  0.478300  0.952000  0.472000  1.0  -0.1008
  C  C175  1  0.717000  0.351400  0.462600  1.0  -0.4661
  C  C176  1  0.598700  0.327400  0.421500  1.0  0.4548
  C  C177  1  0.432000  0.203400  0.333000  1.0  -0.028
  C  C178  1  0.389700  0.078400  0.313200  1.0  -0.1357
  C  C179  1  0.301900  0.063200  0.255300  1.0  -0.1536
  C  C180  1  0.290000  0.410800  0.348100  1.0  -0.4387
  C  C181  1  0.238400  0.362200  0.406100  1.0  0.4708
  C  C182  1  0.059900  0.218600  0.449300  1.0  0.0358
  C  C183  1  0.075400  0.114200  0.449300  1.0  -0.1261
  C  C184  1  0.000700  0.055000  0.501600  1.0  -0.1242
  Br  Br185  1  0.658010  0.919180  0.154010  1.0  -0.4837
  Br  Br186  1  0.023610  0.151540  0.223030  1.0  -0.4497
  Br  Br187  1  0.738830  0.080820  0.345990  1.0  -0.4845
  Br  Br188  1  0.872070  0.848460  0.276970  1.0  -0.4492
  Br  Br189  1  0.341990  0.080820  0.845990  1.0  -0.484
  Br  Br190  1  0.976390  0.848460  0.776970  1.0  -0.4512
  Br  Br191  1  0.261170  0.919180  0.654010  1.0  -0.4834
  Br  Br192  1  0.127930  0.151540  0.723030  1.0  -0.4496
  N  N193  1  0.133600  0.758000  0.885100  1.0  -0.3916
  N  N194  1  0.682800  0.231000  0.875600  1.0  -0.3589
  N  N195  1  0.148800  0.273200  0.898000  1.0  -0.396
  N  N196  1  0.375600  0.242000  0.614900  1.0  -0.3932
  N  N197  1  0.451800  0.769000  0.624400  1.0  -0.3576
  N  N198  1  0.875600  0.726800  0.602000  1.0  -0.3968
  N  N199  1  0.866400  0.242000  0.114900  1.0  -0.3921
  N  N200  1  0.317200  0.769000  0.124400  1.0  -0.3587
  N  N201  1  0.851200  0.726800  0.102000  1.0  -0.3972
  N  N202  1  0.624400  0.758000  0.385100  1.0  -0.3926
  N  N203  1  0.548200  0.231000  0.375600  1.0  -0.3584
  N  N204  1  0.124400  0.273200  0.398000  1.0  -0.3976
  O  O205  1  0.090200  0.623200  0.940300  1.0  -0.6088
  O  O206  1  0.847300  0.387600  0.925500  1.0  -0.593
  O  O207  1  0.107500  0.406800  0.960500  1.0  -0.5847
  O  O208  1  0.467000  0.376800  0.559700  1.0  -0.6078
  O  O209  1  0.459700  0.612400  0.574500  1.0  -0.5922
  O  O210  1  0.700700  0.593200  0.539500  1.0  -0.5841
  O  O211  1  0.909800  0.376800  0.059700  1.0  -0.6063
  O  O212  1  0.152700  0.612400  0.074500  1.0  -0.5916
  O  O213  1  0.892500  0.593200  0.039500  1.0  -0.5884
  O  O214  1  0.533000  0.623200  0.440300  1.0  -0.6075
  O  O215  1  0.540300  0.387600  0.425500  1.0  -0.5921
  O  O216  1  0.299300  0.406800  0.460500  1.0  -0.5884
