# generated using pymatgen
data_LaH12C24(NO)6
_symmetry_space_group_name_H-M   'P 1'
_cell_length_a   5.14740000
_cell_length_b   18.23200000
_cell_length_c   26.78300000
_cell_angle_alpha   90.00000000
_cell_angle_beta   90.08000000
_cell_angle_gamma   90.00000000
_symmetry_Int_Tables_number   1
_chemical_formula_structural   LaH12C24(NO)6
_chemical_formula_sum   'La4 H48 C96 N24 O24'
_cell_volume   2513.51237838
_cell_formula_units_Z   4
loop_
 _symmetry_equiv_pos_site_id
 _symmetry_equiv_pos_as_xyz
  1  'x, y, z'
loop_
 _atom_site_type_symbol
 _atom_site_label
 _atom_site_symmetry_multiplicity
 _atom_site_fract_x
 _atom_site_fract_y
 _atom_site_fract_z
 _atom_site_occupancy
 _atom_site_charge
  La  La1  1  0.852200  0.894410  0.522220  1.0  2.245
  La  La2  1  0.147800  0.394410  0.977780  1.0  2.2445
  La  La3  1  0.147800  0.105590  0.477780  1.0  2.2446
  La  La4  1  0.852200  0.605590  0.022220  1.0  2.2451
  H  H5  1  0.693900  0.676300  0.505200  1.0  0.1122
  H  H6  1  0.479600  0.514400  0.413200  1.0  0.1069
  H  H7  1  0.119100  0.583700  0.384700  1.0  0.1217
  H  H8  1  0.079400  0.705300  0.415300  1.0  0.0855
  H  H9  1  0.033700  0.840500  0.664100  1.0  0.0775
  H  H10  1  0.284900  0.882500  0.804400  1.0  0.0939
  H  H11  1  0.617400  0.956400  0.770600  1.0  0.1265
  H  H12  1  0.647300  0.966200  0.684300  1.0  0.0693
  H  H13  1  0.576200  0.664000  0.886600  1.0  0.0997
  H  H14  1  0.173600  0.657700  0.758000  1.0  0.0976
  H  H15  1  0.877400  0.570700  0.792600  1.0  0.1185
  H  H16  1  0.944400  0.535800  0.877700  1.0  0.0926
  H  H17  1  0.306100  0.176300  0.994800  1.0  0.111
  H  H18  1  0.520400  0.014400  0.086800  1.0  0.1073
  H  H19  1  0.880900  0.083700  0.115300  1.0  0.1222
  H  H20  1  0.920600  0.205300  0.084700  1.0  0.0853
  H  H21  1  0.966300  0.340500  0.835900  1.0  0.0777
  H  H22  1  0.715100  0.382500  0.695600  1.0  0.0927
  H  H23  1  0.382600  0.456400  0.729400  1.0  0.1267
  H  H24  1  0.352700  0.466200  0.815700  1.0  0.0691
  H  H25  1  0.423800  0.164000  0.613400  1.0  0.099
  H  H26  1  0.826400  0.157700  0.742000  1.0  0.0967
  H  H27  1  0.122600  0.070700  0.707400  1.0  0.1193
  H  H28  1  0.055600  0.035800  0.622300  1.0  0.0922
  H  H29  1  0.306100  0.323700  0.494800  1.0  0.1106
  H  H30  1  0.520400  0.485600  0.586800  1.0  0.1075
  H  H31  1  0.880900  0.416300  0.615300  1.0  0.1217
  H  H32  1  0.920600  0.294700  0.584700  1.0  0.0856
  H  H33  1  0.966300  0.159500  0.335900  1.0  0.0769
  H  H34  1  0.715100  0.117500  0.195600  1.0  0.0927
  H  H35  1  0.382600  0.043600  0.229400  1.0  0.1263
  H  H36  1  0.352700  0.033800  0.315700  1.0  0.0692
  H  H37  1  0.423800  0.336000  0.113400  1.0  0.0986
  H  H38  1  0.826400  0.342300  0.242000  1.0  0.0964
  H  H39  1  0.122600  0.429300  0.207400  1.0  0.1192
  H  H40  1  0.055600  0.464200  0.122300  1.0  0.0922
  H  H41  1  0.693900  0.823700  0.005200  1.0  0.1121
  H  H42  1  0.479600  0.985600  0.913200  1.0  0.1072
  H  H43  1  0.119100  0.916300  0.884700  1.0  0.1216
  H  H44  1  0.079400  0.794700  0.915300  1.0  0.0854
  H  H45  1  0.033700  0.659500  0.164100  1.0  0.077
  H  H46  1  0.284900  0.617500  0.304400  1.0  0.0929
  H  H47  1  0.617400  0.543600  0.270600  1.0  0.1269
  H  H48  1  0.647300  0.533800  0.184300  1.0  0.069
  H  H49  1  0.576200  0.836000  0.386600  1.0  0.0998
  H  H50  1  0.173600  0.842300  0.258000  1.0  0.0975
  H  H51  1  0.877400  0.929300  0.292600  1.0  0.1188
  H  H52  1  0.944400  0.964200  0.377700  1.0  0.0923
  C  C53  1  0.322000  0.775600  0.486200  1.0  0.7749
  C  C54  1  0.378000  0.703300  0.462000  1.0  -0.1692
  C  C55  1  0.578000  0.658500  0.480500  1.0  -0.0227
  C  C56  1  0.603000  0.587900  0.462100  1.0  -0.0997
  C  C57  1  0.448000  0.561800  0.426500  1.0  -0.0327
  C  C58  1  0.239000  0.602900  0.408400  1.0  -0.1301
  C  C59  1  0.216000  0.675200  0.427500  1.0  -0.0091
  C  C60  1  0.823000  0.542000  0.482400  1.0  0.3391
  C  C61  1  0.394000  0.908400  0.610200  1.0  0.7865
  C  C62  1  0.337000  0.900100  0.666667  1.0  -0.1176
  C  C63  1  0.152000  0.864000  0.686000  1.0  -0.0174
  C  C64  1  0.110000  0.856500  0.737300  1.0  -0.1043
  C  C65  1  0.297000  0.889400  0.769300  1.0  -0.0298
  C  C66  1  0.497000  0.931900  0.749500  1.0  -0.1359
  C  C67  1  0.514000  0.937100  0.698600  1.0  -0.0122
  C  C68  1  0.917000  0.808500  0.758500  1.0  0.3506
  C  C69  1  0.581000  0.720800  0.795700  1.0  0.3354
  C  C70  1  0.338000  0.562800  0.941600  1.0  0.7514
  C  C71  1  0.279000  0.593000  0.888200  1.0  -0.1442
  C  C72  1  0.438000  0.643800  0.867400  1.0  -0.023
  C  C73  1  0.401000  0.667000  0.817700  1.0  -0.0874
  C  C74  1  0.198000  0.641100  0.791300  1.0  -0.042
  C  C75  1  0.019000  0.589500  0.811500  1.0  -0.1269
  C  C76  1  0.064000  0.567900  0.861800  1.0  -0.0124
  C  C77  1  0.678000  0.275600  0.013800  1.0  0.7786
  C  C78  1  0.622000  0.203300  0.038000  1.0  -0.1701
  C  C79  1  0.422000  0.158500  0.019500  1.0  -0.0234
  C  C80  1  0.397000  0.087900  0.037900  1.0  -0.1
  C  C81  1  0.552000  0.061800  0.073500  1.0  -0.0331
  C  C82  1  0.761000  0.102900  0.091600  1.0  -0.1294
  C  C83  1  0.784000  0.175200  0.072500  1.0  -0.0089
  C  C84  1  0.177000  0.042000  0.017600  1.0  0.3385
  C  C85  1  0.606000  0.408400  0.889800  1.0  0.7872
  C  C86  1  0.663000  0.400100  0.833300  1.0  -0.1401
  C  C87  1  0.848000  0.364000  0.814000  1.0  -0.0065
  C  C88  1  0.890000  0.356500  0.762700  1.0  -0.1023
  C  C89  1  0.703000  0.389400  0.730700  1.0  -0.0303
  C  C90  1  0.503000  0.431900  0.750500  1.0  -0.1369
  C  C91  1  0.486000  0.437100  0.801400  1.0  -0.0099
  C  C92  1  0.083000  0.308500  0.741500  1.0  0.349
  C  C93  1  0.419000  0.220800  0.704300  1.0  0.3362
  C  C94  1  0.662000  0.062800  0.558400  1.0  0.7513
  C  C95  1  0.721000  0.093000  0.611800  1.0  -0.1432
  C  C96  1  0.562000  0.143800  0.632600  1.0  -0.0242
  C  C97  1  0.599000  0.167000  0.682300  1.0  -0.0868
  C  C98  1  0.802000  0.141100  0.708700  1.0  -0.0422
  C  C99  1  0.981000  0.089500  0.688500  1.0  -0.1256
  C  C100  1  0.936000  0.067900  0.638200  1.0  -0.0131
  C  C101  1  0.678000  0.224400  0.513800  1.0  0.7776
  C  C102  1  0.622000  0.296700  0.538000  1.0  -0.1709
  C  C103  1  0.422000  0.341500  0.519500  1.0  -0.0242
  C  C104  1  0.397000  0.412100  0.537900  1.0  -0.0999
  C  C105  1  0.552000  0.438200  0.573500  1.0  -0.0329
  C  C106  1  0.761000  0.397100  0.591600  1.0  -0.13
  C  C107  1  0.784000  0.324800  0.572500  1.0  -0.0094
  C  C108  1  0.177000  0.458000  0.517600  1.0  0.3387
  C  C109  1  0.606000  0.091600  0.389800  1.0  0.7845
  C  C110  1  0.663000  0.099900  0.333333  1.0  -0.1368
  C  C111  1  0.848000  0.136000  0.314000  1.0  -0.0091
  C  C112  1  0.890000  0.143500  0.262700  1.0  -0.1025
  C  C113  1  0.703000  0.110600  0.230700  1.0  -0.0307
  C  C114  1  0.503000  0.068100  0.250500  1.0  -0.1374
  C  C115  1  0.486000  0.062900  0.301400  1.0  -0.0107
  C  C116  1  0.083000  0.191500  0.241500  1.0  0.3491
  C  C117  1  0.419000  0.279200  0.204300  1.0  0.3359
  C  C118  1  0.662000  0.437200  0.058400  1.0  0.751
  C  C119  1  0.721000  0.407000  0.111800  1.0  -0.1427
  C  C120  1  0.562000  0.356200  0.132600  1.0  -0.0241
  C  C121  1  0.599000  0.333000  0.182300  1.0  -0.0866
  C  C122  1  0.802000  0.358900  0.208700  1.0  -0.0421
  C  C123  1  0.981000  0.410500  0.188500  1.0  -0.1257
  C  C124  1  0.936000  0.432100  0.138200  1.0  -0.0131
  C  C125  1  0.322000  0.724400  0.986200  1.0  0.7748
  C  C126  1  0.378000  0.796700  0.962000  1.0  -0.1685
  C  C127  1  0.578000  0.841500  0.980500  1.0  -0.0243
  C  C128  1  0.603000  0.912100  0.962100  1.0  -0.0996
  C  C129  1  0.448000  0.938200  0.926500  1.0  -0.0334
  C  C130  1  0.239000  0.897100  0.908400  1.0  -0.1307
  C  C131  1  0.216000  0.824800  0.927500  1.0  -0.0093
  C  C132  1  0.823000  0.958000  0.982400  1.0  0.3392
  C  C133  1  0.394000  0.591600  0.110200  1.0  0.7827
  C  C134  1  0.337000  0.599900  0.166700  1.0  -0.1211
  C  C135  1  0.152000  0.636000  0.186000  1.0  -0.0153
  C  C136  1  0.110000  0.643500  0.237300  1.0  -0.1042
  C  C137  1  0.297000  0.610600  0.269300  1.0  -0.0312
  C  C138  1  0.497000  0.568100  0.249500  1.0  -0.1367
  C  C139  1  0.514000  0.562900  0.198600  1.0  -0.0113
  C  C140  1  0.917000  0.691500  0.258500  1.0  0.3501
  C  C141  1  0.581000  0.779200  0.295700  1.0  0.3349
  C  C142  1  0.338000  0.937200  0.441600  1.0  0.751
  C  C143  1  0.279000  0.907000  0.388200  1.0  -0.1444
  C  C144  1  0.438000  0.856200  0.367400  1.0  -0.0227
  C  C145  1  0.401000  0.833000  0.317700  1.0  -0.0873
  C  C146  1  0.198000  0.858900  0.291300  1.0  -0.0419
  C  C147  1  0.019000  0.910500  0.311500  1.0  -0.127
  C  C148  1  0.064000  0.932100  0.361800  1.0  -0.0124
  N  N149  1  0.853000  0.476800  0.460300  1.0  -0.1824
  N  N150  1  0.959000  0.564900  0.520900  1.0  -0.1933
  N  N151  1  0.766000  0.768900  0.728800  1.0  -0.2184
  N  N152  1  0.587000  0.721900  0.746400  1.0  -0.1663
  N  N153  1  0.724000  0.763500  0.827000  1.0  -0.1701
  N  N154  1  0.886000  0.807900  0.807500  1.0  -0.1894
  N  N155  1  0.147000  0.976800  0.039700  1.0  -0.1804
  N  N156  1  0.041000  0.064900  0.979100  1.0  -0.1938
  N  N157  1  0.234000  0.268900  0.771200  1.0  -0.2238
  N  N158  1  0.413000  0.221900  0.753600  1.0  -0.1654
  N  N159  1  0.276000  0.263500  0.673000  1.0  -0.1698
  N  N160  1  0.114000  0.307900  0.692500  1.0  -0.185
  N  N161  1  0.147000  0.523200  0.539700  1.0  -0.1813
  N  N162  1  0.041000  0.435100  0.479100  1.0  -0.1926
  N  N163  1  0.234000  0.231100  0.271200  1.0  -0.2217
  N  N164  1  0.413000  0.278100  0.253600  1.0  -0.1655
  N  N165  1  0.276000  0.236500  0.173000  1.0  -0.1704
  N  N166  1  0.114000  0.192100  0.192500  1.0  -0.1855
  N  N167  1  0.853000  0.023200  0.960300  1.0  -0.1845
  N  N168  1  0.959000  0.935100  0.020900  1.0  -0.1937
  N  N169  1  0.766000  0.731100  0.228800  1.0  -0.2185
  N  N170  1  0.587000  0.778100  0.246400  1.0  -0.1642
  N  N171  1  0.724000  0.736500  0.327000  1.0  -0.1703
  N  N172  1  0.886000  0.692100  0.307500  1.0  -0.1871
  O  O173  1  0.513000  0.801100  0.511000  1.0  -0.7566
  O  O174  1  0.120000  0.806600  0.477800  1.0  -0.6757
  O  O175  1  0.612000  0.914900  0.598400  1.0  -0.6462
  O  O176  1  0.189000  0.904000  0.583600  1.0  -0.7794
  O  O177  1  0.559000  0.566600  0.955200  1.0  -0.6631
  O  O178  1  0.146000  0.533400  0.963000  1.0  -0.8184
  O  O179  1  0.487000  0.301100  0.989000  1.0  -0.7575
  O  O180  1  0.880000  0.306600  0.022200  1.0  -0.6733
  O  O181  1  0.388000  0.414900  0.901600  1.0  -0.6458
  O  O182  1  0.811000  0.404000  0.916400  1.0  -0.7824
  O  O183  1  0.441000  0.066600  0.544800  1.0  -0.6638
  O  O184  1  0.854000  0.033400  0.537000  1.0  -0.819
  O  O185  1  0.487000  0.198900  0.489000  1.0  -0.7576
  O  O186  1  0.880000  0.193400  0.522200  1.0  -0.6745
  O  O187  1  0.388000  0.085100  0.401600  1.0  -0.6457
  O  O188  1  0.811000  0.096000  0.416400  1.0  -0.7815
  O  O189  1  0.441000  0.433400  0.044800  1.0  -0.6633
  O  O190  1  0.854000  0.466600  0.037000  1.0  -0.8171
  O  O191  1  0.513000  0.698900  0.011000  1.0  -0.7566
  O  O192  1  0.120000  0.693400  0.977800  1.0  -0.6762
  O  O193  1  0.612000  0.585100  0.098400  1.0  -0.6458
  O  O194  1  0.189000  0.596000  0.083600  1.0  -0.7806
  O  O195  1  0.559000  0.933400  0.455200  1.0  -0.6627
  O  O196  1  0.146000  0.966600  0.463000  1.0  -0.8171
