# generated using pymatgen
data_Gd2CuH4C10N4O9
_symmetry_space_group_name_H-M   'P 1'
_cell_length_a   6.99970000
_cell_length_b   16.05970000
_cell_length_c   16.05970000
_cell_angle_alpha   62.07350000
_cell_angle_beta   81.64620000
_cell_angle_gamma   98.35380000
_symmetry_Int_Tables_number   1
_chemical_formula_structural   Gd2CuH4C10N4O9
_chemical_formula_sum   'Gd6 Cu3 H12 C30 N12 O27'
_cell_volume   1530.45197302
_cell_formula_units_Z   3
loop_
 _symmetry_equiv_pos_site_id
 _symmetry_equiv_pos_as_xyz
  1  'x, y, z'
loop_
 _atom_site_type_symbol
 _atom_site_label
 _atom_site_symmetry_multiplicity
 _atom_site_fract_x
 _atom_site_fract_y
 _atom_site_fract_z
 _atom_site_occupancy
 _atom_site_charge
  Gd  Gd1  1  0.277870  0.913040  0.933720  1.0  2.0915
  Gd  Gd2  1  0.211590  0.933720  0.153240  1.0  2.093
  Gd  Gd3  1  0.364830  0.153240  0.913040  1.0  2.0934
  Gd  Gd4  1  0.722130  0.086960  0.066280  1.0  2.093
  Gd  Gd5  1  0.788410  0.066280  0.846760  1.0  2.093
  Gd  Gd6  1  0.635170  0.846760  0.086960  1.0  2.0938
  Cu  Cu7  1  0.000000  0.500000  0.000000  1.0  0.6779
  Cu  Cu8  1  0.000000  0.000000  0.500000  1.0  0.6779
  Cu  Cu9  1  0.500000  0.500000  0.500000  1.0  0.6779
  H  H10  1  0.565800  0.488300  0.089000  1.0  0.0855
  H  H11  1  0.417400  0.593400  0.119700  1.0  0.0543
  H  H12  1  0.654800  0.089000  0.422700  1.0  0.0865
  H  H13  1  0.537100  0.119700  0.286900  1.0  0.0547
  H  H14  1  0.077500  0.422700  0.488300  1.0  0.0865
  H  H15  1  0.824000  0.286900  0.593400  1.0  0.0542
  H  H16  1  0.434200  0.511700  0.911000  1.0  0.0858
  H  H17  1  0.582600  0.406600  0.880300  1.0  0.0541
  H  H18  1  0.345200  0.911000  0.577300  1.0  0.0868
  H  H19  1  0.462900  0.880300  0.713100  1.0  0.054
  H  H20  1  0.922500  0.577300  0.511700  1.0  0.0867
  H  H21  1  0.176000  0.713100  0.406600  1.0  0.0546
  C  C22  1  0.946100  0.661600  0.010900  1.0  -0.0142
  C  C23  1  0.641300  0.548500  0.073600  1.0  0.0775
  C  C24  1  0.162600  0.679900  0.966200  1.0  0.6523
  C  C25  1  0.553300  0.611800  0.091600  1.0  0.1377
  C  C26  1  0.854300  0.727800  0.027000  1.0  0.5894
  C  C27  1  0.957000  0.010900  0.327500  1.0  -0.0138
  C  C28  1  0.714900  0.073600  0.377900  1.0  0.0785
  C  C29  1  0.128800  0.966200  0.353900  1.0  0.6525
  C  C30  1  0.644900  0.091600  0.296600  1.0  0.1379
  C  C31  1  0.881300  0.027000  0.245200  1.0  0.5942
  C  C32  1  0.284500  0.327500  0.661600  1.0  -0.0138
  C  C33  1  0.092800  0.377900  0.548500  1.0  0.0764
  C  C34  1  0.482700  0.353900  0.679900  1.0  0.6542
  C  C35  1  0.941500  0.296600  0.611800  1.0  0.1379
  C  C36  1  0.126500  0.245200  0.727800  1.0  0.5934
  C  C37  1  0.053900  0.338400  0.989100  1.0  -0.0143
  C  C38  1  0.358700  0.451500  0.926400  1.0  0.0781
  C  C39  1  0.837400  0.320100  0.033800  1.0  0.6507
  C  C40  1  0.446700  0.388200  0.908400  1.0  0.1364
  C  C41  1  0.145700  0.272200  0.973000  1.0  0.5898
  C  C42  1  0.043000  0.989100  0.672500  1.0  -0.0145
  C  C43  1  0.285100  0.926400  0.622100  1.0  0.079
  C  C44  1  0.871200  0.033800  0.646100  1.0  0.6505
  C  C45  1  0.355100  0.908400  0.703400  1.0  0.1369
  C  C46  1  0.118700  0.973000  0.754800  1.0  0.5932
  C  C47  1  0.715500  0.672500  0.338400  1.0  -0.0152
  C  C48  1  0.907200  0.622100  0.451500  1.0  0.0764
  C  C49  1  0.517300  0.646100  0.320100  1.0  0.6534
  C  C50  1  0.058500  0.703400  0.388200  1.0  0.1362
  C  C51  1  0.873500  0.754800  0.272200  1.0  0.5936
  N  N52  1  0.836700  0.574700  0.033800  1.0  -0.3675
  N  N53  1  0.656800  0.697300  0.070000  1.0  -0.3696
  N  N54  1  0.870500  0.033800  0.391500  1.0  -0.3677
  N  N55  1  0.726800  0.070000  0.232700  1.0  -0.3668
  N  N56  1  0.262000  0.391500  0.574700  1.0  -0.3679
  N  N57  1  0.959500  0.232700  0.697300  1.0  -0.37
  N  N58  1  0.163300  0.425300  0.966200  1.0  -0.3703
  N  N59  1  0.343200  0.302700  0.930000  1.0  -0.3697
  N  N60  1  0.129500  0.966200  0.608500  1.0  -0.3692
  N  N61  1  0.273200  0.930000  0.767300  1.0  -0.3661
  N  N62  1  0.738000  0.608500  0.425300  1.0  -0.3688
  N  N63  1  0.040500  0.767300  0.302700  1.0  -0.3711
  O  O64  1  0.942900  0.812600  0.006200  1.0  -0.8365
  O  O65  1  0.279200  0.756600  0.944500  1.0  -0.6947
  O  O66  1  0.215300  0.613300  0.954800  1.0  -0.5993
  O  O67  1  0.291900  0.822000  0.098400  1.0  -0.7357
  O  O68  1  0.949100  0.006200  0.181200  1.0  -0.8343
  O  O69  1  0.223700  0.944500  0.298900  1.0  -0.6919
  O  O70  1  0.170100  0.954800  0.431900  1.0  -0.5959
  O  O71  1  0.390300  0.098400  0.079600  1.0  -0.7331
  O  O72  1  0.130300  0.181200  0.812600  1.0  -0.8353
  O  O73  1  0.522600  0.298900  0.756600  1.0  -0.693
  O  O74  1  0.602000  0.431900  0.613300  1.0  -0.5978
  O  O75  1  0.469900  0.079600  0.822000  1.0  -0.7331
  O  O76  1  0.057100  0.187400  0.993800  1.0  -0.837
  O  O77  1  0.720800  0.243400  0.055500  1.0  -0.6942
  O  O78  1  0.784700  0.386700  0.045200  1.0  -0.5974
  O  O79  1  0.708100  0.178000  0.901600  1.0  -0.7358
  O  O80  1  0.050900  0.993800  0.818800  1.0  -0.8348
  O  O81  1  0.776300  0.055500  0.701100  1.0  -0.6925
  O  O82  1  0.829900  0.045200  0.568100  1.0  -0.5983
  O  O83  1  0.609700  0.901600  0.920400  1.0  -0.7322
  O  O84  1  0.869700  0.818800  0.187400  1.0  -0.8364
  O  O85  1  0.477400  0.701100  0.243400  1.0  -0.692
  O  O86  1  0.398000  0.568100  0.386700  1.0  -0.5968
  O  O87  1  0.530100  0.920400  0.178000  1.0  -0.732
  O  O88  1  0.500000  0.000000  0.000000  1.0  -0.7977
  O  O89  1  0.175330  0.000000  0.000000  1.0  -0.8609
  O  O90  1  0.824670  0.000000  0.000000  1.0  -0.8624
