# generated using pymatgen
data_Dy2CuH6C10N4O9
_symmetry_space_group_name_H-M   'P 1'
_cell_length_a   27.39340000
_cell_length_b   27.39340000
_cell_length_c   14.01080000
_cell_angle_alpha   90.00000000
_cell_angle_beta   90.00000000
_cell_angle_gamma   120.00000000
_symmetry_Int_Tables_number   1
_chemical_formula_structural   Dy2CuH6C10N4O9
_chemical_formula_sum   'Dy36 Cu18 H108 C180 N72 O162'
_cell_volume   9105.11517291
_cell_formula_units_Z   18
loop_
 _symmetry_equiv_pos_site_id
 _symmetry_equiv_pos_as_xyz
  1  'x, y, z'
loop_
 _atom_site_type_symbol
 _atom_site_label
 _atom_site_symmetry_multiplicity
 _atom_site_fract_x
 _atom_site_fract_y
 _atom_site_fract_z
 _atom_site_occupancy
 _atom_site_charge
  Dy  Dy1  1  0.739110  0.413710  0.024510  1.0  2.2261
  Dy  Dy2  1  0.405780  0.747040  0.191180  1.0  2.226
  Dy  Dy3  1  0.072440  0.080380  0.357840  1.0  2.2261
  Dy  Dy4  1  0.586290  0.325400  0.024510  1.0  2.2271
  Dy  Dy5  1  0.252960  0.658730  0.191180  1.0  2.2271
  Dy  Dy6  1  0.919620  0.992070  0.357840  1.0  2.2271
  Dy  Dy7  1  0.674600  0.260890  0.024510  1.0  2.2281
  Dy  Dy8  1  0.341270  0.594220  0.191180  1.0  2.2281
  Dy  Dy9  1  0.007930  0.927560  0.357840  1.0  2.2281
  Dy  Dy10  1  0.260890  0.586290  0.475490  1.0  2.228
  Dy  Dy11  1  0.927560  0.919620  0.142160  1.0  2.228
  Dy  Dy12  1  0.594220  0.252960  0.308820  1.0  2.228
  Dy  Dy13  1  0.413710  0.674600  0.475490  1.0  2.226
  Dy  Dy14  1  0.080380  0.007930  0.142160  1.0  2.226
  Dy  Dy15  1  0.747040  0.341270  0.308820  1.0  2.226
  Dy  Dy16  1  0.325400  0.739110  0.475490  1.0  2.2269
  Dy  Dy17  1  0.992070  0.072440  0.142160  1.0  2.2269
  Dy  Dy18  1  0.658730  0.405780  0.308820  1.0  2.2269
  Dy  Dy19  1  0.739110  0.413710  0.524510  1.0  2.2261
  Dy  Dy20  1  0.405780  0.747040  0.691180  1.0  2.226
  Dy  Dy21  1  0.072440  0.080380  0.857840  1.0  2.2261
  Dy  Dy22  1  0.586290  0.325400  0.524510  1.0  2.2271
  Dy  Dy23  1  0.252960  0.658730  0.691180  1.0  2.2271
  Dy  Dy24  1  0.919620  0.992070  0.857840  1.0  2.2271
  Dy  Dy25  1  0.674600  0.260890  0.524510  1.0  2.2281
  Dy  Dy26  1  0.341270  0.594220  0.691180  1.0  2.2281
  Dy  Dy27  1  0.007930  0.927560  0.857840  1.0  2.2281
  Dy  Dy28  1  0.260890  0.586290  0.975490  1.0  2.228
  Dy  Dy29  1  0.927560  0.919620  0.642160  1.0  2.228
  Dy  Dy30  1  0.594220  0.252960  0.808820  1.0  2.228
  Dy  Dy31  1  0.413710  0.674600  0.975490  1.0  2.226
  Dy  Dy32  1  0.080380  0.007930  0.642160  1.0  2.226
  Dy  Dy33  1  0.747040  0.341270  0.808820  1.0  2.226
  Dy  Dy34  1  0.325400  0.739110  0.975490  1.0  2.2269
  Dy  Dy35  1  0.992070  0.072440  0.642160  1.0  2.2269
  Dy  Dy36  1  0.658730  0.405780  0.808820  1.0  2.2269
  Cu  Cu37  1  0.833330  0.666667  0.083330  1.0  0.6863
  Cu  Cu38  1  0.500000  0.000000  0.250000  1.0  0.6942
  Cu  Cu39  1  0.333333  0.166670  0.083330  1.0  0.6861
  Cu  Cu40  1  0.000000  0.500000  0.250000  1.0  0.6942
  Cu  Cu41  1  0.833330  0.166670  0.083330  1.0  0.6861
  Cu  Cu42  1  0.500000  0.500000  0.250000  1.0  0.6902
  Cu  Cu43  1  0.166670  0.333333  0.416670  1.0  0.6861
  Cu  Cu44  1  0.666667  0.833330  0.416670  1.0  0.6863
  Cu  Cu45  1  0.166670  0.833330  0.416670  1.0  0.6862
  Cu  Cu46  1  0.833330  0.666667  0.583330  1.0  0.6863
  Cu  Cu47  1  0.500000  0.000000  0.750000  1.0  0.6942
  Cu  Cu48  1  0.333333  0.166670  0.583330  1.0  0.6861
  Cu  Cu49  1  0.000000  0.500000  0.750000  1.0  0.6942
  Cu  Cu50  1  0.833330  0.166670  0.583330  1.0  0.6861
  Cu  Cu51  1  0.500000  0.500000  0.750000  1.0  0.6902
  Cu  Cu52  1  0.166670  0.333333  0.916670  1.0  0.6861
  Cu  Cu53  1  0.666667  0.833330  0.916670  1.0  0.6863
  Cu  Cu54  1  0.166670  0.833330  0.916670  1.0  0.6862
  H  H55  1  0.778100  0.644900  0.283850  1.0  0.0679
  H  H56  1  0.720500  0.564200  0.368550  1.0  0.0378
  H  H57  1  0.539520  0.322890  0.336570  1.0  0.3455
  H  H58  1  0.444770  0.978230  0.450520  1.0  0.0679
  H  H59  1  0.387170  0.897530  0.035220  1.0  0.0378
  H  H60  1  0.206190  0.656230  0.003240  1.0  0.3452
  H  H61  1  0.111430  0.311570  0.117180  1.0  0.0679
  H  H62  1  0.053830  0.230870  0.201880  1.0  0.0378
  H  H63  1  0.872860  0.989560  0.169900  1.0  0.3452
  H  H64  1  0.355100  0.133200  0.283850  1.0  0.0687
  H  H65  1  0.435800  0.156300  0.368550  1.0  0.0379
  H  H66  1  0.677110  0.216630  0.336570  1.0  0.3459
  H  H67  1  0.021770  0.466530  0.450520  1.0  0.0687
  H  H68  1  0.102470  0.489630  0.035220  1.0  0.0379
  H  H69  1  0.343770  0.549960  0.003240  1.0  0.3459
  H  H70  1  0.688430  0.799870  0.117180  1.0  0.0687
  H  H71  1  0.769130  0.822970  0.201880  1.0  0.0379
  H  H72  1  0.010440  0.883300  0.169900  1.0  0.3461
  H  H73  1  0.866800  0.221900  0.283850  1.0  0.0676
  H  H74  1  0.843700  0.279500  0.368550  1.0  0.0375
  H  H75  1  0.783370  0.460480  0.336570  1.0  0.3458
  H  H76  1  0.533470  0.555230  0.450520  1.0  0.0674
  H  H77  1  0.510370  0.612830  0.035220  1.0  0.0375
  H  H78  1  0.450040  0.793810  0.003240  1.0  0.3458
  H  H79  1  0.200130  0.888570  0.117180  1.0  0.0676
  H  H80  1  0.177030  0.946170  0.201880  1.0  0.0376
  H  H81  1  0.116700  0.127140  0.169900  1.0  0.3462
  H  H82  1  0.221900  0.355100  0.216150  1.0  0.0677
  H  H83  1  0.279500  0.435800  0.131450  1.0  0.038
  H  H84  1  0.460480  0.677110  0.163430  1.0  0.3435
  H  H85  1  0.888570  0.688430  0.382820  1.0  0.0677
  H  H86  1  0.946170  0.769130  0.298120  1.0  0.038
  H  H87  1  0.127140  0.010440  0.330100  1.0  0.3432
  H  H88  1  0.555230  0.021770  0.049480  1.0  0.0677
  H  H89  1  0.612830  0.102470  0.464780  1.0  0.038
  H  H90  1  0.793810  0.343770  0.496760  1.0  0.3432
  H  H91  1  0.644900  0.866800  0.216150  1.0  0.0692
  H  H92  1  0.564200  0.843700  0.131450  1.0  0.0385
  H  H93  1  0.322890  0.783370  0.163430  1.0  0.347
  H  H94  1  0.311570  0.200130  0.382820  1.0  0.0692
  H  H95  1  0.230870  0.177030  0.298120  1.0  0.0385
  H  H96  1  0.989560  0.116700  0.330100  1.0  0.3472
  H  H97  1  0.978230  0.533470  0.049480  1.0  0.0692
  H  H98  1  0.897530  0.510370  0.464780  1.0  0.0385
  H  H99  1  0.656230  0.450040  0.496760  1.0  0.347
  H  H100  1  0.133200  0.778100  0.216150  1.0  0.0677
  H  H101  1  0.156300  0.720500  0.131450  1.0  0.0389
  H  H102  1  0.216630  0.539520  0.163430  1.0  0.3474
  H  H103  1  0.799870  0.111430  0.382820  1.0  0.0677
  H  H104  1  0.822970  0.053830  0.298120  1.0  0.039
  H  H105  1  0.883300  0.872860  0.330100  1.0  0.3477
  H  H106  1  0.466530  0.444770  0.049480  1.0  0.0676
  H  H107  1  0.489630  0.387170  0.464780  1.0  0.0389
  H  H108  1  0.549960  0.206190  0.496760  1.0  0.3474
  H  H109  1  0.778100  0.644900  0.783850  1.0  0.0679
  H  H110  1  0.720500  0.564200  0.868550  1.0  0.0378
  H  H111  1  0.539520  0.322890  0.836570  1.0  0.3455
  H  H112  1  0.444770  0.978230  0.950520  1.0  0.0679
  H  H113  1  0.387170  0.897530  0.535220  1.0  0.0378
  H  H114  1  0.206190  0.656230  0.503240  1.0  0.3452
  H  H115  1  0.111430  0.311570  0.617180  1.0  0.0679
  H  H116  1  0.053830  0.230870  0.701880  1.0  0.0378
  H  H117  1  0.872860  0.989560  0.669900  1.0  0.3452
  H  H118  1  0.355100  0.133200  0.783850  1.0  0.0687
  H  H119  1  0.435800  0.156300  0.868550  1.0  0.0379
  H  H120  1  0.677110  0.216630  0.836570  1.0  0.3459
  H  H121  1  0.021770  0.466530  0.950520  1.0  0.0687
  H  H122  1  0.102470  0.489630  0.535220  1.0  0.0379
  H  H123  1  0.343770  0.549960  0.503240  1.0  0.3459
  H  H124  1  0.688430  0.799870  0.617180  1.0  0.0687
  H  H125  1  0.769130  0.822970  0.701880  1.0  0.0379
  H  H126  1  0.010440  0.883300  0.669900  1.0  0.3461
  H  H127  1  0.866800  0.221900  0.783850  1.0  0.0676
  H  H128  1  0.843700  0.279500  0.868550  1.0  0.0375
  H  H129  1  0.783370  0.460480  0.836570  1.0  0.3458
  H  H130  1  0.533470  0.555230  0.950520  1.0  0.0674
  H  H131  1  0.510370  0.612830  0.535220  1.0  0.0375
  H  H132  1  0.450040  0.793810  0.503240  1.0  0.3458
  H  H133  1  0.200130  0.888570  0.617180  1.0  0.0676
  H  H134  1  0.177030  0.946170  0.701880  1.0  0.0376
  H  H135  1  0.116700  0.127140  0.669900  1.0  0.3462
  H  H136  1  0.221900  0.355100  0.716150  1.0  0.0677
  H  H137  1  0.279500  0.435800  0.631450  1.0  0.038
  H  H138  1  0.460480  0.677110  0.663430  1.0  0.3435
  H  H139  1  0.888570  0.688430  0.882820  1.0  0.0677
  H  H140  1  0.946170  0.769130  0.798120  1.0  0.038
  H  H141  1  0.127140  0.010440  0.830100  1.0  0.3432
  H  H142  1  0.555230  0.021770  0.549480  1.0  0.0677
  H  H143  1  0.612830  0.102470  0.964780  1.0  0.038
  H  H144  1  0.793810  0.343770  0.996760  1.0  0.3432
  H  H145  1  0.644900  0.866800  0.716150  1.0  0.0692
  H  H146  1  0.564200  0.843700  0.631450  1.0  0.0385
  H  H147  1  0.322890  0.783370  0.663430  1.0  0.347
  H  H148  1  0.311570  0.200130  0.882820  1.0  0.0692
  H  H149  1  0.230870  0.177030  0.798120  1.0  0.0385
  H  H150  1  0.989560  0.116700  0.830100  1.0  0.3472
  H  H151  1  0.978230  0.533470  0.549480  1.0  0.0692
  H  H152  1  0.897530  0.510370  0.964780  1.0  0.0385
  H  H153  1  0.656230  0.450040  0.996760  1.0  0.347
  H  H154  1  0.133200  0.778100  0.716150  1.0  0.0677
  H  H155  1  0.156300  0.720500  0.631450  1.0  0.0389
  H  H156  1  0.216630  0.539520  0.663430  1.0  0.3474
  H  H157  1  0.799870  0.111430  0.882820  1.0  0.0677
  H  H158  1  0.822970  0.053830  0.798120  1.0  0.039
  H  H159  1  0.883300  0.872860  0.830100  1.0  0.3477
  H  H160  1  0.466530  0.444770  0.549480  1.0  0.0676
  H  H161  1  0.489630  0.387170  0.964780  1.0  0.0389
  H  H162  1  0.549960  0.206190  0.996760  1.0  0.3474
  C  C163  1  0.771600  0.555200  0.135200  1.0  0.0341
  C  C164  1  0.767500  0.609700  0.258000  1.0  0.0643
  C  C165  1  0.794600  0.557200  0.037950  1.0  0.6427
  C  C166  1  0.733400  0.561100  0.308500  1.0  0.1117
  C  C167  1  0.738600  0.505900  0.187950  1.0  0.4853
  C  C168  1  0.438270  0.888530  0.301870  1.0  0.034
  C  C169  1  0.434170  0.943030  0.424670  1.0  0.0643
  C  C170  1  0.461270  0.890530  0.204620  1.0  0.6427
  C  C171  1  0.400070  0.894430  0.475170  1.0  0.1117
  C  C172  1  0.405270  0.839230  0.354620  1.0  0.4853
  C  C173  1  0.104930  0.221870  0.468530  1.0  0.0339
  C  C174  1  0.100830  0.276370  0.091330  1.0  0.0635
  C  C175  1  0.127930  0.223870  0.371280  1.0  0.6427
  C  C176  1  0.066730  0.227770  0.141830  1.0  0.111
  C  C177  1  0.071930  0.172570  0.021280  1.0  0.4853
  C  C178  1  0.444800  0.216400  0.135200  1.0  0.0353
  C  C179  1  0.390300  0.157800  0.258000  1.0  0.0627
  C  C180  1  0.442800  0.237400  0.037950  1.0  0.6437
  C  C181  1  0.438900  0.172300  0.308500  1.0  0.1098
  C  C182  1  0.494100  0.232700  0.187950  1.0  0.484
  C  C183  1  0.111470  0.549730  0.301870  1.0  0.0352
  C  C184  1  0.056970  0.491130  0.424670  1.0  0.0626
  C  C185  1  0.109470  0.570730  0.204620  1.0  0.6437
  C  C186  1  0.105570  0.505630  0.475170  1.0  0.1098
  C  C187  1  0.160770  0.566030  0.354620  1.0  0.484
  C  C188  1  0.778130  0.883070  0.468530  1.0  0.0352
  C  C189  1  0.723630  0.824470  0.091330  1.0  0.0617
  C  C190  1  0.776130  0.904070  0.371280  1.0  0.6436
  C  C191  1  0.772230  0.838970  0.141830  1.0  0.1091
  C  C192  1  0.827430  0.899370  0.021280  1.0  0.484
  C  C193  1  0.783600  0.228400  0.135200  1.0  0.0362
  C  C194  1  0.842200  0.232500  0.258000  1.0  0.0654
  C  C195  1  0.762600  0.205400  0.037950  1.0  0.6419
  C  C196  1  0.827700  0.266600  0.308500  1.0  0.1139
  C  C197  1  0.767300  0.261400  0.187950  1.0  0.4849
  C  C198  1  0.450270  0.561730  0.301870  1.0  0.0361
  C  C199  1  0.508870  0.565830  0.424670  1.0  0.0655
  C  C200  1  0.429270  0.538730  0.204620  1.0  0.6419
  C  C201  1  0.494370  0.599930  0.475170  1.0  0.1139
  C  C202  1  0.433970  0.594730  0.354620  1.0  0.4849
  C  C203  1  0.116930  0.895070  0.468530  1.0  0.0361
  C  C204  1  0.175530  0.899170  0.091330  1.0  0.0645
  C  C205  1  0.095930  0.872070  0.371280  1.0  0.6419
  C  C206  1  0.161030  0.933270  0.141830  1.0  0.1132
  C  C207  1  0.100630  0.928070  0.021280  1.0  0.4849
  C  C208  1  0.228400  0.444800  0.364800  1.0  0.0337
  C  C209  1  0.232500  0.390300  0.242000  1.0  0.0639
  C  C210  1  0.205400  0.442800  0.462050  1.0  0.6421
  C  C211  1  0.266600  0.438900  0.191500  1.0  0.1095
  C  C212  1  0.261400  0.494100  0.312050  1.0  0.4859
  C  C213  1  0.895070  0.778130  0.031470  1.0  0.0335
  C  C214  1  0.899170  0.723630  0.408670  1.0  0.063
  C  C215  1  0.872070  0.776130  0.128720  1.0  0.6421
  C  C216  1  0.933270  0.772230  0.358170  1.0  0.1087
  C  C217  1  0.928070  0.827430  0.478720  1.0  0.4859
  C  C218  1  0.561730  0.111470  0.198130  1.0  0.0336
  C  C219  1  0.565830  0.056970  0.075330  1.0  0.0639
  C  C220  1  0.538730  0.109470  0.295380  1.0  0.6421
  C  C221  1  0.599930  0.105570  0.024830  1.0  0.1095
  C  C222  1  0.594730  0.160770  0.145380  1.0  0.4859
  C  C223  1  0.555200  0.783600  0.364800  1.0  0.0359
  C  C224  1  0.609700  0.842200  0.242000  1.0  0.0631
  C  C225  1  0.557200  0.762600  0.462050  1.0  0.6442
  C  C226  1  0.561100  0.827700  0.191500  1.0  0.1076
  C  C227  1  0.505900  0.767300  0.312050  1.0  0.4844
  C  C228  1  0.221870  0.116930  0.031470  1.0  0.0359
  C  C229  1  0.276370  0.175530  0.408670  1.0  0.0623
  C  C230  1  0.223870  0.095930  0.128720  1.0  0.6441
  C  C231  1  0.227770  0.161030  0.358170  1.0  0.1067
  C  C232  1  0.172570  0.100630  0.478720  1.0  0.4844
  C  C233  1  0.888530  0.450270  0.198130  1.0  0.0359
  C  C234  1  0.943030  0.508870  0.075330  1.0  0.063
  C  C235  1  0.890530  0.429270  0.295380  1.0  0.6442
  C  C236  1  0.894430  0.494370  0.024830  1.0  0.1076
  C  C237  1  0.839230  0.433970  0.145380  1.0  0.4844
  C  C238  1  0.216400  0.771600  0.364800  1.0  0.0355
  C  C239  1  0.157800  0.767500  0.242000  1.0  0.0648
  C  C240  1  0.237400  0.794600  0.462050  1.0  0.642
  C  C241  1  0.172300  0.733400  0.191500  1.0  0.1139
  C  C242  1  0.232700  0.738600  0.312050  1.0  0.4849
  C  C243  1  0.883070  0.104930  0.031470  1.0  0.0353
  C  C244  1  0.824470  0.100830  0.408670  1.0  0.0641
  C  C245  1  0.904070  0.127930  0.128720  1.0  0.642
  C  C246  1  0.838970  0.066730  0.358170  1.0  0.1129
  C  C247  1  0.899370  0.071930  0.478720  1.0  0.4849
  C  C248  1  0.549730  0.438270  0.198130  1.0  0.0354
  C  C249  1  0.491130  0.434170  0.075330  1.0  0.0648
  C  C250  1  0.570730  0.461270  0.295380  1.0  0.642
  C  C251  1  0.505630  0.400070  0.024830  1.0  0.1138
  C  C252  1  0.566030  0.405270  0.145380  1.0  0.4849
  C  C253  1  0.771600  0.555200  0.635200  1.0  0.0341
  C  C254  1  0.767500  0.609700  0.758000  1.0  0.0643
  C  C255  1  0.794600  0.557200  0.537950  1.0  0.6427
  C  C256  1  0.733400  0.561100  0.808500  1.0  0.1117
  C  C257  1  0.738600  0.505900  0.687950  1.0  0.4853
  C  C258  1  0.438270  0.888530  0.801870  1.0  0.034
  C  C259  1  0.434170  0.943030  0.924670  1.0  0.0643
  C  C260  1  0.461270  0.890530  0.704620  1.0  0.6427
  C  C261  1  0.400070  0.894430  0.975170  1.0  0.1117
  C  C262  1  0.405270  0.839230  0.854620  1.0  0.4853
  C  C263  1  0.104930  0.221870  0.968530  1.0  0.0341
  C  C264  1  0.100830  0.276370  0.591330  1.0  0.0643
  C  C265  1  0.127930  0.223870  0.871280  1.0  0.6427
  C  C266  1  0.066730  0.227770  0.641830  1.0  0.1117
  C  C267  1  0.071930  0.172570  0.521280  1.0  0.4853
  C  C268  1  0.444800  0.216400  0.635200  1.0  0.0353
  C  C269  1  0.390300  0.157800  0.758000  1.0  0.0627
  C  C270  1  0.442800  0.237400  0.537950  1.0  0.6437
  C  C271  1  0.438900  0.172300  0.808500  1.0  0.1098
  C  C272  1  0.494100  0.232700  0.687950  1.0  0.484
  C  C273  1  0.111470  0.549730  0.801870  1.0  0.0352
  C  C274  1  0.056970  0.491130  0.924670  1.0  0.0626
  C  C275  1  0.109470  0.570730  0.704620  1.0  0.6437
  C  C276  1  0.105570  0.505630  0.975170  1.0  0.1098
  C  C277  1  0.160770  0.566030  0.854620  1.0  0.484
  C  C278  1  0.778130  0.883070  0.968530  1.0  0.0353
  C  C279  1  0.723630  0.824470  0.591330  1.0  0.0627
  C  C280  1  0.776130  0.904070  0.871280  1.0  0.6436
  C  C281  1  0.772230  0.838970  0.641830  1.0  0.1098
  C  C282  1  0.827430  0.899370  0.521280  1.0  0.484
  C  C283  1  0.783600  0.228400  0.635200  1.0  0.0362
  C  C284  1  0.842200  0.232500  0.758000  1.0  0.0654
  C  C285  1  0.762600  0.205400  0.537950  1.0  0.6419
  C  C286  1  0.827700  0.266600  0.808500  1.0  0.1139
  C  C287  1  0.767300  0.261400  0.687950  1.0  0.4849
  C  C288  1  0.450270  0.561730  0.801870  1.0  0.0361
  C  C289  1  0.508870  0.565830  0.924670  1.0  0.0655
  C  C290  1  0.429270  0.538730  0.704620  1.0  0.6419
  C  C291  1  0.494370  0.599930  0.975170  1.0  0.1139
  C  C292  1  0.433970  0.594730  0.854620  1.0  0.4849
  C  C293  1  0.116930  0.895070  0.968530  1.0  0.0362
  C  C294  1  0.175530  0.899170  0.591330  1.0  0.0654
  C  C295  1  0.095930  0.872070  0.871280  1.0  0.6419
  C  C296  1  0.161030  0.933270  0.641830  1.0  0.1138
  C  C297  1  0.100630  0.928070  0.521280  1.0  0.4849
  C  C298  1  0.228400  0.444800  0.864800  1.0  0.0337
  C  C299  1  0.232500  0.390300  0.742000  1.0  0.0639
  C  C300  1  0.205400  0.442800  0.962050  1.0  0.6421
  C  C301  1  0.266600  0.438900  0.691500  1.0  0.1095
  C  C302  1  0.261400  0.494100  0.812050  1.0  0.4859
  C  C303  1  0.895070  0.778130  0.531470  1.0  0.0337
  C  C304  1  0.899170  0.723630  0.908670  1.0  0.0639
  C  C305  1  0.872070  0.776130  0.628720  1.0  0.6421
  C  C306  1  0.933270  0.772230  0.858170  1.0  0.1095
  C  C307  1  0.928070  0.827430  0.978720  1.0  0.4859
  C  C308  1  0.561730  0.111470  0.698130  1.0  0.0336
  C  C309  1  0.565830  0.056970  0.575330  1.0  0.0639
  C  C310  1  0.538730  0.109470  0.795380  1.0  0.6421
  C  C311  1  0.599930  0.105570  0.524830  1.0  0.1095
  C  C312  1  0.594730  0.160770  0.645380  1.0  0.4859
  C  C313  1  0.555200  0.783600  0.864800  1.0  0.0359
  C  C314  1  0.609700  0.842200  0.742000  1.0  0.0631
  C  C315  1  0.557200  0.762600  0.962050  1.0  0.6442
  C  C316  1  0.561100  0.827700  0.691500  1.0  0.1076
  C  C317  1  0.505900  0.767300  0.812050  1.0  0.4844
  C  C318  1  0.221870  0.116930  0.531470  1.0  0.0359
  C  C319  1  0.276370  0.175530  0.908670  1.0  0.0631
  C  C320  1  0.223870  0.095930  0.628720  1.0  0.6441
  C  C321  1  0.227770  0.161030  0.858170  1.0  0.1076
  C  C322  1  0.172570  0.100630  0.978720  1.0  0.4844
  C  C323  1  0.888530  0.450270  0.698130  1.0  0.0359
  C  C324  1  0.943030  0.508870  0.575330  1.0  0.063
  C  C325  1  0.890530  0.429270  0.795380  1.0  0.6442
  C  C326  1  0.894430  0.494370  0.524830  1.0  0.1076
  C  C327  1  0.839230  0.433970  0.645380  1.0  0.4844
  C  C328  1  0.216400  0.771600  0.864800  1.0  0.0355
  C  C329  1  0.157800  0.767500  0.742000  1.0  0.0648
  C  C330  1  0.237400  0.794600  0.962050  1.0  0.642
  C  C331  1  0.172300  0.733400  0.691500  1.0  0.1139
  C  C332  1  0.232700  0.738600  0.812050  1.0  0.4849
  C  C333  1  0.883070  0.104930  0.531470  1.0  0.0355
  C  C334  1  0.824470  0.100830  0.908670  1.0  0.0649
  C  C335  1  0.904070  0.127930  0.628720  1.0  0.642
  C  C336  1  0.838970  0.066730  0.858170  1.0  0.1139
  C  C337  1  0.899370  0.071930  0.978720  1.0  0.4849
  C  C338  1  0.549730  0.438270  0.698130  1.0  0.0354
  C  C339  1  0.491130  0.434170  0.575330  1.0  0.0648
  C  C340  1  0.570730  0.461270  0.795380  1.0  0.642
  C  C341  1  0.505630  0.400070  0.524830  1.0  0.1138
  C  C342  1  0.566030  0.405270  0.645380  1.0  0.4849
  N  N343  1  0.784600  0.605500  0.171750  1.0  -0.3502
  N  N344  1  0.718500  0.510200  0.275700  1.0  -0.4294
  N  N345  1  0.451270  0.938830  0.338420  1.0  -0.3502
  N  N346  1  0.385170  0.843530  0.442370  1.0  -0.4294
  N  N347  1  0.117930  0.272170  0.005080  1.0  -0.3494
  N  N348  1  0.051830  0.176870  0.109030  1.0  -0.4295
  N  N349  1  0.394500  0.179100  0.171750  1.0  -0.3491
  N  N350  1  0.489800  0.208300  0.275700  1.0  -0.4257
  N  N351  1  0.061170  0.512430  0.338420  1.0  -0.3491
  N  N352  1  0.156470  0.541630  0.442370  1.0  -0.4258
  N  N353  1  0.727830  0.845770  0.005080  1.0  -0.3483
  N  N354  1  0.823130  0.874970  0.109030  1.0  -0.4264
  N  N355  1  0.820900  0.215400  0.171750  1.0  -0.3478
  N  N356  1  0.791700  0.281500  0.275700  1.0  -0.4297
  N  N357  1  0.487570  0.548730  0.338420  1.0  -0.3478
  N  N358  1  0.458370  0.614830  0.442370  1.0  -0.4297
  N  N359  1  0.154230  0.882070  0.005080  1.0  -0.3469
  N  N360  1  0.125030  0.948170  0.109030  1.0  -0.4297
  N  N361  1  0.215400  0.394500  0.328250  1.0  -0.3492
  N  N362  1  0.281500  0.489800  0.224300  1.0  -0.4293
  N  N363  1  0.882070  0.727830  0.494920  1.0  -0.3484
  N  N364  1  0.948170  0.823130  0.390970  1.0  -0.4294
  N  N365  1  0.548730  0.061170  0.161580  1.0  -0.3492
  N  N366  1  0.614830  0.156470  0.057630  1.0  -0.4293
  N  N367  1  0.605500  0.820900  0.328250  1.0  -0.3512
  N  N368  1  0.510200  0.791700  0.224300  1.0  -0.4284
  N  N369  1  0.272170  0.154230  0.494920  1.0  -0.3503
  N  N370  1  0.176870  0.125030  0.390970  1.0  -0.4287
  N  N371  1  0.938830  0.487570  0.161580  1.0  -0.3512
  N  N372  1  0.843530  0.458370  0.057630  1.0  -0.4285
  N  N373  1  0.179100  0.784600  0.328250  1.0  -0.3478
  N  N374  1  0.208300  0.718500  0.224300  1.0  -0.4278
  N  N375  1  0.845770  0.117930  0.494920  1.0  -0.3471
  N  N376  1  0.874970  0.051830  0.390970  1.0  -0.4279
  N  N377  1  0.512430  0.451270  0.161580  1.0  -0.3481
  N  N378  1  0.541630  0.385170  0.057630  1.0  -0.4278
  N  N379  1  0.784600  0.605500  0.671750  1.0  -0.3502
  N  N380  1  0.718500  0.510200  0.775700  1.0  -0.4294
  N  N381  1  0.451270  0.938830  0.838420  1.0  -0.3502
  N  N382  1  0.385170  0.843530  0.942370  1.0  -0.4294
  N  N383  1  0.117930  0.272170  0.505080  1.0  -0.3502
  N  N384  1  0.051830  0.176870  0.609030  1.0  -0.4294
  N  N385  1  0.394500  0.179100  0.671750  1.0  -0.3491
  N  N386  1  0.489800  0.208300  0.775700  1.0  -0.4257
  N  N387  1  0.061170  0.512430  0.838420  1.0  -0.3491
  N  N388  1  0.156470  0.541630  0.942370  1.0  -0.4258
  N  N389  1  0.727830  0.845770  0.505080  1.0  -0.3491
  N  N390  1  0.823130  0.874970  0.609030  1.0  -0.4263
  N  N391  1  0.820900  0.215400  0.671750  1.0  -0.3478
  N  N392  1  0.791700  0.281500  0.775700  1.0  -0.4297
  N  N393  1  0.487570  0.548730  0.838420  1.0  -0.3478
  N  N394  1  0.458370  0.614830  0.942370  1.0  -0.4297
  N  N395  1  0.154230  0.882070  0.505080  1.0  -0.3478
  N  N396  1  0.125030  0.948170  0.609030  1.0  -0.4296
  N  N397  1  0.215400  0.394500  0.828250  1.0  -0.3492
  N  N398  1  0.281500  0.489800  0.724300  1.0  -0.4293
  N  N399  1  0.882070  0.727830  0.994920  1.0  -0.3492
  N  N400  1  0.948170  0.823130  0.890970  1.0  -0.4293
  N  N401  1  0.548730  0.061170  0.661580  1.0  -0.3492
  N  N402  1  0.614830  0.156470  0.557630  1.0  -0.4293
  N  N403  1  0.605500  0.820900  0.828250  1.0  -0.3512
  N  N404  1  0.510200  0.791700  0.724300  1.0  -0.4284
  N  N405  1  0.272170  0.154230  0.994920  1.0  -0.3512
  N  N406  1  0.176870  0.125030  0.890970  1.0  -0.4286
  N  N407  1  0.938830  0.487570  0.661580  1.0  -0.3512
  N  N408  1  0.843530  0.458370  0.557630  1.0  -0.4285
  N  N409  1  0.179100  0.784600  0.828250  1.0  -0.3478
  N  N410  1  0.208300  0.718500  0.724300  1.0  -0.4278
  N  N411  1  0.845770  0.117930  0.994920  1.0  -0.3478
  N  N412  1  0.874970  0.051830  0.890970  1.0  -0.4278
  N  N413  1  0.512430  0.451270  0.661580  1.0  -0.3481
  N  N414  1  0.541630  0.385170  0.557630  1.0  -0.4278
  O  O415  1  0.723600  0.455200  0.162950  1.0  -0.8382
  O  O416  1  0.782500  0.512900  0.494550  1.0  -0.7253
  O  O417  1  0.823800  0.605500  0.001000  1.0  -0.6158
  O  O418  1  0.659000  0.417400  0.473400  1.0  -0.9927
  O  O419  1  0.390270  0.788530  0.329620  1.0  -0.8382
  O  O420  1  0.449170  0.846230  0.161220  1.0  -0.7253
  O  O421  1  0.490470  0.938830  0.167670  1.0  -0.6157
  O  O422  1  0.325670  0.750730  0.140070  1.0  -0.9927
  O  O423  1  0.056930  0.121870  0.496280  1.0  -0.8383
  O  O424  1  0.115830  0.179570  0.327880  1.0  -0.7253
  O  O425  1  0.157130  0.272170  0.334330  1.0  -0.6158
  O  O426  1  0.992330  0.084070  0.306730  1.0  -1.0041
  O  O427  1  0.544800  0.268400  0.162950  1.0  -0.8393
  O  O428  1  0.487100  0.269600  0.494550  1.0  -0.7296
  O  O429  1  0.394500  0.218300  0.001000  1.0  -0.6145
  O  O430  1  0.582600  0.241600  0.473400  1.0  -0.9943
  O  O431  1  0.211470  0.601730  0.329620  1.0  -0.8393
  O  O432  1  0.153770  0.602930  0.161220  1.0  -0.7296
  O  O433  1  0.061170  0.551630  0.167670  1.0  -0.6147
  O  O434  1  0.249270  0.574930  0.140070  1.0  -0.9943
  O  O435  1  0.878130  0.935070  0.496280  1.0  -0.8395
  O  O436  1  0.820430  0.936270  0.327880  1.0  -0.7296
  O  O437  1  0.727830  0.884970  0.334330  1.0  -0.6145
  O  O438  1  0.915930  0.908270  0.306730  1.0  -1.0056
  O  O439  1  0.731600  0.276400  0.162950  1.0  -0.8375
  O  O440  1  0.730400  0.217500  0.494550  1.0  -0.7287
  O  O441  1  0.781700  0.176200  0.001000  1.0  -0.6164
  O  O442  1  0.758400  0.341000  0.473400  1.0  -0.9952
  O  O443  1  0.398270  0.609730  0.329620  1.0  -0.8375
  O  O444  1  0.397070  0.550830  0.161220  1.0  -0.7287
  O  O445  1  0.448370  0.509530  0.167670  1.0  -0.6164
  O  O446  1  0.425070  0.674330  0.140070  1.0  -1.0067
  O  O447  1  0.064930  0.943070  0.496280  1.0  -0.8374
  O  O448  1  0.063730  0.884170  0.327880  1.0  -0.7288
  O  O449  1  0.115030  0.842870  0.334330  1.0  -0.6164
  O  O450  1  0.091730  0.007670  0.306730  1.0  -0.9951
  O  O451  1  0.276400  0.544800  0.337050  1.0  -0.8386
  O  O452  1  0.217500  0.487100  0.005450  1.0  -0.7264
  O  O453  1  0.176200  0.394500  0.499000  1.0  -0.6158
  O  O454  1  0.341000  0.582600  0.026600  1.0  -0.9921
  O  O455  1  0.943070  0.878130  0.003720  1.0  -0.8387
  O  O456  1  0.884170  0.820430  0.172120  1.0  -0.7263
  O  O457  1  0.842870  0.727830  0.165670  1.0  -0.6158
  O  O458  1  0.007670  0.915930  0.193270  1.0  -1.0035
  O  O459  1  0.609730  0.211470  0.170380  1.0  -0.8386
  O  O460  1  0.550830  0.153770  0.338780  1.0  -0.7264
  O  O461  1  0.509530  0.061170  0.332330  1.0  -0.6157
  O  O462  1  0.674330  0.249270  0.359930  1.0  -0.9921
  O  O463  1  0.455200  0.731600  0.337050  1.0  -0.8402
  O  O464  1  0.512900  0.730400  0.005450  1.0  -0.7297
  O  O465  1  0.605500  0.781700  0.499000  1.0  -0.6153
  O  O466  1  0.417400  0.758400  0.026600  1.0  -0.9907
  O  O467  1  0.121870  0.064930  0.003720  1.0  -0.8404
  O  O468  1  0.179570  0.063730  0.172120  1.0  -0.7297
  O  O469  1  0.272170  0.115030  0.165670  1.0  -0.6153
  O  O470  1  0.084070  0.091730  0.193270  1.0  -1.0021
  O  O471  1  0.788530  0.398270  0.170380  1.0  -0.8402
  O  O472  1  0.846230  0.397070  0.338780  1.0  -0.7297
  O  O473  1  0.938830  0.448370  0.332330  1.0  -0.6153
  O  O474  1  0.750730  0.425070  0.359930  1.0  -0.9907
  O  O475  1  0.268400  0.723600  0.337050  1.0  -0.8383
  O  O476  1  0.269600  0.782500  0.005450  1.0  -0.7272
  O  O477  1  0.218300  0.823800  0.499000  1.0  -0.6168
  O  O478  1  0.241600  0.659000  0.026600  1.0  -0.9963
  O  O479  1  0.935070  0.056930  0.003720  1.0  -0.8382
  O  O480  1  0.936270  0.115830  0.172120  1.0  -0.7272
  O  O481  1  0.884970  0.157130  0.165670  1.0  -0.6168
  O  O482  1  0.908270  0.992330  0.193270  1.0  -0.9962
  O  O483  1  0.601730  0.390270  0.170380  1.0  -0.8383
  O  O484  1  0.602930  0.449170  0.338780  1.0  -0.7272
  O  O485  1  0.551630  0.490470  0.332330  1.0  -0.6168
  O  O486  1  0.574930  0.325670  0.359930  1.0  -1.0078
  O  O487  1  0.666667  0.333333  0.416670  1.0  -0.742
  O  O488  1  0.000000  0.000000  0.250000  1.0  -0.7415
  O  O489  1  0.333333  0.666667  0.083330  1.0  -0.7418
  O  O490  1  0.666667  0.333333  0.077000  1.0  -0.8405
  O  O491  1  0.333333  0.666667  0.243670  1.0  -0.84
  O  O492  1  0.000000  0.000000  0.410330  1.0  -0.8399
  O  O493  1  0.333333  0.666667  0.423000  1.0  -0.8404
  O  O494  1  0.000000  0.000000  0.089670  1.0  -0.8399
  O  O495  1  0.666667  0.333333  0.256330  1.0  -0.8398
  O  O496  1  0.723600  0.455200  0.662950  1.0  -0.8382
  O  O497  1  0.782500  0.512900  0.994550  1.0  -0.7253
  O  O498  1  0.823800  0.605500  0.501000  1.0  -0.6158
  O  O499  1  0.659000  0.417400  0.973400  1.0  -0.9927
  O  O500  1  0.390270  0.788530  0.829620  1.0  -0.8382
  O  O501  1  0.449170  0.846230  0.661220  1.0  -0.7253
  O  O502  1  0.490470  0.938830  0.667670  1.0  -0.6157
  O  O503  1  0.325670  0.750730  0.640070  1.0  -0.9927
  O  O504  1  0.056930  0.121870  0.996280  1.0  -0.8383
  O  O505  1  0.115830  0.179570  0.827880  1.0  -0.7253
  O  O506  1  0.157130  0.272170  0.834330  1.0  -0.6158
  O  O507  1  0.992330  0.084070  0.806730  1.0  -1.0041
  O  O508  1  0.544800  0.268400  0.662950  1.0  -0.8393
  O  O509  1  0.487100  0.269600  0.994550  1.0  -0.7296
  O  O510  1  0.394500  0.218300  0.501000  1.0  -0.6145
  O  O511  1  0.582600  0.241600  0.973400  1.0  -0.9943
  O  O512  1  0.211470  0.601730  0.829620  1.0  -0.8393
  O  O513  1  0.153770  0.602930  0.661220  1.0  -0.7296
  O  O514  1  0.061170  0.551630  0.667670  1.0  -0.6147
  O  O515  1  0.249270  0.574930  0.640070  1.0  -0.9943
  O  O516  1  0.878130  0.935070  0.996280  1.0  -0.8395
  O  O517  1  0.820430  0.936270  0.827880  1.0  -0.7296
  O  O518  1  0.727830  0.884970  0.834330  1.0  -0.6145
  O  O519  1  0.915930  0.908270  0.806730  1.0  -1.0056
  O  O520  1  0.731600  0.276400  0.662950  1.0  -0.8375
  O  O521  1  0.730400  0.217500  0.994550  1.0  -0.7287
  O  O522  1  0.781700  0.176200  0.501000  1.0  -0.6164
  O  O523  1  0.758400  0.341000  0.973400  1.0  -0.9952
  O  O524  1  0.398270  0.609730  0.829620  1.0  -0.8375
  O  O525  1  0.397070  0.550830  0.661220  1.0  -0.7287
  O  O526  1  0.448370  0.509530  0.667670  1.0  -0.6164
  O  O527  1  0.425070  0.674330  0.640070  1.0  -1.0067
  O  O528  1  0.064930  0.943070  0.996280  1.0  -0.8374
  O  O529  1  0.063730  0.884170  0.827880  1.0  -0.7288
  O  O530  1  0.115030  0.842870  0.834330  1.0  -0.6164
  O  O531  1  0.091730  0.007670  0.806730  1.0  -0.9951
  O  O532  1  0.276400  0.544800  0.837050  1.0  -0.8386
  O  O533  1  0.217500  0.487100  0.505450  1.0  -0.7264
  O  O534  1  0.176200  0.394500  0.999000  1.0  -0.6158
  O  O535  1  0.341000  0.582600  0.526600  1.0  -0.9921
  O  O536  1  0.943070  0.878130  0.503720  1.0  -0.8387
  O  O537  1  0.884170  0.820430  0.672120  1.0  -0.7263
  O  O538  1  0.842870  0.727830  0.665670  1.0  -0.6158
  O  O539  1  0.007670  0.915930  0.693270  1.0  -1.0035
  O  O540  1  0.609730  0.211470  0.670380  1.0  -0.8386
  O  O541  1  0.550830  0.153770  0.838780  1.0  -0.7264
  O  O542  1  0.509530  0.061170  0.832330  1.0  -0.6157
  O  O543  1  0.674330  0.249270  0.859930  1.0  -0.9921
  O  O544  1  0.455200  0.731600  0.837050  1.0  -0.8402
  O  O545  1  0.512900  0.730400  0.505450  1.0  -0.7297
  O  O546  1  0.605500  0.781700  0.999000  1.0  -0.6153
  O  O547  1  0.417400  0.758400  0.526600  1.0  -0.9907
  O  O548  1  0.121870  0.064930  0.503720  1.0  -0.8404
  O  O549  1  0.179570  0.063730  0.672120  1.0  -0.7297
  O  O550  1  0.272170  0.115030  0.665670  1.0  -0.6153
  O  O551  1  0.084070  0.091730  0.693270  1.0  -1.0021
  O  O552  1  0.788530  0.398270  0.670380  1.0  -0.8402
  O  O553  1  0.846230  0.397070  0.838780  1.0  -0.7297
  O  O554  1  0.938830  0.448370  0.832330  1.0  -0.6153
  O  O555  1  0.750730  0.425070  0.859930  1.0  -0.9907
  O  O556  1  0.268400  0.723600  0.837050  1.0  -0.8383
  O  O557  1  0.269600  0.782500  0.505450  1.0  -0.7272
  O  O558  1  0.218300  0.823800  0.999000  1.0  -0.6168
  O  O559  1  0.241600  0.659000  0.526600  1.0  -0.9963
  O  O560  1  0.935070  0.056930  0.503720  1.0  -0.8382
  O  O561  1  0.936270  0.115830  0.672120  1.0  -0.7272
  O  O562  1  0.884970  0.157130  0.665670  1.0  -0.6168
  O  O563  1  0.908270  0.992330  0.693270  1.0  -0.9962
  O  O564  1  0.601730  0.390270  0.670380  1.0  -0.8383
  O  O565  1  0.602930  0.449170  0.838780  1.0  -0.7272
  O  O566  1  0.551630  0.490470  0.832330  1.0  -0.6168
  O  O567  1  0.574930  0.325670  0.859930  1.0  -1.0078
  O  O568  1  0.666667  0.333333  0.916670  1.0  -0.742
  O  O569  1  0.000000  0.000000  0.750000  1.0  -0.7415
  O  O570  1  0.333333  0.666667  0.583330  1.0  -0.7418
  O  O571  1  0.666667  0.333333  0.577000  1.0  -0.8399
  O  O572  1  0.333333  0.666667  0.743670  1.0  -0.84
  O  O573  1  0.000000  0.000000  0.910330  1.0  -0.8405
  O  O574  1  0.333333  0.666667  0.923000  1.0  -0.8399
  O  O575  1  0.000000  0.000000  0.589670  1.0  -0.8403
  O  O576  1  0.666667  0.333333  0.756330  1.0  -0.8398
