# generated using pymatgen
data_CoH16C26(SN5)2
_symmetry_space_group_name_H-M   'P 1'
_cell_length_a   19.07400000
_cell_length_b   19.65200000
_cell_length_c   19.65200000
_cell_angle_alpha   120.00000000
_cell_angle_beta   90.00000000
_cell_angle_gamma   90.00000000
_symmetry_Int_Tables_number   1
_chemical_formula_structural   CoH16C26(SN5)2
_chemical_formula_sum   'Co6 H96 C156 S12 N60'
_cell_volume   6379.48941120
_cell_formula_units_Z   6
loop_
 _symmetry_equiv_pos_site_id
 _symmetry_equiv_pos_as_xyz
  1  'x, y, z'
loop_
 _atom_site_type_symbol
 _atom_site_label
 _atom_site_symmetry_multiplicity
 _atom_site_fract_x
 _atom_site_fract_y
 _atom_site_fract_z
 _atom_site_occupancy
 _atom_site_charge
  Co  Co1  1  0.601400  0.999570  0.664010  1.0  0.7673
  Co  Co2  1  0.601400  0.664440  0.000430  1.0  0.7667
  Co  Co3  1  0.601400  0.335990  0.335560  1.0  0.7672
  Co  Co4  1  0.101400  0.664440  0.664010  1.0  0.7668
  Co  Co5  1  0.101400  0.335990  0.000430  1.0  0.7667
  Co  Co6  1  0.101400  0.999570  0.335560  1.0  0.767
  H  H7  1  0.566800  0.830200  0.623100  1.0  0.0981
  H  H8  1  0.553600  0.754500  0.680300  1.0  0.1168
  H  H9  1  0.550900  0.815800  0.821000  1.0  0.1156
  H  H10  1  0.607800  0.019100  0.829200  1.0  0.0958
  H  H11  1  0.027800  0.863900  0.353900  1.0  0.1001
  H  H12  1  0.922200  0.824600  0.372800  1.0  0.1257
  H  H13  1  0.826300  0.904100  0.399700  1.0  0.1194
  H  H14  1  0.946600  0.048700  0.359700  1.0  0.0866
  H  H15  1  0.517000  0.141100  0.664000  1.0  0.1157
  H  H16  1  0.532400  0.221000  0.610200  1.0  0.1003
  H  H17  1  0.613300  0.207700  0.522000  1.0  0.1072
  H  H18  1  0.697500  0.032700  0.550900  1.0  0.1037
  H  H19  1  0.680000  0.239100  0.398600  1.0  0.0457
  H  H20  1  0.858900  0.253500  0.254600  1.0  0.1255
  H  H21  1  0.871600  0.158600  0.301500  1.0  0.1557
  H  H22  1  0.757200  0.313500  0.257000  1.0  0.1144
  H  H23  1  0.566800  0.792900  0.169800  1.0  0.0987
  H  H24  1  0.553600  0.925800  0.245500  1.0  0.1152
  H  H25  1  0.550900  0.005200  0.184200  1.0  0.1149
  H  H26  1  0.607800  0.810100  0.980900  1.0  0.0976
  H  H27  1  0.027800  0.490000  0.136100  1.0  0.1003
  H  H28  1  0.922200  0.548200  0.175400  1.0  0.1243
  H  H29  1  0.826300  0.495600  0.095900  1.0  0.1203
  H  H30  1  0.946600  0.311000  0.951300  1.0  0.0883
  H  H31  1  0.517000  0.522900  0.858900  1.0  0.116
  H  H32  1  0.532400  0.389200  0.779000  1.0  0.1009
  H  H33  1  0.613300  0.314300  0.792300  1.0  0.1082
  H  H34  1  0.697500  0.518200  0.967300  1.0  0.1047
  H  H35  1  0.680000  0.159500  0.760900  1.0  0.0444
  H  H36  1  0.858900  0.001100  0.746500  1.0  0.1255
  H  H37  1  0.871600  0.142900  0.841400  1.0  0.1554
  H  H38  1  0.757200  0.943500  0.686500  1.0  0.1155
  H  H39  1  0.566800  0.376900  0.207100  1.0  0.0986
  H  H40  1  0.553600  0.319700  0.074200  1.0  0.1166
  H  H41  1  0.550900  0.179000  0.994800  1.0  0.1168
  H  H42  1  0.607800  0.170800  0.189900  1.0  0.0951
  H  H43  1  0.027800  0.646100  0.510000  1.0  0.099
  H  H44  1  0.922200  0.627200  0.451800  1.0  0.1213
  H  H45  1  0.826300  0.600300  0.504400  1.0  0.12
  H  H46  1  0.946600  0.640300  0.689000  1.0  0.0889
  H  H47  1  0.517000  0.336000  0.477100  1.0  0.1165
  H  H48  1  0.532400  0.389800  0.610800  1.0  0.1021
  H  H49  1  0.613300  0.478000  0.685700  1.0  0.1065
  H  H50  1  0.697500  0.449100  0.481800  1.0  0.1037
  H  H51  1  0.680000  0.601400  0.840500  1.0  0.0448
  H  H52  1  0.858900  0.745400  0.998900  1.0  0.1258
  H  H53  1  0.871600  0.698500  0.857100  1.0  0.1548
  H  H54  1  0.757200  0.743000  0.056500  1.0  0.1136
  H  H55  1  0.066800  0.792900  0.623100  1.0  0.0984
  H  H56  1  0.053600  0.925800  0.680300  1.0  0.1151
  H  H57  1  0.050900  0.005200  0.821000  1.0  0.115
  H  H58  1  0.107800  0.810100  0.829200  1.0  0.097
  H  H59  1  0.527800  0.490000  0.353900  1.0  0.0998
  H  H60  1  0.422200  0.548200  0.372800  1.0  0.1244
  H  H61  1  0.326300  0.495600  0.399700  1.0  0.1205
  H  H62  1  0.446600  0.311000  0.359700  1.0  0.089
  H  H63  1  0.017000  0.522900  0.664000  1.0  0.1184
  H  H64  1  0.032400  0.389200  0.610200  1.0  0.1013
  H  H65  1  0.113300  0.314300  0.522000  1.0  0.1079
  H  H66  1  0.197500  0.518200  0.550900  1.0  0.1049
  H  H67  1  0.180000  0.159500  0.398600  1.0  0.0441
  H  H68  1  0.358900  0.001100  0.254600  1.0  0.1257
  H  H69  1  0.371600  0.142900  0.301500  1.0  0.1545
  H  H70  1  0.257200  0.943500  0.257000  1.0  0.1153
  H  H71  1  0.066800  0.376900  0.169800  1.0  0.0979
  H  H72  1  0.053600  0.319700  0.245500  1.0  0.1169
  H  H73  1  0.050900  0.179000  0.184200  1.0  0.1171
  H  H74  1  0.107800  0.170800  0.980900  1.0  0.0953
  H  H75  1  0.527800  0.646100  0.136100  1.0  0.1001
  H  H76  1  0.422200  0.627200  0.175400  1.0  0.1205
  H  H77  1  0.326300  0.600300  0.095900  1.0  0.1203
  H  H78  1  0.446600  0.640300  0.951300  1.0  0.0878
  H  H79  1  0.017000  0.336000  0.858900  1.0  0.1185
  H  H80  1  0.032400  0.389800  0.779000  1.0  0.1016
  H  H81  1  0.113300  0.478000  0.792300  1.0  0.1072
  H  H82  1  0.197500  0.449100  0.967300  1.0  0.103
  H  H83  1  0.180000  0.601400  0.760900  1.0  0.0451
  H  H84  1  0.358900  0.745400  0.746500  1.0  0.1256
  H  H85  1  0.371600  0.698500  0.841400  1.0  0.1549
  H  H86  1  0.257200  0.743000  0.686500  1.0  0.1145
  H  H87  1  0.066800  0.830200  0.207100  1.0  0.0984
  H  H88  1  0.053600  0.754500  0.074200  1.0  0.1167
  H  H89  1  0.050900  0.815800  0.994800  1.0  0.1158
  H  H90  1  0.107800  0.019100  0.189900  1.0  0.0958
  H  H91  1  0.527800  0.863900  0.510000  1.0  0.0997
  H  H92  1  0.422200  0.824600  0.451800  1.0  0.1252
  H  H93  1  0.326300  0.904100  0.504400  1.0  0.1196
  H  H94  1  0.446600  0.048700  0.689000  1.0  0.0872
  H  H95  1  0.017000  0.141100  0.477100  1.0  0.1174
  H  H96  1  0.032400  0.221000  0.610800  1.0  0.1007
  H  H97  1  0.113300  0.207700  0.685700  1.0  0.1071
  H  H98  1  0.197500  0.032700  0.481800  1.0  0.1043
  H  H99  1  0.180000  0.239100  0.840500  1.0  0.0453
  H  H100  1  0.358900  0.253500  0.998900  1.0  0.1262
  H  H101  1  0.371600  0.158600  0.857100  1.0  0.1559
  H  H102  1  0.257200  0.313500  0.056500  1.0  0.1137
  C  C103  1  0.693500  0.865800  0.525300  1.0  0.2144
  C  C104  1  0.534900  0.150700  0.815700  1.0  0.1859
  C  C105  1  0.573000  0.853500  0.678300  1.0  0.1569
  C  C106  1  0.561800  0.809300  0.712000  1.0  -0.1285
  C  C107  1  0.562400  0.845200  0.796100  1.0  -0.0784
  C  C108  1  0.579800  0.922400  0.838900  1.0  -0.1192
  C  C109  1  0.595400  0.965200  0.799200  1.0  0.1527
  C  C110  1  0.987900  0.894900  0.358600  1.0  0.1625
  C  C111  1  0.926300  0.873200  0.373500  1.0  -0.1608
  C  C112  1  0.870300  0.919600  0.389400  1.0  -0.0669
  C  C113  1  0.876800  0.990100  0.390700  1.0  -0.039
  C  C114  1  0.942000  0.003800  0.365600  1.0  0.1589
  C  C115  1  0.555200  0.133500  0.629800  1.0  0.1208
  C  C116  1  0.565300  0.179500  0.595000  1.0  -0.0774
  C  C117  1  0.613100  0.174600  0.544400  1.0  -0.0974
  C  C118  1  0.663900  0.116200  0.526600  1.0  -0.1424
  C  C119  1  0.661000  0.069500  0.561000  1.0  0.1285
  C  C120  1  0.719700  0.104500  0.472100  1.0  0.4621
  C  C121  1  0.584700  0.962800  0.923600  1.0  0.4004
  C  C122  1  0.817600  0.048200  0.409500  1.0  0.3653
  C  C123  1  0.767700  0.196300  0.358400  1.0  0.0061
  C  C124  1  0.715000  0.237600  0.363500  1.0  0.1459
  C  C125  1  0.770500  0.140600  0.388000  1.0  0.173
  C  C126  1  0.820000  0.244900  0.279600  1.0  -0.0813
  C  C127  1  0.831600  0.190700  0.310300  1.0  -0.0739
  C  C128  1  0.760100  0.284100  0.283200  1.0  0.1317
  C  C129  1  0.693500  0.659500  0.134200  1.0  0.2151
  C  C130  1  0.534900  0.665000  0.849300  1.0  0.1889
  C  C131  1  0.573000  0.824800  0.146500  1.0  0.1502
  C  C132  1  0.561800  0.902700  0.190700  1.0  -0.1278
  C  C133  1  0.562400  0.950900  0.154800  1.0  -0.0762
  C  C134  1  0.579800  0.916500  0.077600  1.0  -0.1192
  C  C135  1  0.595400  0.834000  0.034800  1.0  0.1532
  C  C136  1  0.987900  0.463700  0.105100  1.0  0.1613
  C  C137  1  0.926300  0.500300  0.126800  1.0  -0.1594
  C  C138  1  0.870300  0.469800  0.080400  1.0  -0.0681
  C  C139  1  0.876800  0.400600  0.009900  1.0  -0.038
  C  C140  1  0.942000  0.361800  0.996200  1.0  0.1593
  C  C141  1  0.555200  0.496300  0.866500  1.0  0.1176
  C  C142  1  0.565300  0.415500  0.820500  1.0  -0.0766
  C  C143  1  0.613100  0.369800  0.825400  1.0  -0.0987
  C  C144  1  0.663900  0.410400  0.883800  1.0  -0.1421
  C  C145  1  0.661000  0.491500  0.930500  1.0  0.1285
  C  C146  1  0.719700  0.367600  0.895500  1.0  0.4621
  C  C147  1  0.584700  0.960800  0.037200  1.0  0.4008
  C  C148  1  0.817600  0.361300  0.951800  1.0  0.3648
  C  C149  1  0.767700  0.162100  0.803700  1.0  0.0052
  C  C150  1  0.715000  0.125900  0.762400  1.0  0.1458
  C  C151  1  0.770500  0.247400  0.859400  1.0  0.1734
  C  C152  1  0.820000  0.034700  0.755100  1.0  -0.0791
  C  C153  1  0.831600  0.119600  0.809300  1.0  -0.0745
  C  C154  1  0.760100  0.999100  0.715900  1.0  0.1344
  C  C155  1  0.693500  0.474700  0.340500  1.0  0.2133
  C  C156  1  0.534900  0.184300  0.335000  1.0  0.1878
  C  C157  1  0.573000  0.321700  0.175200  1.0  0.1497
  C  C158  1  0.561800  0.288000  0.097300  1.0  -0.1283
  C  C159  1  0.562400  0.203900  0.049100  1.0  -0.0767
  C  C160  1  0.579800  0.161100  0.083500  1.0  -0.119
  C  C161  1  0.595400  0.200800  0.166000  1.0  0.1558
  C  C162  1  0.987900  0.641400  0.536300  1.0  0.1635
  C  C163  1  0.926300  0.626500  0.499700  1.0  -0.1529
  C  C164  1  0.870300  0.610600  0.530200  1.0  -0.0675
  C  C165  1  0.876800  0.609300  0.599400  1.0  -0.0393
  C  C166  1  0.942000  0.634400  0.638200  1.0  0.1589
  C  C167  1  0.555200  0.370200  0.503700  1.0  0.1193
  C  C168  1  0.565300  0.405000  0.584500  1.0  -0.0749
  C  C169  1  0.613100  0.455600  0.630200  1.0  -0.099
  C  C170  1  0.663900  0.473400  0.589600  1.0  -0.1428
  C  C171  1  0.661000  0.439000  0.508500  1.0  0.1293
  C  C172  1  0.719700  0.527900  0.632400  1.0  0.4624
  C  C173  1  0.584700  0.076400  0.039200  1.0  0.4012
  C  C174  1  0.817600  0.590500  0.638700  1.0  0.3652
  C  C175  1  0.767700  0.641600  0.837900  1.0  0.0054
  C  C176  1  0.715000  0.636500  0.874100  1.0  0.1466
  C  C177  1  0.770500  0.612000  0.752600  1.0  0.1732
  C  C178  1  0.820000  0.720400  0.965300  1.0  -0.0804
  C  C179  1  0.831600  0.689700  0.880400  1.0  -0.0745
  C  C180  1  0.760100  0.716800  0.000900  1.0  0.1353
  C  C181  1  0.193500  0.659500  0.525300  1.0  0.2149
  C  C182  1  0.034900  0.665000  0.815700  1.0  0.1844
  C  C183  1  0.073000  0.824800  0.678300  1.0  0.1509
  C  C184  1  0.061800  0.902700  0.712000  1.0  -0.1298
  C  C185  1  0.062400  0.950900  0.796100  1.0  -0.077
  C  C186  1  0.079800  0.916500  0.838900  1.0  -0.1194
  C  C187  1  0.095400  0.834000  0.799200  1.0  0.1531
  C  C188  1  0.487900  0.463700  0.358600  1.0  0.1614
  C  C189  1  0.426300  0.500300  0.373500  1.0  -0.1565
  C  C190  1  0.370300  0.469800  0.389400  1.0  -0.067
  C  C191  1  0.376800  0.400600  0.390700  1.0  -0.038
  C  C192  1  0.442000  0.361800  0.365600  1.0  0.1595
  C  C193  1  0.055200  0.496300  0.629800  1.0  0.1178
  C  C194  1  0.065300  0.415500  0.595000  1.0  -0.0759
  C  C195  1  0.113100  0.369800  0.544400  1.0  -0.0991
  C  C196  1  0.163900  0.410400  0.526600  1.0  -0.1419
  C  C197  1  0.161000  0.491500  0.561000  1.0  0.1281
  C  C198  1  0.219700  0.367600  0.472100  1.0  0.4621
  C  C199  1  0.084700  0.960800  0.923600  1.0  0.401
  C  C200  1  0.317600  0.361300  0.409500  1.0  0.3651
  C  C201  1  0.267700  0.162100  0.358400  1.0  0.0053
  C  C202  1  0.215000  0.125900  0.363500  1.0  0.1462
  C  C203  1  0.270500  0.247400  0.388000  1.0  0.1733
  C  C204  1  0.320000  0.034700  0.279600  1.0  -0.08
  C  C205  1  0.331600  0.119600  0.310300  1.0  -0.0758
  C  C206  1  0.260100  0.999100  0.283200  1.0  0.1343
  C  C207  1  0.193500  0.474700  0.134200  1.0  0.2128
  C  C208  1  0.034900  0.184300  0.849300  1.0  0.1869
  C  C209  1  0.073000  0.321700  0.146500  1.0  0.1492
  C  C210  1  0.061800  0.288000  0.190700  1.0  -0.128
  C  C211  1  0.062400  0.203900  0.154800  1.0  -0.0771
  C  C212  1  0.079800  0.161100  0.077600  1.0  -0.1195
  C  C213  1  0.095400  0.200800  0.034800  1.0  0.1552
  C  C214  1  0.487900  0.641400  0.105100  1.0  0.1635
  C  C215  1  0.426300  0.626500  0.126800  1.0  -0.1561
  C  C216  1  0.370300  0.610600  0.080400  1.0  -0.0681
  C  C217  1  0.376800  0.609300  0.009900  1.0  -0.0402
  C  C218  1  0.442000  0.634400  0.996200  1.0  0.1591
  C  C219  1  0.055200  0.370200  0.866500  1.0  0.1193
  C  C220  1  0.065300  0.405000  0.820500  1.0  -0.0761
  C  C221  1  0.113100  0.455600  0.825400  1.0  -0.0996
  C  C222  1  0.163900  0.473400  0.883800  1.0  -0.1423
  C  C223  1  0.161000  0.439000  0.930500  1.0  0.13
  C  C224  1  0.219700  0.527900  0.895500  1.0  0.4621
  C  C225  1  0.084700  0.076400  0.037200  1.0  0.401
  C  C226  1  0.317600  0.590500  0.951800  1.0  0.3648
  C  C227  1  0.267700  0.641600  0.803700  1.0  0.0045
  C  C228  1  0.215000  0.636500  0.762400  1.0  0.1469
  C  C229  1  0.270500  0.612000  0.859400  1.0  0.1729
  C  C230  1  0.320000  0.720400  0.755100  1.0  -0.0817
  C  C231  1  0.331600  0.689700  0.809300  1.0  -0.0736
  C  C232  1  0.260100  0.716800  0.715900  1.0  0.1347
  C  C233  1  0.193500  0.865800  0.340500  1.0  0.2144
  C  C234  1  0.034900  0.150700  0.335000  1.0  0.1886
  C  C235  1  0.073000  0.853500  0.175200  1.0  0.1573
  C  C236  1  0.061800  0.809300  0.097300  1.0  -0.1286
  C  C237  1  0.062400  0.845200  0.049100  1.0  -0.0772
  C  C238  1  0.079800  0.922400  0.083500  1.0  -0.1189
  C  C239  1  0.095400  0.965200  0.166000  1.0  0.1517
  C  C240  1  0.487900  0.894900  0.536300  1.0  0.1605
  C  C241  1  0.426300  0.873200  0.499700  1.0  -0.1594
  C  C242  1  0.370300  0.919600  0.530200  1.0  -0.067
  C  C243  1  0.376800  0.990100  0.599400  1.0  -0.039
  C  C244  1  0.442000  0.003800  0.638200  1.0  0.1588
  C  C245  1  0.055200  0.133500  0.503700  1.0  0.1206
  C  C246  1  0.065300  0.179500  0.584500  1.0  -0.0774
  C  C247  1  0.113100  0.174600  0.630200  1.0  -0.0978
  C  C248  1  0.163900  0.116200  0.589600  1.0  -0.1425
  C  C249  1  0.161000  0.069500  0.508500  1.0  0.1291
  C  C250  1  0.219700  0.104500  0.632400  1.0  0.4624
  C  C251  1  0.084700  0.962800  0.039200  1.0  0.4008
  C  C252  1  0.317600  0.048200  0.638700  1.0  0.3654
  C  C253  1  0.267700  0.196300  0.837900  1.0  0.0062
  C  C254  1  0.215000  0.237600  0.874100  1.0  0.1463
  C  C255  1  0.270500  0.140600  0.752600  1.0  0.1726
  C  C256  1  0.320000  0.244900  0.965300  1.0  -0.0786
  C  C257  1  0.331600  0.190700  0.880400  1.0  -0.075
  C  C258  1  0.260100  0.284100  0.000900  1.0  0.132
  S  S259  1  0.745400  0.802000  0.461700  1.0  -0.2255
  S  S260  1  0.515300  0.236200  0.888400  1.0  -0.3686
  S  S261  1  0.745400  0.659700  0.198000  1.0  -0.2265
  S  S262  1  0.515300  0.652200  0.763800  1.0  -0.3692
  S  S263  1  0.745400  0.538300  0.340300  1.0  -0.2246
  S  S264  1  0.515300  0.111600  0.347800  1.0  -0.3706
  S  S265  1  0.245400  0.659700  0.461700  1.0  -0.2258
  S  S266  1  0.015300  0.652200  0.888400  1.0  -0.3717
  S  S267  1  0.245400  0.538300  0.198000  1.0  -0.2261
  S  S268  1  0.015300  0.111600  0.763800  1.0  -0.3689
  S  S269  1  0.245400  0.802000  0.340300  1.0  -0.2257
  S  S270  1  0.015300  0.236200  0.347800  1.0  -0.368
  N  N271  1  0.652300  0.907900  0.568900  1.0  -0.4361
  N  N272  1  0.550700  0.090200  0.759800  1.0  -0.4031
  N  N273  1  0.592700  0.930300  0.720300  1.0  -0.3294
  N  N274  1  0.996900  0.957100  0.350000  1.0  -0.3208
  N  N275  1  0.605500  0.075400  0.610300  1.0  -0.3518
  N  N276  1  0.713500  0.149800  0.439600  1.0  -0.4843
  N  N277  1  0.589100  0.042600  0.960400  1.0  -0.3923
  N  N278  1  0.826700  0.093700  0.375100  1.0  -0.3677
  N  N279  1  0.766400  0.050000  0.452400  1.0  -0.3499
  N  N280  1  0.698800  0.280000  0.328700  1.0  -0.3714
  N  N281  1  0.652300  0.661000  0.092100  1.0  -0.4349
  N  N282  1  0.550700  0.669600  0.909800  1.0  -0.402
  N  N283  1  0.592700  0.790000  0.069700  1.0  -0.3283
  N  N284  1  0.996900  0.392900  0.042900  1.0  -0.3191
  N  N285  1  0.605500  0.534900  0.924600  1.0  -0.3517
  N  N286  1  0.713500  0.289800  0.850200  1.0  -0.4844
  N  N287  1  0.589100  0.917800  0.957400  1.0  -0.3868
  N  N288  1  0.826700  0.281400  0.906300  1.0  -0.3666
  N  N289  1  0.766400  0.402400  0.950000  1.0  -0.3489
  N  N290  1  0.698800  0.048700  0.720000  1.0  -0.371
  N  N291  1  0.652300  0.431100  0.339000  1.0  -0.4349
  N  N292  1  0.550700  0.240200  0.330400  1.0  -0.4038
  N  N293  1  0.592700  0.279700  0.210000  1.0  -0.3303
  N  N294  1  0.996900  0.650000  0.607100  1.0  -0.3207
  N  N295  1  0.605500  0.389700  0.465100  1.0  -0.3536
  N  N296  1  0.713500  0.560400  0.710200  1.0  -0.4851
  N  N297  1  0.589100  0.039600  0.082200  1.0  -0.3896
  N  N298  1  0.826700  0.624900  0.718600  1.0  -0.3676
  N  N299  1  0.766400  0.547600  0.597600  1.0  -0.3486
  N  N300  1  0.698800  0.671300  0.951300  1.0  -0.3714
  N  N301  1  0.152300  0.661000  0.568900  1.0  -0.4348
  N  N302  1  0.050700  0.669600  0.759800  1.0  -0.4019
  N  N303  1  0.092700  0.790000  0.720300  1.0  -0.3284
  N  N304  1  0.496900  0.392900  0.350000  1.0  -0.3193
  N  N305  1  0.105500  0.534900  0.610300  1.0  -0.3511
  N  N306  1  0.213500  0.289800  0.439600  1.0  -0.4849
  N  N307  1  0.089100  0.917800  0.960400  1.0  -0.3902
  N  N308  1  0.326700  0.281400  0.375100  1.0  -0.3669
  N  N309  1  0.266400  0.402400  0.452400  1.0  -0.3489
  N  N310  1  0.198800  0.048700  0.328700  1.0  -0.3712
  N  N311  1  0.152300  0.431100  0.092100  1.0  -0.436
  N  N312  1  0.050700  0.240200  0.909800  1.0  -0.4034
  N  N313  1  0.092700  0.279700  0.069700  1.0  -0.3304
  N  N314  1  0.496900  0.650000  0.042900  1.0  -0.3206
  N  N315  1  0.105500  0.389700  0.924600  1.0  -0.3526
  N  N316  1  0.213500  0.560400  0.850200  1.0  -0.4845
  N  N317  1  0.089100  0.039600  0.957400  1.0  -0.3901
  N  N318  1  0.326700  0.624900  0.906300  1.0  -0.3676
  N  N319  1  0.266400  0.547600  0.950000  1.0  -0.3483
  N  N320  1  0.198800  0.671300  0.720000  1.0  -0.3715
  N  N321  1  0.152300  0.907900  0.339000  1.0  -0.4359
  N  N322  1  0.050700  0.090200  0.330400  1.0  -0.4024
  N  N323  1  0.092700  0.930300  0.210000  1.0  -0.3286
  N  N324  1  0.496900  0.957100  0.607100  1.0  -0.3199
  N  N325  1  0.105500  0.075400  0.465100  1.0  -0.3524
  N  N326  1  0.213500  0.149800  0.710200  1.0  -0.4857
  N  N327  1  0.089100  0.042600  0.082200  1.0  -0.3897
  N  N328  1  0.326700  0.093700  0.718600  1.0  -0.3676
  N  N329  1  0.266400  0.050000  0.597600  1.0  -0.3504
  N  N330  1  0.198800  0.280000  0.951300  1.0  -0.3717
