# generated using pymatgen
data_CoH7C13NO4
_symmetry_space_group_name_H-M   'P 1'
_cell_length_a   11.05000000
_cell_length_b   11.05000000
_cell_length_c   27.77200000
_cell_angle_alpha   90.00000000
_cell_angle_beta   90.00000000
_cell_angle_gamma   120.00000000
_symmetry_Int_Tables_number   1
_chemical_formula_structural   CoH7C13NO4
_chemical_formula_sum   'Co6 H42 C78 N6 O24'
_cell_volume   2936.71867059
_cell_formula_units_Z   6
loop_
 _symmetry_equiv_pos_site_id
 _symmetry_equiv_pos_as_xyz
  1  'x, y, z'
loop_
 _atom_site_type_symbol
 _atom_site_label
 _atom_site_symmetry_multiplicity
 _atom_site_fract_x
 _atom_site_fract_y
 _atom_site_fract_z
 _atom_site_occupancy
 _atom_site_charge
  Co  Co1  1  0.076990  0.830770  0.970750  1.0  0.8853
  Co  Co2  1  0.753780  0.923010  0.637420  1.0  0.8868
  Co  Co3  1  0.169230  0.246220  0.304080  1.0  0.8866
  Co  Co4  1  0.246220  0.169230  0.029250  1.0  0.8864
  Co  Co5  1  0.830770  0.076990  0.362580  1.0  0.8867
  Co  Co6  1  0.923010  0.753780  0.695920  1.0  0.8848
  H  H7  1  0.746400  0.539600  0.776900  1.0  0.0775
  H  H8  1  0.663500  0.157300  0.739800  1.0  0.1081
  H  H9  1  0.943200  0.500800  0.667400  1.0  0.0832
  H  H10  1  0.693100  0.447100  0.850700  1.0  0.1183
  H  H11  1  0.545700  0.352400  0.916400  1.0  0.0901
  H  H12  1  0.298100  0.002800  0.839700  1.0  0.1032
  H  H13  1  0.448500  0.096400  0.774800  1.0  0.123
  H  H14  1  0.793200  0.253600  0.443570  1.0  0.0769
  H  H15  1  0.493800  0.336500  0.406470  1.0  0.1072
  H  H16  1  0.557600  0.056800  0.334070  1.0  0.0833
  H  H17  1  0.754000  0.306900  0.517370  1.0  0.1189
  H  H18  1  0.806700  0.454300  0.583070  1.0  0.0907
  H  H19  1  0.704700  0.701900  0.506370  1.0  0.1049
  H  H20  1  0.647900  0.551500  0.441470  1.0  0.1231
  H  H21  1  0.460400  0.206800  0.110230  1.0  0.0769
  H  H22  1  0.842700  0.506200  0.073130  1.0  0.1074
  H  H23  1  0.499200  0.442400  0.000730  1.0  0.0833
  H  H24  1  0.552900  0.246000  0.184030  1.0  0.1194
  H  H25  1  0.647600  0.193300  0.249730  1.0  0.0902
  H  H26  1  0.997200  0.295300  0.173030  1.0  0.1049
  H  H27  1  0.903600  0.352100  0.108130  1.0  0.1227
  H  H28  1  0.206800  0.460400  0.223100  1.0  0.0779
  H  H29  1  0.506200  0.842700  0.260200  1.0  0.1078
  H  H30  1  0.442400  0.499200  0.332600  1.0  0.0832
  H  H31  1  0.246000  0.552900  0.149300  1.0  0.1191
  H  H32  1  0.193300  0.647600  0.083600  1.0  0.0901
  H  H33  1  0.295300  0.997200  0.160300  1.0  0.1036
  H  H34  1  0.352100  0.903600  0.225200  1.0  0.1218
  H  H35  1  0.539600  0.746400  0.556430  1.0  0.0769
  H  H36  1  0.157300  0.663500  0.593530  1.0  0.1075
  H  H37  1  0.500800  0.943200  0.665930  1.0  0.0827
  H  H38  1  0.447100  0.693100  0.482630  1.0  0.1194
  H  H39  1  0.352400  0.545700  0.416930  1.0  0.0904
  H  H40  1  0.002800  0.298100  0.493630  1.0  0.1044
  H  H41  1  0.096400  0.448500  0.558530  1.0  0.1225
  H  H42  1  0.253600  0.793200  0.889770  1.0  0.0773
  H  H43  1  0.336500  0.493800  0.926870  1.0  0.1078
  H  H44  1  0.056800  0.557600  0.999270  1.0  0.0834
  H  H45  1  0.306900  0.754000  0.815970  1.0  0.1197
  H  H46  1  0.454300  0.806700  0.750270  1.0  0.0901
  H  H47  1  0.701900  0.704700  0.826970  1.0  0.1048
  H  H48  1  0.551500  0.647900  0.891870  1.0  0.1223
  C  C49  1  0.760000  0.480700  0.756440  1.0  0.1473
  C  C50  1  0.685800  0.337000  0.765390  1.0  -0.0465
  C  C51  1  0.709400  0.253200  0.734740  1.0  0.0109
  C  C52  1  0.802600  0.311600  0.695760  1.0  -0.2013
  C  C53  1  0.875500  0.458900  0.691220  1.0  0.1967
  C  C54  1  0.832000  0.224300  0.661780  1.0  0.712
  C  C55  1  0.587100  0.281800  0.806700  1.0  0.0608
  C  C56  1  0.615600  0.357900  0.848780  1.0  -0.1536
  C  C57  1  0.527100  0.299700  0.888370  1.0  -0.0127
  C  C58  1  0.410200  0.163300  0.887150  1.0  -0.1717
  C  C59  1  0.378700  0.089700  0.842500  1.0  -0.029
  C  C60  1  0.467500  0.146800  0.803310  1.0  -0.1336
  C  C61  1  0.317200  0.097300  0.929520  1.0  0.7126
  C  C62  1  0.720700  0.240000  0.423110  1.0  0.15
  C  C63  1  0.651200  0.314200  0.432060  1.0  -0.0457
  C  C64  1  0.543800  0.290600  0.401410  1.0  0.0098
  C  C65  1  0.509000  0.197400  0.362430  1.0  -0.2033
  C  C66  1  0.583400  0.124500  0.357890  1.0  0.196
  C  C67  1  0.392300  0.168000  0.328450  1.0  0.7131
  C  C68  1  0.694700  0.412900  0.473370  1.0  0.0603
  C  C69  1  0.742300  0.384400  0.515450  1.0  -0.1504
  C  C70  1  0.772600  0.472900  0.555040  1.0  -0.0113
  C  C71  1  0.753100  0.589800  0.553820  1.0  -0.1689
  C  C72  1  0.711000  0.621300  0.509170  1.0  -0.0304
  C  C73  1  0.679300  0.532500  0.469980  1.0  -0.1337
  C  C74  1  0.780100  0.682800  0.596190  1.0  0.7135
  C  C75  1  0.519300  0.279300  0.089770  1.0  0.1473
  C  C76  1  0.663000  0.348800  0.098720  1.0  -0.0454
  C  C77  1  0.746800  0.456200  0.068070  1.0  0.0106
  C  C78  1  0.688400  0.491000  0.029090  1.0  -0.1986
  C  C79  1  0.541100  0.416600  0.024550  1.0  0.1972
  C  C80  1  0.775700  0.607700  0.995110  1.0  0.7117
  C  C81  1  0.718200  0.305300  0.140030  1.0  0.0605
  C  C82  1  0.642100  0.257700  0.182110  1.0  -0.1532
  C  C83  1  0.700300  0.227400  0.221700  1.0  -0.0124
  C  C84  1  0.836700  0.246900  0.220480  1.0  -0.172
  C  C85  1  0.910300  0.289000  0.175830  1.0  -0.0299
  C  C86  1  0.853200  0.320700  0.136640  1.0  -0.136
  C  C87  1  0.902700  0.219900  0.262850  1.0  0.7131
  C  C88  1  0.279300  0.519300  0.243560  1.0  0.1473
  C  C89  1  0.348800  0.663000  0.234610  1.0  -0.0465
  C  C90  1  0.456200  0.746800  0.265260  1.0  0.0093
  C  C91  1  0.491000  0.688400  0.304240  1.0  -0.2025
  C  C92  1  0.416600  0.541100  0.308780  1.0  0.1967
  C  C93  1  0.607700  0.775700  0.338220  1.0  0.7119
  C  C94  1  0.305300  0.718200  0.193300  1.0  0.0607
  C  C95  1  0.257700  0.642100  0.151220  1.0  -0.1528
  C  C96  1  0.227400  0.700300  0.111630  1.0  -0.0116
  C  C97  1  0.246900  0.836700  0.112850  1.0  -0.1728
  C  C98  1  0.289000  0.910300  0.157500  1.0  -0.0281
  C  C99  1  0.320700  0.853200  0.196690  1.0  -0.1341
  C  C100  1  0.219900  0.902700  0.070480  1.0  0.7127
  C  C101  1  0.480700  0.760000  0.576890  1.0  0.1499
  C  C102  1  0.337000  0.685800  0.567940  1.0  -0.045
  C  C103  1  0.253200  0.709400  0.598590  1.0  0.0096
  C  C104  1  0.311600  0.802600  0.637570  1.0  -0.2024
  C  C105  1  0.458900  0.875500  0.642110  1.0  0.1961
  C  C106  1  0.224300  0.832000  0.671550  1.0  0.7126
  C  C107  1  0.281800  0.587100  0.526630  1.0  0.0601
  C  C108  1  0.357900  0.615600  0.484550  1.0  -0.1506
  C  C109  1  0.299700  0.527100  0.444960  1.0  -0.0112
  C  C110  1  0.163300  0.410200  0.446180  1.0  -0.1696
  C  C111  1  0.089700  0.378700  0.490830  1.0  -0.029
  C  C112  1  0.146800  0.467500  0.530020  1.0  -0.1341
  C  C113  1  0.097300  0.317200  0.403810  1.0  0.7129
  C  C114  1  0.240000  0.720700  0.910230  1.0  0.1476
  C  C115  1  0.314200  0.651200  0.901280  1.0  -0.0461
  C  C116  1  0.290600  0.543800  0.931930  1.0  0.0106
  C  C117  1  0.197400  0.509000  0.970910  1.0  -0.1986
  C  C118  1  0.124500  0.583400  0.975450  1.0  0.1972
  C  C119  1  0.168000  0.392300  0.004890  1.0  0.7112
  C  C120  1  0.412900  0.694700  0.859970  1.0  0.0607
  C  C121  1  0.384400  0.742300  0.817890  1.0  -0.1521
  C  C122  1  0.472900  0.772600  0.778300  1.0  -0.0123
  C  C123  1  0.589800  0.753100  0.779520  1.0  -0.1722
  C  C124  1  0.621300  0.711000  0.824170  1.0  -0.03
  C  C125  1  0.532500  0.679300  0.863360  1.0  -0.1367
  C  C126  1  0.682800  0.780100  0.737150  1.0  0.7119
  N  N127  1  0.849700  0.537500  0.719780  1.0  -0.3275
  N  N128  1  0.687800  0.150300  0.386450  1.0  -0.3269
  N  N129  1  0.462500  0.312200  0.053110  1.0  -0.3266
  N  N130  1  0.312200  0.462500  0.280220  1.0  -0.3265
  N  N131  1  0.537500  0.849700  0.613550  1.0  -0.3276
  N  N132  1  0.150300  0.687800  0.946890  1.0  -0.3257
  O  O133  1  0.220700  0.974600  0.924810  1.0  -0.6012
  O  O134  1  0.349200  0.167900  0.967380  1.0  -0.5656
  O  O135  1  0.773900  0.096400  0.671730  1.0  -0.614
  O  O136  1  0.907200  0.281800  0.626830  1.0  -0.5862
  O  O137  1  0.753900  0.779300  0.591480  1.0  -0.5999
  O  O138  1  0.818700  0.650800  0.634050  1.0  -0.5663
  O  O139  1  0.322500  0.226100  0.338400  1.0  -0.612
  O  O140  1  0.374600  0.092800  0.293500  1.0  -0.5856
  O  O141  1  0.025400  0.246100  0.258140  1.0  -0.5991
  O  O142  1  0.832100  0.181300  0.300710  1.0  -0.5658
  O  O143  1  0.903600  0.677500  0.005060  1.0  -0.6119
  O  O144  1  0.718200  0.625400  0.960160  1.0  -0.5776
  O  O145  1  0.246100  0.025400  0.075190  1.0  -0.6012
  O  O146  1  0.181300  0.832100  0.032620  1.0  -0.5639
  O  O147  1  0.677500  0.903600  0.328270  1.0  -0.613
  O  O148  1  0.625400  0.718200  0.373170  1.0  -0.5804
  O  O149  1  0.974600  0.220700  0.408520  1.0  -0.5992
  O  O150  1  0.167900  0.349200  0.365950  1.0  -0.5643
  O  O151  1  0.096400  0.773900  0.661600  1.0  -0.6112
  O  O152  1  0.281800  0.907200  0.706500  1.0  -0.5795
  O  O153  1  0.779300  0.753900  0.741860  1.0  -0.6002
  O  O154  1  0.650800  0.818700  0.699290  1.0  -0.5639
  O  O155  1  0.226100  0.322500  0.994940  1.0  -0.6116
  O  O156  1  0.092800  0.374600  0.039840  1.0  -0.5726
