# generated using pymatgen
data_InH3C9O7
_symmetry_space_group_name_H-M   'P 1'
_cell_length_a   7.31810000
_cell_length_b   17.02000000
_cell_length_c   10.57890000
_cell_angle_alpha   90.00000000
_cell_angle_beta   102.65100000
_cell_angle_gamma   90.00000000
_symmetry_Int_Tables_number   1
_chemical_formula_structural   InH3C9O7
_chemical_formula_sum   'In4 H12 C36 O28'
_cell_volume   1285.65544835
_cell_formula_units_Z   4
loop_
 _symmetry_equiv_pos_site_id
 _symmetry_equiv_pos_as_xyz
  1  'x, y, z'
loop_
 _atom_site_type_symbol
 _atom_site_label
 _atom_site_symmetry_multiplicity
 _atom_site_fract_x
 _atom_site_fract_y
 _atom_site_fract_z
 _atom_site_occupancy
 _atom_site_charge
  In  In1  1  0.693330  0.398140  0.180430  1.0  1.6408
  In  In2  1  0.200930  0.453430  0.262090  1.0  1.5884
  In  In3  1  0.306670  0.898140  0.819570  1.0  1.6406
  In  In4  1  0.799070  0.953430  0.737910  1.0  1.5888
  H  H5  1  0.538400  0.650300  0.947200  1.0  0.139
  H  H6  1  0.281300  0.655000  0.570600  1.0  0.1412
  H  H7  1  0.459400  0.451500  0.743700  1.0  0.1382
  H  H8  1  0.930100  0.184400  0.007300  1.0  0.1321
  H  H9  1  0.193300  0.188300  0.380400  1.0  0.1477
  H  H10  1  0.045900  0.982700  0.206300  1.0  0.1591
  H  H11  1  0.461600  0.150300  0.052800  1.0  0.1395
  H  H12  1  0.718700  0.155000  0.429400  1.0  0.1418
  H  H13  1  0.540600  0.951500  0.256300  1.0  0.1388
  H  H14  1  0.069900  0.684400  0.992700  1.0  0.1319
  H  H15  1  0.806700  0.688300  0.619600  1.0  0.1478
  H  H16  1  0.954100  0.482700  0.793700  1.0  0.1587
  C  C17  1  0.512200  0.544600  0.865000  1.0  -0.12
  C  C18  1  0.496000  0.624100  0.869200  1.0  -0.0364
  C  C19  1  0.417000  0.666667  0.759000  1.0  -0.1169
  C  C20  1  0.343000  0.626900  0.642900  1.0  0.0317
  C  C21  1  0.361000  0.546500  0.635300  1.0  -0.142
  C  C22  1  0.446200  0.505700  0.747400  1.0  0.0324
  C  C23  1  0.598000  0.501200  0.984200  1.0  0.7195
  C  C24  1  0.390000  0.751900  0.772200  1.0  0.6999
  C  C25  1  0.299000  0.506200  0.506100  1.0  0.7127
  C  C26  1  0.975700  0.077200  0.085300  1.0  -0.1506
  C  C27  1  0.981000  0.158000  0.083900  1.0  0.0302
  C  C28  1  0.059000  0.200800  0.192500  1.0  -0.0961
  C  C29  1  0.133300  0.160700  0.307100  1.0  0.0341
  C  C30  1  0.117500  0.079200  0.311500  1.0  -0.0906
  C  C31  1  0.047000  0.037300  0.203400  1.0  0.0144
  C  C32  1  0.902000  0.029500  0.964900  1.0  0.7223
  C  C33  1  0.056000  0.289300  0.189000  1.0  0.743
  C  C34  1  0.184000  0.037800  0.438800  1.0  0.7605
  C  C35  1  0.487800  0.044600  0.135000  1.0  -0.1221
  C  C36  1  0.504000  0.124100  0.130800  1.0  -0.0342
  C  C37  1  0.583000  0.166600  0.241000  1.0  -0.1144
  C  C38  1  0.657000  0.126900  0.357100  1.0  0.0329
  C  C39  1  0.639000  0.046500  0.364700  1.0  -0.1432
  C  C40  1  0.553800  0.005700  0.252600  1.0  0.0322
  C  C41  1  0.402000  0.001200  0.015800  1.0  0.7199
  C  C42  1  0.610000  0.251900  0.227800  1.0  0.6999
  C  C43  1  0.701000  0.006200  0.493900  1.0  0.7129
  C  C44  1  0.024300  0.577200  0.914700  1.0  -0.1487
  C  C45  1  0.019000  0.658000  0.916100  1.0  0.026
  C  C46  1  0.941000  0.700800  0.807500  1.0  -0.0959
  C  C47  1  0.866700  0.660700  0.692900  1.0  0.0323
  C  C48  1  0.882500  0.579200  0.688500  1.0  -0.0922
  C  C49  1  0.953000  0.537300  0.796600  1.0  0.0148
  C  C50  1  0.098000  0.529500  0.035100  1.0  0.7214
  C  C51  1  0.944000  0.789300  0.811000  1.0  0.7429
  C  C52  1  0.816000  0.537800  0.561200  1.0  0.7619
  O  O53  1  0.669100  0.536700  0.081800  1.0  -0.5361
  O  O54  1  0.586000  0.425200  0.980400  1.0  -0.5579
  O  O55  1  0.462000  0.787500  0.873500  1.0  -0.544
  O  O56  1  0.282500  0.789200  0.679000  1.0  -0.5462
  O  O57  1  0.297200  0.433300  0.501100  1.0  -0.5557
  O  O58  1  0.254100  0.549600  0.409600  1.0  -0.5275
  O  O59  1  0.855500  0.067300  0.857300  1.0  -0.585
  O  O60  1  0.888900  0.957200  0.965200  1.0  -0.5118
  O  O61  1  0.916000  0.320400  0.112700  1.0  -0.6379
  O  O62  1  0.193200  0.328500  0.259100  1.0  -0.5524
  O  O63  1  0.300000  0.069400  0.532100  1.0  -0.4792
  O  O64  1  0.116700  0.971300  0.450200  1.0  -0.4729
  O  O65  1  0.919700  0.450200  0.290600  1.0  -0.6539
  O  O66  1  0.495600  0.451000  0.267200  1.0  -0.6724
  O  O67  1  0.330900  0.036700  0.918200  1.0  -0.5375
  O  O68  1  0.414000  0.925200  0.019600  1.0  -0.5562
  O  O69  1  0.538000  0.287500  0.126500  1.0  -0.5435
  O  O70  1  0.717500  0.289200  0.321000  1.0  -0.5461
  O  O71  1  0.702800  0.933300  0.498900  1.0  -0.557
  O  O72  1  0.745900  0.049600  0.590400  1.0  -0.5278
  O  O73  1  0.144500  0.567300  0.142700  1.0  -0.5854
  O  O74  1  0.111100  0.457200  0.034800  1.0  -0.5137
  O  O75  1  0.084000  0.820400  0.887300  1.0  -0.6364
  O  O76  1  0.806800  0.828500  0.740900  1.0  -0.5531
  O  O77  1  0.700000  0.569400  0.467900  1.0  -0.4808
  O  O78  1  0.883300  0.471300  0.549800  1.0  -0.4717
  O  O79  1  0.080300  0.950200  0.709400  1.0  -0.6523
  O  O80  1  0.504400  0.951000  0.732800  1.0  -0.6742
