# generated using pymatgen
data_CoH3(C2O)4
_symmetry_space_group_name_H-M   'P 1'
_cell_length_a   13.00600000
_cell_length_b   14.27900000
_cell_length_c   17.51500000
_cell_angle_alpha   96.87200000
_cell_angle_beta   90.00000000
_cell_angle_gamma   90.00000000
_symmetry_Int_Tables_number   1
_chemical_formula_structural   CoH3(C2O)4
_chemical_formula_sum   'Co8 H24 C64 O32'
_cell_volume   3229.38945843
_cell_formula_units_Z   8
loop_
 _symmetry_equiv_pos_site_id
 _symmetry_equiv_pos_as_xyz
  1  'x, y, z'
loop_
 _atom_site_type_symbol
 _atom_site_label
 _atom_site_symmetry_multiplicity
 _atom_site_fract_x
 _atom_site_fract_y
 _atom_site_fract_z
 _atom_site_occupancy
 _atom_site_charge
  Co  Co1  1  0.067020  0.998550  0.773960  1.0  1.1613
  Co  Co2  1  0.271620  0.430540  0.131210  1.0  0.9617
  Co  Co3  1  0.567020  0.501450  0.726040  1.0  1.1599
  Co  Co4  1  0.771620  0.069460  0.368790  1.0  0.96
  Co  Co5  1  0.932980  0.001450  0.226040  1.0  1.1594
  Co  Co6  1  0.728380  0.569460  0.868790  1.0  0.9609
  Co  Co7  1  0.432980  0.498550  0.273960  1.0  1.1602
  Co  Co8  1  0.228380  0.930540  0.631210  1.0  0.9604
  H  H9  1  0.601800  0.227300  0.225400  1.0  0.1152
  H  H10  1  0.555500  0.308500  0.014600  1.0  0.1141
  H  H11  1  0.791600  0.135300  0.050100  1.0  0.1145
  H  H12  1  0.817900  0.118200  0.935800  1.0  0.1156
  H  H13  1  0.804600  0.233100  0.735900  1.0  0.1173
  H  H14  1  0.640400  0.347200  0.919900  1.0  0.1068
  H  H15  1  0.101800  0.272700  0.274600  1.0  0.115
  H  H16  1  0.055500  0.191500  0.485400  1.0  0.1138
  H  H17  1  0.291600  0.364700  0.449900  1.0  0.1141
  H  H18  1  0.317900  0.381800  0.564200  1.0  0.1154
  H  H19  1  0.304600  0.266900  0.764100  1.0  0.1168
  H  H20  1  0.140400  0.152800  0.580100  1.0  0.107
  H  H21  1  0.398200  0.772700  0.774600  1.0  0.1152
  H  H22  1  0.444500  0.691500  0.985400  1.0  0.1137
  H  H23  1  0.208400  0.864700  0.949900  1.0  0.1141
  H  H24  1  0.182100  0.881800  0.064200  1.0  0.1157
  H  H25  1  0.195400  0.766900  0.264100  1.0  0.1166
  H  H26  1  0.359600  0.652800  0.080100  1.0  0.1072
  H  H27  1  0.898200  0.727300  0.725400  1.0  0.1154
  H  H28  1  0.944500  0.808500  0.514600  1.0  0.1141
  H  H29  1  0.708400  0.635300  0.550100  1.0  0.1144
  H  H30  1  0.682100  0.618200  0.435800  1.0  0.1155
  H  H31  1  0.695400  0.733100  0.235900  1.0  0.1169
  H  H32  1  0.859600  0.847200  0.419900  1.0  0.1064
  C  C33  1  0.621000  0.225400  0.172860  1.0  -0.0028
  C  C34  1  0.481900  0.342000  0.156600  1.0  0.7344
  C  C35  1  0.566500  0.277500  0.124700  1.0  -0.1243
  C  C36  1  0.595300  0.275300  0.048200  1.0  -0.0719
  C  C37  1  0.719600  0.229000  0.939900  1.0  0.0167
  C  C38  1  0.703000  0.170500  0.144700  1.0  -0.1472
  C  C39  1  0.681800  0.225200  0.020000  1.0  0.0068
  C  C40  1  0.733800  0.171700  0.068900  1.0  -0.0557
  C  C41  1  0.791300  0.164700  0.906600  1.0  -0.0683
  C  C42  1  0.907700  0.099600  0.800000  1.0  0.6462
  C  C43  1  0.716600  0.300500  0.822000  1.0  -0.1396
  C  C44  1  0.675000  0.373600  0.776600  1.0  0.67
  C  C45  1  0.785200  0.233400  0.788200  1.0  -0.0126
  C  C46  1  0.685500  0.299500  0.897000  1.0  -0.0948
  C  C47  1  0.825000  0.166600  0.831900  1.0  -0.1305
  C  C48  1  0.762300  0.111700  0.195200  1.0  0.7305
  C  C49  1  0.121000  0.274600  0.327140  1.0  -0.0004
  C  C50  1  0.981900  0.158000  0.343400  1.0  0.7332
  C  C51  1  0.066500  0.222500  0.375300  1.0  -0.1244
  C  C52  1  0.095300  0.224700  0.451800  1.0  -0.0726
  C  C53  1  0.219600  0.271000  0.560100  1.0  0.0167
  C  C54  1  0.203000  0.329500  0.355300  1.0  -0.1463
  C  C55  1  0.181800  0.274800  0.480000  1.0  0.0062
  C  C56  1  0.233800  0.328300  0.431100  1.0  -0.0558
  C  C57  1  0.291300  0.335300  0.593400  1.0  -0.0682
  C  C58  1  0.407700  0.400400  0.700000  1.0  0.6462
  C  C59  1  0.216600  0.199500  0.678000  1.0  -0.1379
  C  C60  1  0.175000  0.126400  0.723400  1.0  0.6696
  C  C61  1  0.285200  0.266600  0.711800  1.0  -0.0122
  C  C62  1  0.185500  0.200500  0.603000  1.0  -0.0928
  C  C63  1  0.325000  0.333400  0.668100  1.0  -0.1302
  C  C64  1  0.262300  0.388300  0.304800  1.0  0.7307
  C  C65  1  0.379000  0.774600  0.827140  1.0  -0.0008
  C  C66  1  0.518100  0.658000  0.843400  1.0  0.7333
  C  C67  1  0.433500  0.722500  0.875300  1.0  -0.1244
  C  C68  1  0.404700  0.724700  0.951800  1.0  -0.0721
  C  C69  1  0.280400  0.771000  0.060100  1.0  0.0169
  C  C70  1  0.297000  0.829500  0.855300  1.0  -0.1461
  C  C71  1  0.318200  0.774800  0.980000  1.0  0.0064
  C  C72  1  0.266200  0.828300  0.931100  1.0  -0.0558
  C  C73  1  0.208700  0.835300  0.093400  1.0  -0.0692
  C  C74  1  0.092300  0.900400  0.200000  1.0  0.647
  C  C75  1  0.283400  0.699500  0.178000  1.0  -0.1376
  C  C76  1  0.325000  0.626400  0.223400  1.0  0.6693
  C  C77  1  0.214800  0.766600  0.211800  1.0  -0.0136
  C  C78  1  0.314500  0.700500  0.103000  1.0  -0.0917
  C  C79  1  0.175000  0.833400  0.168100  1.0  -0.1304
  C  C80  1  0.237700  0.888300  0.804800  1.0  0.7309
  C  C81  1  0.879000  0.725400  0.672860  1.0  -0.0017
  C  C82  1  0.018100  0.842000  0.656600  1.0  0.7348
  C  C83  1  0.933500  0.777500  0.624700  1.0  -0.1245
  C  C84  1  0.904700  0.775300  0.548200  1.0  -0.0718
  C  C85  1  0.780400  0.729000  0.439900  1.0  0.0167
  C  C86  1  0.797000  0.670500  0.644700  1.0  -0.1468
  C  C87  1  0.818200  0.725200  0.520000  1.0  0.0069
  C  C88  1  0.766200  0.671700  0.568900  1.0  -0.0557
  C  C89  1  0.708700  0.664700  0.406600  1.0  -0.0693
  C  C90  1  0.592300  0.599600  0.300000  1.0  0.6472
  C  C91  1  0.783400  0.800500  0.322000  1.0  -0.1384
  C  C92  1  0.825000  0.873600  0.276600  1.0  0.6698
  C  C93  1  0.714800  0.733400  0.288200  1.0  -0.0113
  C  C94  1  0.814500  0.799500  0.397000  1.0  -0.0935
  C  C95  1  0.675000  0.666667  0.331900  1.0  -0.1339
  C  C96  1  0.737700  0.611700  0.695200  1.0  0.7307
  O  O97  1  0.927100  0.089200  0.729760  1.0  -0.5641
  O  O98  1  0.958400  0.057480  0.847200  1.0  -0.5581
  O  O99  1  0.495400  0.378690  0.225300  1.0  -0.5896
  O  O100  1  0.407800  0.355510  0.114090  1.0  -0.6165
  O  O101  1  0.832900  0.060980  0.162870  1.0  -0.5826
  O  O102  1  0.738100  0.117540  0.264150  1.0  -0.6392
  O  O103  1  0.644160  0.452420  0.814140  1.0  -0.6977
  O  O104  1  0.664100  0.357750  0.706370  1.0  -0.5123
  O  O105  1  0.427100  0.410800  0.770240  1.0  -0.5652
  O  O106  1  0.458400  0.442520  0.652800  1.0  -0.559
  O  O107  1  0.995400  0.121310  0.274700  1.0  -0.5893
  O  O108  1  0.907800  0.144490  0.385910  1.0  -0.6163
  O  O109  1  0.332900  0.439020  0.337130  1.0  -0.5811
  O  O110  1  0.238100  0.382460  0.235850  1.0  -0.6402
  O  O111  1  0.144160  0.047580  0.685860  1.0  -0.6976
  O  O112  1  0.164100  0.142250  0.793630  1.0  -0.5142
  O  O113  1  0.072900  0.910800  0.270240  1.0  -0.5655
  O  O114  1  0.041600  0.942520  0.152800  1.0  -0.558
  O  O115  1  0.504600  0.621310  0.774700  1.0  -0.5899
  O  O116  1  0.592200  0.644490  0.885910  1.0  -0.6169
  O  O117  1  0.167100  0.939020  0.837130  1.0  -0.582
  O  O118  1  0.261900  0.882460  0.735850  1.0  -0.6404
  O  O119  1  0.355840  0.547580  0.185860  1.0  -0.6976
  O  O120  1  0.335900  0.642250  0.293630  1.0  -0.5147
  O  O121  1  0.572900  0.589200  0.229760  1.0  -0.5647
  O  O122  1  0.541600  0.557480  0.347200  1.0  -0.558
  O  O123  1  0.004600  0.878690  0.725300  1.0  -0.5907
  O  O124  1  0.092200  0.855510  0.614090  1.0  -0.6175
  O  O125  1  0.667100  0.560980  0.662870  1.0  -0.5839
  O  O126  1  0.761900  0.617540  0.764150  1.0  -0.6405
  O  O127  1  0.855840  0.952420  0.314140  1.0  -0.6981
  O  O128  1  0.835900  0.857750  0.206370  1.0  -0.5136
