# generated using pymatgen
data_PrH12(C3O2)3
_symmetry_space_group_name_H-M   'P 1'
_cell_length_a   8.65500000
_cell_length_b   9.93660000
_cell_length_c   11.71700000
_cell_angle_alpha   74.71000000
_cell_angle_beta   69.79500000
_cell_angle_gamma   85.95900000
_symmetry_Int_Tables_number   1
_chemical_formula_structural   PrH12(C3O2)3
_chemical_formula_sum   'Pr2 H24 C18 O12'
_cell_volume   911.95762714
_cell_formula_units_Z   2
loop_
 _symmetry_equiv_pos_site_id
 _symmetry_equiv_pos_as_xyz
  1  'x, y, z'
loop_
 _atom_site_type_symbol
 _atom_site_label
 _atom_site_symmetry_multiplicity
 _atom_site_fract_x
 _atom_site_fract_y
 _atom_site_fract_z
 _atom_site_occupancy
 _atom_site_charge
  Pr  Pr1  1  0.745550  0.977610  0.011920  1.0  2.1786
  Pr  Pr2  1  0.254450  0.022390  0.988080  1.0  2.1752
  H  H3  1  0.265600  0.975400  0.672100  1.0  0.131
  H  H4  1  0.245800  0.813500  0.725400  1.0  0.1221
  H  H5  1  0.095100  0.798400  0.602800  1.0  0.0671
  H  H6  1  0.085700  0.961400  0.560400  1.0  0.0631
  H  H7  1  0.374200  0.972900  0.457100  1.0  0.0715
  H  H8  1  0.376200  0.809600  0.493400  1.0  0.0689
  H  H9  1  0.204500  0.959500  0.336500  1.0  0.1202
  H  H10  1  0.233800  0.798700  0.362400  1.0  0.1343
  H  H11  1  0.754900  0.483300  0.218300  1.0  0.1194
  H  H12  1  0.720900  0.469600  0.098800  1.0  0.1088
  H  H13  1  0.034900  0.522500  0.102700  1.0  0.0685
  H  H14  1  0.976700  0.378200  0.099400  1.0  0.0614
  H  H15  1  0.734400  0.024600  0.327900  1.0  0.1314
  H  H16  1  0.754200  0.186500  0.274600  1.0  0.1219
  H  H17  1  0.904900  0.201600  0.397200  1.0  0.0677
  H  H18  1  0.914300  0.038600  0.439600  1.0  0.0637
  H  H19  1  0.625800  0.027100  0.542900  1.0  0.0706
  H  H20  1  0.623800  0.190400  0.506600  1.0  0.0688
  H  H21  1  0.795500  0.040500  0.663500  1.0  0.1194
  H  H22  1  0.766200  0.201300  0.637600  1.0  0.1338
  H  H23  1  0.245100  0.516700  0.781700  1.0  0.1186
  H  H24  1  0.279100  0.530400  0.901200  1.0  0.1073
  H  H25  1  0.965100  0.477500  0.897300  1.0  0.0683
  H  H26  1  0.023300  0.621800  0.900600  1.0  0.0645
  C  C27  1  0.044600  0.915600  0.806800  1.0  0.7769
  C  C28  1  0.189900  0.897000  0.697200  1.0  -0.3503
  C  C29  1  0.155000  0.885300  0.582900  1.0  -0.0634
  C  C30  1  0.310900  0.889400  0.472000  1.0  -0.0665
  C  C31  1  0.282900  0.888200  0.351200  1.0  -0.3537
  C  C32  1  0.564400  0.087300  0.763300  1.0  0.8051
  C  C33  1  0.762200  0.671500  0.092800  1.0  0.7402
  C  C34  1  0.789400  0.516600  0.127400  1.0  -0.321
  C  C35  1  0.967200  0.478400  0.071300  1.0  -0.0752
  C  C36  1  0.955400  0.084400  0.193200  1.0  0.7782
  C  C37  1  0.810100  0.103000  0.302800  1.0  -0.3505
  C  C38  1  0.845000  0.114700  0.417100  1.0  -0.0617
  C  C39  1  0.689100  0.110600  0.528000  1.0  -0.067
  C  C40  1  0.717100  0.111800  0.648800  1.0  -0.3521
  C  C41  1  0.435600  0.912700  0.236700  1.0  0.8053
  C  C42  1  0.237800  0.328500  0.907200  1.0  0.7402
  C  C43  1  0.210600  0.483400  0.872600  1.0  -0.3213
  C  C44  1  0.032800  0.521600  0.928700  1.0  -0.0742
  O  O45  1  0.577700  0.044800  0.872120  1.0  -0.8808
  O  O46  1  0.575100  0.892700  0.246800  1.0  -0.6515
  O  O47  1  0.862500  0.753000  0.098300  1.0  -0.6938
  O  O48  1  0.641600  0.718600  0.059100  1.0  -0.6926
  O  O49  1  0.900600  0.883600  0.818800  1.0  -0.6471
  O  O50  1  0.068100  0.964700  0.889080  1.0  -0.8445
  O  O51  1  0.422300  0.955200  0.127880  1.0  -0.8845
  O  O52  1  0.424900  0.107300  0.753200  1.0  -0.6499
  O  O53  1  0.137500  0.247000  0.901700  1.0  -0.6912
  O  O54  1  0.358400  0.281400  0.940900  1.0  -0.6941
  O  O55  1  0.099400  0.116400  0.181200  1.0  -0.6463
  O  O56  1  0.931900  0.035300  0.110920  1.0  -0.8389
