# generated using pymatgen
data_EuCu6H56C33N17O8
_symmetry_space_group_name_H-M   'P 1'
_cell_length_a   15.13280000
_cell_length_b   15.72920000
_cell_length_c   27.28840000
_cell_angle_alpha   90.00000000
_cell_angle_beta   101.39800000
_cell_angle_gamma   90.00000000
_symmetry_Int_Tables_number   1
_chemical_formula_structural   EuCu6H56C33N17O8
_chemical_formula_sum   'Eu4 Cu24 H224 C132 N68 O32'
_cell_volume   6367.27031948
_cell_formula_units_Z   4
loop_
 _symmetry_equiv_pos_site_id
 _symmetry_equiv_pos_as_xyz
  1  'x, y, z'
loop_
 _atom_site_type_symbol
 _atom_site_label
 _atom_site_symmetry_multiplicity
 _atom_site_fract_x
 _atom_site_fract_y
 _atom_site_fract_z
 _atom_site_occupancy
 _atom_site_charge
  Eu  Eu1  1  0.219000  0.616520  0.628100  1.0  2.0262
  Eu  Eu2  1  0.781000  0.116520  0.871900  1.0  2.0246
  Eu  Eu3  1  0.781000  0.383480  0.371900  1.0  2.0247
  Eu  Eu4  1  0.219000  0.883480  0.128100  1.0  2.0266
  Cu  Cu5  1  0.768000  0.700500  0.877490  1.0  0.4795
  Cu  Cu6  1  0.074340  0.692100  0.835260  1.0  0.4958
  Cu  Cu7  1  0.269370  0.436750  0.846920  1.0  0.4664
  Cu  Cu8  1  0.745090  0.816220  0.042630  1.0  0.4368
  Cu  Cu9  1  0.726720  0.055750  0.156370  1.0  0.4764
  Cu  Cu10  1  0.531330  0.523840  0.774830  1.0  0.4182
  Cu  Cu11  1  0.232000  0.200500  0.622510  1.0  0.4821
  Cu  Cu12  1  0.925660  0.192100  0.664740  1.0  0.4948
  Cu  Cu13  1  0.730630  0.936750  0.653080  1.0  0.4654
  Cu  Cu14  1  0.254910  0.316220  0.457370  1.0  0.4363
  Cu  Cu15  1  0.273280  0.555750  0.343630  1.0  0.4772
  Cu  Cu16  1  0.468670  0.023840  0.725170  1.0  0.4168
  Cu  Cu17  1  0.232000  0.299500  0.122510  1.0  0.4813
  Cu  Cu18  1  0.925660  0.307900  0.164740  1.0  0.4938
  Cu  Cu19  1  0.730630  0.563250  0.153080  1.0  0.4687
  Cu  Cu20  1  0.254910  0.183780  0.957370  1.0  0.4362
  Cu  Cu21  1  0.273280  0.944250  0.843630  1.0  0.4772
  Cu  Cu22  1  0.468670  0.476160  0.225170  1.0  0.4171
  Cu  Cu23  1  0.768000  0.799500  0.377490  1.0  0.4799
  Cu  Cu24  1  0.074340  0.807900  0.335260  1.0  0.4946
  Cu  Cu25  1  0.269370  0.063250  0.346920  1.0  0.4662
  Cu  Cu26  1  0.745090  0.683780  0.542630  1.0  0.4366
  Cu  Cu27  1  0.726720  0.444250  0.656370  1.0  0.4764
  Cu  Cu28  1  0.531330  0.976160  0.274830  1.0  0.4187
  H  H29  1  0.273100  0.613200  0.766800  1.0  0.0574
  H  H30  1  0.459700  0.792800  0.792100  1.0  0.0884
  H  H31  1  0.460100  0.733100  0.744700  1.0  0.107
  H  H32  1  0.383900  0.804200  0.742600  1.0  0.1021
  H  H33  1  0.419100  0.737900  0.853400  1.0  0.0926
  H  H34  1  0.317000  0.706100  0.847100  1.0  0.0965
  H  H35  1  0.396400  0.638500  0.848400  1.0  0.1106
  H  H36  1  0.134300  0.806200  0.668600  1.0  0.0287
  H  H37  1  0.214100  0.012200  0.691900  1.0  0.0846
  H  H38  1  0.116200  0.969900  0.677700  1.0  0.1047
  H  H39  1  0.186600  0.937200  0.725600  1.0  0.0922
  H  H40  1  0.307600  0.980300  0.647300  1.0  0.1135
  H  H41  1  0.341000  0.883600  0.649000  1.0  0.1014
  H  H42  1  0.271600  0.918300  0.601200  1.0  0.101
  H  H43  1  0.452400  0.627900  0.675000  1.0  0.0522
  H  H44  1  0.641400  0.736300  0.652200  1.0  0.0922
  H  H45  1  0.593200  0.727100  0.699100  1.0  0.0685
  H  H46  1  0.623500  0.644000  0.673000  1.0  0.0906
  H  H47  1  0.560900  0.773300  0.585800  1.0  0.1133
  H  H48  1  0.484400  0.708900  0.559300  1.0  0.1013
  H  H49  1  0.457500  0.791400  0.587300  1.0  0.0972
  H  H50  1  0.188300  0.774200  0.534400  1.0  0.0539
  H  H51  1  0.287600  0.818300  0.432200  1.0  0.1011
  H  H52  1  0.190300  0.835800  0.444700  1.0  0.1065
  H  H53  1  0.279100  0.865800  0.482900  1.0  0.1025
  H  H54  1  0.330700  0.691600  0.437700  1.0  0.082
  H  H55  1  0.353400  0.650300  0.492400  1.0  0.0889
  H  H56  1  0.263100  0.624100  0.454300  1.0  0.0876
  H  H57  1  0.322600  0.507500  0.542400  1.0  0.0353
  H  H58  1  0.507900  0.372000  0.553700  1.0  0.0663
  H  H59  1  0.421100  0.391300  0.511200  1.0  0.0867
  H  H60  1  0.486500  0.467300  0.534400  1.0  0.0721
  H  H61  1  0.483700  0.341400  0.624100  1.0  0.0947
  H  H62  1  0.442600  0.413800  0.654200  1.0  0.0931
  H  H63  1  0.379700  0.338100  0.628100  1.0  0.0982
  H  H64  1  0.289800  0.428800  0.698600  1.0  0.0375
  H  H65  1  0.074600  0.331800  0.737700  1.0  0.0809
  H  H66  1  0.083800  0.433200  0.739700  1.0  0.0929
  H  H67  1  0.057900  0.385700  0.687000  1.0  0.0922
  H  H68  1  0.196300  0.263300  0.756100  1.0  0.083
  H  H69  1  0.265300  0.270500  0.718800  1.0  0.0881
  H  H70  1  0.285000  0.320400  0.770900  1.0  0.0957
  H  H71  1  0.133100  0.432200  0.570100  1.0  0.0591
  H  H72  1  0.868800  0.436000  0.547100  1.0  0.0858
  H  H73  1  0.919400  0.496600  0.590900  1.0  0.091
  H  H74  1  0.915300  0.522000  0.533700  1.0  0.081
  H  H75  1  0.929600  0.324800  0.537000  1.0  0.0988
  H  H76  1  0.019800  0.330600  0.514900  1.0  0.0876
  H  H77  1  0.025200  0.305900  0.572300  1.0  0.0841
  H  H78  1  0.081700  0.581100  0.715600  1.0  0.0475
  H  H79  1  0.853300  0.693400  0.667900  1.0  0.0909
  H  H80  1  0.942000  0.747400  0.665800  1.0  0.1064
  H  H81  1  0.912300  0.671700  0.626900  1.0  0.1042
  H  H82  1  0.856500  0.605000  0.722100  1.0  0.0979
  H  H83  1  0.919100  0.524800  0.716900  1.0  0.0943
  H  H84  1  0.949300  0.591900  0.761200  1.0  0.0855
  H  H85  1  0.726900  0.113200  0.733200  1.0  0.0567
  H  H86  1  0.540300  0.292800  0.707900  1.0  0.0864
  H  H87  1  0.539900  0.233100  0.755300  1.0  0.1065
  H  H88  1  0.616100  0.304200  0.757400  1.0  0.1003
  H  H89  1  0.580900  0.237900  0.646600  1.0  0.0929
  H  H90  1  0.683000  0.206100  0.652900  1.0  0.0971
  H  H91  1  0.603600  0.138500  0.651600  1.0  0.1088
  H  H92  1  0.865700  0.306200  0.831400  1.0  0.0289
  H  H93  1  0.785900  0.512200  0.808100  1.0  0.0859
  H  H94  1  0.883800  0.469900  0.822300  1.0  0.1042
  H  H95  1  0.813400  0.437200  0.774400  1.0  0.0932
  H  H96  1  0.692400  0.480300  0.852700  1.0  0.1136
  H  H97  1  0.659000  0.383600  0.851000  1.0  0.1005
  H  H98  1  0.728400  0.418300  0.898800  1.0  0.1017
  H  H99  1  0.547600  0.127900  0.825000  1.0  0.051
  H  H100  1  0.358600  0.236300  0.847800  1.0  0.0926
  H  H101  1  0.406800  0.227100  0.800900  1.0  0.0685
  H  H102  1  0.376500  0.144000  0.827000  1.0  0.0915
  H  H103  1  0.439100  0.273300  0.914200  1.0  0.1135
  H  H104  1  0.515600  0.208900  0.940700  1.0  0.1006
  H  H105  1  0.542500  0.291400  0.912700  1.0  0.0963
  H  H106  1  0.811700  0.274200  0.965600  1.0  0.0542
  H  H107  1  0.712400  0.318300  0.067800  1.0  0.1021
  H  H108  1  0.809700  0.335800  0.055300  1.0  0.1047
  H  H109  1  0.720900  0.365800  0.017100  1.0  0.1032
  H  H110  1  0.669300  0.191600  0.062300  1.0  0.0817
  H  H111  1  0.646600  0.150300  0.007600  1.0  0.0882
  H  H112  1  0.736900  0.124100  0.045700  1.0  0.0886
  H  H113  1  0.677400  0.007500  0.957600  1.0  0.0352
  H  H114  1  0.492100  0.872000  0.946300  1.0  0.0686
  H  H115  1  0.578900  0.891300  0.988800  1.0  0.0865
  H  H116  1  0.513500  0.967300  0.965600  1.0  0.072
  H  H117  1  0.516300  0.841400  0.875900  1.0  0.0985
  H  H118  1  0.557400  0.913800  0.845800  1.0  0.0915
  H  H119  1  0.620300  0.838100  0.871900  1.0  0.0982
  H  H120  1  0.710200  0.928800  0.801400  1.0  0.0368
  H  H121  1  0.925400  0.831800  0.762300  1.0  0.0811
  H  H122  1  0.916200  0.933200  0.760300  1.0  0.0941
  H  H123  1  0.942100  0.885700  0.813000  1.0  0.0931
  H  H124  1  0.803700  0.763300  0.743900  1.0  0.0836
  H  H125  1  0.734700  0.770500  0.781200  1.0  0.0886
  H  H126  1  0.715000  0.820400  0.729100  1.0  0.0945
  H  H127  1  0.866900  0.932200  0.929900  1.0  0.0588
  H  H128  1  0.131200  0.936000  0.952900  1.0  0.0849
  H  H129  1  0.080600  0.996600  0.909100  1.0  0.0918
  H  H130  1  0.084700  0.022000  0.966300  1.0  0.0817
  H  H131  1  0.070400  0.824800  0.963000  1.0  0.0994
  H  H132  1  0.980200  0.830600  0.985100  1.0  0.0873
  H  H133  1  0.974800  0.805900  0.927700  1.0  0.0839
  H  H134  1  0.918300  0.081100  0.784400  1.0  0.0473
  H  H135  1  0.146700  0.193400  0.832100  1.0  0.0901
  H  H136  1  0.058000  0.247400  0.834200  1.0  0.106
  H  H137  1  0.087700  0.171700  0.873100  1.0  0.1023
  H  H138  1  0.143500  0.105000  0.777900  1.0  0.0985
  H  H139  1  0.080900  0.024800  0.783100  1.0  0.0931
  H  H140  1  0.050700  0.091900  0.738800  1.0  0.0861
  H  H141  1  0.726900  0.386800  0.233200  1.0  0.0571
  H  H142  1  0.540300  0.207200  0.207900  1.0  0.0871
  H  H143  1  0.539900  0.266900  0.255300  1.0  0.1065
  H  H144  1  0.616100  0.195800  0.257400  1.0  0.1004
  H  H145  1  0.580900  0.262100  0.146600  1.0  0.0923
  H  H146  1  0.683000  0.293900  0.152900  1.0  0.0971
  H  H147  1  0.603600  0.361500  0.151600  1.0  0.1118
  H  H148  1  0.865700  0.193800  0.331400  1.0  0.029
  H  H149  1  0.785900  0.987800  0.308100  1.0  0.0845
  H  H150  1  0.883800  0.030100  0.322300  1.0  0.104
  H  H151  1  0.813400  0.062800  0.274400  1.0  0.093
  H  H152  1  0.692400  0.019700  0.352700  1.0  0.1135
  H  H153  1  0.659000  0.116400  0.351000  1.0  0.1004
  H  H154  1  0.728400  0.081700  0.398800  1.0  0.1021
  H  H155  1  0.547600  0.372100  0.325000  1.0  0.0516
  H  H156  1  0.358600  0.263700  0.347800  1.0  0.0928
  H  H157  1  0.406800  0.272900  0.300900  1.0  0.0691
  H  H158  1  0.376500  0.356000  0.327000  1.0  0.0918
  H  H159  1  0.439100  0.226700  0.414200  1.0  0.1133
  H  H160  1  0.515600  0.291100  0.440700  1.0  0.1013
  H  H161  1  0.542500  0.208600  0.412700  1.0  0.0966
  H  H162  1  0.811700  0.225800  0.465600  1.0  0.0542
  H  H163  1  0.712400  0.181700  0.567800  1.0  0.1024
  H  H164  1  0.809700  0.164200  0.555300  1.0  0.1041
  H  H165  1  0.720900  0.134200  0.517100  1.0  0.1011
  H  H166  1  0.669300  0.308400  0.562300  1.0  0.0816
  H  H167  1  0.646600  0.349700  0.507600  1.0  0.0883
  H  H168  1  0.736900  0.375900  0.545700  1.0  0.0882
  H  H169  1  0.677400  0.492500  0.457600  1.0  0.0358
  H  H170  1  0.492100  0.628000  0.446300  1.0  0.0692
  H  H171  1  0.578900  0.608700  0.488800  1.0  0.0877
  H  H172  1  0.513500  0.532700  0.465600  1.0  0.0711
  H  H173  1  0.516300  0.658600  0.375900  1.0  0.0973
  H  H174  1  0.557400  0.586200  0.345800  1.0  0.0904
  H  H175  1  0.620300  0.661900  0.371900  1.0  0.0992
  H  H176  1  0.710200  0.571200  0.301400  1.0  0.0373
  H  H177  1  0.925400  0.668200  0.262300  1.0  0.0815
  H  H178  1  0.916200  0.566800  0.260300  1.0  0.0931
  H  H179  1  0.942100  0.614300  0.313000  1.0  0.0924
  H  H180  1  0.803700  0.736700  0.243900  1.0  0.0836
  H  H181  1  0.734700  0.729500  0.281200  1.0  0.0882
  H  H182  1  0.715000  0.679600  0.229100  1.0  0.094
  H  H183  1  0.866900  0.567800  0.429900  1.0  0.0589
  H  H184  1  0.131200  0.564000  0.452900  1.0  0.0857
  H  H185  1  0.080600  0.503400  0.409100  1.0  0.0919
  H  H186  1  0.084700  0.478000  0.466300  1.0  0.0819
  H  H187  1  0.070400  0.675200  0.463000  1.0  0.0993
  H  H188  1  0.980200  0.669400  0.485100  1.0  0.0872
  H  H189  1  0.974800  0.694100  0.427700  1.0  0.0842
  H  H190  1  0.918300  0.418900  0.284400  1.0  0.0475
  H  H191  1  0.146700  0.306600  0.332100  1.0  0.0903
  H  H192  1  0.058000  0.252600  0.334200  1.0  0.1054
  H  H193  1  0.087700  0.328300  0.373100  1.0  0.1024
  H  H194  1  0.143500  0.395000  0.277900  1.0  0.0982
  H  H195  1  0.080900  0.475200  0.283100  1.0  0.0962
  H  H196  1  0.050700  0.408100  0.238800  1.0  0.0865
  H  H197  1  0.273100  0.886800  0.266800  1.0  0.0575
  H  H198  1  0.459700  0.707200  0.292100  1.0  0.0885
  H  H199  1  0.460100  0.766900  0.244700  1.0  0.1076
  H  H200  1  0.383900  0.695800  0.242600  1.0  0.1011
  H  H201  1  0.419100  0.762100  0.353400  1.0  0.0924
  H  H202  1  0.317000  0.793900  0.347100  1.0  0.0966
  H  H203  1  0.396400  0.861500  0.348400  1.0  0.1111
  H  H204  1  0.134300  0.693800  0.168600  1.0  0.0286
  H  H205  1  0.214100  0.487800  0.191900  1.0  0.0829
  H  H206  1  0.116200  0.530100  0.177700  1.0  0.1051
  H  H207  1  0.186600  0.562800  0.225600  1.0  0.093
  H  H208  1  0.307600  0.519700  0.147300  1.0  0.1134
  H  H209  1  0.341000  0.616400  0.149000  1.0  0.1023
  H  H210  1  0.271600  0.581700  0.101200  1.0  0.1017
  H  H211  1  0.452400  0.872100  0.175000  1.0  0.052
  H  H212  1  0.641400  0.763700  0.152200  1.0  0.092
  H  H213  1  0.593200  0.772900  0.199100  1.0  0.0686
  H  H214  1  0.623500  0.856000  0.173000  1.0  0.092
  H  H215  1  0.560900  0.726700  0.085800  1.0  0.1127
  H  H216  1  0.484400  0.791100  0.059300  1.0  0.1013
  H  H217  1  0.457500  0.708600  0.087300  1.0  0.0966
  H  H218  1  0.188300  0.725800  0.034400  1.0  0.0541
  H  H219  1  0.287600  0.681700  0.932200  1.0  0.1014
  H  H220  1  0.190300  0.664200  0.944700  1.0  0.1063
  H  H221  1  0.279100  0.634200  0.982900  1.0  0.1029
  H  H222  1  0.330700  0.808400  0.937700  1.0  0.0817
  H  H223  1  0.353400  0.849700  0.992400  1.0  0.0888
  H  H224  1  0.263100  0.875900  0.954300  1.0  0.0876
  H  H225  1  0.322600  0.992500  0.042400  1.0  0.0356
  H  H226  1  0.507900  0.128000  0.053700  1.0  0.0677
  H  H227  1  0.421100  0.108700  0.011200  1.0  0.0877
  H  H228  1  0.486500  0.032700  0.034400  1.0  0.0709
  H  H229  1  0.483700  0.158600  0.124100  1.0  0.0956
  H  H230  1  0.442600  0.086200  0.154200  1.0  0.0937
  H  H231  1  0.379700  0.161900  0.128100  1.0  0.0986
  H  H232  1  0.289800  0.071200  0.198600  1.0  0.0382
  H  H233  1  0.074600  0.168200  0.237700  1.0  0.0814
  H  H234  1  0.083800  0.066800  0.239700  1.0  0.093
  H  H235  1  0.057900  0.114300  0.187000  1.0  0.0922
  H  H236  1  0.196300  0.236700  0.256100  1.0  0.0829
  H  H237  1  0.265300  0.229500  0.218800  1.0  0.0885
  H  H238  1  0.285000  0.179600  0.270900  1.0  0.0957
  H  H239  1  0.133100  0.067800  0.070100  1.0  0.0593
  H  H240  1  0.868800  0.064000  0.047100  1.0  0.086
  H  H241  1  0.919400  0.003400  0.090900  1.0  0.0909
  H  H242  1  0.915300  0.978000  0.033700  1.0  0.08
  H  H243  1  0.929600  0.175200  0.037000  1.0  0.0993
  H  H244  1  0.019800  0.169400  0.014900  1.0  0.0883
  H  H245  1  0.025200  0.194100  0.072300  1.0  0.084
  H  H246  1  0.081700  0.918900  0.215600  1.0  0.0471
  H  H247  1  0.853300  0.806600  0.167900  1.0  0.0905
  H  H248  1  0.942000  0.752600  0.165800  1.0  0.1046
  H  H249  1  0.912300  0.828300  0.126900  1.0  0.1028
  H  H250  1  0.856500  0.895000  0.222100  1.0  0.0975
  H  H251  1  0.919100  0.975200  0.216900  1.0  0.095
  H  H252  1  0.949300  0.908100  0.261200  1.0  0.0855
  C  C253  1  0.309200  0.652200  0.752900  1.0  0.3356
  C  C254  1  0.421800  0.763000  0.764100  1.0  -0.1596
  C  C255  1  0.375100  0.695500  0.837500  1.0  -0.1743
  C  C256  1  0.182600  0.821500  0.652800  1.0  0.2727
  C  C257  1  0.180000  0.959100  0.691500  1.0  -0.153
  C  C258  1  0.289900  0.921800  0.637600  1.0  -0.142
  C  C259  1  0.443400  0.657800  0.644200  1.0  0.3314
  C  C260  1  0.599700  0.701800  0.667200  1.0  -0.158
  C  C261  1  0.503100  0.747000  0.587800  1.0  -0.1356
  C  C262  1  0.216500  0.726700  0.522350  1.0  0.2951
  C  C263  1  0.253200  0.821700  0.459000  1.0  -0.154
  C  C264  1  0.305000  0.670800  0.465700  1.0  -0.1536
  C  C265  1  0.337200  0.477800  0.573200  1.0  0.3341
  C  C266  1  0.459800  0.413100  0.541700  1.0  -0.1464
  C  C267  1  0.430100  0.375700  0.625300  1.0  -0.1617
  C  C268  1  0.227700  0.435600  0.699300  1.0  0.3114
  C  C269  1  0.093500  0.381900  0.721000  1.0  -0.138
  C  C270  1  0.237800  0.301200  0.743200  1.0  -0.1534
  C  C271  1  0.081100  0.466100  0.570060  1.0  0.3464
  C  C272  1  0.920000  0.474600  0.557400  1.0  -0.1421
  C  C273  1  0.993500  0.340500  0.544400  1.0  -0.1476
  C  C274  1  0.049900  0.621800  0.693000  1.0  0.2816
  C  C275  1  0.914600  0.690900  0.661300  1.0  -0.1316
  C  C276  1  0.918800  0.585000  0.726200  1.0  -0.158
  C  C277  1  0.690800  0.152200  0.747100  1.0  0.3368
  C  C278  1  0.578200  0.263000  0.735900  1.0  -0.1597
  C  C279  1  0.624900  0.195500  0.662500  1.0  -0.1733
  C  C280  1  0.817400  0.321500  0.847200  1.0  0.2728
  C  C281  1  0.820000  0.459100  0.808500  1.0  -0.1523
  C  C282  1  0.710100  0.421800  0.862400  1.0  -0.1436
  C  C283  1  0.556600  0.157800  0.855800  1.0  0.3312
  C  C284  1  0.400300  0.201800  0.832800  1.0  -0.1577
  C  C285  1  0.496900  0.247000  0.912200  1.0  -0.1361
  C  C286  1  0.783500  0.226700  0.977650  1.0  0.2946
  C  C287  1  0.746800  0.321700  0.041000  1.0  -0.1538
  C  C288  1  0.695000  0.170800  0.034300  1.0  -0.153
  C  C289  1  0.662800  0.977800  0.926800  1.0  0.3342
  C  C290  1  0.540200  0.913100  0.958300  1.0  -0.1459
  C  C291  1  0.569900  0.875700  0.874700  1.0  -0.1629
  C  C292  1  0.772300  0.935600  0.800700  1.0  0.3108
  C  C293  1  0.906500  0.881900  0.779000  1.0  -0.1395
  C  C294  1  0.762200  0.801200  0.756800  1.0  -0.1539
  C  C295  1  0.918900  0.966100  0.929940  1.0  0.3474
  C  C296  1  0.080000  0.974600  0.942600  1.0  -0.1416
  C  C297  1  0.006500  0.840500  0.955600  1.0  -0.1474
  C  C298  1  0.950100  0.121800  0.807000  1.0  0.282
  C  C299  1  0.085400  0.190900  0.838700  1.0  -0.1317
  C  C300  1  0.081200  0.085000  0.773800  1.0  -0.1588
  C  C301  1  0.690800  0.347800  0.247100  1.0  0.3371
  C  C302  1  0.578200  0.237000  0.235900  1.0  -0.1605
  C  C303  1  0.624900  0.304500  0.162500  1.0  -0.1732
  C  C304  1  0.817400  0.178500  0.347200  1.0  0.2734
  C  C305  1  0.820000  0.040900  0.308500  1.0  -0.1525
  C  C306  1  0.710100  0.078200  0.362400  1.0  -0.1434
  C  C307  1  0.556600  0.342200  0.355800  1.0  0.3305
  C  C308  1  0.400300  0.298200  0.332800  1.0  -0.1572
  C  C309  1  0.496900  0.253000  0.412200  1.0  -0.1359
  C  C310  1  0.783500  0.273300  0.477650  1.0  0.2941
  C  C311  1  0.746800  0.178300  0.541000  1.0  -0.1544
  C  C312  1  0.695000  0.329200  0.534300  1.0  -0.1528
  C  C313  1  0.662800  0.522200  0.426800  1.0  0.3334
  C  C314  1  0.540200  0.586900  0.458300  1.0  -0.1451
  C  C315  1  0.569900  0.624300  0.374700  1.0  -0.1625
  C  C316  1  0.772300  0.564400  0.300700  1.0  0.3107
  C  C317  1  0.906500  0.618100  0.279000  1.0  -0.1396
  C  C318  1  0.762200  0.698800  0.256800  1.0  -0.1532
  C  C319  1  0.918900  0.533900  0.429940  1.0  0.347
  C  C320  1  0.080000  0.525400  0.442600  1.0  -0.1418
  C  C321  1  0.006500  0.659500  0.455600  1.0  -0.1466
  C  C322  1  0.950100  0.378200  0.307000  1.0  0.2817
  C  C323  1  0.085400  0.309100  0.338700  1.0  -0.1319
  C  C324  1  0.081200  0.415000  0.273800  1.0  -0.158
  C  C325  1  0.309200  0.847800  0.252900  1.0  0.3356
  C  C326  1  0.421800  0.737000  0.264100  1.0  -0.1605
  C  C327  1  0.375100  0.804500  0.337500  1.0  -0.1745
  C  C328  1  0.182600  0.678500  0.152800  1.0  0.2735
  C  C329  1  0.180000  0.540900  0.191500  1.0  -0.1532
  C  C330  1  0.289900  0.578200  0.137600  1.0  -0.1419
  C  C331  1  0.443400  0.842200  0.144200  1.0  0.3306
  C  C332  1  0.599700  0.798200  0.167200  1.0  -0.1574
  C  C333  1  0.503100  0.753000  0.087800  1.0  -0.1355
  C  C334  1  0.216500  0.773300  0.022350  1.0  0.2934
  C  C335  1  0.253200  0.678300  0.959000  1.0  -0.1543
  C  C336  1  0.305000  0.829200  0.965700  1.0  -0.1533
  C  C337  1  0.337200  0.022200  0.073200  1.0  0.3334
  C  C338  1  0.459800  0.086900  0.041700  1.0  -0.1459
  C  C339  1  0.430100  0.124300  0.125300  1.0  -0.1615
  C  C340  1  0.227700  0.064400  0.199300  1.0  0.3107
  C  C341  1  0.093500  0.118100  0.221000  1.0  -0.1382
  C  C342  1  0.237800  0.198800  0.243200  1.0  -0.1532
  C  C343  1  0.081100  0.033900  0.070060  1.0  0.3453
  C  C344  1  0.920000  0.025400  0.057400  1.0  -0.142
  C  C345  1  0.993500  0.159500  0.044400  1.0  -0.1471
  C  C346  1  0.049900  0.878200  0.193000  1.0  0.2814
  C  C347  1  0.914600  0.809100  0.161300  1.0  -0.1317
  C  C348  1  0.918800  0.915000  0.226200  1.0  -0.1576
  C  C349  1  0.958000  0.688500  0.851500  1.0  0.0494
  C  C350  1  0.137500  0.590100  0.828700  1.0  -0.0983
  C  C351  1  0.187200  0.856800  0.832400  1.0  -0.0658
  C  C352  1  0.740000  0.656600  0.111200  1.0  0.0571
  C  C353  1  0.432400  0.478800  0.798380  1.0  -0.0079
  C  C354  1  0.764800  0.760900  0.936600  1.0  -0.0914
  C  C355  1  0.727200  0.919300  0.075300  1.0  -0.0358
  C  C356  1  0.664200  0.652300  0.837200  1.0  -0.1751
  C  C357  1  0.640300  0.471900  0.695500  1.0  -0.1231
  C  C358  1  0.042000  0.188500  0.648500  1.0  0.0465
  C  C359  1  0.862500  0.090100  0.671300  1.0  -0.0958
  C  C360  1  0.812800  0.356800  0.667600  1.0  -0.065
  C  C361  1  0.260000  0.156600  0.388800  1.0  0.0542
  C  C362  1  0.567600  0.978800  0.701620  1.0  -0.0038
  C  C363  1  0.235200  0.260900  0.563400  1.0  -0.0912
  C  C364  1  0.272800  0.419300  0.424700  1.0  -0.0364
  C  C365  1  0.335800  0.152300  0.662800  1.0  -0.1716
  C  C366  1  0.359700  0.971900  0.804500  1.0  -0.1236
  C  C367  1  0.042000  0.311500  0.148500  1.0  0.0484
  C  C368  1  0.862500  0.409900  0.171300  1.0  -0.0962
  C  C369  1  0.812800  0.143200  0.167600  1.0  -0.0649
  C  C370  1  0.260000  0.343400  0.888800  1.0  0.0536
  C  C371  1  0.567600  0.521200  0.201620  1.0  -0.0046
  C  C372  1  0.235200  0.239100  0.063400  1.0  -0.0893
  C  C373  1  0.272800  0.080700  0.924700  1.0  -0.0365
  C  C374  1  0.335800  0.347700  0.162800  1.0  -0.1724
  C  C375  1  0.359700  0.528100  0.304500  1.0  -0.1236
  C  C376  1  0.958000  0.811500  0.351500  1.0  0.0452
  C  C377  1  0.137500  0.909900  0.328700  1.0  -0.0997
  C  C378  1  0.187200  0.643200  0.332400  1.0  -0.0657
  C  C379  1  0.740000  0.843400  0.611200  1.0  0.0574
  C  C380  1  0.432400  0.021200  0.298380  1.0  -0.0086
  C  C381  1  0.764800  0.739100  0.436600  1.0  -0.0891
  C  C382  1  0.727200  0.580700  0.575300  1.0  -0.0356
  C  C383  1  0.664200  0.847700  0.337200  1.0  -0.1754
  C  C384  1  0.640300  0.028100  0.195500  1.0  -0.1233
  N  N385  1  0.364500  0.701700  0.783340  1.0  -0.0613
  N  N386  1  0.214500  0.896700  0.660610  1.0  -0.0236
  N  N387  1  0.512500  0.699100  0.633690  1.0  -0.039
  N  N388  1  0.257000  0.739400  0.484670  1.0  -0.0569
  N  N389  1  0.406800  0.425900  0.579600  1.0  -0.0564
  N  N390  1  0.188200  0.374600  0.719190  1.0  -0.0327
  N  N391  1  0.002200  0.429500  0.557980  1.0  -0.0523
  N  N392  1  0.965700  0.634200  0.694330  1.0  0.0153
  N  N393  1  0.635500  0.201700  0.716660  1.0  -0.0616
  N  N394  1  0.785500  0.396700  0.839390  1.0  -0.0232
  N  N395  1  0.487500  0.199100  0.866310  1.0  -0.0385
  N  N396  1  0.743000  0.239400  0.015330  1.0  -0.0555
  N  N397  1  0.593200  0.925900  0.920400  1.0  -0.0567
  N  N398  1  0.811800  0.874600  0.780810  1.0  -0.0325
  N  N399  1  0.997800  0.929500  0.942020  1.0  -0.0532
  N  N400  1  0.034300  0.134200  0.805670  1.0  0.0144
  N  N401  1  0.635500  0.298300  0.216660  1.0  -0.0613
  N  N402  1  0.785500  0.103300  0.339390  1.0  -0.0235
  N  N403  1  0.487500  0.300900  0.366310  1.0  -0.0377
  N  N404  1  0.743000  0.260600  0.515330  1.0  -0.0578
  N  N405  1  0.593200  0.574100  0.420400  1.0  -0.057
  N  N406  1  0.811800  0.625400  0.280810  1.0  -0.0333
  N  N407  1  0.997800  0.570500  0.442020  1.0  -0.0528
  N  N408  1  0.034300  0.365800  0.305670  1.0  0.0146
  N  N409  1  0.364500  0.798300  0.283340  1.0  -0.061
  N  N410  1  0.214500  0.603300  0.160610  1.0  -0.0246
  N  N411  1  0.512500  0.800900  0.133690  1.0  -0.0385
  N  N412  1  0.257000  0.760600  0.984670  1.0  -0.0591
  N  N413  1  0.406800  0.074100  0.079600  1.0  -0.0566
  N  N414  1  0.188200  0.125400  0.219190  1.0  -0.0335
  N  N415  1  0.002200  0.070500  0.057980  1.0  -0.0522
  N  N416  1  0.965700  0.865800  0.194330  1.0  0.0155
  N  N417  1  0.888300  0.688500  0.862130  1.0  -0.4246
  N  N418  1  0.182300  0.530100  0.832040  1.0  -0.4528
  N  N419  1  0.139800  0.797400  0.829900  1.0  -0.4813
  N  N420  1  0.744500  0.715100  0.085450  1.0  -0.4069
  N  N421  1  0.372400  0.455100  0.814750  1.0  -0.3991
  N  N422  1  0.760300  0.786900  0.976100  1.0  -0.4253
  N  N423  1  0.722500  0.978100  0.100300  1.0  -0.4332
  N  N424  1  0.604700  0.616900  0.812250  1.0  -0.4404
  N  N425  1  0.592600  0.492900  0.721800  1.0  -0.4233
  N  N426  1  0.111700  0.188500  0.637870  1.0  -0.4221
  N  N427  1  0.817700  0.030100  0.667960  1.0  -0.4519
  N  N428  1  0.860200  0.297400  0.670100  1.0  -0.4803
  N  N429  1  0.255500  0.215100  0.414550  1.0  -0.4144
  N  N430  1  0.627600  0.955100  0.685250  1.0  -0.3976
  N  N431  1  0.239700  0.286900  0.523900  1.0  -0.4255
  N  N432  1  0.277500  0.478100  0.399700  1.0  -0.4332
  N  N433  1  0.395300  0.116900  0.687750  1.0  -0.4389
  N  N434  1  0.407400  0.992900  0.778200  1.0  -0.422
  N  N435  1  0.111700  0.311500  0.137870  1.0  -0.4242
  N  N436  1  0.817700  0.469900  0.167960  1.0  -0.4527
  N  N437  1  0.860200  0.202600  0.170100  1.0  -0.4802
  N  N438  1  0.255500  0.284900  0.914550  1.0  -0.412
  N  N439  1  0.627600  0.544900  0.185250  1.0  -0.3975
  N  N440  1  0.239700  0.213100  0.023900  1.0  -0.4252
  N  N441  1  0.277500  0.021900  0.899700  1.0  -0.4319
  N  N442  1  0.395300  0.383100  0.187750  1.0  -0.4388
  N  N443  1  0.407400  0.507100  0.278200  1.0  -0.4219
  N  N444  1  0.888300  0.811500  0.362130  1.0  -0.4253
  N  N445  1  0.182300  0.969900  0.332040  1.0  -0.456
  N  N446  1  0.139800  0.702600  0.329900  1.0  -0.4801
  N  N447  1  0.744500  0.784900  0.585450  1.0  -0.4086
  N  N448  1  0.372400  0.044900  0.314750  1.0  -0.3988
  N  N449  1  0.760300  0.713100  0.476100  1.0  -0.4259
  N  N450  1  0.722500  0.521900  0.600300  1.0  -0.4316
  N  N451  1  0.604700  0.883100  0.312250  1.0  -0.4404
  N  N452  1  0.592600  0.007100  0.221800  1.0  -0.4232
  O  O453  1  0.301700  0.653700  0.707270  1.0  -0.6317
  O  O454  1  0.209100  0.766900  0.626460  1.0  -0.6234
  O  O455  1  0.368000  0.654700  0.617430  1.0  -0.6318
  O  O456  1  0.212300  0.657000  0.543490  1.0  -0.6354
  O  O457  1  0.289400  0.491000  0.604330  1.0  -0.6271
  O  O458  1  0.190300  0.501900  0.681220  1.0  -0.6332
  O  O459  1  0.092400  0.542400  0.581520  1.0  -0.6247
  O  O460  1  0.093200  0.659400  0.664310  1.0  -0.6538
  O  O461  1  0.698300  0.153700  0.792730  1.0  -0.6329
  O  O462  1  0.790900  0.266900  0.873540  1.0  -0.6229
  O  O463  1  0.632000  0.154700  0.882570  1.0  -0.6308
  O  O464  1  0.787700  0.157000  0.956510  1.0  -0.6354
  O  O465  1  0.710600  0.991000  0.895670  1.0  -0.6277
  O  O466  1  0.809700  0.001900  0.818780  1.0  -0.6346
  O  O467  1  0.907600  0.042400  0.918480  1.0  -0.6241
  O  O468  1  0.906800  0.159400  0.835690  1.0  -0.6536
  O  O469  1  0.698300  0.346300  0.292730  1.0  -0.6326
  O  O470  1  0.790900  0.233100  0.373540  1.0  -0.6224
  O  O471  1  0.632000  0.345300  0.382570  1.0  -0.6306
  O  O472  1  0.787700  0.343000  0.456510  1.0  -0.6355
  O  O473  1  0.710600  0.509000  0.395670  1.0  -0.6279
  O  O474  1  0.809700  0.498100  0.318780  1.0  -0.6335
  O  O475  1  0.907600  0.457600  0.418480  1.0  -0.6282
  O  O476  1  0.906800  0.340600  0.335690  1.0  -0.6526
  O  O477  1  0.301700  0.846300  0.207270  1.0  -0.631
  O  O478  1  0.209100  0.733100  0.126460  1.0  -0.6235
  O  O479  1  0.368000  0.845300  0.117430  1.0  -0.6317
  O  O480  1  0.212300  0.843000  0.043490  1.0  -0.6357
  O  O481  1  0.289400  0.009000  0.104330  1.0  -0.6271
  O  O482  1  0.190300  0.998100  0.181220  1.0  -0.6333
  O  O483  1  0.092400  0.957600  0.081520  1.0  -0.6281
  O  O484  1  0.093200  0.840600  0.164310  1.0  -0.6536
