# generated using pymatgen
data_ErCu6H53C33N17O8
_symmetry_space_group_name_H-M   'P 1'
_cell_length_a   15.08050000
_cell_length_b   15.68230000
_cell_length_c   27.30240000
_cell_angle_alpha   90.00000000
_cell_angle_beta   101.67000000
_cell_angle_gamma   90.00000000
_symmetry_Int_Tables_number   1
_chemical_formula_structural   ErCu6H53C33N17O8
_chemical_formula_sum   'Er4 Cu24 H212 C132 N68 O32'
_cell_volume   6323.46144116
_cell_formula_units_Z   4
loop_
 _symmetry_equiv_pos_site_id
 _symmetry_equiv_pos_as_xyz
  1  'x, y, z'
loop_
 _atom_site_type_symbol
 _atom_site_label
 _atom_site_symmetry_multiplicity
 _atom_site_fract_x
 _atom_site_fract_y
 _atom_site_fract_z
 _atom_site_occupancy
 _atom_site_charge
  Er  Er1  1  0.780080  0.616270  0.371150  1.0  1.1674
  Er  Er2  1  0.219920  0.116270  0.128850  1.0  1.1737
  Er  Er3  1  0.219920  0.383730  0.628850  1.0  1.1766
  Er  Er4  1  0.780080  0.883730  0.871150  1.0  1.17
  Cu  Cu5  1  0.232340  0.799900  0.621960  1.0  0.4148
  Cu  Cu6  1  0.727270  0.556300  0.657260  1.0  0.4103
  Cu  Cu7  1  0.926500  0.808740  0.665360  1.0  0.496
  Cu  Cu8  1  0.469800  0.976300  0.725610  1.0  0.425
  Cu  Cu9  1  0.731310  0.064740  0.653300  1.0  0.4935
  Cu  Cu10  1  0.745030  0.317840  0.542500  1.0  0.5562
  Cu  Cu11  1  0.767660  0.299900  0.878040  1.0  0.4147
  Cu  Cu12  1  0.272730  0.056300  0.842740  1.0  0.4124
  Cu  Cu13  1  0.073500  0.308740  0.834640  1.0  0.4955
  Cu  Cu14  1  0.530200  0.476300  0.774390  1.0  0.4265
  Cu  Cu15  1  0.268690  0.564740  0.846700  1.0  0.4928
  Cu  Cu16  1  0.254970  0.817840  0.957500  1.0  0.5582
  Cu  Cu17  1  0.767660  0.200100  0.378040  1.0  0.4137
  Cu  Cu18  1  0.272730  0.443700  0.342740  1.0  0.4125
  Cu  Cu19  1  0.073500  0.191260  0.334640  1.0  0.4964
  Cu  Cu20  1  0.530200  0.023700  0.274390  1.0  0.4262
  Cu  Cu21  1  0.268690  0.935260  0.346700  1.0  0.4931
  Cu  Cu22  1  0.254970  0.682160  0.457500  1.0  0.5561
  Cu  Cu23  1  0.232340  0.700100  0.121960  1.0  0.4149
  Cu  Cu24  1  0.727270  0.943700  0.157260  1.0  0.4103
  Cu  Cu25  1  0.926500  0.691260  0.165360  1.0  0.4967
  Cu  Cu26  1  0.469800  0.523700  0.225610  1.0  0.4247
  Cu  Cu27  1  0.731310  0.435260  0.153300  1.0  0.4934
  Cu  Cu28  1  0.745030  0.182160  0.042500  1.0  0.5548
  H  H29  1  0.920800  0.575200  0.288800  1.0  0.0698
  H  H30  1  0.142500  0.610000  0.278700  1.0  0.1072
  H  H31  1  0.083900  0.527600  0.286200  1.0  0.1115
  H  H32  1  0.049000  0.591400  0.240600  1.0  0.1164
  H  H33  1  0.728100  0.609900  0.234400  1.0  0.0771
  H  H34  1  0.584700  0.735900  0.146300  1.0  0.1124
  H  H35  1  0.686700  0.702100  0.153600  1.0  0.1138
  H  H36  1  0.605400  0.635900  0.152200  1.0  0.1167
  H  H37  1  0.545700  0.794500  0.207000  1.0  0.088
  H  H38  1  0.541800  0.735200  0.254200  1.0  0.1016
  H  H39  1  0.620900  0.804200  0.257200  1.0  0.099
  H  H40  1  0.862900  0.804000  0.330500  1.0  0.0309
  H  H41  1  0.690700  0.978800  0.353500  1.0  0.1019
  H  H42  1  0.656700  0.881900  0.351200  1.0  0.0973
  H  H43  1  0.726800  0.915800  0.399300  1.0  0.1013
  H  H44  1  0.785500  0.011600  0.308900  1.0  0.1113
  H  H45  1  0.883200  0.968000  0.323300  1.0  0.1176
  H  H46  1  0.812100  0.936400  0.275000  1.0  0.1073
  H  H47  1  0.549700  0.631200  0.323300  1.0  0.0689
  H  H48  1  0.438500  0.769200  0.415100  1.0  0.1157
  H  H49  1  0.514100  0.702600  0.440800  1.0  0.1071
  H  H50  1  0.543100  0.787600  0.415700  1.0  0.1038
  H  H51  1  0.358700  0.734800  0.348600  1.0  0.0977
  H  H52  1  0.406000  0.728500  0.301200  1.0  0.0833
  H  H53  1  0.377100  0.643500  0.326400  1.0  0.1065
  H  H54  1  0.811000  0.772300  0.463200  1.0  0.0616
  H  H55  1  0.675100  0.689500  0.562800  1.0  0.1081
  H  H56  1  0.648300  0.648000  0.508300  1.0  0.098
  H  H57  1  0.740800  0.621300  0.545000  1.0  0.0969
  H  H58  1  0.716100  0.815700  0.566600  1.0  0.1118
  H  H59  1  0.811700  0.835400  0.552100  1.0  0.1109
  H  H60  1  0.719800  0.862500  0.514900  1.0  0.1072
  H  H61  1  0.675000  0.512900  0.455000  1.0  0.0651
  H  H62  1  0.519600  0.337800  0.377000  1.0  0.1043
  H  H63  1  0.554800  0.411400  0.345100  1.0  0.107
  H  H64  1  0.623300  0.339400  0.371500  1.0  0.1079
  H  H65  1  0.493800  0.371900  0.445900  1.0  0.104
  H  H66  1  0.579800  0.396000  0.488300  1.0  0.0932
  H  H67  1  0.511500  0.469000  0.463100  1.0  0.0854
  H  H68  1  0.864200  0.433100  0.427500  1.0  0.0548
  H  H69  1  0.130000  0.440300  0.453600  1.0  0.0973
  H  H70  1  0.079300  0.498900  0.408600  1.0  0.096
  H  H71  1  0.081700  0.526700  0.465200  1.0  0.0892
  H  H72  1  0.070100  0.328200  0.463300  1.0  0.1025
  H  H73  1  0.977700  0.331200  0.483600  1.0  0.0973
  H  H74  1  0.975800  0.307600  0.426400  1.0  0.0889
  H  H75  1  0.707800  0.431200  0.300500  1.0  0.0444
  H  H76  1  0.802200  0.263800  0.246100  1.0  0.0837
  H  H77  1  0.732200  0.273000  0.282700  1.0  0.0879
  H  H78  1  0.713800  0.321800  0.230100  1.0  0.0827
  H  H79  1  0.924700  0.331400  0.264200  1.0  0.0835
  H  H80  1  0.915300  0.432900  0.260500  1.0  0.1081
  H  H81  1  0.941600  0.387800  0.314100  1.0  0.1003
  H  H82  1  0.079200  0.075200  0.211200  1.0  0.0701
  H  H83  1  0.857500  0.110000  0.221300  1.0  0.11
  H  H84  1  0.916100  0.027600  0.213800  1.0  0.1102
  H  H85  1  0.951000  0.091400  0.259400  1.0  0.1177
  H  H86  1  0.271900  0.109900  0.265600  1.0  0.0775
  H  H87  1  0.415300  0.235900  0.353700  1.0  0.1128
  H  H88  1  0.313300  0.202100  0.346400  1.0  0.112
  H  H89  1  0.394600  0.135900  0.347800  1.0  0.1185
  H  H90  1  0.454300  0.294500  0.293000  1.0  0.0888
  H  H91  1  0.458200  0.235200  0.245800  1.0  0.1019
  H  H92  1  0.379100  0.304200  0.242800  1.0  0.1
  H  H93  1  0.137100  0.304000  0.169500  1.0  0.0311
  H  H94  1  0.309300  0.478800  0.146500  1.0  0.1022
  H  H95  1  0.343300  0.381900  0.148800  1.0  0.0983
  H  H96  1  0.273200  0.415800  0.100700  1.0  0.1008
  H  H97  1  0.214500  0.511600  0.191100  1.0  0.111
  H  H98  1  0.116800  0.468000  0.176700  1.0  0.1189
  H  H99  1  0.187900  0.436400  0.225000  1.0  0.1051
  H  H100  1  0.450300  0.131200  0.176700  1.0  0.071
  H  H101  1  0.561500  0.269200  0.084900  1.0  0.1159
  H  H102  1  0.485900  0.202600  0.059200  1.0  0.1065
  H  H103  1  0.456900  0.287600  0.084300  1.0  0.1051
  H  H104  1  0.641300  0.234800  0.151400  1.0  0.098
  H  H105  1  0.594000  0.228500  0.198800  1.0  0.0832
  H  H106  1  0.622900  0.143500  0.173600  1.0  0.1072
  H  H107  1  0.189000  0.272300  0.036800  1.0  0.0612
  H  H108  1  0.324900  0.189500  0.937200  1.0  0.1081
  H  H109  1  0.351700  0.148000  0.991700  1.0  0.0987
  H  H110  1  0.259200  0.121300  0.955000  1.0  0.0959
  H  H111  1  0.283900  0.315700  0.933400  1.0  0.1101
  H  H112  1  0.188300  0.335400  0.947900  1.0  0.1127
  H  H113  1  0.280200  0.362500  0.985100  1.0  0.1063
  H  H114  1  0.325000  0.012900  0.045000  1.0  0.0649
  H  H115  1  0.480400  0.837800  0.123000  1.0  0.1023
  H  H116  1  0.445200  0.911400  0.154900  1.0  0.1095
  H  H117  1  0.376700  0.839400  0.128500  1.0  0.1083
  H  H118  1  0.506200  0.871900  0.054100  1.0  0.1033
  H  H119  1  0.420200  0.896000  0.011700  1.0  0.0919
  H  H120  1  0.488500  0.969000  0.036900  1.0  0.0857
  H  H121  1  0.135800  0.933100  0.072500  1.0  0.055
  H  H122  1  0.870000  0.940300  0.046400  1.0  0.0983
  H  H123  1  0.920700  0.998900  0.091400  1.0  0.0957
  H  H124  1  0.918300  0.026700  0.034800  1.0  0.0883
  H  H125  1  0.929900  0.828200  0.036700  1.0  0.101
  H  H126  1  0.022300  0.831200  0.016400  1.0  0.0967
  H  H127  1  0.024200  0.807600  0.073600  1.0  0.0894
  H  H128  1  0.292200  0.931200  0.199500  1.0  0.046
  H  H129  1  0.197800  0.763800  0.253900  1.0  0.084
  H  H130  1  0.267800  0.773000  0.217300  1.0  0.087
  H  H131  1  0.286200  0.821800  0.269900  1.0  0.0831
  H  H132  1  0.075300  0.831400  0.235800  1.0  0.0842
  H  H133  1  0.084700  0.932900  0.239500  1.0  0.1081
  H  H134  1  0.058400  0.887800  0.185900  1.0  0.0989
  H  H135  1  0.079200  0.424800  0.711200  1.0  0.0701
  H  H136  1  0.857500  0.390000  0.721300  1.0  0.1103
  H  H137  1  0.916100  0.472400  0.713800  1.0  0.1105
  H  H138  1  0.951000  0.408600  0.759400  1.0  0.1175
  H  H139  1  0.271900  0.390100  0.765600  1.0  0.0772
  H  H140  1  0.415300  0.264100  0.853700  1.0  0.1131
  H  H141  1  0.313300  0.297900  0.846400  1.0  0.112
  H  H142  1  0.394600  0.364100  0.847800  1.0  0.1183
  H  H143  1  0.454300  0.205500  0.793000  1.0  0.0894
  H  H144  1  0.458200  0.264800  0.745800  1.0  0.1022
  H  H145  1  0.379100  0.195800  0.742800  1.0  0.0992
  H  H146  1  0.137100  0.196000  0.669500  1.0  0.0305
  H  H147  1  0.309300  0.021200  0.646500  1.0  0.1016
  H  H148  1  0.343300  0.118100  0.648800  1.0  0.0988
  H  H149  1  0.273200  0.084200  0.600700  1.0  0.1014
  H  H150  1  0.214500  0.988400  0.691100  1.0  0.1096
  H  H151  1  0.116800  0.032000  0.676700  1.0  0.1194
  H  H152  1  0.187900  0.063600  0.725000  1.0  0.1051
  H  H153  1  0.450300  0.368800  0.676700  1.0  0.0712
  H  H154  1  0.561500  0.230800  0.584900  1.0  0.1153
  H  H155  1  0.485900  0.297400  0.559200  1.0  0.1066
  H  H156  1  0.456900  0.212400  0.584300  1.0  0.1049
  H  H157  1  0.641300  0.265200  0.651400  1.0  0.0979
  H  H158  1  0.594000  0.271500  0.698800  1.0  0.0833
  H  H159  1  0.622900  0.356500  0.673600  1.0  0.1086
  H  H160  1  0.189000  0.227700  0.536800  1.0  0.0618
  H  H161  1  0.324900  0.310500  0.437200  1.0  0.1079
  H  H162  1  0.351700  0.352000  0.491700  1.0  0.0991
  H  H163  1  0.259200  0.378700  0.455000  1.0  0.096
  H  H164  1  0.283900  0.184300  0.433400  1.0  0.1109
  H  H165  1  0.188300  0.164600  0.447900  1.0  0.1115
  H  H166  1  0.280200  0.137500  0.485100  1.0  0.1062
  H  H167  1  0.325000  0.487100  0.545000  1.0  0.065
  H  H168  1  0.480400  0.662200  0.623000  1.0  0.1014
  H  H169  1  0.445200  0.588600  0.654900  1.0  0.1097
  H  H170  1  0.376700  0.660600  0.628500  1.0  0.1078
  H  H171  1  0.506200  0.628100  0.554100  1.0  0.1033
  H  H172  1  0.420200  0.604000  0.511700  1.0  0.0926
  H  H173  1  0.488500  0.531000  0.536900  1.0  0.0847
  H  H174  1  0.135800  0.566900  0.572500  1.0  0.0557
  H  H175  1  0.870000  0.559700  0.546400  1.0  0.0983
  H  H176  1  0.920700  0.501100  0.591400  1.0  0.0955
  H  H177  1  0.918300  0.473300  0.534800  1.0  0.088
  H  H178  1  0.929900  0.671800  0.536700  1.0  0.1009
  H  H179  1  0.022300  0.668800  0.516400  1.0  0.0977
  H  H180  1  0.024200  0.692400  0.573600  1.0  0.0897
  H  H181  1  0.292200  0.568800  0.699500  1.0  0.0467
  H  H182  1  0.197800  0.736200  0.753900  1.0  0.0852
  H  H183  1  0.267800  0.727000  0.717300  1.0  0.0872
  H  H184  1  0.286200  0.678200  0.769900  1.0  0.0829
  H  H185  1  0.075300  0.668600  0.735800  1.0  0.084
  H  H186  1  0.084700  0.567100  0.739500  1.0  0.1076
  H  H187  1  0.058400  0.612200  0.685900  1.0  0.0991
  H  H188  1  0.920800  0.924800  0.788800  1.0  0.0703
  H  H189  1  0.142500  0.890000  0.778700  1.0  0.1076
  H  H190  1  0.083900  0.972400  0.786200  1.0  0.1116
  H  H191  1  0.049000  0.908600  0.740600  1.0  0.1165
  H  H192  1  0.728100  0.890100  0.734400  1.0  0.0774
  H  H193  1  0.584700  0.764100  0.646300  1.0  0.1119
  H  H194  1  0.686700  0.797900  0.653600  1.0  0.1136
  H  H195  1  0.605400  0.864100  0.652200  1.0  0.1192
  H  H196  1  0.545700  0.705500  0.707000  1.0  0.0885
  H  H197  1  0.541800  0.764800  0.754200  1.0  0.1015
  H  H198  1  0.620900  0.695800  0.757200  1.0  0.0992
  H  H199  1  0.862900  0.696000  0.830500  1.0  0.031
  H  H200  1  0.690700  0.521200  0.853500  1.0  0.1013
  H  H201  1  0.656700  0.618100  0.851200  1.0  0.0971
  H  H202  1  0.726800  0.584200  0.899300  1.0  0.1015
  H  H203  1  0.785500  0.488400  0.808900  1.0  0.1103
  H  H204  1  0.883200  0.532000  0.823300  1.0  0.1175
  H  H205  1  0.812100  0.563600  0.775000  1.0  0.1064
  H  H206  1  0.549700  0.868800  0.823300  1.0  0.0698
  H  H207  1  0.438500  0.730800  0.915100  1.0  0.1154
  H  H208  1  0.514100  0.797400  0.940800  1.0  0.1075
  H  H209  1  0.543100  0.712400  0.915700  1.0  0.1043
  H  H210  1  0.358700  0.765200  0.848600  1.0  0.0981
  H  H211  1  0.406000  0.771500  0.801200  1.0  0.0836
  H  H212  1  0.377100  0.856500  0.826400  1.0  0.109
  H  H213  1  0.811000  0.727700  0.963200  1.0  0.0616
  H  H214  1  0.675100  0.810500  0.062800  1.0  0.1082
  H  H215  1  0.648300  0.852000  0.008300  1.0  0.0985
  H  H216  1  0.740800  0.878700  0.045000  1.0  0.0962
  H  H217  1  0.716100  0.684300  0.066600  1.0  0.1123
  H  H218  1  0.811700  0.664600  0.052100  1.0  0.1098
  H  H219  1  0.719800  0.637500  0.014900  1.0  0.104
  H  H220  1  0.675000  0.987100  0.955000  1.0  0.0655
  H  H221  1  0.519600  0.162200  0.877000  1.0  0.1036
  H  H222  1  0.554800  0.088600  0.845100  1.0  0.1069
  H  H223  1  0.623300  0.160600  0.871500  1.0  0.1076
  H  H224  1  0.493800  0.128100  0.945900  1.0  0.1039
  H  H225  1  0.579800  0.104000  0.988300  1.0  0.0938
  H  H226  1  0.511500  0.031000  0.963100  1.0  0.0845
  H  H227  1  0.864200  0.066900  0.927500  1.0  0.0555
  H  H228  1  0.130000  0.059700  0.953600  1.0  0.0982
  H  H229  1  0.079300  0.001100  0.908600  1.0  0.0958
  H  H230  1  0.081700  0.973300  0.965200  1.0  0.0899
  H  H231  1  0.070100  0.171800  0.963300  1.0  0.1021
  H  H232  1  0.977700  0.168800  0.983600  1.0  0.0972
  H  H233  1  0.975800  0.192400  0.926400  1.0  0.0894
  H  H234  1  0.707800  0.068800  0.800500  1.0  0.0449
  H  H235  1  0.802200  0.236200  0.746100  1.0  0.0855
  H  H236  1  0.732200  0.227000  0.782700  1.0  0.0873
  H  H237  1  0.713800  0.178200  0.730100  1.0  0.0823
  H  H238  1  0.924700  0.168600  0.764200  1.0  0.0837
  H  H239  1  0.915300  0.067100  0.760500  1.0  0.1071
  H  H240  1  0.941600  0.112200  0.814100  1.0  0.0998
  C  C241  1  0.950100  0.619800  0.309500  1.0  0.2911
  C  C242  1  0.085100  0.692000  0.341700  1.0  -0.0787
  C  C243  1  0.081000  0.587400  0.275600  1.0  -0.156
  C  C244  1  0.692700  0.650300  0.247890  1.0  0.3289
  C  C245  1  0.627900  0.693000  0.162820  1.0  -0.1503
  C  C246  1  0.582000  0.763800  0.235360  1.0  -0.146
  C  C247  1  0.815100  0.818900  0.346830  1.0  0.3081
  C  C248  1  0.708300  0.919900  0.362900  1.0  -0.1293
  C  C249  1  0.819000  0.958000  0.309300  1.0  -0.1432
  C  C250  1  0.558400  0.659400  0.354700  1.0  0.3271
  C  C251  1  0.496700  0.743100  0.413200  1.0  -0.1317
  C  C252  1  0.400500  0.701600  0.332850  1.0  -0.1463
  C  C253  1  0.783900  0.724500  0.475780  1.0  0.3107
  C  C254  1  0.698600  0.668300  0.534190  1.0  -0.1599
  C  C255  1  0.748500  0.819400  0.538970  1.0  -0.1294
  C  C256  1  0.661300  0.481200  0.424800  1.0  0.3335
  C  C257  1  0.571000  0.374700  0.374600  1.0  -0.1606
  C  C258  1  0.540400  0.415100  0.457200  1.0  -0.1327
  C  C259  1  0.916200  0.467600  0.428460  1.0  0.3194
  C  C260  1  0.078200  0.478100  0.442300  1.0  -0.136
  C  C261  1  0.005500  0.342500  0.454800  1.0  -0.1406
  C  C262  1  0.770500  0.437300  0.300820  1.0  0.3161
  C  C263  1  0.760600  0.302700  0.258300  1.0  -0.1389
  C  C264  1  0.905700  0.382500  0.280000  1.0  -0.1412
  C  C265  1  0.049900  0.119800  0.190500  1.0  0.2902
  C  C266  1  0.914900  0.192000  0.158300  1.0  -0.078
  C  C267  1  0.919000  0.087400  0.224400  1.0  -0.1551
  C  C268  1  0.307300  0.150300  0.252110  1.0  0.328
  C  C269  1  0.372100  0.193000  0.337180  1.0  -0.1514
  C  C270  1  0.418000  0.263800  0.264640  1.0  -0.146
  C  C271  1  0.184900  0.318900  0.153170  1.0  0.3076
  C  C272  1  0.291700  0.419900  0.137100  1.0  -0.1278
  C  C273  1  0.181000  0.458000  0.190700  1.0  -0.143
  C  C274  1  0.441600  0.159400  0.145300  1.0  0.3274
  C  C275  1  0.503300  0.243100  0.086800  1.0  -0.1301
  C  C276  1  0.599500  0.201600  0.167150  1.0  -0.1474
  C  C277  1  0.216100  0.224500  0.024220  1.0  0.3113
  C  C278  1  0.301400  0.168300  0.965810  1.0  -0.1614
  C  C279  1  0.251500  0.319400  0.961030  1.0  -0.1294
  C  C280  1  0.338700  0.981200  0.075200  1.0  0.3338
  C  C281  1  0.429000  0.874700  0.125400  1.0  -0.1607
  C  C282  1  0.459600  0.915100  0.042800  1.0  -0.1338
  C  C283  1  0.083800  0.967600  0.071540  1.0  0.3195
  C  C284  1  0.921800  0.978100  0.057700  1.0  -0.1362
  C  C285  1  0.994500  0.842500  0.045200  1.0  -0.1408
  C  C286  1  0.229500  0.937300  0.199180  1.0  0.3149
  C  C287  1  0.239400  0.802700  0.241700  1.0  -0.1401
  C  C288  1  0.094300  0.882500  0.220000  1.0  -0.1389
  C  C289  1  0.049900  0.380200  0.690500  1.0  0.2899
  C  C290  1  0.914900  0.308000  0.658300  1.0  -0.079
  C  C291  1  0.919000  0.412600  0.724400  1.0  -0.1553
  C  C292  1  0.307300  0.349700  0.752110  1.0  0.3282
  C  C293  1  0.372100  0.307000  0.837180  1.0  -0.1516
  C  C294  1  0.418000  0.236200  0.764640  1.0  -0.1469
  C  C295  1  0.184900  0.181100  0.653170  1.0  0.3076
  C  C296  1  0.291700  0.080100  0.637100  1.0  -0.1275
  C  C297  1  0.181000  0.042000  0.690700  1.0  -0.1424
  C  C298  1  0.441600  0.340600  0.645300  1.0  0.3271
  C  C299  1  0.503300  0.256900  0.586800  1.0  -0.1299
  C  C300  1  0.599500  0.298400  0.667150  1.0  -0.1469
  C  C301  1  0.216100  0.275500  0.524220  1.0  0.3111
  C  C302  1  0.301400  0.331700  0.465810  1.0  -0.1614
  C  C303  1  0.251500  0.180600  0.461030  1.0  -0.13
  C  C304  1  0.338700  0.518800  0.575200  1.0  0.3339
  C  C305  1  0.429000  0.625300  0.625400  1.0  -0.1602
  C  C306  1  0.459600  0.584900  0.542800  1.0  -0.1332
  C  C307  1  0.083800  0.532400  0.571540  1.0  0.319
  C  C308  1  0.921800  0.521900  0.557700  1.0  -0.1359
  C  C309  1  0.994500  0.657500  0.545200  1.0  -0.1406
  C  C310  1  0.229500  0.562700  0.699180  1.0  0.3146
  C  C311  1  0.239400  0.697300  0.741700  1.0  -0.1396
  C  C312  1  0.094300  0.617500  0.720000  1.0  -0.1391
  C  C313  1  0.950100  0.880200  0.809500  1.0  0.2912
  C  C314  1  0.085100  0.808000  0.841700  1.0  -0.0803
  C  C315  1  0.081000  0.912600  0.775600  1.0  -0.1561
  C  C316  1  0.692700  0.849700  0.747890  1.0  0.329
  C  C317  1  0.627900  0.807000  0.662820  1.0  -0.1502
  C  C318  1  0.582000  0.736200  0.735360  1.0  -0.1465
  C  C319  1  0.815100  0.681100  0.846830  1.0  0.3087
  C  C320  1  0.708300  0.580100  0.862900  1.0  -0.1294
  C  C321  1  0.819000  0.542000  0.809300  1.0  -0.1425
  C  C322  1  0.558400  0.840600  0.854700  1.0  0.3268
  C  C323  1  0.496700  0.756900  0.913200  1.0  -0.1314
  C  C324  1  0.400500  0.798400  0.832850  1.0  -0.1457
  C  C325  1  0.783900  0.775500  0.975780  1.0  0.3116
  C  C326  1  0.698600  0.831700  0.034190  1.0  -0.1599
  C  C327  1  0.748500  0.680600  0.038970  1.0  -0.1302
  C  C328  1  0.661300  0.018800  0.924800  1.0  0.3333
  C  C329  1  0.571000  0.125300  0.874600  1.0  -0.1598
  C  C330  1  0.540400  0.084900  0.957200  1.0  -0.1325
  C  C331  1  0.916200  0.032400  0.928460  1.0  0.3196
  C  C332  1  0.078200  0.021900  0.942300  1.0  -0.1366
  C  C333  1  0.005500  0.157500  0.954800  1.0  -0.1398
  C  C334  1  0.770500  0.062700  0.800820  1.0  0.316
  C  C335  1  0.760600  0.197300  0.758300  1.0  -0.1382
  C  C336  1  0.905700  0.117500  0.780000  1.0  -0.1413
  C  C337  1  0.042400  0.811900  0.648100  1.0  0.0401
  C  C338  1  0.814100  0.644700  0.668450  1.0  -0.055
  C  C339  1  0.336700  0.847700  0.662590  1.0  -0.0962
  C  C340  1  0.640000  0.527300  0.695830  1.0  -0.1476
  C  C341  1  0.240200  0.710900  0.522060  1.0  0.0143
  C  C342  1  0.862900  0.912100  0.672090  1.0  -0.0803
  C  C343  1  0.727800  0.420700  0.575710  1.0  -0.0869
  C  C344  1  0.568500  0.022200  0.701940  1.0  0.0142
  C  C345  1  0.739500  0.158200  0.610660  1.0  0.0949
  C  C346  1  0.957600  0.311900  0.851900  1.0  0.0399
  C  C347  1  0.185900  0.144700  0.831550  1.0  -0.0546
  C  C348  1  0.663300  0.347700  0.837410  1.0  -0.099
  C  C349  1  0.360000  0.027300  0.804170  1.0  -0.1483
  C  C350  1  0.759800  0.210900  0.977940  1.0  0.0144
  C  C351  1  0.137100  0.412100  0.827910  1.0  -0.0828
  C  C352  1  0.272200  0.920700  0.924290  1.0  -0.0869
  C  C353  1  0.431500  0.522200  0.798060  1.0  0.0107
  C  C354  1  0.260500  0.658200  0.889340  1.0  0.0916
  C  C355  1  0.957600  0.188100  0.351900  1.0  0.0404
  C  C356  1  0.185900  0.355300  0.331550  1.0  -0.0554
  C  C357  1  0.663300  0.152300  0.337410  1.0  -0.099
  C  C358  1  0.360000  0.472700  0.304170  1.0  -0.1483
  C  C359  1  0.759800  0.289100  0.477940  1.0  0.0115
  C  C360  1  0.137100  0.087900  0.327910  1.0  -0.0821
  C  C361  1  0.272200  0.579300  0.424290  1.0  -0.0857
  C  C362  1  0.431500  0.977800  0.298060  1.0  0.0114
  C  C363  1  0.260500  0.841800  0.389340  1.0  0.0912
  C  C364  1  0.042400  0.688100  0.148100  1.0  0.0398
  C  C365  1  0.814100  0.855300  0.168450  1.0  -0.0552
  C  C366  1  0.336700  0.652300  0.162590  1.0  -0.0961
  C  C367  1  0.640000  0.972700  0.195830  1.0  -0.147
  C  C368  1  0.240200  0.789100  0.022060  1.0  0.0121
  C  C369  1  0.862900  0.587900  0.172090  1.0  -0.0801
  C  C370  1  0.727800  0.079300  0.075710  1.0  -0.0854
  C  C371  1  0.568500  0.477800  0.201940  1.0  0.0149
  C  C372  1  0.739500  0.341800  0.110660  1.0  0.0957
  N  N373  1  0.032500  0.637000  0.307090  1.0  0.1076
  N  N374  1  0.638100  0.700600  0.216970  1.0  -0.0652
  N  N375  1  0.783100  0.895100  0.340000  1.0  -0.0233
  N  N376  1  0.488800  0.698600  0.366020  1.0  -0.0436
  N  N377  1  0.745600  0.736800  0.514090  1.0  -0.0569
  N  N378  1  0.593800  0.427300  0.419240  1.0  -0.039
  N  N379  1  0.995100  0.431800  0.441520  1.0  -0.0413
  N  N380  1  0.810300  0.375700  0.281810  1.0  -0.0255
  N  N381  1  0.967500  0.137000  0.192910  1.0  0.1093
  N  N382  1  0.361900  0.200600  0.283030  1.0  -0.0647
  N  N383  1  0.216900  0.395100  0.160000  1.0  -0.0242
  N  N384  1  0.511200  0.198600  0.133980  1.0  -0.0454
  N  N385  1  0.254400  0.236800  0.985910  1.0  -0.0576
  N  N386  1  0.406200  0.927300  0.080760  1.0  -0.0386
  N  N387  1  0.004900  0.931800  0.058480  1.0  -0.0415
  N  N388  1  0.189700  0.875700  0.218190  1.0  -0.0254
  N  N389  1  0.967500  0.363000  0.692910  1.0  0.1064
  N  N390  1  0.361900  0.299400  0.783030  1.0  -0.0645
  N  N391  1  0.216900  0.104900  0.660000  1.0  -0.0249
  N  N392  1  0.511200  0.301400  0.633980  1.0  -0.045
  N  N393  1  0.254400  0.263200  0.485910  1.0  -0.0583
  N  N394  1  0.406200  0.572700  0.580760  1.0  -0.0387
  N  N395  1  0.004900  0.568200  0.558480  1.0  -0.0417
  N  N396  1  0.189700  0.624300  0.718190  1.0  -0.0252
  N  N397  1  0.032500  0.863000  0.807090  1.0  0.1058
  N  N398  1  0.638100  0.799400  0.716970  1.0  -0.0648
  N  N399  1  0.783100  0.604900  0.840000  1.0  -0.0242
  N  N400  1  0.488800  0.801400  0.866020  1.0  -0.0431
  N  N401  1  0.745600  0.763200  0.014090  1.0  -0.0578
  N  N402  1  0.593800  0.072700  0.919240  1.0  -0.0391
  N  N403  1  0.995100  0.068200  0.941520  1.0  -0.041
  N  N404  1  0.810300  0.124300  0.781810  1.0  -0.0251
  N  N405  1  0.112500  0.812400  0.636960  1.0  -0.4188
  N  N406  1  0.862000  0.703300  0.671510  1.0  -0.5008
  N  N407  1  0.396400  0.883300  0.687470  1.0  -0.4318
  N  N408  1  0.591800  0.506700  0.721600  1.0  -0.4138
  N  N409  1  0.235000  0.737400  0.561340  1.0  -0.4437
  N  N410  1  0.818200  0.972600  0.668960  1.0  -0.3998
  N  N411  1  0.722500  0.478900  0.600600  1.0  -0.4468
  N  N412  1  0.628100  0.045900  0.685380  1.0  -0.3782
  N  N413  1  0.744600  0.216400  0.585290  1.0  -0.3952
  N  N414  1  0.887500  0.312400  0.863040  1.0  -0.418
  N  N415  1  0.138000  0.203300  0.828490  1.0  -0.5016
  N  N416  1  0.603600  0.383300  0.812530  1.0  -0.4336
  N  N417  1  0.408200  0.006700  0.778400  1.0  -0.4133
  N  N418  1  0.765000  0.237400  0.938660  1.0  -0.4444
  N  N419  1  0.181800  0.472600  0.831040  1.0  -0.4034
  N  N420  1  0.277500  0.978900  0.899400  1.0  -0.4462
  N  N421  1  0.371900  0.545900  0.814620  1.0  -0.3808
  N  N422  1  0.255400  0.716400  0.914710  1.0  -0.3971
  N  N423  1  0.887500  0.187600  0.363040  1.0  -0.4189
  N  N424  1  0.138000  0.296700  0.328490  1.0  -0.5011
  N  N425  1  0.603600  0.116700  0.312530  1.0  -0.4338
  N  N426  1  0.408200  0.493300  0.278400  1.0  -0.4134
  N  N427  1  0.765000  0.262600  0.438660  1.0  -0.4451
  N  N428  1  0.181800  0.027400  0.331040  1.0  -0.3989
  N  N429  1  0.277500  0.521100  0.399400  1.0  -0.445
  N  N430  1  0.371900  0.954100  0.314620  1.0  -0.3802
  N  N431  1  0.255400  0.783600  0.414710  1.0  -0.3967
  N  N432  1  0.112500  0.687600  0.136960  1.0  -0.4174
  N  N433  1  0.862000  0.796700  0.171510  1.0  -0.4992
  N  N434  1  0.396400  0.616700  0.187470  1.0  -0.4321
  N  N435  1  0.591800  0.993300  0.221600  1.0  -0.4138
  N  N436  1  0.235000  0.762600  0.061340  1.0  -0.4448
  N  N437  1  0.818200  0.527400  0.168960  1.0  -0.3984
  N  N438  1  0.722500  0.021100  0.100600  1.0  -0.4456
  N  N439  1  0.628100  0.454100  0.185380  1.0  -0.3787
  N  N440  1  0.744600  0.283600  0.085290  1.0  -0.3956
  O  O441  1  0.905070  0.657820  0.337220  1.0  -0.6464
  O  O442  1  0.700100  0.653400  0.293650  1.0  -0.6232
  O  O443  1  0.789000  0.763850  0.372750  1.0  -0.6153
  O  O444  1  0.634720  0.656300  0.381580  1.0  -0.6201
  O  O445  1  0.787370  0.654140  0.454420  1.0  -0.6383
  O  O446  1  0.708740  0.493740  0.393220  1.0  -0.625
  O  O447  1  0.904250  0.543850  0.417190  1.0  -0.6131
  O  O448  1  0.808200  0.503530  0.319310  1.0  -0.6194
  O  O449  1  0.094930  0.157820  0.162780  1.0  -0.6453
  O  O450  1  0.299900  0.153400  0.206350  1.0  -0.6217
  O  O451  1  0.211000  0.263850  0.127250  1.0  -0.6149
  O  O452  1  0.365280  0.156300  0.118420  1.0  -0.6205
  O  O453  1  0.212630  0.154140  0.045580  1.0  -0.6383
  O  O454  1  0.291260  0.993740  0.106780  1.0  -0.624
  O  O455  1  0.095750  0.043850  0.082810  1.0  -0.6139
  O  O456  1  0.191800  0.003530  0.180690  1.0  -0.6187
  O  O457  1  0.094930  0.342180  0.662780  1.0  -0.6449
  O  O458  1  0.299900  0.346600  0.706350  1.0  -0.6219
  O  O459  1  0.211000  0.236150  0.627250  1.0  -0.6155
  O  O460  1  0.365280  0.343700  0.618420  1.0  -0.6206
  O  O461  1  0.212630  0.345860  0.545580  1.0  -0.6389
  O  O462  1  0.291260  0.506260  0.606780  1.0  -0.6239
  O  O463  1  0.095750  0.456150  0.582810  1.0  -0.6145
  O  O464  1  0.191800  0.496470  0.680690  1.0  -0.6188
  O  O465  1  0.905070  0.842180  0.837220  1.0  -0.6459
  O  O466  1  0.700100  0.846600  0.793650  1.0  -0.6235
  O  O467  1  0.789000  0.736150  0.872750  1.0  -0.6153
  O  O468  1  0.634720  0.843700  0.881580  1.0  -0.6201
  O  O469  1  0.787370  0.845860  0.954420  1.0  -0.6382
  O  O470  1  0.708740  0.006260  0.893220  1.0  -0.6252
  O  O471  1  0.904250  0.956150  0.917190  1.0  -0.6147
  O  O472  1  0.808200  0.996470  0.819310  1.0  -0.6188
