# generated using pymatgen
data_CeH52C44(N3O7)2
_symmetry_space_group_name_H-M   'P 1'
_cell_length_a   15.97420000
_cell_length_b   15.97420000
_cell_length_c   19.43830000
_cell_angle_alpha   90.00000000
_cell_angle_beta   90.00000000
_cell_angle_gamma   120.00000000
_symmetry_Int_Tables_number   1
_chemical_formula_structural   CeH52C44(N3O7)2
_chemical_formula_sum   'Ce3 H156 C132 N18 O42'
_cell_volume   4295.63277540
_cell_formula_units_Z   3
loop_
 _symmetry_equiv_pos_site_id
 _symmetry_equiv_pos_as_xyz
  1  'x, y, z'
loop_
 _atom_site_type_symbol
 _atom_site_label
 _atom_site_symmetry_multiplicity
 _atom_site_fract_x
 _atom_site_fract_y
 _atom_site_fract_z
 _atom_site_occupancy
 _atom_site_charge
  Ce  Ce1  1  0.000000  0.500000  0.333333  1.0  2.2151
  Ce  Ce2  1  0.500000  0.500000  0.666667  1.0  2.2149
  Ce  Ce3  1  0.500000  0.000000  0.000000  1.0  2.2148
  H  H4  1  0.131200  0.262100  0.207100  1.0  0.1202
  H  H5  1  0.278700  0.286500  0.247200  1.0  0.1022
  H  H6  1  0.358100  0.390800  0.332100  1.0  0.1155
  H  H7  1  0.375100  0.516200  0.411300  1.0  0.1129
  H  H8  1  0.409700  0.645500  0.482000  1.0  0.0748
  H  H9  1  0.430200  0.743800  0.389700  1.0  0.0963
  H  H10  1  0.334600  0.744200  0.406800  1.0  0.0818
  H  H11  1  0.462300  0.890100  0.439900  1.0  0.0983
  H  H12  1  0.506500  0.839000  0.483700  1.0  0.0881
  H  H13  1  0.019400  0.268700  0.170700  1.0  0.1103
  H  H14  1  0.936400  0.293000  0.180700  1.0  0.1223
  H  H15  1  0.940200  0.214800  0.227200  1.0  0.1284
  H  H16  1  0.245000  0.556000  0.415000  1.0  0.2404
  H  H17  1  0.737900  0.869100  0.540430  1.0  0.1211
  H  H18  1  0.713500  0.992200  0.580530  1.0  0.1019
  H  H19  1  0.609200  0.967300  0.665430  1.0  0.1149
  H  H20  1  0.483800  0.858900  0.744630  1.0  0.1092
  H  H21  1  0.354500  0.764200  0.815330  1.0  0.0718
  H  H22  1  0.256200  0.686400  0.723030  1.0  0.0974
  H  H23  1  0.255800  0.590400  0.740130  1.0  0.081
  H  H24  1  0.109900  0.572200  0.773230  1.0  0.0985
  H  H25  1  0.161000  0.667500  0.817030  1.0  0.0866
  H  H26  1  0.731300  0.750700  0.504030  1.0  0.1108
  H  H27  1  0.707000  0.643400  0.514030  1.0  0.1271
  H  H28  1  0.785200  0.725400  0.560530  1.0  0.1258
  H  H29  1  0.444000  0.689000  0.748330  1.0  0.2421
  H  H30  1  0.130900  0.868800  0.873770  1.0  0.1211
  H  H31  1  0.007800  0.721300  0.913870  1.0  0.1024
  H  H32  1  0.032700  0.641900  0.998770  1.0  0.1148
  H  H33  1  0.141100  0.624900  0.077970  1.0  0.1108
  H  H34  1  0.235800  0.590300  0.148670  1.0  0.0717
  H  H35  1  0.313600  0.569800  0.056370  1.0  0.0965
  H  H36  1  0.409600  0.665400  0.073470  1.0  0.0819
  H  H37  1  0.427800  0.537700  0.106570  1.0  0.0934
  H  H38  1  0.332500  0.493500  0.150370  1.0  0.0832
  H  H39  1  0.249300  0.980600  0.837370  1.0  0.1105
  H  H40  1  0.356600  0.063600  0.847370  1.0  0.1228
  H  H41  1  0.274600  0.059800  0.893870  1.0  0.1303
  H  H42  1  0.311000  0.755000  0.081670  1.0  0.2429
  H  H43  1  0.868800  0.737900  0.207100  1.0  0.1229
  H  H44  1  0.721300  0.713500  0.247200  1.0  0.1031
  H  H45  1  0.641900  0.609200  0.332100  1.0  0.1143
  H  H46  1  0.624900  0.483800  0.411300  1.0  0.1135
  H  H47  1  0.590300  0.354500  0.482000  1.0  0.0727
  H  H48  1  0.569800  0.256200  0.389700  1.0  0.0972
  H  H49  1  0.665400  0.255800  0.406800  1.0  0.0815
  H  H50  1  0.537700  0.109900  0.439900  1.0  0.0968
  H  H51  1  0.493500  0.161000  0.483700  1.0  0.0875
  H  H52  1  0.980600  0.731300  0.170700  1.0  0.1102
  H  H53  1  0.063600  0.707000  0.180700  1.0  0.1235
  H  H54  1  0.059800  0.785200  0.227200  1.0  0.1288
  H  H55  1  0.755000  0.444000  0.415000  1.0  0.2412
  H  H56  1  0.262100  0.130900  0.540430  1.0  0.1204
  H  H57  1  0.286500  0.007800  0.580530  1.0  0.102
  H  H58  1  0.390800  0.032700  0.665430  1.0  0.1148
  H  H59  1  0.516200  0.141100  0.744630  1.0  0.1094
  H  H60  1  0.645500  0.235800  0.815330  1.0  0.0719
  H  H61  1  0.743800  0.313600  0.723030  1.0  0.0952
  H  H62  1  0.744200  0.409600  0.740130  1.0  0.0833
  H  H63  1  0.890100  0.427800  0.773230  1.0  0.0974
  H  H64  1  0.839000  0.332500  0.817030  1.0  0.0868
  H  H65  1  0.268700  0.249300  0.504030  1.0  0.1111
  H  H66  1  0.293000  0.356600  0.514030  1.0  0.1232
  H  H67  1  0.214800  0.274600  0.560530  1.0  0.1266
  H  H68  1  0.556000  0.311000  0.748330  1.0  0.2427
  H  H69  1  0.869100  0.131200  0.873770  1.0  0.1192
  H  H70  1  0.992200  0.278700  0.913870  1.0  0.103
  H  H71  1  0.967300  0.358100  0.998770  1.0  0.1151
  H  H72  1  0.858900  0.375100  0.077970  1.0  0.1094
  H  H73  1  0.764200  0.409700  0.148670  1.0  0.0711
  H  H74  1  0.686400  0.430200  0.056370  1.0  0.0967
  H  H75  1  0.590400  0.334600  0.073470  1.0  0.0817
  H  H76  1  0.572200  0.462300  0.106570  1.0  0.094
  H  H77  1  0.667500  0.506500  0.150370  1.0  0.0839
  H  H78  1  0.750700  0.019400  0.837370  1.0  0.1115
  H  H79  1  0.643400  0.936400  0.847370  1.0  0.124
  H  H80  1  0.725400  0.940200  0.893870  1.0  0.1306
  H  H81  1  0.689000  0.245000  0.081670  1.0  0.2421
  H  H82  1  0.262100  0.131200  0.126230  1.0  0.1215
  H  H83  1  0.286500  0.278700  0.086130  1.0  0.1032
  H  H84  1  0.390800  0.358100  0.001230  1.0  0.1153
  H  H85  1  0.516200  0.375100  0.922030  1.0  0.1105
  H  H86  1  0.645500  0.409700  0.851330  1.0  0.0717
  H  H87  1  0.743800  0.430200  0.943630  1.0  0.095
  H  H88  1  0.744200  0.334600  0.926530  1.0  0.0813
  H  H89  1  0.890100  0.462300  0.893430  1.0  0.0927
  H  H90  1  0.839000  0.506500  0.849630  1.0  0.0848
  H  H91  1  0.268700  0.019400  0.162630  1.0  0.1122
  H  H92  1  0.293000  0.936400  0.152630  1.0  0.1236
  H  H93  1  0.214800  0.940200  0.106130  1.0  0.1299
  H  H94  1  0.556000  0.245000  0.918330  1.0  0.2425
  H  H95  1  0.869100  0.737900  0.792900  1.0  0.1225
  H  H96  1  0.992200  0.713500  0.752800  1.0  0.104
  H  H97  1  0.967300  0.609200  0.667900  1.0  0.1155
  H  H98  1  0.858900  0.483800  0.588700  1.0  0.1122
  H  H99  1  0.764200  0.354500  0.518000  1.0  0.0749
  H  H100  1  0.686400  0.256200  0.610300  1.0  0.0969
  H  H101  1  0.590400  0.255800  0.593200  1.0  0.0811
  H  H102  1  0.572200  0.109900  0.560100  1.0  0.0989
  H  H103  1  0.667500  0.161000  0.516300  1.0  0.089
  H  H104  1  0.750700  0.731300  0.829300  1.0  0.1117
  H  H105  1  0.643400  0.707000  0.819300  1.0  0.1213
  H  H106  1  0.725400  0.785200  0.772800  1.0  0.1294
  H  H107  1  0.689000  0.444000  0.585000  1.0  0.2407
  H  H108  1  0.868800  0.130900  0.459570  1.0  0.1215
  H  H109  1  0.721300  0.007800  0.419470  1.0  0.1024
  H  H110  1  0.641900  0.032700  0.334570  1.0  0.1149
  H  H111  1  0.624900  0.141100  0.255370  1.0  0.1093
  H  H112  1  0.590300  0.235800  0.184670  1.0  0.0718
  H  H113  1  0.569800  0.313600  0.276970  1.0  0.0967
  H  H114  1  0.665400  0.409600  0.259870  1.0  0.0813
  H  H115  1  0.537700  0.427800  0.226770  1.0  0.0979
  H  H116  1  0.493500  0.332500  0.182970  1.0  0.0875
  H  H117  1  0.980600  0.249300  0.495970  1.0  0.112
  H  H118  1  0.063600  0.356600  0.485970  1.0  0.1231
  H  H119  1  0.059800  0.274600  0.439470  1.0  0.1246
  H  H120  1  0.755000  0.311000  0.251670  1.0  0.2413
  H  H121  1  0.737900  0.868800  0.126230  1.0  0.1203
  H  H122  1  0.713500  0.721300  0.086130  1.0  0.1037
  H  H123  1  0.609200  0.641900  0.001230  1.0  0.1148
  H  H124  1  0.483800  0.624900  0.922030  1.0  0.1105
  H  H125  1  0.354500  0.590300  0.851330  1.0  0.0721
  H  H126  1  0.256200  0.569800  0.943630  1.0  0.0965
  H  H127  1  0.255800  0.665400  0.926530  1.0  0.0821
  H  H128  1  0.109900  0.537700  0.893430  1.0  0.0929
  H  H129  1  0.161000  0.493500  0.849630  1.0  0.0834
  H  H130  1  0.731300  0.980600  0.162630  1.0  0.1118
  H  H131  1  0.707000  0.063600  0.152630  1.0  0.123
  H  H132  1  0.785200  0.059800  0.106130  1.0  0.1301
  H  H133  1  0.444000  0.755000  0.918330  1.0  0.2435
  H  H134  1  0.130900  0.262100  0.792900  1.0  0.1217
  H  H135  1  0.007800  0.286500  0.752800  1.0  0.1028
  H  H136  1  0.032700  0.390800  0.667900  1.0  0.1144
  H  H137  1  0.141100  0.516200  0.588700  1.0  0.1138
  H  H138  1  0.235800  0.645500  0.518000  1.0  0.0727
  H  H139  1  0.313600  0.743800  0.610300  1.0  0.0969
  H  H140  1  0.409600  0.744200  0.593200  1.0  0.0814
  H  H141  1  0.427800  0.890100  0.560100  1.0  0.0974
  H  H142  1  0.332500  0.839000  0.516300  1.0  0.088
  H  H143  1  0.249300  0.268700  0.829300  1.0  0.1119
  H  H144  1  0.356600  0.293000  0.819300  1.0  0.1234
  H  H145  1  0.274600  0.214800  0.772800  1.0  0.1263
  H  H146  1  0.311000  0.556000  0.585000  1.0  0.2428
  H  H147  1  0.131200  0.869100  0.459570  1.0  0.1217
  H  H148  1  0.278700  0.992200  0.419470  1.0  0.1033
  H  H149  1  0.358100  0.967300  0.334570  1.0  0.1144
  H  H150  1  0.375100  0.858900  0.255370  1.0  0.109
  H  H151  1  0.409700  0.764200  0.184670  1.0  0.0719
  H  H152  1  0.430200  0.686400  0.276970  1.0  0.0955
  H  H153  1  0.334600  0.590400  0.259870  1.0  0.0825
  H  H154  1  0.462300  0.572200  0.226770  1.0  0.0975
  H  H155  1  0.506500  0.667500  0.182970  1.0  0.087
  H  H156  1  0.019400  0.750700  0.495970  1.0  0.1121
  H  H157  1  0.936400  0.643400  0.485970  1.0  0.1269
  H  H158  1  0.940200  0.725400  0.439470  1.0  0.1273
  H  H159  1  0.245000  0.689000  0.251670  1.0  0.2436
  C  C160  1  0.172600  0.427400  0.321400  1.0  0.3388
  C  C161  1  0.123800  0.357400  0.270500  1.0  0.2334
  C  C162  1  0.163300  0.306300  0.242200  1.0  -0.2374
  C  C163  1  0.252300  0.321400  0.266600  1.0  -0.0823
  C  C164  1  0.299900  0.383600  0.316400  1.0  -0.1214
  C  C165  1  0.262500  0.439800  0.346300  1.0  -0.069
  C  C166  1  0.317200  0.511200  0.396800  1.0  0.0501
  C  C167  1  0.353900  0.650900  0.467400  1.0  0.09
  C  C168  1  0.389800  0.743600  0.427000  1.0  -0.1233
  C  C169  1  0.446500  0.834300  0.468500  1.0  -0.1122
  C  C170  1  0.978400  0.275200  0.203800  1.0  -0.0367
  C  C171  1  0.572600  0.745200  0.654730  1.0  0.3383
  C  C172  1  0.642600  0.766400  0.603830  1.0  0.2356
  C  C173  1  0.693700  0.857000  0.575530  1.0  -0.2337
  C  C174  1  0.678600  0.930900  0.599930  1.0  -0.0784
  C  C175  1  0.616400  0.916300  0.649730  1.0  -0.1194
  C  C176  1  0.560200  0.822700  0.679630  1.0  -0.0687
  C  C177  1  0.488800  0.806000  0.730130  1.0  0.0515
  C  C178  1  0.349100  0.703000  0.800730  1.0  0.0912
  C  C179  1  0.256400  0.646200  0.760330  1.0  -0.1234
  C  C180  1  0.165700  0.612200  0.801830  1.0  -0.1095
  C  C181  1  0.724800  0.703200  0.537130  1.0  -0.0372
  C  C182  1  0.254800  0.827400  0.988070  1.0  0.3373
  C  C183  1  0.233600  0.876200  0.937170  1.0  0.2351
  C  C184  1  0.143000  0.836700  0.908870  1.0  -0.2349
  C  C185  1  0.069100  0.747700  0.933270  1.0  -0.0871
  C  C186  1  0.083700  0.700100  0.983070  1.0  -0.1173
  C  C187  1  0.177300  0.737500  0.012970  1.0  -0.0675
  C  C188  1  0.194000  0.682800  0.063470  1.0  0.0518
  C  C189  1  0.297000  0.646100  0.134070  1.0  0.0922
  C  C190  1  0.353800  0.610200  0.093670  1.0  -0.1264
  C  C191  1  0.387800  0.553500  0.135170  1.0  -0.1129
  C  C192  1  0.296800  0.021600  0.870470  1.0  -0.0362
  C  C193  1  0.827400  0.572600  0.321400  1.0  0.34
  C  C194  1  0.876200  0.642600  0.270500  1.0  0.2334
  C  C195  1  0.836700  0.693700  0.242200  1.0  -0.235
  C  C196  1  0.747700  0.678600  0.266600  1.0  -0.0822
  C  C197  1  0.700100  0.616400  0.316400  1.0  -0.1206
  C  C198  1  0.737500  0.560200  0.346300  1.0  -0.0666
  C  C199  1  0.682800  0.488800  0.396800  1.0  0.0502
  C  C200  1  0.646100  0.349100  0.467400  1.0  0.0892
  C  C201  1  0.610200  0.256400  0.427000  1.0  -0.1231
  C  C202  1  0.553500  0.165700  0.468500  1.0  -0.1104
  C  C203  1  0.021600  0.724800  0.203800  1.0  -0.0367
  C  C204  1  0.427400  0.254800  0.654730  1.0  0.3386
  C  C205  1  0.357400  0.233600  0.603830  1.0  0.233
  C  C206  1  0.306300  0.143000  0.575530  1.0  -0.235
  C  C207  1  0.321400  0.069100  0.599930  1.0  -0.0777
  C  C208  1  0.383600  0.083700  0.649730  1.0  -0.1224
  C  C209  1  0.439800  0.177300  0.679630  1.0  -0.0673
  C  C210  1  0.511200  0.194000  0.730130  1.0  0.0496
  C  C211  1  0.650900  0.297000  0.800730  1.0  0.0908
  C  C212  1  0.743600  0.353800  0.760330  1.0  -0.1245
  C  C213  1  0.834300  0.387800  0.801830  1.0  -0.1097
  C  C214  1  0.275200  0.296800  0.537130  1.0  -0.0355
  C  C215  1  0.745200  0.172600  0.988070  1.0  0.3375
  C  C216  1  0.766400  0.123800  0.937170  1.0  0.2373
  C  C217  1  0.857000  0.163300  0.908870  1.0  -0.2357
  C  C218  1  0.930900  0.252300  0.933270  1.0  -0.0855
  C  C219  1  0.916300  0.299900  0.983070  1.0  -0.1176
  C  C220  1  0.822700  0.262500  0.012970  1.0  -0.0686
  C  C221  1  0.806000  0.317200  0.063470  1.0  0.0541
  C  C222  1  0.703000  0.353900  0.134070  1.0  0.0925
  C  C223  1  0.646200  0.389800  0.093670  1.0  -0.1251
  C  C224  1  0.612200  0.446500  0.135170  1.0  -0.1111
  C  C225  1  0.703200  0.978400  0.870470  1.0  -0.0372
  C  C226  1  0.427400  0.172600  0.011930  1.0  0.336
  C  C227  1  0.357400  0.123800  0.062830  1.0  0.2343
  C  C228  1  0.306300  0.163300  0.091130  1.0  -0.2361
  C  C229  1  0.321400  0.252300  0.066730  1.0  -0.0877
  C  C230  1  0.383600  0.299900  0.016930  1.0  -0.1175
  C  C231  1  0.439800  0.262500  0.987030  1.0  -0.0677
  C  C232  1  0.511200  0.317200  0.936530  1.0  0.0528
  C  C233  1  0.650900  0.353900  0.865930  1.0  0.0922
  C  C234  1  0.743600  0.389800  0.906330  1.0  -0.1279
  C  C235  1  0.834300  0.446500  0.864830  1.0  -0.1136
  C  C236  1  0.275200  0.978400  0.129530  1.0  -0.0367
  C  C237  1  0.745200  0.572600  0.678600  1.0  0.3397
  C  C238  1  0.766400  0.642600  0.729500  1.0  0.2342
  C  C239  1  0.857000  0.693700  0.757800  1.0  -0.2369
  C  C240  1  0.930900  0.678600  0.733400  1.0  -0.081
  C  C241  1  0.916300  0.616400  0.683600  1.0  -0.1238
  C  C242  1  0.822700  0.560200  0.653700  1.0  -0.0675
  C  C243  1  0.806000  0.488800  0.603200  1.0  0.052
  C  C244  1  0.703000  0.349100  0.532600  1.0  0.09
  C  C245  1  0.646200  0.256400  0.573000  1.0  -0.1256
  C  C246  1  0.612200  0.165700  0.531500  1.0  -0.1127
  C  C247  1  0.703200  0.724800  0.796200  1.0  -0.0366
  C  C248  1  0.827400  0.254800  0.345270  1.0  0.338
  C  C249  1  0.876200  0.233600  0.396170  1.0  0.2355
  C  C250  1  0.836700  0.143000  0.424470  1.0  -0.2331
  C  C251  1  0.747700  0.069100  0.400070  1.0  -0.0797
  C  C252  1  0.700100  0.083700  0.350270  1.0  -0.12
  C  C253  1  0.737500  0.177300  0.320370  1.0  -0.0672
  C  C254  1  0.682800  0.194000  0.269870  1.0  0.0499
  C  C255  1  0.646100  0.297000  0.199270  1.0  0.0903
  C  C256  1  0.610200  0.353800  0.239670  1.0  -0.1258
  C  C257  1  0.553500  0.387800  0.198170  1.0  -0.111
  C  C258  1  0.021600  0.296800  0.462870  1.0  -0.0371
  C  C259  1  0.572600  0.827400  0.011930  1.0  0.3386
  C  C260  1  0.642600  0.876200  0.062830  1.0  0.2381
  C  C261  1  0.693700  0.836700  0.091130  1.0  -0.2356
  C  C262  1  0.678600  0.747700  0.066730  1.0  -0.0851
  C  C263  1  0.616400  0.700100  0.016930  1.0  -0.1192
  C  C264  1  0.560200  0.737500  0.987030  1.0  -0.0677
  C  C265  1  0.488800  0.682800  0.936530  1.0  0.0543
  C  C266  1  0.349100  0.646100  0.865930  1.0  0.0917
  C  C267  1  0.256400  0.610200  0.906330  1.0  -0.1281
  C  C268  1  0.165700  0.553500  0.864830  1.0  -0.1114
  C  C269  1  0.724800  0.021600  0.129530  1.0  -0.0371
  C  C270  1  0.254800  0.427400  0.678600  1.0  0.3389
  C  C271  1  0.233600  0.357400  0.729500  1.0  0.2328
  C  C272  1  0.143000  0.306300  0.757800  1.0  -0.2352
  C  C273  1  0.069100  0.321400  0.733400  1.0  -0.0824
  C  C274  1  0.083700  0.383600  0.683600  1.0  -0.1206
  C  C275  1  0.177300  0.439800  0.653700  1.0  -0.0674
  C  C276  1  0.194000  0.511200  0.603200  1.0  0.0494
  C  C277  1  0.297000  0.650900  0.532600  1.0  0.0884
  C  C278  1  0.353800  0.743600  0.573000  1.0  -0.1248
  C  C279  1  0.387800  0.834300  0.531500  1.0  -0.1128
  C  C280  1  0.296800  0.275200  0.796200  1.0  -0.0378
  C  C281  1  0.172600  0.745200  0.345270  1.0  0.3388
  C  C282  1  0.123800  0.766400  0.396170  1.0  0.2334
  C  C283  1  0.163300  0.857000  0.424470  1.0  -0.2341
  C  C284  1  0.252300  0.930900  0.400070  1.0  -0.0772
  C  C285  1  0.299900  0.916300  0.350270  1.0  -0.1232
  C  C286  1  0.262500  0.822700  0.320370  1.0  -0.0675
  C  C287  1  0.317200  0.806000  0.269870  1.0  0.0523
  C  C288  1  0.353900  0.703000  0.199270  1.0  0.0919
  C  C289  1  0.389800  0.646200  0.239670  1.0  -0.1261
  C  C290  1  0.446500  0.612200  0.198170  1.0  -0.1111
  C  C291  1  0.978400  0.703200  0.462870  1.0  -0.0365
  N  N292  1  0.292700  0.568500  0.423600  1.0  -0.461
  N  N293  1  0.431500  0.724200  0.756930  1.0  -0.4609
  N  N294  1  0.275800  0.707300  0.090270  1.0  -0.461
  N  N295  1  0.707300  0.431500  0.423600  1.0  -0.4616
  N  N296  1  0.568500  0.275800  0.756930  1.0  -0.4617
  N  N297  1  0.724200  0.292700  0.090270  1.0  -0.4615
  N  N298  1  0.568500  0.292700  0.909730  1.0  -0.4606
  N  N299  1  0.724200  0.431500  0.576400  1.0  -0.4603
  N  N300  1  0.707300  0.275800  0.243070  1.0  -0.4602
  N  N301  1  0.431500  0.707300  0.909730  1.0  -0.4613
  N  N302  1  0.275800  0.568500  0.576400  1.0  -0.4612
  N  N303  1  0.292700  0.724200  0.243070  1.0  -0.4618
  N  N304  1  0.000000  0.500000  0.492700  1.0  0.6709
  N  N305  1  0.500000  0.500000  0.826030  1.0  0.6709
  N  N306  1  0.500000  0.000000  0.159370  1.0  0.671
  N  N307  1  0.500000  0.000000  0.840630  1.0  0.671
  N  N308  1  0.500000  0.500000  0.507300  1.0  0.671
  N  N309  1  0.000000  0.500000  0.173970  1.0  0.671
  O  O310  1  0.141000  0.482300  0.342620  1.0  -0.5874
  O  O311  1  0.037000  0.348900  0.253100  1.0  -0.3733
  O  O312  1  0.923500  0.470000  0.460000  1.0  -0.6353
  O  O313  1  0.517700  0.658700  0.675950  1.0  -0.5874
  O  O314  1  0.651100  0.688100  0.586430  1.0  -0.3741
  O  O315  1  0.530000  0.453500  0.793330  1.0  -0.6348
  O  O316  1  0.341300  0.859000  0.009290  1.0  -0.5868
  O  O317  1  0.311900  0.963000  0.919770  1.0  -0.375
  O  O318  1  0.546500  0.076500  0.126670  1.0  -0.634
  O  O319  1  0.859000  0.517700  0.342620  1.0  -0.586
  O  O320  1  0.963000  0.651100  0.253100  1.0  -0.3744
  O  O321  1  0.076500  0.530000  0.460000  1.0  -0.6355
  O  O322  1  0.482300  0.341300  0.675950  1.0  -0.587
  O  O323  1  0.348900  0.311900  0.586430  1.0  -0.3726
  O  O324  1  0.470000  0.546500  0.793330  1.0  -0.634
  O  O325  1  0.658700  0.141000  0.009290  1.0  -0.5864
  O  O326  1  0.688100  0.037000  0.919770  1.0  -0.3757
  O  O327  1  0.453500  0.923500  0.126670  1.0  -0.6336
  O  O328  1  0.482300  0.141000  0.990710  1.0  -0.5864
  O  O329  1  0.348900  0.037000  0.080230  1.0  -0.3759
  O  O330  1  0.470000  0.923500  0.873330  1.0  -0.634
  O  O331  1  0.658700  0.517700  0.657380  1.0  -0.5872
  O  O332  1  0.688100  0.651100  0.746900  1.0  -0.3749
  O  O333  1  0.453500  0.530000  0.540000  1.0  -0.6357
  O  O334  1  0.859000  0.341300  0.324050  1.0  -0.586
  O  O335  1  0.963000  0.311900  0.413570  1.0  -0.3745
  O  O336  1  0.076500  0.546500  0.206670  1.0  -0.6345
  O  O337  1  0.517700  0.859000  0.990710  1.0  -0.5854
  O  O338  1  0.651100  0.963000  0.080230  1.0  -0.3763
  O  O339  1  0.530000  0.076500  0.873330  1.0  -0.6343
  O  O340  1  0.341300  0.482300  0.657380  1.0  -0.5862
  O  O341  1  0.311900  0.348900  0.746900  1.0  -0.3745
  O  O342  1  0.546500  0.470000  0.540000  1.0  -0.6355
  O  O343  1  0.141000  0.658700  0.324050  1.0  -0.5879
  O  O344  1  0.037000  0.688100  0.413570  1.0  -0.3742
  O  O345  1  0.923500  0.453500  0.206670  1.0  -0.6342
  O  O346  1  0.000000  0.500000  0.555900  1.0  -0.5142
  O  O347  1  0.500000  0.500000  0.889230  1.0  -0.5142
  O  O348  1  0.500000  0.000000  0.222570  1.0  -0.5143
  O  O349  1  0.500000  0.000000  0.777430  1.0  -0.5131
  O  O350  1  0.500000  0.500000  0.444100  1.0  -0.5131
  O  O351  1  0.000000  0.500000  0.110770  1.0  -0.5131
