# generated using pymatgen
data_Ba2CdH8C16(NO7)2
_symmetry_space_group_name_H-M   'P 1'
_cell_length_a   13.38150000
_cell_length_b   17.76470000
_cell_length_c   17.76470000
_cell_angle_alpha   90.00000000
_cell_angle_beta   90.00000000
_cell_angle_gamma   90.00000000
_symmetry_Int_Tables_number   1
_chemical_formula_structural   Ba2CdH8C16(NO7)2
_chemical_formula_sum   'Ba8 Cd4 H32 C64 N8 O56'
_cell_volume   4222.99487113
_cell_formula_units_Z   4
loop_
 _symmetry_equiv_pos_site_id
 _symmetry_equiv_pos_as_xyz
  1  'x, y, z'
loop_
 _atom_site_type_symbol
 _atom_site_label
 _atom_site_symmetry_multiplicity
 _atom_site_fract_x
 _atom_site_fract_y
 _atom_site_fract_z
 _atom_site_occupancy
 _atom_site_charge
  Ba  Ba1  1  0.177930  0.135880  0.614270  1.0  1.6281
  Ba  Ba2  1  0.677930  0.864120  0.385730  1.0  1.6279
  Ba  Ba3  1  0.427930  0.885730  0.635880  1.0  1.6283
  Ba  Ba4  1  0.927930  0.114270  0.364120  1.0  1.6279
  Ba  Ba5  1  0.072070  0.364120  0.114270  1.0  1.6278
  Ba  Ba6  1  0.572070  0.635880  0.885730  1.0  1.6281
  Ba  Ba7  1  0.822070  0.614270  0.135880  1.0  1.6282
  Ba  Ba8  1  0.322070  0.385730  0.864120  1.0  1.6279
  Cd  Cd9  1  0.250000  0.334320  0.665680  1.0  1.0522
  Cd  Cd10  1  0.750000  0.665680  0.334320  1.0  1.0524
  Cd  Cd11  1  0.500000  0.834320  0.834320  1.0  1.0521
  Cd  Cd12  1  0.000000  0.165680  0.165680  1.0  1.0525
  H  H13  1  0.165200  0.241900  0.415400  1.0  0.091
  H  H14  1  0.301200  0.302900  0.223400  1.0  0.1016
  H  H15  1  0.421700  0.367600  0.292100  1.0  0.1134
  H  H16  1  0.408300  0.373700  0.422800  1.0  0.1052
  H  H17  1  0.665200  0.758100  0.584600  1.0  0.0904
  H  H18  1  0.801200  0.697100  0.776600  1.0  0.101
  H  H19  1  0.921700  0.632400  0.707900  1.0  0.1134
  H  H20  1  0.908300  0.626300  0.577200  1.0  0.1051
  H  H21  1  0.415200  0.084600  0.741900  1.0  0.0904
  H  H22  1  0.551200  0.276600  0.802900  1.0  0.0999
  H  H23  1  0.671700  0.207900  0.867600  1.0  0.1129
  H  H24  1  0.658300  0.077200  0.873700  1.0  0.1053
  H  H25  1  0.915200  0.915400  0.258100  1.0  0.09
  H  H26  1  0.051200  0.723400  0.197100  1.0  0.0998
  H  H27  1  0.171700  0.792100  0.132400  1.0  0.113
  H  H28  1  0.158300  0.922800  0.126300  1.0  0.1052
  H  H29  1  0.084800  0.258100  0.915400  1.0  0.0919
  H  H30  1  0.948800  0.197100  0.723400  1.0  0.1016
  H  H31  1  0.828300  0.132400  0.792100  1.0  0.1131
  H  H32  1  0.841700  0.126300  0.922800  1.0  0.1048
  H  H33  1  0.584800  0.741900  0.084600  1.0  0.0914
  H  H34  1  0.448800  0.802900  0.276600  1.0  0.1013
  H  H35  1  0.328300  0.867600  0.207900  1.0  0.1133
  H  H36  1  0.341700  0.873700  0.077200  1.0  0.105
  H  H37  1  0.834800  0.415400  0.241900  1.0  0.0913
  H  H38  1  0.698800  0.223400  0.302900  1.0  0.0997
  H  H39  1  0.578300  0.292100  0.367600  1.0  0.1129
  H  H40  1  0.591700  0.422800  0.373700  1.0  0.1053
  H  H41  1  0.334800  0.584600  0.758100  1.0  0.0902
  H  H42  1  0.198800  0.776600  0.697100  1.0  0.0999
  H  H43  1  0.078300  0.707900  0.632400  1.0  0.1131
  H  H44  1  0.091700  0.577200  0.626300  1.0  0.1048
  C  C45  1  0.285800  0.308800  0.432500  1.0  -0.1608
  C  C46  1  0.215500  0.268200  0.390600  1.0  0.022
  C  C47  1  0.219600  0.266700  0.312700  1.0  -0.1968
  C  C48  1  0.297500  0.304200  0.275700  1.0  -0.0266
  C  C49  1  0.369300  0.343500  0.316600  1.0  -0.1281
  C  C50  1  0.361700  0.346300  0.395300  1.0  -0.0074
  C  C51  1  0.277100  0.313300  0.515800  1.0  0.6835
  C  C52  1  0.142700  0.225500  0.269200  1.0  0.7542
  C  C53  1  0.785800  0.691200  0.567500  1.0  -0.1593
  C  C54  1  0.715500  0.731800  0.609400  1.0  0.0217
  C  C55  1  0.719600  0.733300  0.687300  1.0  -0.1959
  C  C56  1  0.797500  0.695800  0.724300  1.0  -0.021
  C  C57  1  0.869300  0.656500  0.683400  1.0  -0.1214
  C  C58  1  0.861700  0.653700  0.604700  1.0  -0.0076
  C  C59  1  0.777100  0.686700  0.484200  1.0  0.6859
  C  C60  1  0.642700  0.774500  0.730800  1.0  0.7544
  C  C61  1  0.535800  0.067500  0.808800  1.0  -0.1602
  C  C62  1  0.465500  0.109400  0.768200  1.0  0.0222
  C  C63  1  0.469600  0.187300  0.766700  1.0  -0.1956
  C  C64  1  0.547500  0.224300  0.804200  1.0  -0.0268
  C  C65  1  0.619300  0.183400  0.843500  1.0  -0.1264
  C  C66  1  0.611700  0.104700  0.846300  1.0  -0.0058
  C  C67  1  0.527100  0.984200  0.813300  1.0  0.6813
  C  C68  1  0.392700  0.230800  0.725500  1.0  0.7546
  C  C69  1  0.035800  0.932500  0.191200  1.0  -0.159
  C  C70  1  0.965500  0.890600  0.231800  1.0  0.0225
  C  C71  1  0.969600  0.812700  0.233300  1.0  -0.1972
  C  C72  1  0.047500  0.775700  0.195800  1.0  -0.021
  C  C73  1  0.119300  0.816600  0.156500  1.0  -0.1278
  C  C74  1  0.111700  0.895300  0.153700  1.0  -0.0053
  C  C75  1  0.027100  0.015800  0.186700  1.0  0.6828
  C  C76  1  0.892700  0.769200  0.274500  1.0  0.7534
  C  C77  1  0.964200  0.191200  0.932500  1.0  -0.1607
  C  C78  1  0.034500  0.231800  0.890600  1.0  0.0211
  C  C79  1  0.030400  0.233300  0.812700  1.0  -0.1963
  C  C80  1  0.952500  0.195800  0.775700  1.0  -0.0232
  C  C81  1  0.880700  0.156500  0.816600  1.0  -0.1268
  C  C82  1  0.888300  0.153700  0.895300  1.0  -0.0073
  C  C83  1  0.972900  0.186700  0.015800  1.0  0.6837
  C  C84  1  0.107300  0.274500  0.769200  1.0  0.7535
  C  C85  1  0.464200  0.808800  0.067500  1.0  -0.159
  C  C86  1  0.534500  0.768200  0.109400  1.0  0.021
  C  C87  1  0.530400  0.766700  0.187300  1.0  -0.1969
  C  C88  1  0.452500  0.804200  0.224300  1.0  -0.0197
  C  C89  1  0.380700  0.843500  0.183400  1.0  -0.1291
  C  C90  1  0.388300  0.846300  0.104700  1.0  -0.0082
  C  C91  1  0.472900  0.813300  0.984200  1.0  0.6828
  C  C92  1  0.607300  0.725500  0.230800  1.0  0.7534
  C  C93  1  0.714200  0.432500  0.308800  1.0  -0.1592
  C  C94  1  0.784500  0.390600  0.268200  1.0  0.0218
  C  C95  1  0.780400  0.312700  0.266700  1.0  -0.1964
  C  C96  1  0.702500  0.275700  0.304200  1.0  -0.0198
  C  C97  1  0.630700  0.316600  0.343500  1.0  -0.1282
  C  C98  1  0.638300  0.395300  0.346300  1.0  -0.0062
  C  C99  1  0.722900  0.515800  0.313300  1.0  0.6801
  C  C100  1  0.857300  0.269200  0.225500  1.0  0.7519
  C  C101  1  0.214200  0.567500  0.691200  1.0  -0.1599
  C  C102  1  0.284500  0.609400  0.731800  1.0  0.022
  C  C103  1  0.280400  0.687300  0.733300  1.0  -0.1974
  C  C104  1  0.202500  0.724300  0.695800  1.0  -0.0247
  C  C105  1  0.130700  0.683400  0.656500  1.0  -0.1276
  C  C106  1  0.138300  0.604700  0.653700  1.0  -0.0058
  C  C107  1  0.222900  0.484200  0.686700  1.0  0.6813
  C  C108  1  0.357300  0.730800  0.774500  1.0  0.7531
  N  N109  1  0.955400  0.102900  0.548100  1.0  0.8931
  N  N110  1  0.455400  0.897100  0.451900  1.0  0.8939
  N  N111  1  0.205400  0.951900  0.602900  1.0  0.8928
  N  N112  1  0.705400  0.048100  0.397100  1.0  0.8938
  N  N113  1  0.294600  0.397100  0.048100  1.0  0.8931
  N  N114  1  0.794600  0.602900  0.951900  1.0  0.8917
  N  N115  1  0.044600  0.548100  0.102900  1.0  0.8911
  N  N116  1  0.544600  0.451900  0.897100  1.0  0.8931
  O  O117  1  0.025500  0.126000  0.506000  1.0  -0.6689
  O  O118  1  0.965700  0.105100  0.616900  1.0  -0.5105
  O  O119  1  0.880200  0.076500  0.518200  1.0  -0.5196
  O  O120  1  0.208100  0.277300  0.547700  1.0  -0.7083
  O  O121  1  0.337400  0.353200  0.552100  1.0  -0.581
  O  O122  1  0.087600  0.179300  0.301700  1.0  -0.7173
  O  O123  1  0.134300  0.239600  0.199000  1.0  -0.6912
  O  O124  1  0.525500  0.874000  0.494000  1.0  -0.6685
  O  O125  1  0.465700  0.894900  0.383100  1.0  -0.5074
  O  O126  1  0.380200  0.923500  0.481800  1.0  -0.5207
  O  O127  1  0.708100  0.722700  0.452300  1.0  -0.7089
  O  O128  1  0.837400  0.646800  0.447900  1.0  -0.581
  O  O129  1  0.587600  0.820700  0.698300  1.0  -0.7184
  O  O130  1  0.634300  0.760400  0.801000  1.0  -0.6941
  O  O131  1  0.275500  0.994000  0.626000  1.0  -0.6681
  O  O132  1  0.215700  0.883100  0.605100  1.0  -0.5131
  O  O133  1  0.130200  0.981800  0.576500  1.0  -0.5197
  O  O134  1  0.458100  0.952300  0.777300  1.0  -0.7073
  O  O135  1  0.587400  0.947900  0.853200  1.0  -0.5816
  O  O136  1  0.337600  0.198300  0.679300  1.0  -0.7204
  O  O137  1  0.384300  0.301000  0.739600  1.0  -0.6928
  O  O138  1  0.775500  0.006000  0.374000  1.0  -0.6678
  O  O139  1  0.715700  0.116900  0.394900  1.0  -0.5104
  O  O140  1  0.630200  0.018200  0.423500  1.0  -0.5198
  O  O141  1  0.958100  0.047700  0.222700  1.0  -0.7075
  O  O142  1  0.087400  0.052100  0.146800  1.0  -0.5812
  O  O143  1  0.837600  0.801700  0.320700  1.0  -0.7212
  O  O144  1  0.884300  0.699000  0.260400  1.0  -0.6965
  O  O145  1  0.224500  0.374000  0.006000  1.0  -0.6701
  O  O146  1  0.284300  0.394900  0.116900  1.0  -0.5113
  O  O147  1  0.369800  0.423500  0.018200  1.0  -0.5191
  O  O148  1  0.041900  0.222700  0.047700  1.0  -0.7083
  O  O149  1  0.912600  0.146800  0.052100  1.0  -0.5813
  O  O150  1  0.162400  0.320700  0.801700  1.0  -0.7176
  O  O151  1  0.115700  0.260400  0.699000  1.0  -0.6967
  O  O152  1  0.724500  0.626000  0.994000  1.0  -0.6698
  O  O153  1  0.784300  0.605100  0.883100  1.0  -0.508
  O  O154  1  0.869800  0.576500  0.981800  1.0  -0.5201
  O  O155  1  0.541900  0.777300  0.952300  1.0  -0.7095
  O  O156  1  0.412600  0.853200  0.947900  1.0  -0.5809
  O  O157  1  0.662400  0.679300  0.198300  1.0  -0.7184
  O  O158  1  0.615700  0.739600  0.301000  1.0  -0.6914
  O  O159  1  0.974500  0.506000  0.126000  1.0  -0.669
  O  O160  1  0.034300  0.616900  0.105100  1.0  -0.5114
  O  O161  1  0.119800  0.518200  0.076500  1.0  -0.5192
  O  O162  1  0.791900  0.547700  0.277300  1.0  -0.7079
  O  O163  1  0.662600  0.552100  0.353200  1.0  -0.5796
  O  O164  1  0.912400  0.301700  0.179300  1.0  -0.7205
  O  O165  1  0.865700  0.199000  0.239600  1.0  -0.6958
  O  O166  1  0.474500  0.494000  0.874000  1.0  -0.6691
  O  O167  1  0.534300  0.383100  0.894900  1.0  -0.5131
  O  O168  1  0.619800  0.481800  0.923500  1.0  -0.5188
  O  O169  1  0.291900  0.452300  0.722700  1.0  -0.7069
  O  O170  1  0.162600  0.447900  0.646800  1.0  -0.582
  O  O171  1  0.412400  0.698300  0.820700  1.0  -0.7183
  O  O172  1  0.365700  0.801000  0.760400  1.0  -0.6974
