# generated using pymatgen
data_CaH2C6SO4
_symmetry_space_group_name_H-M   'P 1'
_cell_length_a   10.07040000
_cell_length_b   14.25210000
_cell_length_c   17.56440000
_cell_angle_alpha   90.00000000
_cell_angle_beta   94.28100000
_cell_angle_gamma   90.00000000
_symmetry_Int_Tables_number   1
_chemical_formula_structural   CaH2C6SO4
_chemical_formula_sum   'Ca8 H16 C48 S8 O32'
_cell_volume   2513.88554629
_cell_formula_units_Z   8
loop_
 _symmetry_equiv_pos_site_id
 _symmetry_equiv_pos_as_xyz
  1  'x, y, z'
loop_
 _atom_site_type_symbol
 _atom_site_label
 _atom_site_symmetry_multiplicity
 _atom_site_fract_x
 _atom_site_fract_y
 _atom_site_fract_z
 _atom_site_occupancy
 _atom_site_charge
  Ca  Ca1  1  0.528370  0.105590  0.558310  1.0  1.5644
  Ca  Ca2  1  0.408280  0.347020  0.530090  1.0  1.6003
  Ca  Ca3  1  0.971630  0.605590  0.941690  1.0  1.5637
  Ca  Ca4  1  0.091720  0.847020  0.969910  1.0  1.6012
  Ca  Ca5  1  0.471630  0.894410  0.441690  1.0  1.5642
  Ca  Ca6  1  0.591720  0.652980  0.469910  1.0  1.602
  Ca  Ca7  1  0.028370  0.394410  0.058310  1.0  1.5646
  Ca  Ca8  1  0.908280  0.152980  0.030090  1.0  1.6011
  H  H9  1  0.118100  0.249500  0.867300  1.0  0.0988
  H  H10  1  0.193400  0.307500  0.746900  1.0  0.1105
  H  H11  1  0.267400  0.009400  0.305700  1.0  0.1028
  H  H12  1  0.142700  0.070300  0.191800  1.0  0.0984
  H  H13  1  0.381900  0.749500  0.632700  1.0  0.0991
  H  H14  1  0.306600  0.807500  0.753100  1.0  0.1106
  H  H15  1  0.232600  0.509400  0.194300  1.0  0.103
  H  H16  1  0.357300  0.570300  0.308200  1.0  0.0989
  H  H17  1  0.881900  0.750500  0.132700  1.0  0.0982
  H  H18  1  0.806600  0.692500  0.253100  1.0  0.1098
  H  H19  1  0.732600  0.990600  0.694300  1.0  0.1035
  H  H20  1  0.857300  0.929700  0.808200  1.0  0.099
  H  H21  1  0.618100  0.250500  0.367300  1.0  0.0984
  H  H22  1  0.693400  0.192500  0.246900  1.0  0.1096
  H  H23  1  0.767400  0.490600  0.805700  1.0  0.1031
  H  H24  1  0.642700  0.429700  0.691800  1.0  0.0993
  C  C25  1  0.314800  0.143080  0.339750  1.0  -0.2242
  C  C26  1  0.390500  0.133020  0.414100  1.0  0.6986
  C  C27  1  0.191400  0.203600  0.224680  1.0  -0.2037
  C  C28  1  0.132400  0.266700  0.164870  1.0  0.7148
  C  C29  1  0.216800  0.174100  0.711160  1.0  -0.2054
  C  C30  1  0.140700  0.210600  0.827700  1.0  -0.0758
  C  C31  1  0.133800  0.115800  0.830390  1.0  -0.2197
  C  C32  1  0.185800  0.244200  0.758600  1.0  -0.0691
  C  C33  1  0.258900  0.072900  0.294290  1.0  -0.0747
  C  C34  1  0.187500  0.108000  0.228550  1.0  -0.0804
  C  C35  1  0.090700  0.055800  0.893550  1.0  0.7331
  C  C36  1  0.276700  0.182500  0.636290  1.0  0.7537
  C  C37  1  0.185200  0.643080  0.160250  1.0  -0.2248
  C  C38  1  0.109500  0.633020  0.085900  1.0  0.6977
  C  C39  1  0.308600  0.703600  0.275320  1.0  -0.2038
  C  C40  1  0.367600  0.766700  0.335130  1.0  0.7149
  C  C41  1  0.283200  0.674100  0.788840  1.0  -0.2054
  C  C42  1  0.359300  0.710600  0.672300  1.0  -0.0753
  C  C43  1  0.366200  0.615800  0.669610  1.0  -0.2197
  C  C44  1  0.314200  0.744200  0.741400  1.0  -0.0691
  C  C45  1  0.241100  0.572900  0.205710  1.0  -0.0749
  C  C46  1  0.312500  0.608000  0.271450  1.0  -0.0809
  C  C47  1  0.409300  0.555800  0.606450  1.0  0.7314
  C  C48  1  0.223300  0.682500  0.863710  1.0  0.754
  C  C49  1  0.685200  0.856920  0.660250  1.0  -0.2251
  C  C50  1  0.609500  0.866980  0.585900  1.0  0.6978
  C  C51  1  0.808600  0.796400  0.775320  1.0  -0.2032
  C  C52  1  0.867600  0.733300  0.835130  1.0  0.716
  C  C53  1  0.783200  0.825900  0.288840  1.0  -0.2066
  C  C54  1  0.859300  0.789400  0.172300  1.0  -0.0755
  C  C55  1  0.866200  0.884200  0.169610  1.0  -0.2202
  C  C56  1  0.814200  0.755800  0.241400  1.0  -0.0671
  C  C57  1  0.741100  0.927100  0.705710  1.0  -0.0755
  C  C58  1  0.812500  0.892000  0.771450  1.0  -0.0812
  C  C59  1  0.909300  0.944200  0.106450  1.0  0.7322
  C  C60  1  0.723300  0.817500  0.363710  1.0  0.7533
  C  C61  1  0.814800  0.356920  0.839750  1.0  -0.224
  C  C62  1  0.890500  0.366980  0.914100  1.0  0.6987
  C  C63  1  0.691400  0.296400  0.724680  1.0  -0.2031
  C  C64  1  0.632400  0.233300  0.664870  1.0  0.7158
  C  C65  1  0.716800  0.325900  0.211160  1.0  -0.205
  C  C66  1  0.640700  0.289400  0.327700  1.0  -0.0758
  C  C67  1  0.633800  0.384200  0.330390  1.0  -0.2205
  C  C68  1  0.685800  0.255800  0.258600  1.0  -0.0671
  C  C69  1  0.758900  0.427100  0.794290  1.0  -0.0751
  C  C70  1  0.687500  0.392000  0.728550  1.0  -0.0804
  C  C71  1  0.590700  0.444200  0.393550  1.0  0.733
  C  C72  1  0.776700  0.317500  0.136290  1.0  0.7536
  S  S73  1  0.280040  0.251660  0.302080  1.0  0.1664
  S  S74  1  0.186230  0.065990  0.749290  1.0  0.1624
  S  S75  1  0.219960  0.751660  0.197920  1.0  0.166
  S  S76  1  0.313770  0.565990  0.750710  1.0  0.1609
  S  S77  1  0.719960  0.748340  0.697920  1.0  0.1685
  S  S78  1  0.813770  0.934010  0.250710  1.0  0.1615
  S  S79  1  0.780040  0.248340  0.802080  1.0  0.1687
  S  S80  1  0.686230  0.434010  0.249290  1.0  0.1613
  O  O81  1  0.415700  0.204310  0.454730  1.0  -0.739
  O  O82  1  0.426900  0.052090  0.435340  1.0  -0.7543
  O  O83  1  0.074700  0.232310  0.105020  1.0  -0.7369
  O  O84  1  0.056800  0.096070  0.951810  1.0  -0.7397
  O  O85  1  0.096500  0.969370  0.884550  1.0  -0.6684
  O  O86  1  0.326600  0.109320  0.610720  1.0  -0.6081
  O  O87  1  0.143000  0.353310  0.175650  1.0  -0.6713
  O  O88  1  0.273400  0.261550  0.605780  1.0  -0.736
  O  O89  1  0.084300  0.704310  0.045270  1.0  -0.738
  O  O90  1  0.073100  0.552090  0.064660  1.0  -0.7549
  O  O91  1  0.425300  0.732310  0.394980  1.0  -0.7365
  O  O92  1  0.443200  0.596070  0.548190  1.0  -0.7385
  O  O93  1  0.403500  0.469370  0.615450  1.0  -0.6686
  O  O94  1  0.173400  0.609320  0.889280  1.0  -0.607
  O  O95  1  0.357000  0.853310  0.324350  1.0  -0.6715
  O  O96  1  0.226600  0.761550  0.894220  1.0  -0.7361
  O  O97  1  0.584300  0.795690  0.545270  1.0  -0.7367
  O  O98  1  0.573100  0.947910  0.564660  1.0  -0.756
  O  O99  1  0.925300  0.767690  0.894980  1.0  -0.7369
  O  O100  1  0.943200  0.903930  0.048190  1.0  -0.7388
  O  O101  1  0.903500  0.030630  0.115450  1.0  -0.6674
  O  O102  1  0.673400  0.890680  0.389280  1.0  -0.6054
  O  O103  1  0.857000  0.646690  0.824350  1.0  -0.6722
  O  O104  1  0.726600  0.738450  0.394220  1.0  -0.7365
  O  O105  1  0.915700  0.295690  0.954730  1.0  -0.7371
  O  O106  1  0.926900  0.447910  0.935340  1.0  -0.7556
  O  O107  1  0.574700  0.267690  0.605020  1.0  -0.7367
  O  O108  1  0.556800  0.403930  0.451810  1.0  -0.7404
  O  O109  1  0.596500  0.530630  0.384550  1.0  -0.6674
  O  O110  1  0.826600  0.390680  0.110720  1.0  -0.6066
  O  O111  1  0.643000  0.146690  0.675650  1.0  -0.6715
  O  O112  1  0.773400  0.238450  0.105780  1.0  -0.736
