# generated using pymatgen
data_NiH54(C11N3)6
_symmetry_space_group_name_H-M   'P 1'
_cell_length_a   13.98700000
_cell_length_b   16.15300000
_cell_length_c   17.29900000
_cell_angle_alpha   70.01000000
_cell_angle_beta   79.69000000
_cell_angle_gamma   66.10000000
_symmetry_Int_Tables_number   1
_chemical_formula_structural   NiH54(C11N3)6
_chemical_formula_sum   'Ni2 H108 C132 N36'
_cell_volume   3354.25899654
_cell_formula_units_Z   2
loop_
 _symmetry_equiv_pos_site_id
 _symmetry_equiv_pos_as_xyz
  1  'x, y, z'
loop_
 _atom_site_type_symbol
 _atom_site_label
 _atom_site_symmetry_multiplicity
 _atom_site_fract_x
 _atom_site_fract_y
 _atom_site_fract_z
 _atom_site_occupancy
 _atom_site_charge
  Ni  Ni1  1  0.711990  0.672130  0.636990  1.0  0.6181
  Ni  Ni2  1  0.288010  0.327870  0.363010  1.0  0.616
  H  H3  1  0.869400  0.723600  0.705200  1.0  0.0584
  H  H4  1  0.855000  0.760000  0.474900  1.0  0.0959
  H  H5  1  0.977500  0.828800  0.489200  1.0  0.1119
  H  H6  1  0.029500  0.860500  0.607900  1.0  0.1056
  H  H7  1  0.065900  0.760300  0.674700  1.0  0.1116
  H  H8  1  0.862000  0.987900  0.636000  1.0  0.109
  H  H9  1  0.740400  0.049500  0.730500  1.0  0.0891
  H  H10  1  0.855500  0.803100  0.904900  1.0  0.0702
  H  H11  1  0.981300  0.740600  0.813300  1.0  0.1262
  H  H12  1  0.633900  0.235000  0.791600  1.0  0.1068
  H  H13  1  0.559100  0.399200  0.759300  1.0  0.0815
  H  H14  1  0.439600  0.379100  0.986500  1.0  0.0859
  H  H15  1  0.511500  0.218800  0.020400  1.0  0.0948
  H  H16  1  0.365400  0.530500  0.847700  1.0  0.1215
  H  H17  1  0.452400  0.531800  0.892500  1.0  0.1249
  H  H18  1  0.522600  0.008200  0.143900  1.0  0.0878
  H  H19  1  0.488200  0.916200  0.272300  1.0  0.0906
  H  H20  1  0.676700  0.683500  0.210900  1.0  0.1062
  H  H21  1  0.708100  0.776600  0.082500  1.0  0.0926
  H  H22  1  0.730100  0.468300  0.641500  1.0  0.0835
  H  H23  1  0.961900  0.524400  0.675400  1.0  0.097
  H  H24  1  0.029800  0.356400  0.684100  1.0  0.1234
  H  H25  1  0.946100  0.268400  0.621500  1.0  0.1151
  H  H26  1  0.824400  0.299500  0.634500  1.0  0.1365
  H  H27  1  0.824900  0.295200  0.812600  1.0  0.093
  H  H28  1  0.827500  0.173500  0.932100  1.0  0.0825
  H  H29  1  0.991500  0.982400  0.813700  1.0  0.105
  H  H30  1  0.983600  0.105000  0.693200  1.0  0.0936
  H  H31  1  0.917100  0.676500  0.119900  1.0  0.0846
  H  H32  1  0.993700  0.522900  0.118700  1.0  0.1152
  H  H33  1  0.204100  0.587500  0.944800  1.0  0.0913
  H  H34  1  0.122900  0.745800  0.939700  1.0  0.0937
  H  H35  1  0.767000  0.093800  0.129800  1.0  0.0889
  H  H36  1  0.817100  0.822600  0.235100  1.0  0.0892
  H  H37  1  0.172800  0.458500  0.190600  1.0  0.0749
  H  H38  1  0.381200  0.203800  0.227200  1.0  0.0937
  H  H39  1  0.319100  0.258200  0.087100  1.0  0.1076
  H  H40  1  0.110300  0.412200  0.038000  1.0  0.0994
  H  H41  1  0.208500  0.431500  0.988200  1.0  0.1051
  H  H42  1  0.555800  0.765600  0.483400  1.0  0.0886
  H  H43  1  0.840900  0.588000  0.485300  1.0  0.0884
  H  H44  1  0.767500  0.607300  0.359300  1.0  0.1216
  H  H45  1  0.488500  0.758200  0.362000  1.0  0.1122
  H  H46  1  0.556500  0.669400  0.332300  1.0  0.1202
  H  H47  1  0.599000  0.584000  0.799200  1.0  0.0743
  H  H48  1  0.515900  0.633400  0.584100  1.0  0.0813
  H  H49  1  0.393800  0.570900  0.681900  1.0  0.1119
  H  H50  1  0.535900  0.194500  0.382800  1.0  0.0827
  H  H51  1  0.311000  0.106100  0.393400  1.0  0.0872
  H  H52  1  0.475200  0.969300  0.405100  1.0  0.1253
  H  H53  1  0.691300  0.045500  0.411900  1.0  0.1002
  H  H54  1  0.670900  0.950600  0.442000  1.0  0.0906
  H  H55  1  0.681700  0.125100  0.251700  1.0  0.1
  H  H56  1  0.738800  0.852700  0.356800  1.0  0.0717
  H  H57  1  0.130600  0.276400  0.294800  1.0  0.0585
  H  H58  1  0.145000  0.240000  0.525100  1.0  0.097
  H  H59  1  0.022500  0.171200  0.510800  1.0  0.1112
  H  H60  1  0.970500  0.139500  0.392100  1.0  0.1063
  H  H61  1  0.934100  0.239700  0.325300  1.0  0.1122
  H  H62  1  0.138000  0.012100  0.364000  1.0  0.109
  H  H63  1  0.259600  0.950500  0.269500  1.0  0.0891
  H  H64  1  0.144500  0.196900  0.095100  1.0  0.0703
  H  H65  1  0.018700  0.259400  0.186700  1.0  0.1262
  H  H66  1  0.366100  0.765000  0.208400  1.0  0.1054
  H  H67  1  0.440900  0.600800  0.240700  1.0  0.0806
  H  H68  1  0.560400  0.620900  0.013500  1.0  0.0871
  H  H69  1  0.488500  0.781200  0.979600  1.0  0.0951
  H  H70  1  0.634600  0.469500  0.152300  1.0  0.1209
  H  H71  1  0.547600  0.468200  0.107500  1.0  0.1238
  H  H72  1  0.477400  0.991800  0.856100  1.0  0.0893
  H  H73  1  0.511800  0.083800  0.727700  1.0  0.0905
  H  H74  1  0.323300  0.316500  0.789100  1.0  0.1059
  H  H75  1  0.291900  0.223400  0.917500  1.0  0.0917
  H  H76  1  0.269900  0.531700  0.358500  1.0  0.0839
  H  H77  1  0.038100  0.475600  0.324600  1.0  0.0963
  H  H78  1  0.970200  0.643600  0.315900  1.0  0.1235
  H  H79  1  0.053900  0.731600  0.378500  1.0  0.1152
  H  H80  1  0.175600  0.700500  0.365500  1.0  0.1358
  H  H81  1  0.175100  0.704800  0.187400  1.0  0.0927
  H  H82  1  0.172500  0.826500  0.067900  1.0  0.0835
  H  H83  1  0.008500  0.017600  0.186300  1.0  0.1049
  H  H84  1  0.016400  0.895000  0.306800  1.0  0.094
  H  H85  1  0.082900  0.323500  0.880100  1.0  0.0842
  H  H86  1  0.006300  0.477100  0.881300  1.0  0.1156
  H  H87  1  0.795900  0.412500  0.055200  1.0  0.091
  H  H88  1  0.877100  0.254200  0.060300  1.0  0.0939
  H  H89  1  0.233000  0.906200  0.870200  1.0  0.0883
  H  H90  1  0.182900  0.177400  0.764900  1.0  0.0893
  H  H91  1  0.827200  0.541500  0.809400  1.0  0.0747
  H  H92  1  0.618800  0.796200  0.772800  1.0  0.0936
  H  H93  1  0.680900  0.741800  0.912900  1.0  0.108
  H  H94  1  0.889700  0.587800  0.962000  1.0  0.1
  H  H95  1  0.791500  0.568500  0.011800  1.0  0.1072
  H  H96  1  0.444200  0.234400  0.516600  1.0  0.0895
  H  H97  1  0.159100  0.412000  0.514700  1.0  0.0898
  H  H98  1  0.232500  0.392700  0.640700  1.0  0.1216
  H  H99  1  0.511500  0.241800  0.638000  1.0  0.1107
  H  H100  1  0.443500  0.330600  0.667700  1.0  0.1186
  H  H101  1  0.401000  0.416000  0.200800  1.0  0.0737
  H  H102  1  0.484100  0.366600  0.415900  1.0  0.0819
  H  H103  1  0.606200  0.429100  0.318100  1.0  0.1112
  H  H104  1  0.464100  0.805500  0.617200  1.0  0.0842
  H  H105  1  0.689000  0.893900  0.606600  1.0  0.0871
  H  H106  1  0.524800  0.030700  0.594900  1.0  0.1255
  H  H107  1  0.308700  0.954500  0.588100  1.0  0.0993
  H  H108  1  0.329100  0.049400  0.558000  1.0  0.0904
  H  H109  1  0.318300  0.874900  0.748300  1.0  0.1002
  H  H110  1  0.261200  0.147300  0.643200  1.0  0.071
  C  C111  1  0.882200  0.739400  0.648400  1.0  0.1851
  C  C112  1  0.873000  0.759100  0.524500  1.0  -0.011
  C  C113  1  0.941900  0.797800  0.532000  1.0  -0.1114
  C  C114  1  0.005400  0.813700  0.648800  1.0  -0.0692
  C  C115  1  0.931200  0.857100  0.713400  1.0  0.0317
  C  C116  1  0.860700  0.950300  0.690300  1.0  -0.0907
  C  C117  1  0.788600  0.987500  0.747300  1.0  -0.0758
  C  C118  1  0.787000  0.933200  0.830300  1.0  -0.0946
  C  C119  1  0.857700  0.841200  0.850900  1.0  -0.0639
  C  C120  1  0.932100  0.802000  0.795900  1.0  -0.1939
  C  C121  1  0.577500  0.209000  0.910300  1.0  -0.0487
  C  C122  1  0.593900  0.263600  0.831200  1.0  -0.137
  C  C123  1  0.549300  0.362200  0.812400  1.0  -0.1094
  C  C124  1  0.491000  0.406400  0.870300  1.0  0.0807
  C  C125  1  0.478500  0.350800  0.946400  1.0  -0.1566
  C  C126  1  0.521100  0.254500  0.966700  1.0  -0.0872
  C  C127  1  0.440300  0.512200  0.849200  1.0  -0.1071
  C  C128  1  0.616300  0.902200  0.100200  1.0  -0.1153
  C  C129  1  0.552900  0.942500  0.156900  1.0  -0.0797
  C  C130  1  0.532500  0.886700  0.234600  1.0  -0.1121
  C  C131  1  0.644000  0.749200  0.197600  1.0  -0.1158
  C  C132  1  0.663200  0.804900  0.120700  1.0  -0.0371
  C  C133  1  0.796200  0.461600  0.652200  1.0  0.1441
  C  C134  1  0.922900  0.491700  0.670700  1.0  -0.0117
  C  C135  1  0.961100  0.399000  0.674900  1.0  -0.1732
  C  C136  1  0.887100  0.289800  0.658500  1.0  -0.0895
  C  C137  1  0.900100  0.212700  0.738900  1.0  0.0352
  C  C138  1  0.856600  0.232500  0.811800  1.0  -0.1454
  C  C139  1  0.860200  0.159100  0.884000  1.0  -0.0559
  C  C140  1  0.910700  0.066100  0.885900  1.0  -0.13
  C  C141  1  0.957100  0.045100  0.813800  1.0  -0.1282
  C  C142  1  0.951400  0.119300  0.741400  1.0  -0.1079
  C  C143  1  0.009400  0.731800  0.028100  1.0  -0.0767
  C  C144  1  0.974000  0.659600  0.083600  1.0  -0.0863
  C  C145  1  0.021200  0.567400  0.084600  1.0  -0.14
  C  C146  1  0.146400  0.605700  0.980000  1.0  -0.1023
  C  C147  1  0.097000  0.701600  0.976700  1.0  -0.0837
  C  C148  1  0.798700  0.957200  0.169900  1.0  -0.126
  C  C149  1  0.761000  0.044200  0.175200  1.0  -0.093
  C  C150  1  0.790900  0.884300  0.238200  1.0  -0.0877
  C  C151  1  0.218200  0.401000  0.182500  1.0  0.1703
  C  C152  1  0.331100  0.262700  0.202800  1.0  -0.059
  C  C153  1  0.296800  0.292900  0.124500  1.0  -0.1491
  C  C154  1  0.163100  0.437000  0.037200  1.0  -0.1204
  C  C155  1  0.111500  0.539000  0.034000  1.0  0.0689
  C  C156  1  0.618600  0.722100  0.469100  1.0  0.1586
  C  C157  1  0.772600  0.626400  0.469900  1.0  -0.0097
  C  C158  1  0.732700  0.636700  0.399600  1.0  -0.16
  C  C159  1  0.557200  0.726000  0.339800  1.0  -0.133
  C  C160  1  0.575600  0.790200  0.256700  1.0  0.0823
  C  C161  1  0.562600  0.589100  0.756700  1.0  0.1667
  C  C162  1  0.518000  0.615700  0.641100  1.0  -0.0247
  C  C163  1  0.449400  0.580700  0.695000  1.0  -0.1439
  C  C164  1  0.500500  0.155500  0.386100  1.0  0.168
  C  C165  1  0.377100  0.107600  0.391800  1.0  -0.009
  C  C166  1  0.467800  0.031100  0.398900  1.0  -0.1723
  C  C167  1  0.657900  0.010300  0.398400  1.0  -0.0679
  C  C168  1  0.706800  0.990100  0.318200  1.0  0.0551
  C  C169  1  0.711400  0.062900  0.249500  1.0  -0.0794
  C  C170  1  0.744200  0.902500  0.311500  1.0  -0.1332
  C  C171  1  0.714100  0.977400  0.891100  1.0  0.4215
  C  C172  1  0.619000  0.105100  0.929400  1.0  0.3757
  C  C173  1  0.637300  0.962300  0.018200  1.0  0.3649
  C  C174  1  0.912200  0.986000  0.961500  1.0  0.3591
  C  C175  1  0.854600  0.935300  0.093600  1.0  0.3762
  C  C176  1  0.957100  0.830900  0.027700  1.0  0.369
  C  C177  1  0.117800  0.260600  0.351600  1.0  0.1839
  C  C178  1  0.127000  0.240900  0.475500  1.0  -0.0098
  C  C179  1  0.058100  0.202200  0.468000  1.0  -0.1123
  C  C180  1  0.994600  0.186300  0.351200  1.0  -0.0719
  C  C181  1  0.068800  0.142900  0.286600  1.0  0.0342
  C  C182  1  0.139300  0.049700  0.309700  1.0  -0.0888
  C  C183  1  0.211400  0.012500  0.252700  1.0  -0.0738
  C  C184  1  0.213000  0.066800  0.169700  1.0  -0.0938
  C  C185  1  0.142300  0.158800  0.149100  1.0  -0.0654
  C  C186  1  0.067900  0.198000  0.204100  1.0  -0.1937
  C  C187  1  0.422500  0.791000  0.089700  1.0  -0.0494
  C  C188  1  0.406100  0.736400  0.168800  1.0  -0.1376
  C  C189  1  0.450700  0.637800  0.187600  1.0  -0.1087
  C  C190  1  0.509000  0.593600  0.129700  1.0  0.081
  C  C191  1  0.521500  0.649200  0.053600  1.0  -0.1571
  C  C192  1  0.478900  0.745500  0.033300  1.0  -0.0867
  C  C193  1  0.559700  0.487800  0.150800  1.0  -0.1063
  C  C194  1  0.383700  0.097800  0.899800  1.0  -0.1155
  C  C195  1  0.447100  0.057500  0.843100  1.0  -0.0808
  C  C196  1  0.467500  0.113300  0.765400  1.0  -0.1099
  C  C197  1  0.356000  0.250800  0.802400  1.0  -0.1162
  C  C198  1  0.336800  0.195100  0.879300  1.0  -0.0381
  C  C199  1  0.203800  0.538400  0.347800  1.0  0.1452
  C  C200  1  0.077100  0.508300  0.329300  1.0  -0.0129
  C  C201  1  0.038900  0.601000  0.325100  1.0  -0.1721
  C  C202  1  0.112900  0.710200  0.341500  1.0  -0.0905
  C  C203  1  0.099900  0.787300  0.261100  1.0  0.0355
  C  C204  1  0.143400  0.767500  0.188200  1.0  -0.144
  C  C205  1  0.139800  0.840900  0.116000  1.0  -0.0555
  C  C206  1  0.089300  0.933900  0.114100  1.0  -0.1299
  C  C207  1  0.042900  0.954900  0.186200  1.0  -0.1286
  C  C208  1  0.048600  0.880700  0.258600  1.0  -0.1062
  C  C209  1  0.990600  0.268200  0.971900  1.0  -0.0769
  C  C210  1  0.026000  0.340400  0.916400  1.0  -0.0878
  C  C211  1  0.978800  0.432600  0.915400  1.0  -0.1412
  C  C212  1  0.853600  0.394300  0.020000  1.0  -0.1018
  C  C213  1  0.903000  0.298400  0.023300  1.0  -0.0825
  C  C214  1  0.201300  0.042800  0.830100  1.0  -0.1268
  C  C215  1  0.239000  0.955800  0.824800  1.0  -0.0952
  C  C216  1  0.209100  0.115700  0.761800  1.0  -0.0886
  C  C217  1  0.781800  0.599000  0.817500  1.0  0.171
  C  C218  1  0.668900  0.737300  0.797200  1.0  -0.0584
  C  C219  1  0.703200  0.707100  0.875500  1.0  -0.1489
  C  C220  1  0.836900  0.563000  0.962800  1.0  -0.1191
  C  C221  1  0.888500  0.461000  0.966000  1.0  0.0692
  C  C222  1  0.381400  0.277900  0.530900  1.0  0.1591
  C  C223  1  0.227400  0.373600  0.530100  1.0  -0.0107
  C  C224  1  0.267300  0.363300  0.600400  1.0  -0.1601
  C  C225  1  0.442800  0.274000  0.660200  1.0  -0.136
  C  C226  1  0.424400  0.209800  0.743300  1.0  0.0813
  C  C227  1  0.437400  0.410900  0.243300  1.0  0.1661
  C  C228  1  0.482000  0.384300  0.358900  1.0  -0.0225
  C  C229  1  0.550600  0.419300  0.305000  1.0  -0.1414
  C  C230  1  0.499500  0.844500  0.613900  1.0  0.1703
  C  C231  1  0.622900  0.892400  0.608200  1.0  -0.0125
  C  C232  1  0.532200  0.968900  0.601100  1.0  -0.172
  C  C233  1  0.342100  0.989700  0.601600  1.0  -0.0684
  C  C234  1  0.293200  0.009900  0.681800  1.0  0.0545
  C  C235  1  0.288600  0.937100  0.750500  1.0  -0.0815
  C  C236  1  0.255800  0.097500  0.688500  1.0  -0.1326
  C  C237  1  0.285900  0.022600  0.108900  1.0  0.4215
  C  C238  1  0.381000  0.894900  0.070600  1.0  0.3758
  C  C239  1  0.362700  0.037700  0.981800  1.0  0.3638
  C  C240  1  0.087800  0.014000  0.038500  1.0  0.3594
  C  C241  1  0.145400  0.064700  0.906400  1.0  0.3749
  C  C242  1  0.042900  0.169100  0.972300  1.0  0.3685
  N  N243  1  0.678000  0.068500  0.871700  1.0  -0.4469
  N  N244  1  0.598400  0.054200  0.003700  1.0  -0.4742
  N  N245  1  0.698000  0.917200  0.963900  1.0  -0.5006
  N  N246  1  0.854300  0.010200  0.027600  1.0  -0.5338
  N  N247  1  0.899800  0.846900  0.094900  1.0  -0.4724
  N  N248  1  0.965700  0.899500  0.960900  1.0  -0.4603
  N  N249  1  0.836300  0.720200  0.599000  1.0  -0.3713
  N  N250  1  0.947100  0.782600  0.610000  1.0  0.0782
  N  N251  1  0.817700  0.530000  0.658300  1.0  -0.367
  N  N252  1  0.879600  0.380400  0.662900  1.0  0.0362
  N  N253  1  0.280400  0.332600  0.238400  1.0  -0.3369
  N  N254  1  0.226100  0.380200  0.112100  1.0  0.0258
  N  N255  1  0.700600  0.679100  0.514400  1.0  -0.3611
  N  N256  1  0.634100  0.697300  0.399900  1.0  0.0547
  N  N257  1  0.395600  0.186800  0.382000  1.0  -0.3928
  N  N258  1  0.547700  0.063200  0.395100  1.0  0.0362
  N  N259  1  0.587900  0.621500  0.679400  1.0  -0.3561
  N  N260  1  0.478500  0.563300  0.770100  1.0  0.0266
  N  N261  1  0.322000  0.931500  0.128300  1.0  -0.4471
  N  N262  1  0.401600  0.945800  0.996300  1.0  -0.4723
  N  N263  1  0.302000  0.082800  0.036100  1.0  -0.5
  N  N264  1  0.145700  0.989800  0.972400  1.0  -0.5335
  N  N265  1  0.100200  0.153100  0.905100  1.0  -0.472
  N  N266  1  0.034300  0.100500  0.039100  1.0  -0.4599
  N  N267  1  0.163700  0.279800  0.401000  1.0  -0.3722
  N  N268  1  0.052900  0.217400  0.390000  1.0  0.0767
  N  N269  1  0.182300  0.470000  0.341700  1.0  -0.3678
  N  N270  1  0.120400  0.619600  0.337100  1.0  0.0363
  N  N271  1  0.719600  0.667400  0.761600  1.0  -0.3364
  N  N272  1  0.773900  0.619800  0.887900  1.0  0.0258
  N  N273  1  0.299400  0.320900  0.485600  1.0  -0.358
  N  N274  1  0.365900  0.302700  0.600100  1.0  0.055
  N  N275  1  0.604400  0.813200  0.618000  1.0  -0.3936
  N  N276  1  0.452300  0.936800  0.604900  1.0  0.0359
  N  N277  1  0.412100  0.378500  0.320600  1.0  -0.3543
  N  N278  1  0.521500  0.436700  0.229900  1.0  0.0264
