# generated using pymatgen
data_Cu3H21(C5N2)4
_symmetry_space_group_name_H-M   'P 1'
_cell_length_a   11.42870000
_cell_length_b   11.70310000
_cell_length_c   12.91800000
_cell_angle_alpha   64.00500000
_cell_angle_beta   89.78300000
_cell_angle_gamma   71.12900000
_symmetry_Int_Tables_number   1
_chemical_formula_structural   Cu3H21(C5N2)4
_chemical_formula_sum   'Cu6 H42 C40 N16'
_cell_volume   1450.06076601
_cell_formula_units_Z   2
loop_
 _symmetry_equiv_pos_site_id
 _symmetry_equiv_pos_as_xyz
  1  'x, y, z'
loop_
 _atom_site_type_symbol
 _atom_site_label
 _atom_site_symmetry_multiplicity
 _atom_site_fract_x
 _atom_site_fract_y
 _atom_site_fract_z
 _atom_site_occupancy
 _atom_site_charge
  Cu  Cu1  1  0.624990  0.831580  0.919950  1.0  0.3199
  Cu  Cu2  1  0.454410  0.131390  0.502000  1.0  0.2562
  Cu  Cu3  1  0.684510  0.361930  0.203900  1.0  0.3263
  Cu  Cu4  1  0.375010  0.168420  0.080050  1.0  0.3196
  Cu  Cu5  1  0.545590  0.868610  0.498000  1.0  0.2564
  Cu  Cu6  1  0.315490  0.638070  0.796100  1.0  0.3247
  H  H7  1  0.090500  0.479200  0.067800  1.0  0.1236
  H  H8  1  0.032700  0.567500  0.130800  1.0  0.1264
  H  H9  1  0.171600  0.542000  0.108600  1.0  0.1318
  H  H10  1  0.318500  0.373600  0.278000  1.0  0.275
  H  H11  1  0.597600  0.124800  0.787300  1.0  0.2784
  H  H12  1  0.211100  0.061000  0.582700  1.0  0.1369
  H  H13  1  0.078900  0.091700  0.520800  1.0  0.1223
  H  H14  1  0.199500  0.995800  0.501800  1.0  0.142
  H  H15  1  0.907900  0.390400  0.236200  1.0  0.1258
  H  H16  1  0.931000  0.253900  0.349600  1.0  0.1228
  H  H17  1  0.138900  0.155300  0.192900  1.0  0.1144
  H  H18  1  0.107600  0.061500  0.075500  1.0  0.0836
  H  H19  1  0.909600  0.069100  0.029700  1.0  0.1078
  H  H20  1  0.663600  0.142900  0.160200  1.0  0.1345
  H  H21  1  0.638200  0.282600  0.049600  1.0  0.1286
  H  H22  1  0.548700  0.368200  0.738800  1.0  0.1365
  H  H23  1  0.577700  0.398500  0.840800  1.0  0.1287
  H  H24  1  0.685900  0.350400  0.777600  1.0  0.1238
  H  H25  1  0.740300  0.790100  0.151200  1.0  0.1305
  H  H26  1  0.785500  0.871800  0.201000  1.0  0.1319
  H  H27  1  0.647000  0.875900  0.202000  1.0  0.134
  H  H28  1  0.909500  0.520800  0.932200  1.0  0.1233
  H  H29  1  0.967300  0.432500  0.869200  1.0  0.1272
  H  H30  1  0.828400  0.458000  0.891400  1.0  0.1319
  H  H31  1  0.681500  0.626400  0.722000  1.0  0.2728
  H  H32  1  0.402400  0.875200  0.212700  1.0  0.2778
  H  H33  1  0.788900  0.939000  0.417300  1.0  0.1361
  H  H34  1  0.921100  0.908300  0.479200  1.0  0.1206
  H  H35  1  0.800500  0.004200  0.498200  1.0  0.1422
  H  H36  1  0.092100  0.609600  0.763800  1.0  0.1274
  H  H37  1  0.069000  0.746100  0.650400  1.0  0.121
  H  H38  1  0.861100  0.844700  0.807100  1.0  0.1152
  H  H39  1  0.892400  0.938500  0.924500  1.0  0.0835
  H  H40  1  0.090400  0.930900  0.970300  1.0  0.1074
  H  H41  1  0.336400  0.857100  0.839800  1.0  0.1325
  H  H42  1  0.361800  0.717400  0.950400  1.0  0.1292
  H  H43  1  0.451300  0.631800  0.261200  1.0  0.1374
  H  H44  1  0.422300  0.601500  0.159200  1.0  0.1277
  H  H45  1  0.314100  0.649600  0.222400  1.0  0.1249
  H  H46  1  0.259700  0.209900  0.848800  1.0  0.1305
  H  H47  1  0.214500  0.128200  0.799000  1.0  0.1313
  H  H48  1  0.353000  0.124100  0.798000  1.0  0.1427
  C  C49  1  0.107700  0.502800  0.127100  1.0  -0.3811
  C  C50  1  0.150800  0.379500  0.240700  1.0  0.1725
  C  C51  1  0.092200  0.291100  0.310300  1.0  -0.2064
  C  C52  1  0.177300  0.196700  0.409400  1.0  0.2481
  C  C53  1  0.165600  0.075200  0.513100  1.0  -0.3864
  C  C54  1  0.962800  0.295700  0.278100  1.0  -0.2331
  C  C55  1  0.955300  0.228000  0.206300  1.0  0.284
  C  C56  1  0.059000  0.161200  0.170800  1.0  -0.2185
  C  C57  1  0.040300  0.104100  0.102600  1.0  0.0057
  C  C58  1  0.922200  0.109900  0.074200  1.0  -0.188
  C  C59  1  0.823800  0.175400  0.111500  1.0  0.2874
  C  C60  1  0.690900  0.187000  0.086600  1.0  -0.217
  C  C61  1  0.609300  0.341300  0.804100  1.0  -0.372
  C  C62  1  0.633600  0.196400  0.890100  1.0  0.1749
  C  C63  1  0.669800  0.125600  0.009000  1.0  -0.1806
  C  C64  1  0.677600  0.991900  0.042200  1.0  0.218
  C  C65  1  0.716000  0.871800  0.159500  1.0  -0.3838
  C  C66  1  0.520700  0.010200  0.658500  1.0  -0.1029
  C  C67  1  0.590000  0.294100  0.316000  1.0  -0.1393
  C  C68  1  0.657100  0.652300  0.023600  1.0  -0.1121
  C  C69  1  0.892300  0.497200  0.872900  1.0  -0.3799
  C  C70  1  0.849200  0.620500  0.759300  1.0  0.1731
  C  C71  1  0.907800  0.708900  0.689700  1.0  -0.2086
  C  C72  1  0.822700  0.803300  0.590600  1.0  0.2535
  C  C73  1  0.834400  0.924800  0.486900  1.0  -0.3887
  C  C74  1  0.037200  0.704300  0.721900  1.0  -0.2532
  C  C75  1  0.044700  0.772000  0.793700  1.0  0.2843
  C  C76  1  0.941000  0.838800  0.829200  1.0  -0.2153
  C  C77  1  0.959700  0.895900  0.897400  1.0  0.0063
  C  C78  1  0.077800  0.890100  0.925800  1.0  -0.1852
  C  C79  1  0.176200  0.824600  0.888500  1.0  0.2871
  C  C80  1  0.309100  0.813000  0.913400  1.0  -0.2193
  C  C81  1  0.390700  0.658700  0.195900  1.0  -0.3726
  C  C82  1  0.366400  0.803600  0.109900  1.0  0.1752
  C  C83  1  0.330200  0.874400  0.991000  1.0  -0.1808
  C  C84  1  0.322400  0.008100  0.957800  1.0  0.2186
  C  C85  1  0.284000  0.128200  0.840500  1.0  -0.384
  C  C86  1  0.479300  0.989800  0.341500  1.0  -0.1001
  C  C87  1  0.410000  0.705900  0.684000  1.0  -0.1268
  C  C88  1  0.342900  0.347700  0.976400  1.0  -0.0991
  N  N89  1  0.284300  0.219300  0.405900  1.0  -0.2646
  N  N90  1  0.264200  0.334900  0.301300  1.0  -0.1477
  N  N91  1  0.840200  0.235000  0.175400  1.0  -0.3487
  N  N92  1  0.620800  0.105200  0.858200  1.0  -0.126
  N  N93  1  0.648500  0.978700  0.949700  1.0  -0.2721
  N  N94  1  0.562800  0.940500  0.754500  1.0  -0.3155
  N  N95  1  0.535900  0.244900  0.386100  1.0  -0.3065
  N  N96  1  0.671900  0.539700  0.092600  1.0  -0.3394
  N  N97  1  0.715700  0.780700  0.594100  1.0  -0.2644
  N  N98  1  0.735800  0.665100  0.698700  1.0  -0.1457
  N  N99  1  0.159800  0.765000  0.824600  1.0  -0.3502
  N  N100  1  0.379200  0.894800  0.141800  1.0  -0.125
  N  N101  1  0.351500  0.021300  0.050300  1.0  -0.2727
  N  N102  1  0.437200  0.059500  0.245500  1.0  -0.3149
  N  N103  1  0.464100  0.755100  0.613900  1.0  -0.3047
  N  N104  1  0.328100  0.460300  0.907400  1.0  -0.3408
