# generated using pymatgen
data_Cu6H29C65(NO6)4
_symmetry_space_group_name_H-M   'P 1'
_cell_length_a   24.65000000
_cell_length_b   33.49400000
_cell_length_c   18.52900000
_cell_angle_alpha   90.00000000
_cell_angle_beta   90.00000000
_cell_angle_gamma   90.00000000
_symmetry_Int_Tables_number   1
_chemical_formula_structural   Cu6H29C65(NO6)4
_chemical_formula_sum   'Cu24 H116 C260 N16 O96'
_cell_volume   15298.04453590
_cell_formula_units_Z   4
loop_
 _symmetry_equiv_pos_site_id
 _symmetry_equiv_pos_as_xyz
  1  'x, y, z'
loop_
 _atom_site_type_symbol
 _atom_site_label
 _atom_site_symmetry_multiplicity
 _atom_site_fract_x
 _atom_site_fract_y
 _atom_site_fract_z
 _atom_site_occupancy
 _atom_site_charge
  Cu  Cu1  1  0.210020  0.232730  0.463670  1.0  0.9144
  Cu  Cu2  1  0.710020  0.732730  0.463670  1.0  0.9144
  Cu  Cu3  1  0.789980  0.767270  0.963670  1.0  0.9152
  Cu  Cu4  1  0.289980  0.267270  0.963670  1.0  0.9152
  Cu  Cu5  1  0.789980  0.232730  0.036330  1.0  0.9143
  Cu  Cu6  1  0.289980  0.732730  0.036330  1.0  0.9143
  Cu  Cu7  1  0.210020  0.767270  0.536330  1.0  0.9142
  Cu  Cu8  1  0.710020  0.267270  0.536330  1.0  0.9142
  Cu  Cu9  1  0.789980  0.767270  0.536330  1.0  0.9148
  Cu  Cu10  1  0.289980  0.267270  0.536330  1.0  0.9148
  Cu  Cu11  1  0.210020  0.232730  0.036330  1.0  0.9148
  Cu  Cu12  1  0.710020  0.732730  0.036330  1.0  0.9148
  Cu  Cu13  1  0.210020  0.767270  0.963670  1.0  0.9145
  Cu  Cu14  1  0.710020  0.267270  0.963670  1.0  0.9145
  Cu  Cu15  1  0.789980  0.232730  0.463670  1.0  0.9142
  Cu  Cu16  1  0.289980  0.732730  0.463670  1.0  0.9142
  Cu  Cu17  1  0.000000  0.439180  0.250000  1.0  0.8987
  Cu  Cu18  1  0.000000  0.360210  0.250000  1.0  0.9099
  Cu  Cu19  1  0.500000  0.939180  0.250000  1.0  0.889
  Cu  Cu20  1  0.500000  0.860210  0.250000  1.0  0.9099
  Cu  Cu21  1  0.000000  0.560820  0.750000  1.0  0.9001
  Cu  Cu22  1  0.000000  0.639790  0.750000  1.0  0.9094
  Cu  Cu23  1  0.500000  0.060820  0.750000  1.0  0.8979
  Cu  Cu24  1  0.500000  0.139790  0.750000  1.0  0.9094
  H  H25  1  0.134800  0.456900  0.400300  1.0  0.1154
  H  H26  1  0.245400  0.389700  0.507300  1.0  0.1145
  H  H27  1  0.121200  0.337100  0.401100  1.0  0.1096
  H  H28  1  0.299700  0.444700  0.464100  1.0  0.0959
  H  H29  1  0.391600  0.300800  0.359300  1.0  0.1085
  H  H30  1  0.422100  0.372400  0.319100  1.0  0.0918
  H  H31  1  0.634800  0.956900  0.400300  1.0  0.111
  H  H32  1  0.745400  0.889700  0.507300  1.0  0.1145
  H  H33  1  0.621200  0.837100  0.401100  1.0  0.1096
  H  H34  1  0.799700  0.944700  0.464100  1.0  0.0959
  H  H35  1  0.891600  0.800800  0.359300  1.0  0.1085
  H  H36  1  0.922100  0.872400  0.319100  1.0  0.0918
  H  H37  1  0.865200  0.543100  0.900300  1.0  0.1155
  H  H38  1  0.754600  0.610300  0.007300  1.0  0.1147
  H  H39  1  0.878800  0.662900  0.901100  1.0  0.1099
  H  H40  1  0.700300  0.555300  0.964100  1.0  0.0976
  H  H41  1  0.608400  0.699200  0.859300  1.0  0.1088
  H  H42  1  0.577900  0.627600  0.819100  1.0  0.0918
  H  H43  1  0.365200  0.043100  0.900300  1.0  0.1155
  H  H44  1  0.254600  0.110300  0.007300  1.0  0.1147
  H  H45  1  0.378800  0.162900  0.901100  1.0  0.1099
  H  H46  1  0.200300  0.055300  0.964100  1.0  0.0976
  H  H47  1  0.108400  0.199200  0.859300  1.0  0.1088
  H  H48  1  0.077900  0.127600  0.819100  1.0  0.0918
  H  H49  1  0.865200  0.456900  0.099700  1.0  0.1153
  H  H50  1  0.754600  0.389700  0.992700  1.0  0.115
  H  H51  1  0.878800  0.337100  0.098900  1.0  0.1093
  H  H52  1  0.700300  0.444700  0.035900  1.0  0.0962
  H  H53  1  0.608400  0.300800  0.140700  1.0  0.108
  H  H54  1  0.577900  0.372400  0.180900  1.0  0.0916
  H  H55  1  0.365200  0.956900  0.099700  1.0  0.1108
  H  H56  1  0.254600  0.889700  0.992700  1.0  0.115
  H  H57  1  0.378800  0.837100  0.098900  1.0  0.1093
  H  H58  1  0.200300  0.944700  0.035900  1.0  0.0962
  H  H59  1  0.108400  0.800800  0.140700  1.0  0.108
  H  H60  1  0.077900  0.872400  0.180900  1.0  0.0916
  H  H61  1  0.134800  0.543100  0.599700  1.0  0.1155
  H  H62  1  0.245400  0.610300  0.492700  1.0  0.1146
  H  H63  1  0.121200  0.662900  0.598900  1.0  0.1098
  H  H64  1  0.299700  0.555300  0.535900  1.0  0.095
  H  H65  1  0.391600  0.699200  0.640700  1.0  0.1083
  H  H66  1  0.422100  0.627600  0.680900  1.0  0.0916
  H  H67  1  0.634800  0.043100  0.599700  1.0  0.1155
  H  H68  1  0.745400  0.110300  0.492700  1.0  0.1146
  H  H69  1  0.621200  0.162900  0.598900  1.0  0.1098
  H  H70  1  0.799700  0.055300  0.535900  1.0  0.095
  H  H71  1  0.891600  0.199200  0.640700  1.0  0.1083
  H  H72  1  0.922100  0.127600  0.680900  1.0  0.0916
  H  H73  1  0.865200  0.543100  0.599700  1.0  0.1157
  H  H74  1  0.754600  0.610300  0.492700  1.0  0.1152
  H  H75  1  0.878800  0.662900  0.598900  1.0  0.1097
  H  H76  1  0.700300  0.555300  0.535900  1.0  0.096
  H  H77  1  0.608400  0.699200  0.640700  1.0  0.1079
  H  H78  1  0.577900  0.627600  0.680900  1.0  0.0916
  H  H79  1  0.365200  0.043100  0.599700  1.0  0.1157
  H  H80  1  0.254600  0.110300  0.492700  1.0  0.1152
  H  H81  1  0.378800  0.162900  0.598900  1.0  0.1097
  H  H82  1  0.200300  0.055300  0.535900  1.0  0.096
  H  H83  1  0.108400  0.199200  0.640700  1.0  0.1079
  H  H84  1  0.077900  0.127600  0.680900  1.0  0.0916
  H  H85  1  0.134800  0.456900  0.099700  1.0  0.1154
  H  H86  1  0.245400  0.389700  0.992700  1.0  0.1147
  H  H87  1  0.121200  0.337100  0.098900  1.0  0.1095
  H  H88  1  0.299700  0.444700  0.035900  1.0  0.096
  H  H89  1  0.391600  0.300800  0.140700  1.0  0.1083
  H  H90  1  0.422100  0.372400  0.180900  1.0  0.0919
  H  H91  1  0.634800  0.956900  0.099700  1.0  0.1111
  H  H92  1  0.745400  0.889700  0.992700  1.0  0.1147
  H  H93  1  0.621200  0.837100  0.098900  1.0  0.1095
  H  H94  1  0.799700  0.944700  0.035900  1.0  0.096
  H  H95  1  0.891600  0.800800  0.140700  1.0  0.1083
  H  H96  1  0.922100  0.872400  0.180900  1.0  0.0919
  H  H97  1  0.134800  0.543100  0.900300  1.0  0.1154
  H  H98  1  0.245400  0.610300  0.007300  1.0  0.1142
  H  H99  1  0.121200  0.662900  0.901100  1.0  0.1099
  H  H100  1  0.299700  0.555300  0.964100  1.0  0.0968
  H  H101  1  0.391600  0.699200  0.859300  1.0  0.1086
  H  H102  1  0.422100  0.627600  0.819100  1.0  0.0918
  H  H103  1  0.634800  0.043100  0.900300  1.0  0.1154
  H  H104  1  0.745400  0.110300  0.007300  1.0  0.1142
  H  H105  1  0.621200  0.162900  0.901100  1.0  0.1099
  H  H106  1  0.799700  0.055300  0.964100  1.0  0.0968
  H  H107  1  0.891600  0.199200  0.859300  1.0  0.1086
  H  H108  1  0.922100  0.127600  0.819100  1.0  0.0918
  H  H109  1  0.865200  0.456900  0.400300  1.0  0.1152
  H  H110  1  0.754600  0.389700  0.507300  1.0  0.1146
  H  H111  1  0.878800  0.337100  0.401100  1.0  0.1096
  H  H112  1  0.700300  0.444700  0.464100  1.0  0.0959
  H  H113  1  0.608400  0.300800  0.359300  1.0  0.1088
  H  H114  1  0.577900  0.372400  0.319100  1.0  0.0917
  H  H115  1  0.365200  0.956900  0.400300  1.0  0.1108
  H  H116  1  0.254600  0.889700  0.507300  1.0  0.1146
  H  H117  1  0.378800  0.837100  0.401100  1.0  0.1096
  H  H118  1  0.200300  0.944700  0.464100  1.0  0.0959
  H  H119  1  0.108400  0.800800  0.359300  1.0  0.1088
  H  H120  1  0.077900  0.872400  0.319100  1.0  0.0917
  H  H121  1  0.156700  0.500000  0.500000  1.0  0.1198
  H  H122  1  0.656700  0.000000  0.500000  1.0  0.1198
  H  H123  1  0.843300  0.500000  0.000000  1.0  0.1198
  H  H124  1  0.343300  0.000000  0.000000  1.0  0.1198
  H  H125  1  0.843300  0.500000  0.500000  1.0  0.1198
  H  H126  1  0.343300  0.000000  0.500000  1.0  0.1198
  H  H127  1  0.156700  0.500000  0.000000  1.0  0.1198
  H  H128  1  0.656700  0.000000  0.000000  1.0  0.1198
  H  H129  1  0.272100  0.244900  0.250000  1.0  0.1134
  H  H130  1  0.772100  0.744900  0.250000  1.0  0.1134
  H  H131  1  0.727900  0.755100  0.750000  1.0  0.1132
  H  H132  1  0.227900  0.255100  0.750000  1.0  0.1132
  H  H133  1  0.727900  0.244900  0.250000  1.0  0.1128
  H  H134  1  0.227900  0.744900  0.250000  1.0  0.1128
  H  H135  1  0.272100  0.755100  0.750000  1.0  0.1136
  H  H136  1  0.772100  0.255100  0.750000  1.0  0.1136
  H  H137  1  0.500000  0.282100  0.250000  1.0  0.0385
  H  H138  1  0.000000  0.782100  0.250000  1.0  0.0385
  H  H139  1  0.500000  0.717900  0.750000  1.0  0.0366
  H  H140  1  0.000000  0.217900  0.750000  1.0  0.0366
  C  C141  1  0.073930  0.399380  0.343800  1.0  0.6748
  C  C142  1  0.120970  0.396950  0.393990  1.0  -0.1418
  C  C143  1  0.148010  0.431500  0.415010  1.0  -0.0684
  C  C144  1  0.194610  0.428950  0.457790  1.0  0.0527
  C  C145  1  0.213310  0.391680  0.479180  1.0  -0.0579
  C  C146  1  0.185530  0.357510  0.459810  1.0  -0.1655
  C  C147  1  0.139630  0.360610  0.415900  1.0  0.0169
  C  C148  1  0.206890  0.316550  0.478830  1.0  0.7026
  C  C149  1  0.223150  0.466060  0.479390  1.0  0.0433
  C  C150  1  0.280100  0.467630  0.479370  1.0  0.1282
  C  C151  1  0.300060  0.261340  0.384540  1.0  0.696
  C  C152  1  0.327420  0.271590  0.314600  1.0  -0.1248
  C  C153  1  0.375200  0.293580  0.314710  1.0  -0.0936
  C  C154  1  0.454930  0.362620  0.299010  1.0  0.0486
  C  C155  1  0.573930  0.899380  0.343800  1.0  0.6748
  C  C156  1  0.620970  0.896950  0.393990  1.0  -0.1418
  C  C157  1  0.648010  0.931500  0.415010  1.0  -0.0684
  C  C158  1  0.694610  0.928950  0.457790  1.0  0.0527
  C  C159  1  0.713310  0.891680  0.479180  1.0  -0.0579
  C  C160  1  0.685530  0.857510  0.459810  1.0  -0.1655
  C  C161  1  0.639630  0.860610  0.415900  1.0  0.0169
  C  C162  1  0.706890  0.816550  0.478830  1.0  0.7026
  C  C163  1  0.723150  0.966060  0.479390  1.0  0.0433
  C  C164  1  0.780100  0.967630  0.479370  1.0  0.1282
  C  C165  1  0.800060  0.761340  0.384540  1.0  0.696
  C  C166  1  0.827420  0.771590  0.314600  1.0  -0.1248
  C  C167  1  0.875200  0.793580  0.314710  1.0  -0.0936
  C  C168  1  0.954930  0.862620  0.299010  1.0  0.0486
  C  C169  1  0.926070  0.600620  0.843800  1.0  0.6742
  C  C170  1  0.879030  0.603050  0.893990  1.0  -0.1421
  C  C171  1  0.851990  0.568500  0.915010  1.0  -0.0673
  C  C172  1  0.805390  0.571050  0.957790  1.0  0.0522
  C  C173  1  0.786690  0.608320  0.979180  1.0  -0.058
  C  C174  1  0.814470  0.642490  0.959810  1.0  -0.1667
  C  C175  1  0.860370  0.639390  0.915900  1.0  0.0157
  C  C176  1  0.793110  0.683450  0.978830  1.0  0.703
  C  C177  1  0.776850  0.533940  0.979390  1.0  0.044
  C  C178  1  0.719900  0.532370  0.979370  1.0  0.1278
  C  C179  1  0.699940  0.738660  0.884540  1.0  0.6962
  C  C180  1  0.672580  0.728410  0.814600  1.0  -0.1241
  C  C181  1  0.624800  0.706420  0.814710  1.0  -0.0945
  C  C182  1  0.545070  0.637380  0.799010  1.0  0.051
  C  C183  1  0.426070  0.100620  0.843800  1.0  0.6742
  C  C184  1  0.379030  0.103050  0.893990  1.0  -0.1421
  C  C185  1  0.351990  0.068500  0.915010  1.0  -0.0673
  C  C186  1  0.305390  0.071050  0.957790  1.0  0.0522
  C  C187  1  0.286690  0.108320  0.979180  1.0  -0.058
  C  C188  1  0.314470  0.142490  0.959810  1.0  -0.1667
  C  C189  1  0.360370  0.139390  0.915900  1.0  0.0157
  C  C190  1  0.293110  0.183450  0.978830  1.0  0.703
  C  C191  1  0.276850  0.033940  0.979390  1.0  0.044
  C  C192  1  0.219900  0.032370  0.979370  1.0  0.1278
  C  C193  1  0.199940  0.238660  0.884540  1.0  0.6962
  C  C194  1  0.172580  0.228410  0.814600  1.0  -0.1241
  C  C195  1  0.124800  0.206420  0.814710  1.0  -0.0945
  C  C196  1  0.045070  0.137380  0.799010  1.0  0.051
  C  C197  1  0.926070  0.399380  0.156200  1.0  0.6748
  C  C198  1  0.879030  0.396950  0.106010  1.0  -0.1425
  C  C199  1  0.851990  0.431500  0.084990  1.0  -0.068
  C  C200  1  0.805390  0.428950  0.042210  1.0  0.0523
  C  C201  1  0.786690  0.391680  0.020820  1.0  -0.0584
  C  C202  1  0.814470  0.357510  0.040190  1.0  -0.1661
  C  C203  1  0.860370  0.360610  0.084100  1.0  0.0164
  C  C204  1  0.793110  0.316550  0.021170  1.0  0.7025
  C  C205  1  0.776850  0.466060  0.020610  1.0  0.0436
  C  C206  1  0.719900  0.467630  0.020630  1.0  0.1285
  C  C207  1  0.699940  0.261340  0.115460  1.0  0.6962
  C  C208  1  0.672580  0.271590  0.185400  1.0  -0.1246
  C  C209  1  0.624800  0.293580  0.185290  1.0  -0.0926
  C  C210  1  0.545070  0.362620  0.200990  1.0  0.049
  C  C211  1  0.426070  0.899380  0.156200  1.0  0.6748
  C  C212  1  0.379030  0.896950  0.106010  1.0  -0.1425
  C  C213  1  0.351990  0.931500  0.084990  1.0  -0.068
  C  C214  1  0.305390  0.928950  0.042210  1.0  0.0523
  C  C215  1  0.286690  0.891680  0.020820  1.0  -0.0584
  C  C216  1  0.314470  0.857510  0.040190  1.0  -0.1661
  C  C217  1  0.360370  0.860610  0.084100  1.0  0.0164
  C  C218  1  0.293110  0.816550  0.021170  1.0  0.7025
  C  C219  1  0.276850  0.966060  0.020610  1.0  0.0436
  C  C220  1  0.219900  0.967630  0.020630  1.0  0.1285
  C  C221  1  0.199940  0.761340  0.115460  1.0  0.6962
  C  C222  1  0.172580  0.771590  0.185400  1.0  -0.1246
  C  C223  1  0.124800  0.793580  0.185290  1.0  -0.0926
  C  C224  1  0.045070  0.862620  0.200990  1.0  0.049
  C  C225  1  0.073930  0.600620  0.656200  1.0  0.6749
  C  C226  1  0.120970  0.603050  0.606010  1.0  -0.1414
  C  C227  1  0.148010  0.568500  0.584990  1.0  -0.0687
  C  C228  1  0.194610  0.571050  0.542210  1.0  0.0528
  C  C229  1  0.213310  0.608320  0.520820  1.0  -0.0579
  C  C230  1  0.185530  0.642490  0.540190  1.0  -0.1655
  C  C231  1  0.139630  0.639390  0.584100  1.0  0.0161
  C  C232  1  0.206890  0.683450  0.521170  1.0  0.7024
  C  C233  1  0.223150  0.533940  0.520610  1.0  0.0434
  C  C234  1  0.280100  0.532370  0.520630  1.0  0.1271
  C  C235  1  0.300060  0.738660  0.615460  1.0  0.6961
  C  C236  1  0.327420  0.728410  0.685400  1.0  -0.1247
  C  C237  1  0.375200  0.706420  0.685290  1.0  -0.0926
  C  C238  1  0.454930  0.637380  0.700990  1.0  0.0505
  C  C239  1  0.573930  0.100620  0.656200  1.0  0.6749
  C  C240  1  0.620970  0.103050  0.606010  1.0  -0.1414
  C  C241  1  0.648010  0.068500  0.584990  1.0  -0.0687
  C  C242  1  0.694610  0.071050  0.542210  1.0  0.0528
  C  C243  1  0.713310  0.108320  0.520820  1.0  -0.0579
  C  C244  1  0.685530  0.142490  0.540190  1.0  -0.1655
  C  C245  1  0.639630  0.139390  0.584100  1.0  0.0161
  C  C246  1  0.706890  0.183450  0.521170  1.0  0.7024
  C  C247  1  0.723150  0.033940  0.520610  1.0  0.0434
  C  C248  1  0.780100  0.032370  0.520630  1.0  0.1271
  C  C249  1  0.800060  0.238660  0.615460  1.0  0.6961
  C  C250  1  0.827420  0.228410  0.685400  1.0  -0.1247
  C  C251  1  0.875200  0.206420  0.685290  1.0  -0.0926
  C  C252  1  0.954930  0.137380  0.700990  1.0  0.0505
  C  C253  1  0.926070  0.600620  0.656200  1.0  0.6747
  C  C254  1  0.879030  0.603050  0.606010  1.0  -0.1421
  C  C255  1  0.851990  0.568500  0.584990  1.0  -0.0675
  C  C256  1  0.805390  0.571050  0.542210  1.0  0.0523
  C  C257  1  0.786690  0.608320  0.520820  1.0  -0.058
  C  C258  1  0.814470  0.642490  0.540190  1.0  -0.1661
  C  C259  1  0.860370  0.639390  0.584100  1.0  0.0155
  C  C260  1  0.793110  0.683450  0.521170  1.0  0.7026
  C  C261  1  0.776850  0.533940  0.520610  1.0  0.0439
  C  C262  1  0.719900  0.532370  0.520630  1.0  0.1277
  C  C263  1  0.699940  0.738660  0.615460  1.0  0.6963
  C  C264  1  0.672580  0.728410  0.685400  1.0  -0.1251
  C  C265  1  0.624800  0.706420  0.685290  1.0  -0.0928
  C  C266  1  0.545070  0.637380  0.700990  1.0  0.0505
  C  C267  1  0.426070  0.100620  0.656200  1.0  0.6747
  C  C268  1  0.379030  0.103050  0.606010  1.0  -0.1421
  C  C269  1  0.351990  0.068500  0.584990  1.0  -0.0675
  C  C270  1  0.305390  0.071050  0.542210  1.0  0.0523
  C  C271  1  0.286690  0.108320  0.520820  1.0  -0.058
  C  C272  1  0.314470  0.142490  0.540190  1.0  -0.1661
  C  C273  1  0.360370  0.139390  0.584100  1.0  0.0155
  C  C274  1  0.293110  0.183450  0.521170  1.0  0.7026
  C  C275  1  0.276850  0.033940  0.520610  1.0  0.0439
  C  C276  1  0.219900  0.032370  0.520630  1.0  0.1277
  C  C277  1  0.199940  0.238660  0.615460  1.0  0.6963
  C  C278  1  0.172580  0.228410  0.685400  1.0  -0.1251
  C  C279  1  0.124800  0.206420  0.685290  1.0  -0.0928
  C  C280  1  0.045070  0.137380  0.700990  1.0  0.0505
  C  C281  1  0.073930  0.399380  0.156200  1.0  0.675
  C  C282  1  0.120970  0.396950  0.106010  1.0  -0.1417
  C  C283  1  0.148010  0.431500  0.084990  1.0  -0.0689
  C  C284  1  0.194610  0.428950  0.042210  1.0  0.0528
  C  C285  1  0.213310  0.391680  0.020820  1.0  -0.0581
  C  C286  1  0.185530  0.357510  0.040190  1.0  -0.1655
  C  C287  1  0.139630  0.360610  0.084100  1.0  0.0165
  C  C288  1  0.206890  0.316550  0.021170  1.0  0.7021
  C  C289  1  0.223150  0.466060  0.020610  1.0  0.0431
  C  C290  1  0.280100  0.467630  0.020630  1.0  0.1288
  C  C291  1  0.300060  0.261340  0.115460  1.0  0.696
  C  C292  1  0.327420  0.271590  0.185400  1.0  -0.1262
  C  C293  1  0.375200  0.293580  0.185290  1.0  -0.0927
  C  C294  1  0.454930  0.362620  0.200990  1.0  0.0482
  C  C295  1  0.573930  0.899380  0.156200  1.0  0.675
  C  C296  1  0.620970  0.896950  0.106010  1.0  -0.1417
  C  C297  1  0.648010  0.931500  0.084990  1.0  -0.0689
  C  C298  1  0.694610  0.928950  0.042210  1.0  0.0528
  C  C299  1  0.713310  0.891680  0.020820  1.0  -0.0581
  C  C300  1  0.685530  0.857510  0.040190  1.0  -0.1655
  C  C301  1  0.639630  0.860610  0.084100  1.0  0.0165
  C  C302  1  0.706890  0.816550  0.021170  1.0  0.7021
  C  C303  1  0.723150  0.966060  0.020610  1.0  0.0431
  C  C304  1  0.780100  0.967630  0.020630  1.0  0.1288
  C  C305  1  0.800060  0.761340  0.115460  1.0  0.696
  C  C306  1  0.827420  0.771590  0.185400  1.0  -0.1262
  C  C307  1  0.875200  0.793580  0.185290  1.0  -0.0927
  C  C308  1  0.954930  0.862620  0.200990  1.0  0.0482
  C  C309  1  0.073930  0.600620  0.843800  1.0  0.6746
  C  C310  1  0.120970  0.603050  0.893990  1.0  -0.1416
  C  C311  1  0.148010  0.568500  0.915010  1.0  -0.0686
  C  C312  1  0.194610  0.571050  0.957790  1.0  0.0527
  C  C313  1  0.213310  0.608320  0.979180  1.0  -0.0575
  C  C314  1  0.185530  0.642490  0.959810  1.0  -0.1659
  C  C315  1  0.139630  0.639390  0.915900  1.0  0.0164
  C  C316  1  0.206890  0.683450  0.978830  1.0  0.7028
  C  C317  1  0.223150  0.533940  0.979390  1.0  0.0435
  C  C318  1  0.280100  0.532370  0.979370  1.0  0.1265
  C  C319  1  0.300060  0.738660  0.884540  1.0  0.696
  C  C320  1  0.327420  0.728410  0.814600  1.0  -0.1253
  C  C321  1  0.375200  0.706420  0.814710  1.0  -0.0935
  C  C322  1  0.454930  0.637380  0.799010  1.0  0.0516
  C  C323  1  0.573930  0.100620  0.843800  1.0  0.6746
  C  C324  1  0.620970  0.103050  0.893990  1.0  -0.1416
  C  C325  1  0.648010  0.068500  0.915010  1.0  -0.0686
  C  C326  1  0.694610  0.071050  0.957790  1.0  0.0527
  C  C327  1  0.713310  0.108320  0.979180  1.0  -0.0575
  C  C328  1  0.685530  0.142490  0.959810  1.0  -0.1659
  C  C329  1  0.639630  0.139390  0.915900  1.0  0.0164
  C  C330  1  0.706890  0.183450  0.978830  1.0  0.7028
  C  C331  1  0.723150  0.033940  0.979390  1.0  0.0435
  C  C332  1  0.780100  0.032370  0.979370  1.0  0.1265
  C  C333  1  0.800060  0.238660  0.884540  1.0  0.696
  C  C334  1  0.827420  0.228410  0.814600  1.0  -0.1253
  C  C335  1  0.875200  0.206420  0.814710  1.0  -0.0935
  C  C336  1  0.954930  0.137380  0.799010  1.0  0.0516
  C  C337  1  0.926070  0.399380  0.343800  1.0  0.6743
  C  C338  1  0.879030  0.396950  0.393990  1.0  -0.1425
  C  C339  1  0.851990  0.431500  0.415010  1.0  -0.0676
  C  C340  1  0.805390  0.428950  0.457790  1.0  0.0522
  C  C341  1  0.786690  0.391680  0.479180  1.0  -0.0584
  C  C342  1  0.814470  0.357510  0.459810  1.0  -0.1664
  C  C343  1  0.860370  0.360610  0.415900  1.0  0.0168
  C  C344  1  0.793110  0.316550  0.478830  1.0  0.703
  C  C345  1  0.776850  0.466060  0.479390  1.0  0.0438
  C  C346  1  0.719900  0.467630  0.479370  1.0  0.1286
  C  C347  1  0.699940  0.261340  0.384540  1.0  0.6963
  C  C348  1  0.672580  0.271590  0.314600  1.0  -0.1255
  C  C349  1  0.624800  0.293580  0.314710  1.0  -0.0944
  C  C350  1  0.545070  0.362620  0.299010  1.0  0.0487
  C  C351  1  0.426070  0.899380  0.343800  1.0  0.6743
  C  C352  1  0.379030  0.896950  0.393990  1.0  -0.1425
  C  C353  1  0.351990  0.931500  0.415010  1.0  -0.0676
  C  C354  1  0.305390  0.928950  0.457790  1.0  0.0522
  C  C355  1  0.286690  0.891680  0.479180  1.0  -0.0584
  C  C356  1  0.314470  0.857510  0.459810  1.0  -0.1664
  C  C357  1  0.360370  0.860610  0.415900  1.0  0.0168
  C  C358  1  0.293110  0.816550  0.478830  1.0  0.703
  C  C359  1  0.276850  0.966060  0.479390  1.0  0.0438
  C  C360  1  0.219900  0.967630  0.479370  1.0  0.1286
  C  C361  1  0.199940  0.761340  0.384540  1.0  0.6963
  C  C362  1  0.172580  0.771590  0.314600  1.0  -0.1255
  C  C363  1  0.124800  0.793580  0.314710  1.0  -0.0944
  C  C364  1  0.045070  0.862620  0.299010  1.0  0.0487
  C  C365  1  0.195270  0.500000  0.500000  1.0  -0.1171
  C  C366  1  0.695270  0.000000  0.500000  1.0  -0.1171
  C  C367  1  0.804730  0.500000  0.000000  1.0  -0.1163
  C  C368  1  0.304730  0.000000  0.000000  1.0  -0.1163
  C  C369  1  0.804730  0.500000  0.500000  1.0  -0.1163
  C  C370  1  0.304730  0.000000  0.500000  1.0  -0.1163
  C  C371  1  0.195270  0.500000  0.000000  1.0  -0.1171
  C  C372  1  0.695270  0.000000  0.000000  1.0  -0.1171
  C  C373  1  0.304330  0.260460  0.250000  1.0  -0.0103
  C  C374  1  0.399360  0.305160  0.250000  1.0  0.0431
  C  C375  1  0.452110  0.327130  0.250000  1.0  0.1183
  C  C376  1  0.804330  0.760460  0.250000  1.0  -0.0103
  C  C377  1  0.899360  0.805160  0.250000  1.0  0.0431
  C  C378  1  0.952110  0.827130  0.250000  1.0  0.1183
  C  C379  1  0.695670  0.739540  0.750000  1.0  -0.0086
  C  C380  1  0.600640  0.694840  0.750000  1.0  0.0425
  C  C381  1  0.547890  0.672870  0.750000  1.0  0.1165
  C  C382  1  0.195670  0.239540  0.750000  1.0  -0.0086
  C  C383  1  0.100640  0.194840  0.750000  1.0  0.0425
  C  C384  1  0.047890  0.172870  0.750000  1.0  0.1165
  C  C385  1  0.695670  0.260460  0.250000  1.0  -0.0087
  C  C386  1  0.600640  0.305160  0.250000  1.0  0.0423
  C  C387  1  0.547890  0.327130  0.250000  1.0  0.1174
  C  C388  1  0.195670  0.760460  0.250000  1.0  -0.0087
  C  C389  1  0.100640  0.805160  0.250000  1.0  0.0423
  C  C390  1  0.047890  0.827130  0.250000  1.0  0.1174
  C  C391  1  0.304330  0.739540  0.750000  1.0  -0.0098
  C  C392  1  0.399360  0.694840  0.750000  1.0  0.0432
  C  C393  1  0.452110  0.672870  0.750000  1.0  0.1179
  C  C394  1  0.804330  0.239540  0.750000  1.0  -0.0098
  C  C395  1  0.899360  0.194840  0.750000  1.0  0.0432
  C  C396  1  0.952110  0.172870  0.750000  1.0  0.1179
  C  C397  1  0.500000  0.310420  0.250000  1.0  -0.0442
  C  C398  1  0.000000  0.810420  0.250000  1.0  -0.0442
  C  C399  1  0.500000  0.689580  0.750000  1.0  -0.0428
  C  C400  1  0.000000  0.189580  0.750000  1.0  -0.0428
  N  N401  1  0.307900  0.500000  0.500000  1.0  -0.4092
  N  N402  1  0.807900  0.000000  0.500000  1.0  -0.4092
  N  N403  1  0.692100  0.500000  0.000000  1.0  -0.4122
  N  N404  1  0.192100  0.000000  0.000000  1.0  -0.4122
  N  N405  1  0.692100  0.500000  0.500000  1.0  -0.4122
  N  N406  1  0.192100  0.000000  0.500000  1.0  -0.4122
  N  N407  1  0.307900  0.500000  0.000000  1.0  -0.4092
  N  N408  1  0.807900  0.000000  0.000000  1.0  -0.4092
  N  N409  1  0.500000  0.380850  0.315600  1.0  -0.4527
  N  N410  1  0.000000  0.880850  0.315600  1.0  -0.4527
  N  N411  1  0.500000  0.619150  0.815600  1.0  -0.4535
  N  N412  1  0.000000  0.119150  0.815600  1.0  -0.4535
  N  N413  1  0.500000  0.380850  0.184400  1.0  -0.4552
  N  N414  1  0.000000  0.880850  0.184400  1.0  -0.4552
  N  N415  1  0.500000  0.619150  0.684400  1.0  -0.4508
  N  N416  1  0.000000  0.119150  0.684400  1.0  -0.4508
  O  O417  1  0.057020  0.432730  0.324000  1.0  -0.5679
  O  O418  1  0.054370  0.365730  0.323980  1.0  -0.5748
  O  O419  1  0.249360  0.316570  0.514960  1.0  -0.5714
  O  O420  1  0.182410  0.286920  0.454650  1.0  -0.5652
  O  O421  1  0.323700  0.272230  0.441500  1.0  -0.5675
  O  O422  1  0.255860  0.243460  0.380520  1.0  -0.5648
  O  O423  1  0.557020  0.932730  0.324000  1.0  -0.5679
  O  O424  1  0.554370  0.865730  0.323980  1.0  -0.5748
  O  O425  1  0.749360  0.816570  0.514960  1.0  -0.5714
  O  O426  1  0.682410  0.786920  0.454650  1.0  -0.5652
  O  O427  1  0.823700  0.772230  0.441500  1.0  -0.5675
  O  O428  1  0.755860  0.743460  0.380520  1.0  -0.5648
  O  O429  1  0.942980  0.567270  0.824000  1.0  -0.5689
  O  O430  1  0.945630  0.634270  0.823980  1.0  -0.5748
  O  O431  1  0.750640  0.683430  0.014960  1.0  -0.5712
  O  O432  1  0.817590  0.713080  0.954650  1.0  -0.5653
  O  O433  1  0.676300  0.727770  0.941500  1.0  -0.5676
  O  O434  1  0.744140  0.756540  0.880520  1.0  -0.5656
  O  O435  1  0.442980  0.067270  0.824000  1.0  -0.5689
  O  O436  1  0.445630  0.134270  0.823980  1.0  -0.5748
  O  O437  1  0.250640  0.183430  0.014960  1.0  -0.5712
  O  O438  1  0.317590  0.213080  0.954650  1.0  -0.5653
  O  O439  1  0.176300  0.227770  0.941500  1.0  -0.5676
  O  O440  1  0.244140  0.256540  0.880520  1.0  -0.5656
  O  O441  1  0.942980  0.432730  0.176000  1.0  -0.5674
  O  O442  1  0.945630  0.365730  0.176020  1.0  -0.5751
  O  O443  1  0.750640  0.316570  0.985040  1.0  -0.5708
  O  O444  1  0.817590  0.286920  0.045350  1.0  -0.5649
  O  O445  1  0.676300  0.272230  0.058500  1.0  -0.5673
  O  O446  1  0.744140  0.243460  0.119480  1.0  -0.5654
  O  O447  1  0.442980  0.932730  0.176000  1.0  -0.5674
  O  O448  1  0.445630  0.865730  0.176020  1.0  -0.5751
  O  O449  1  0.250640  0.816570  0.985040  1.0  -0.5708
  O  O450  1  0.317590  0.786920  0.045350  1.0  -0.5649
  O  O451  1  0.176300  0.772230  0.058500  1.0  -0.5673
  O  O452  1  0.244140  0.743460  0.119480  1.0  -0.5654
  O  O453  1  0.057020  0.567270  0.676000  1.0  -0.5692
  O  O454  1  0.054370  0.634270  0.676020  1.0  -0.5749
  O  O455  1  0.249360  0.683430  0.485040  1.0  -0.5714
  O  O456  1  0.182410  0.713080  0.545350  1.0  -0.565
  O  O457  1  0.323700  0.727770  0.558500  1.0  -0.5675
  O  O458  1  0.255860  0.756540  0.619480  1.0  -0.5654
  O  O459  1  0.557020  0.067270  0.676000  1.0  -0.5693
  O  O460  1  0.554370  0.134270  0.676020  1.0  -0.5749
  O  O461  1  0.749360  0.183430  0.485040  1.0  -0.5714
  O  O462  1  0.682410  0.213080  0.545350  1.0  -0.565
  O  O463  1  0.823700  0.227770  0.558500  1.0  -0.5675
  O  O464  1  0.755860  0.256540  0.619480  1.0  -0.5654
  O  O465  1  0.942980  0.567270  0.676000  1.0  -0.5689
  O  O466  1  0.945630  0.634270  0.676020  1.0  -0.5744
  O  O467  1  0.750640  0.683430  0.485040  1.0  -0.571
  O  O468  1  0.817590  0.713080  0.545350  1.0  -0.5654
  O  O469  1  0.676300  0.727770  0.558500  1.0  -0.5683
  O  O470  1  0.744140  0.756540  0.619480  1.0  -0.5657
  O  O471  1  0.442980  0.067270  0.676000  1.0  -0.5689
  O  O472  1  0.445630  0.134270  0.676020  1.0  -0.5744
  O  O473  1  0.250640  0.183430  0.485040  1.0  -0.571
  O  O474  1  0.317590  0.213080  0.545350  1.0  -0.5654
  O  O475  1  0.176300  0.227770  0.558500  1.0  -0.5683
  O  O476  1  0.244140  0.256540  0.619480  1.0  -0.5657
  O  O477  1  0.057020  0.432730  0.176000  1.0  -0.5675
  O  O478  1  0.054370  0.365730  0.176020  1.0  -0.5748
  O  O479  1  0.249360  0.316570  0.985040  1.0  -0.5716
  O  O480  1  0.182410  0.286920  0.045350  1.0  -0.5647
  O  O481  1  0.323700  0.272230  0.058500  1.0  -0.5673
  O  O482  1  0.255860  0.243460  0.119480  1.0  -0.5649
  O  O483  1  0.557020  0.932730  0.176000  1.0  -0.5675
  O  O484  1  0.554370  0.865730  0.176020  1.0  -0.5748
  O  O485  1  0.749360  0.816570  0.985040  1.0  -0.5716
  O  O486  1  0.682410  0.786920  0.045350  1.0  -0.5647
  O  O487  1  0.823700  0.772230  0.058500  1.0  -0.5673
  O  O488  1  0.755860  0.743460  0.119480  1.0  -0.5649
  O  O489  1  0.057020  0.567270  0.824000  1.0  -0.569
  O  O490  1  0.054370  0.634270  0.823980  1.0  -0.5744
  O  O491  1  0.249360  0.683430  0.014960  1.0  -0.5714
  O  O492  1  0.182410  0.713080  0.954650  1.0  -0.5648
  O  O493  1  0.323700  0.727770  0.941500  1.0  -0.5677
  O  O494  1  0.255860  0.756540  0.880520  1.0  -0.5651
  O  O495  1  0.557020  0.067270  0.824000  1.0  -0.569
  O  O496  1  0.554370  0.134270  0.823980  1.0  -0.5744
  O  O497  1  0.749360  0.183430  0.014960  1.0  -0.5714
  O  O498  1  0.682410  0.213080  0.954650  1.0  -0.5648
  O  O499  1  0.823700  0.227770  0.941500  1.0  -0.5677
  O  O500  1  0.755860  0.256540  0.880520  1.0  -0.5651
  O  O501  1  0.942980  0.432730  0.324000  1.0  -0.5677
  O  O502  1  0.945630  0.365730  0.323980  1.0  -0.5743
  O  O503  1  0.750640  0.316570  0.514960  1.0  -0.5714
  O  O504  1  0.817590  0.286920  0.454650  1.0  -0.5652
  O  O505  1  0.676300  0.272230  0.441500  1.0  -0.5678
  O  O506  1  0.744140  0.243460  0.380520  1.0  -0.5653
  O  O507  1  0.442980  0.932730  0.324000  1.0  -0.5677
  O  O508  1  0.445630  0.865730  0.323980  1.0  -0.574
  O  O509  1  0.250640  0.816570  0.514960  1.0  -0.5714
  O  O510  1  0.317590  0.786920  0.454650  1.0  -0.5652
  O  O511  1  0.176300  0.772230  0.441500  1.0  -0.5678
  O  O512  1  0.244140  0.743460  0.380520  1.0  -0.5653
