# generated using pymatgen
data_NaDyH32(C19O5)2
_symmetry_space_group_name_H-M   'P 1'
_cell_length_a   14.12730000
_cell_length_b   23.69720000
_cell_length_c   23.69720000
_cell_angle_alpha   90.00000000
_cell_angle_beta   90.00000000
_cell_angle_gamma   90.00000000
_symmetry_Int_Tables_number   1
_chemical_formula_structural   NaDyH32(C19O5)2
_chemical_formula_sum   'Na4 Dy4 H128 C152 O40'
_cell_volume   7933.28827250
_cell_formula_units_Z   4
loop_
 _symmetry_equiv_pos_site_id
 _symmetry_equiv_pos_as_xyz
  1  'x, y, z'
loop_
 _atom_site_type_symbol
 _atom_site_label
 _atom_site_symmetry_multiplicity
 _atom_site_fract_x
 _atom_site_fract_y
 _atom_site_fract_z
 _atom_site_occupancy
 _atom_site_charge
  Na  Na1  1  0.250000  0.918990  0.500000  1.0  0.9829
  Na  Na2  1  0.750000  0.081010  0.500000  1.0  0.9848
  Na  Na3  1  0.000000  0.500000  0.918990  1.0  0.9229
  Na  Na4  1  0.500000  0.500000  0.081010  1.0  0.9348
  Dy  Dy5  1  0.000000  0.000000  0.590120  1.0  2.235
  Dy  Dy6  1  0.500000  0.000000  0.409880  1.0  2.2471
  Dy  Dy7  1  0.750000  0.409880  0.000000  1.0  2.2627
  Dy  Dy8  1  0.250000  0.590120  0.000000  1.0  2.2568
  H  H9  1  0.846100  0.959200  0.471300  1.0  0.0949
  H  H10  1  0.777700  0.944000  0.307400  1.0  0.1153
  H  H11  1  0.039700  0.904100  0.360000  1.0  0.112
  H  H12  1  0.060800  0.949500  0.265600  1.0  0.101
  H  H13  1  0.783600  0.854300  0.294500  1.0  0.0933
  H  H14  1  0.738000  0.852100  0.234200  1.0  0.1208
  H  H15  1  0.801800  0.802200  0.255100  1.0  0.1164
  H  H16  1  0.098400  0.951700  0.086600  1.0  0.1081
  H  H17  1  0.095400  0.005000  0.125800  1.0  0.1118
  H  H18  1  0.191800  0.984800  0.100000  1.0  0.1166
  H  H19  1  0.218300  0.860900  0.179500  1.0  0.1097
  H  H20  1  0.178600  0.864700  0.117900  1.0  0.107
  H  H21  1  0.270000  0.898200  0.134500  1.0  0.1088
  H  H22  1  0.213000  0.950600  0.240300  1.0  0.1054
  H  H23  1  0.260200  0.983900  0.190500  1.0  0.1101
  H  H24  1  0.163900  0.004700  0.216000  1.0  0.104
  H  H25  1  0.346100  0.040800  0.528700  1.0  0.0951
  H  H26  1  0.277700  0.056000  0.692600  1.0  0.1148
  H  H27  1  0.539700  0.095900  0.640000  1.0  0.1108
  H  H28  1  0.560800  0.050500  0.734400  1.0  0.1021
  H  H29  1  0.283600  0.145700  0.705500  1.0  0.0953
  H  H30  1  0.238000  0.147900  0.765800  1.0  0.1177
  H  H31  1  0.301800  0.197800  0.744900  1.0  0.1168
  H  H32  1  0.598400  0.048300  0.913400  1.0  0.1067
  H  H33  1  0.595400  0.995000  0.874200  1.0  0.11
  H  H34  1  0.691800  0.015200  0.900000  1.0  0.1144
  H  H35  1  0.718300  0.139100  0.820500  1.0  0.1106
  H  H36  1  0.678600  0.135300  0.882100  1.0  0.1053
  H  H37  1  0.770000  0.101800  0.865500  1.0  0.1096
  H  H38  1  0.713000  0.049400  0.759700  1.0  0.1062
  H  H39  1  0.760200  0.016100  0.809500  1.0  0.1104
  H  H40  1  0.663900  0.995300  0.784000  1.0  0.1023
  H  H41  1  0.596100  0.528700  0.959200  1.0  0.0947
  H  H42  1  0.527700  0.692600  0.944000  1.0  0.1148
  H  H43  1  0.789700  0.640000  0.904100  1.0  0.1131
  H  H44  1  0.810800  0.734400  0.949500  1.0  0.1014
  H  H45  1  0.533600  0.705500  0.854300  1.0  0.0953
  H  H46  1  0.488000  0.765800  0.852100  1.0  0.1218
  H  H47  1  0.551800  0.744900  0.802200  1.0  0.1185
  H  H48  1  0.848400  0.913400  0.951700  1.0  0.1082
  H  H49  1  0.845400  0.874200  0.005000  1.0  0.109
  H  H50  1  0.941800  0.900000  0.984800  1.0  0.1147
  H  H51  1  0.968300  0.820500  0.860900  1.0  0.1103
  H  H52  1  0.928600  0.882100  0.864700  1.0  0.1085
  H  H53  1  0.020000  0.865500  0.898200  1.0  0.1117
  H  H54  1  0.963000  0.759700  0.950600  1.0  0.1026
  H  H55  1  0.010200  0.809500  0.983900  1.0  0.1099
  H  H56  1  0.913900  0.784000  0.004700  1.0  0.1018
  H  H57  1  0.096100  0.471300  0.040800  1.0  0.0946
  H  H58  1  0.027700  0.307400  0.056000  1.0  0.1146
  H  H59  1  0.289700  0.360000  0.095900  1.0  0.1119
  H  H60  1  0.310800  0.265600  0.050500  1.0  0.1026
  H  H61  1  0.033600  0.294500  0.145700  1.0  0.0944
  H  H62  1  0.988000  0.234200  0.147900  1.0  0.1217
  H  H63  1  0.051800  0.255100  0.197800  1.0  0.1205
  H  H64  1  0.348400  0.086600  0.048300  1.0  0.1087
  H  H65  1  0.345400  0.125800  0.995000  1.0  0.1077
  H  H66  1  0.441800  0.100000  0.015200  1.0  0.1144
  H  H67  1  0.468300  0.179500  0.139100  1.0  0.1083
  H  H68  1  0.428600  0.117900  0.135300  1.0  0.1065
  H  H69  1  0.520000  0.134500  0.101800  1.0  0.1099
  H  H70  1  0.463000  0.240300  0.049400  1.0  0.1029
  H  H71  1  0.510200  0.190500  0.016100  1.0  0.1104
  H  H72  1  0.413900  0.216000  0.995300  1.0  0.1044
  H  H73  1  0.153900  0.040800  0.471300  1.0  0.0945
  H  H74  1  0.222300  0.056000  0.307400  1.0  0.1143
  H  H75  1  0.960300  0.095900  0.360000  1.0  0.1109
  H  H76  1  0.939200  0.050500  0.265600  1.0  0.1009
  H  H77  1  0.216400  0.145700  0.294500  1.0  0.0944
  H  H78  1  0.262000  0.147900  0.234200  1.0  0.1196
  H  H79  1  0.198200  0.197800  0.255100  1.0  0.1176
  H  H80  1  0.901600  0.048300  0.086600  1.0  0.1071
  H  H81  1  0.904600  0.995000  0.125800  1.0  0.1075
  H  H82  1  0.808200  0.015200  0.100000  1.0  0.1161
  H  H83  1  0.781700  0.139100  0.179500  1.0  0.1088
  H  H84  1  0.821400  0.135300  0.117900  1.0  0.1055
  H  H85  1  0.730000  0.101800  0.134500  1.0  0.1086
  H  H86  1  0.787000  0.049400  0.240300  1.0  0.1057
  H  H87  1  0.739800  0.016100  0.190500  1.0  0.1119
  H  H88  1  0.836100  0.995300  0.216000  1.0  0.1023
  H  H89  1  0.653900  0.959200  0.528700  1.0  0.0945
  H  H90  1  0.722300  0.944000  0.692600  1.0  0.1136
  H  H91  1  0.460300  0.904100  0.640000  1.0  0.112
  H  H92  1  0.439200  0.949500  0.734400  1.0  0.0988
  H  H93  1  0.716400  0.854300  0.705500  1.0  0.095
  H  H94  1  0.762000  0.852100  0.765800  1.0  0.1203
  H  H95  1  0.698200  0.802200  0.744900  1.0  0.1158
  H  H96  1  0.401600  0.951700  0.913400  1.0  0.1083
  H  H97  1  0.404600  0.005000  0.874200  1.0  0.1075
  H  H98  1  0.308200  0.984800  0.900000  1.0  0.1156
  H  H99  1  0.281700  0.860900  0.820500  1.0  0.1112
  H  H100  1  0.321400  0.864700  0.882100  1.0  0.1051
  H  H101  1  0.230000  0.898200  0.865500  1.0  0.1084
  H  H102  1  0.287000  0.950600  0.759700  1.0  0.1057
  H  H103  1  0.239800  0.983900  0.809500  1.0  0.1097
  H  H104  1  0.336100  0.004700  0.784000  1.0  0.1018
  H  H105  1  0.403900  0.471300  0.959200  1.0  0.0955
  H  H106  1  0.472300  0.307400  0.944000  1.0  0.1138
  H  H107  1  0.210300  0.360000  0.904100  1.0  0.1115
  H  H108  1  0.189200  0.265600  0.949500  1.0  0.1001
  H  H109  1  0.466400  0.294500  0.854300  1.0  0.0962
  H  H110  1  0.512000  0.234200  0.852100  1.0  0.1223
  H  H111  1  0.448200  0.255100  0.802200  1.0  0.1194
  H  H112  1  0.151600  0.086600  0.951700  1.0  0.1071
  H  H113  1  0.154600  0.125800  0.005000  1.0  0.1078
  H  H114  1  0.058200  0.100000  0.984800  1.0  0.1151
  H  H115  1  0.031700  0.179500  0.860900  1.0  0.1094
  H  H116  1  0.071400  0.117900  0.864700  1.0  0.1052
  H  H117  1  0.980000  0.134500  0.898200  1.0  0.109
  H  H118  1  0.037000  0.240300  0.950600  1.0  0.1047
  H  H119  1  0.989800  0.190500  0.983900  1.0  0.1089
  H  H120  1  0.086100  0.216000  0.004700  1.0  0.1023
  H  H121  1  0.903900  0.528700  0.040800  1.0  0.0951
  H  H122  1  0.972300  0.692600  0.056000  1.0  0.1136
  H  H123  1  0.710300  0.640000  0.095900  1.0  0.1122
  H  H124  1  0.689200  0.734400  0.050500  1.0  0.1001
  H  H125  1  0.966400  0.705500  0.145700  1.0  0.0938
  H  H126  1  0.012000  0.765800  0.147900  1.0  0.1221
  H  H127  1  0.948200  0.744900  0.197800  1.0  0.1194
  H  H128  1  0.651600  0.913400  0.048300  1.0  0.1079
  H  H129  1  0.654600  0.874200  0.995000  1.0  0.1059
  H  H130  1  0.558200  0.900000  0.015200  1.0  0.1152
  H  H131  1  0.531700  0.820500  0.139100  1.0  0.1123
  H  H132  1  0.571400  0.882100  0.135300  1.0  0.1053
  H  H133  1  0.480000  0.865500  0.101800  1.0  0.1105
  H  H134  1  0.537000  0.759700  0.049400  1.0  0.1032
  H  H135  1  0.489800  0.809500  0.016100  1.0  0.1119
  H  H136  1  0.586100  0.784000  0.995300  1.0  0.1026
  C  C137  1  0.024500  0.928500  0.471000  1.0  0.7142
  C  C138  1  0.953800  0.930800  0.422820  1.0  -0.1424
  C  C139  1  0.862800  0.949800  0.434560  1.0  -0.0072
  C  C140  1  0.796800  0.954700  0.391330  1.0  -0.1238
  C  C141  1  0.821800  0.940700  0.336370  1.0  -0.1524
  C  C142  1  0.912800  0.921700  0.324630  1.0  0.059
  C  C143  1  0.978820  0.916800  0.367860  1.0  -0.0242
  C  C144  1  0.699300  0.973300  0.403900  1.0  0.7076
  C  C145  1  0.938100  0.905400  0.265050  1.0  0.0357
  C  C146  1  0.880300  0.871800  0.231590  1.0  0.0866
  C  C147  1  0.906300  0.859700  0.176330  1.0  -0.0305
  C  C148  1  0.990200  0.881200  0.154520  1.0  0.2
  C  C149  1  0.048100  0.914900  0.187980  1.0  -0.0369
  C  C150  1  0.022000  0.927000  0.243240  1.0  -0.1064
  C  C151  1  0.792700  0.842400  0.256200  1.0  -0.3683
  C  C152  1  0.148100  0.936200  0.164700  1.0  0.2223
  C  C153  1  0.132000  0.972600  0.114900  1.0  -0.3758
  C  C154  1  0.209500  0.885200  0.147500  1.0  -0.3823
  C  C155  1  0.201100  0.972100  0.206700  1.0  -0.3902
  C  C156  1  0.524500  0.071500  0.529000  1.0  0.7161
  C  C157  1  0.453800  0.069200  0.577180  1.0  -0.1435
  C  C158  1  0.362800  0.050200  0.565440  1.0  -0.0063
  C  C159  1  0.296800  0.045300  0.608670  1.0  -0.1234
  C  C160  1  0.321800  0.059300  0.663630  1.0  -0.1515
  C  C161  1  0.412800  0.078300  0.675370  1.0  0.0602
  C  C162  1  0.478820  0.083200  0.632140  1.0  -0.0225
  C  C163  1  0.199300  0.026700  0.596100  1.0  0.7073
  C  C164  1  0.438100  0.094600  0.734950  1.0  0.0358
  C  C165  1  0.380300  0.128200  0.768410  1.0  0.0832
  C  C166  1  0.406300  0.140300  0.823670  1.0  -0.0311
  C  C167  1  0.490200  0.118800  0.845480  1.0  0.1996
  C  C168  1  0.548100  0.085100  0.812020  1.0  -0.039
  C  C169  1  0.522000  0.073000  0.756760  1.0  -0.1076
  C  C170  1  0.292700  0.157600  0.743800  1.0  -0.3701
  C  C171  1  0.648100  0.063800  0.835300  1.0  0.2212
  C  C172  1  0.632000  0.027400  0.885100  1.0  -0.3762
  C  C173  1  0.709500  0.114800  0.852500  1.0  -0.3833
  C  C174  1  0.701100  0.027900  0.793300  1.0  -0.3901
  C  C175  1  0.774500  0.529000  0.928500  1.0  0.7103
  C  C176  1  0.703800  0.577180  0.930800  1.0  -0.142
  C  C177  1  0.612800  0.565440  0.949800  1.0  -0.0058
  C  C178  1  0.546800  0.608670  0.954700  1.0  -0.1239
  C  C179  1  0.571800  0.663630  0.940700  1.0  -0.1524
  C  C180  1  0.662800  0.675370  0.921700  1.0  0.0584
  C  C181  1  0.728820  0.632140  0.916800  1.0  -0.0249
  C  C182  1  0.449300  0.596100  0.973300  1.0  0.7094
  C  C183  1  0.688100  0.734950  0.905400  1.0  0.0358
  C  C184  1  0.630300  0.768410  0.871800  1.0  0.0861
  C  C185  1  0.656300  0.823670  0.859700  1.0  -0.0295
  C  C186  1  0.740200  0.845480  0.881200  1.0  0.1975
  C  C187  1  0.798100  0.812020  0.914900  1.0  -0.0366
  C  C188  1  0.772000  0.756760  0.927000  1.0  -0.1092
  C  C189  1  0.542700  0.743800  0.842400  1.0  -0.3693
  C  C190  1  0.898100  0.835300  0.936200  1.0  0.222
  C  C191  1  0.882000  0.885100  0.972600  1.0  -0.3808
  C  C192  1  0.959500  0.852500  0.885200  1.0  -0.3804
  C  C193  1  0.951100  0.793300  0.972100  1.0  -0.391
  C  C194  1  0.274500  0.471000  0.071500  1.0  0.7136
  C  C195  1  0.203800  0.422820  0.069200  1.0  -0.1413
  C  C196  1  0.112800  0.434560  0.050200  1.0  -0.0072
  C  C197  1  0.046800  0.391330  0.045300  1.0  -0.1231
  C  C198  1  0.071800  0.336370  0.059300  1.0  -0.1527
  C  C199  1  0.162800  0.324630  0.078300  1.0  0.0566
  C  C200  1  0.228820  0.367860  0.083200  1.0  -0.0225
  C  C201  1  0.949300  0.403900  0.026700  1.0  0.709
  C  C202  1  0.188100  0.265050  0.094600  1.0  0.0362
  C  C203  1  0.130300  0.231590  0.128200  1.0  0.0819
  C  C204  1  0.156300  0.176330  0.140300  1.0  -0.0305
  C  C205  1  0.240200  0.154520  0.118800  1.0  0.1985
  C  C206  1  0.298100  0.187980  0.085100  1.0  -0.0382
  C  C207  1  0.272000  0.243240  0.073000  1.0  -0.1081
  C  C208  1  0.042700  0.256200  0.157600  1.0  -0.3699
  C  C209  1  0.398100  0.164700  0.063800  1.0  0.2222
  C  C210  1  0.382000  0.114900  0.027400  1.0  -0.3791
  C  C211  1  0.459500  0.147500  0.114800  1.0  -0.3794
  C  C212  1  0.451100  0.206700  0.027900  1.0  -0.392
  C  C213  1  0.975500  0.071500  0.471000  1.0  0.7145
  C  C214  1  0.046200  0.069200  0.422820  1.0  -0.143
  C  C215  1  0.137200  0.050200  0.434560  1.0  -0.0074
  C  C216  1  0.203200  0.045300  0.391330  1.0  -0.1239
  C  C217  1  0.178200  0.059300  0.336370  1.0  -0.1543
  C  C218  1  0.087200  0.078300  0.324630  1.0  0.0582
  C  C219  1  0.021180  0.083200  0.367860  1.0  -0.0239
  C  C220  1  0.300700  0.026700  0.403900  1.0  0.7068
  C  C221  1  0.061900  0.094600  0.265050  1.0  0.0358
  C  C222  1  0.119700  0.128200  0.231590  1.0  0.0825
  C  C223  1  0.093700  0.140300  0.176330  1.0  -0.0295
  C  C224  1  0.009800  0.118800  0.154520  1.0  0.2005
  C  C225  1  0.951900  0.085100  0.187980  1.0  -0.039
  C  C226  1  0.978000  0.073000  0.243240  1.0  -0.1082
  C  C227  1  0.207300  0.157600  0.256200  1.0  -0.3712
  C  C228  1  0.851900  0.063800  0.164700  1.0  0.2205
  C  C229  1  0.868000  0.027400  0.114900  1.0  -0.3761
  C  C230  1  0.790500  0.114800  0.147500  1.0  -0.3832
  C  C231  1  0.798900  0.027900  0.206700  1.0  -0.3909
  C  C232  1  0.475500  0.928500  0.529000  1.0  0.7165
  C  C233  1  0.546200  0.930800  0.577180  1.0  -0.1424
  C  C234  1  0.637200  0.949800  0.565440  1.0  -0.0079
  C  C235  1  0.703200  0.954700  0.608670  1.0  -0.1238
  C  C236  1  0.678200  0.940700  0.663630  1.0  -0.1535
  C  C237  1  0.587200  0.921700  0.675370  1.0  0.0622
  C  C238  1  0.521180  0.916800  0.632140  1.0  -0.0237
  C  C239  1  0.800700  0.973300  0.596100  1.0  0.7077
  C  C240  1  0.561900  0.905400  0.734950  1.0  0.0352
  C  C241  1  0.619700  0.871800  0.768410  1.0  0.084
  C  C242  1  0.593700  0.859700  0.823670  1.0  -0.0306
  C  C243  1  0.509800  0.881200  0.845480  1.0  0.2006
  C  C244  1  0.451900  0.914900  0.812020  1.0  -0.0379
  C  C245  1  0.478000  0.927000  0.756760  1.0  -0.1093
  C  C246  1  0.707300  0.842400  0.743800  1.0  -0.3737
  C  C247  1  0.351900  0.936200  0.835300  1.0  0.221
  C  C248  1  0.368000  0.972600  0.885100  1.0  -0.3765
  C  C249  1  0.290500  0.885200  0.852500  1.0  -0.3839
  C  C250  1  0.298900  0.972100  0.793300  1.0  -0.3912
  C  C251  1  0.225500  0.471000  0.928500  1.0  0.7131
  C  C252  1  0.296200  0.422820  0.930800  1.0  -0.1408
  C  C253  1  0.387200  0.434560  0.949800  1.0  -0.0072
  C  C254  1  0.453200  0.391330  0.954700  1.0  -0.1247
  C  C255  1  0.428200  0.336370  0.940700  1.0  -0.1531
  C  C256  1  0.337200  0.324630  0.921700  1.0  0.0593
  C  C257  1  0.271180  0.367860  0.916800  1.0  -0.0229
  C  C258  1  0.550700  0.403900  0.973300  1.0  0.7089
  C  C259  1  0.311900  0.265050  0.905400  1.0  0.0363
  C  C260  1  0.369700  0.231590  0.871800  1.0  0.0831
  C  C261  1  0.343700  0.176330  0.859700  1.0  -0.0301
  C  C262  1  0.259800  0.154520  0.881200  1.0  0.1977
  C  C263  1  0.201900  0.187980  0.914900  1.0  -0.0375
  C  C264  1  0.228000  0.243240  0.927000  1.0  -0.109
  C  C265  1  0.457300  0.256200  0.842400  1.0  -0.3712
  C  C266  1  0.101900  0.164700  0.936200  1.0  0.2202
  C  C267  1  0.118000  0.114900  0.972600  1.0  -0.3803
  C  C268  1  0.040500  0.147500  0.885200  1.0  -0.3802
  C  C269  1  0.048900  0.206700  0.972100  1.0  -0.3919
  C  C270  1  0.725500  0.529000  0.071500  1.0  0.7124
  C  C271  1  0.796200  0.577180  0.069200  1.0  -0.1387
  C  C272  1  0.887200  0.565440  0.050200  1.0  -0.0069
  C  C273  1  0.953200  0.608670  0.045300  1.0  -0.1238
  C  C274  1  0.928200  0.663630  0.059300  1.0  -0.1544
  C  C275  1  0.837200  0.675370  0.078300  1.0  0.0582
  C  C276  1  0.771180  0.632140  0.083200  1.0  -0.0255
  C  C277  1  0.050700  0.596100  0.026700  1.0  0.7081
  C  C278  1  0.811900  0.734950  0.094600  1.0  0.0376
  C  C279  1  0.869700  0.768410  0.128200  1.0  0.0828
  C  C280  1  0.843700  0.823670  0.140300  1.0  -0.0297
  C  C281  1  0.759800  0.845480  0.118800  1.0  0.1993
  C  C282  1  0.701900  0.812020  0.085100  1.0  -0.0382
  C  C283  1  0.728000  0.756760  0.073000  1.0  -0.1098
  C  C284  1  0.957300  0.743800  0.157600  1.0  -0.3711
  C  C285  1  0.601900  0.835300  0.063800  1.0  0.2222
  C  C286  1  0.618000  0.885100  0.027400  1.0  -0.3812
  C  C287  1  0.540500  0.852500  0.114800  1.0  -0.3809
  C  C288  1  0.548900  0.793300  0.027900  1.0  -0.3912
  O  O289  1  0.996000  0.936700  0.519600  1.0  -0.7046
  O  O290  1  0.108300  0.911900  0.456200  1.0  -0.625
  O  O291  1  0.680800  0.007600  0.442350  1.0  -0.6947
  O  O292  1  0.632700  0.954500  0.373200  1.0  -0.631
  O  O293  1  0.013700  0.869700  0.099600  1.0  -0.5524
  O  O294  1  0.496000  0.063300  0.480400  1.0  -0.703
  O  O295  1  0.608300  0.088100  0.543800  1.0  -0.6282
  O  O296  1  0.180800  0.992400  0.557650  1.0  -0.697
  O  O297  1  0.132700  0.045500  0.626800  1.0  -0.6325
  O  O298  1  0.513700  0.130300  0.900400  1.0  -0.5522
  O  O299  1  0.746000  0.480400  0.936700  1.0  -0.7002
  O  O300  1  0.858300  0.543800  0.911900  1.0  -0.6234
  O  O301  1  0.430800  0.557650  0.007600  1.0  -0.6984
  O  O302  1  0.382700  0.626800  0.954500  1.0  -0.6338
  O  O303  1  0.763700  0.900400  0.869700  1.0  -0.5508
  O  O304  1  0.246000  0.519600  0.063300  1.0  -0.7016
  O  O305  1  0.358300  0.456200  0.088100  1.0  -0.6244
  O  O306  1  0.930800  0.442350  0.992400  1.0  -0.6957
  O  O307  1  0.882700  0.373200  0.045500  1.0  -0.6313
  O  O308  1  0.263700  0.099600  0.130300  1.0  -0.5508
  O  O309  1  0.004000  0.063300  0.519600  1.0  -0.7042
  O  O310  1  0.891700  0.088100  0.456200  1.0  -0.6286
  O  O311  1  0.319200  0.992400  0.442350  1.0  -0.693
  O  O312  1  0.367300  0.045500  0.373200  1.0  -0.6327
  O  O313  1  0.986300  0.130300  0.099600  1.0  -0.552
  O  O314  1  0.504000  0.936700  0.480400  1.0  -0.701
  O  O315  1  0.391700  0.911900  0.543800  1.0  -0.6259
  O  O316  1  0.819200  0.007600  0.557650  1.0  -0.6956
  O  O317  1  0.867300  0.954500  0.626800  1.0  -0.6333
  O  O318  1  0.486300  0.869700  0.900400  1.0  -0.5514
  O  O319  1  0.254000  0.519600  0.936700  1.0  -0.7007
  O  O320  1  0.141700  0.456200  0.911900  1.0  -0.6253
  O  O321  1  0.569200  0.442350  0.007600  1.0  -0.695
  O  O322  1  0.617300  0.373200  0.954500  1.0  -0.6319
  O  O323  1  0.236300  0.099600  0.869700  1.0  -0.5503
  O  O324  1  0.754000  0.480400  0.063300  1.0  -0.7036
  O  O325  1  0.641700  0.543800  0.088100  1.0  -0.624
  O  O326  1  0.069200  0.557650  0.992400  1.0  -0.696
  O  O327  1  0.117300  0.626800  0.045500  1.0  -0.6329
  O  O328  1  0.736300  0.900400  0.130300  1.0  -0.5523
