# generated using pymatgen
data_Zn2In3H36C60N3O19
_symmetry_space_group_name_H-M   'P 1'
_cell_length_a   18.78430000
_cell_length_b   18.78430000
_cell_length_c   25.02670000
_cell_angle_alpha   90.00000000
_cell_angle_beta   90.00000000
_cell_angle_gamma   120.00000000
_symmetry_Int_Tables_number   1
_chemical_formula_structural   Zn2In3H36C60N3O19
_chemical_formula_sum   'Zn4 In6 H72 C120 N6 O38'
_cell_volume   7647.58390750
_cell_formula_units_Z   2
loop_
 _symmetry_equiv_pos_site_id
 _symmetry_equiv_pos_as_xyz
  1  'x, y, z'
loop_
 _atom_site_type_symbol
 _atom_site_label
 _atom_site_symmetry_multiplicity
 _atom_site_fract_x
 _atom_site_fract_y
 _atom_site_fract_z
 _atom_site_occupancy
 _atom_site_charge
  Zn  Zn1  1  0.000000  0.000000  0.677970  1.0  0.7679
  Zn  Zn2  1  0.000000  0.000000  0.822030  1.0  0.7682
  Zn  Zn3  1  0.000000  0.000000  0.322030  1.0  0.7682
  Zn  Zn4  1  0.000000  0.000000  0.177970  1.0  0.7679
  In  In5  1  0.729010  0.270990  0.750000  1.0  1.5629
  In  In6  1  0.729010  0.458020  0.750000  1.0  1.5639
  In  In7  1  0.541980  0.270990  0.750000  1.0  1.5629
  In  In8  1  0.270990  0.729010  0.250000  1.0  1.5627
  In  In9  1  0.270990  0.541980  0.250000  1.0  1.5643
  In  In10  1  0.458020  0.729010  0.250000  1.0  1.5627
  H  H11  1  0.412600  0.032800  0.533500  1.0  0.1026
  H  H12  1  0.621700  0.033300  0.533900  1.0  0.1066
  H  H13  1  0.450200  0.109500  0.610100  1.0  0.0888
  H  H14  1  0.659000  0.109100  0.610500  1.0  0.0864
  H  H15  1  0.803000  0.198700  0.675500  1.0  0.0691
  H  H16  1  0.872200  0.121400  0.672200  1.0  0.1012
  H  H17  1  0.967200  0.379800  0.533500  1.0  0.1049
  H  H18  1  0.966700  0.588400  0.533900  1.0  0.1085
  H  H19  1  0.890500  0.340700  0.610100  1.0  0.0897
  H  H20  1  0.890900  0.549900  0.610500  1.0  0.087
  H  H21  1  0.801300  0.604300  0.675500  1.0  0.0674
  H  H22  1  0.878600  0.750800  0.672200  1.0  0.1014
  H  H23  1  0.620200  0.587400  0.533500  1.0  0.1059
  H  H24  1  0.411600  0.378300  0.533900  1.0  0.1057
  H  H25  1  0.659300  0.549800  0.610100  1.0  0.0895
  H  H26  1  0.450100  0.341000  0.610500  1.0  0.0866
  H  H27  1  0.395700  0.197000  0.675500  1.0  0.0686
  H  H28  1  0.249200  0.127800  0.672200  1.0  0.1012
  H  H29  1  0.967200  0.587400  0.966500  1.0  0.1061
  H  H30  1  0.966700  0.378300  0.966100  1.0  0.1066
  H  H31  1  0.890500  0.549800  0.889900  1.0  0.0903
  H  H32  1  0.890900  0.341000  0.889500  1.0  0.0871
  H  H33  1  0.801300  0.197000  0.824500  1.0  0.0671
  H  H34  1  0.878600  0.127800  0.827800  1.0  0.1018
  H  H35  1  0.620200  0.032800  0.966500  1.0  0.1032
  H  H36  1  0.411600  0.033300  0.966100  1.0  0.1066
  H  H37  1  0.659300  0.109500  0.889900  1.0  0.0889
  H  H38  1  0.450100  0.109100  0.889500  1.0  0.0862
  H  H39  1  0.395700  0.198700  0.824500  1.0  0.0672
  H  H40  1  0.249200  0.121400  0.827800  1.0  0.1017
  H  H41  1  0.412600  0.379800  0.966500  1.0  0.1043
  H  H42  1  0.621700  0.588400  0.966100  1.0  0.1083
  H  H43  1  0.450200  0.340700  0.889900  1.0  0.0896
  H  H44  1  0.659000  0.549900  0.889500  1.0  0.0873
  H  H45  1  0.803000  0.604300  0.824500  1.0  0.0653
  H  H46  1  0.872200  0.750800  0.827800  1.0  0.1018
  H  H47  1  0.587400  0.967200  0.466500  1.0  0.1031
  H  H48  1  0.378300  0.966700  0.466100  1.0  0.1066
  H  H49  1  0.549800  0.890500  0.389900  1.0  0.0888
  H  H50  1  0.341000  0.890900  0.389500  1.0  0.086
  H  H51  1  0.197000  0.801300  0.324500  1.0  0.0667
  H  H52  1  0.127800  0.878600  0.327800  1.0  0.1017
  H  H53  1  0.032800  0.620200  0.466500  1.0  0.1046
  H  H54  1  0.033300  0.411600  0.466100  1.0  0.1075
  H  H55  1  0.109500  0.659300  0.389900  1.0  0.0896
  H  H56  1  0.109100  0.450100  0.389500  1.0  0.0872
  H  H57  1  0.198700  0.395700  0.324500  1.0  0.0659
  H  H58  1  0.121400  0.249200  0.327800  1.0  0.1018
  H  H59  1  0.379800  0.412600  0.466500  1.0  0.1053
  H  H60  1  0.588400  0.621700  0.466100  1.0  0.1075
  H  H61  1  0.340700  0.450200  0.389900  1.0  0.0899
  H  H62  1  0.549900  0.659000  0.389500  1.0  0.0869
  H  H63  1  0.604300  0.803000  0.324500  1.0  0.0669
  H  H64  1  0.750800  0.872200  0.327800  1.0  0.1015
  H  H65  1  0.032800  0.412600  0.033500  1.0  0.1056
  H  H66  1  0.033300  0.621700  0.033900  1.0  0.1072
  H  H67  1  0.109500  0.450200  0.110100  1.0  0.0898
  H  H68  1  0.109100  0.659000  0.110500  1.0  0.0865
  H  H69  1  0.198700  0.803000  0.175500  1.0  0.0685
  H  H70  1  0.121400  0.872200  0.172200  1.0  0.1013
  H  H71  1  0.379800  0.967200  0.033500  1.0  0.1026
  H  H72  1  0.588400  0.966700  0.033900  1.0  0.1071
  H  H73  1  0.340700  0.890500  0.110100  1.0  0.0884
  H  H74  1  0.549900  0.890900  0.110500  1.0  0.0859
  H  H75  1  0.604300  0.801300  0.175500  1.0  0.0686
  H  H76  1  0.750800  0.878600  0.172200  1.0  0.1002
  H  H77  1  0.587400  0.620200  0.033500  1.0  0.1049
  H  H78  1  0.378300  0.411600  0.033900  1.0  0.1076
  H  H79  1  0.549800  0.659300  0.110100  1.0  0.0894
  H  H80  1  0.341000  0.450100  0.110500  1.0  0.0866
  H  H81  1  0.197000  0.395700  0.175500  1.0  0.0677
  H  H82  1  0.127800  0.249200  0.172200  1.0  0.1014
  C  C83  1  0.463400  0.048400  0.548800  1.0  -0.1281
  C  C84  1  0.586100  0.048700  0.549100  1.0  -0.1533
  C  C85  1  0.485600  0.093900  0.595200  1.0  -0.072
  C  C86  1  0.608100  0.093700  0.595300  1.0  -0.0335
  C  C87  1  0.816500  0.183400  0.707500  1.0  0.1166
  C  C88  1  0.558100  0.116300  0.619400  1.0  -0.0975
  C  C89  1  0.513300  0.026200  0.525300  1.0  -0.0051
  C  C90  1  0.584100  0.168000  0.669880  1.0  0.7223
  C  C91  1  0.859500  0.137600  0.704200  1.0  -0.0992
  C  C92  1  0.951600  0.415000  0.548800  1.0  -0.1379
  C  C93  1  0.951300  0.537400  0.549100  1.0  -0.1568
  C  C94  1  0.906100  0.391700  0.595200  1.0  -0.0742
  C  C95  1  0.906300  0.514400  0.595300  1.0  -0.0377
  C  C96  1  0.816600  0.633100  0.707500  1.0  0.1169
  C  C97  1  0.883700  0.441800  0.619400  1.0  -0.1043
  C  C98  1  0.973800  0.487100  0.525300  1.0  -0.0048
  C  C99  1  0.832000  0.416100  0.669880  1.0  0.7235
  C  C100  1  0.862400  0.721900  0.704200  1.0  -0.0998
  C  C101  1  0.585000  0.536600  0.548800  1.0  -0.1344
  C  C102  1  0.462600  0.413900  0.549100  1.0  -0.1583
  C  C103  1  0.608300  0.514400  0.595200  1.0  -0.0726
  C  C104  1  0.485600  0.391900  0.595300  1.0  -0.0363
  C  C105  1  0.366900  0.183500  0.707500  1.0  0.1164
  C  C106  1  0.558200  0.441900  0.619400  1.0  -0.1035
  C  C107  1  0.512900  0.486700  0.525300  1.0  -0.0048
  C  C108  1  0.583900  0.415900  0.669880  1.0  0.7234
  C  C109  1  0.278100  0.140500  0.704200  1.0  -0.1002
  C  C110  1  0.951600  0.536600  0.951200  1.0  -0.1333
  C  C111  1  0.951300  0.413900  0.950900  1.0  -0.1597
  C  C112  1  0.906100  0.514400  0.904800  1.0  -0.076
  C  C113  1  0.906300  0.391900  0.904700  1.0  -0.0354
  C  C114  1  0.816600  0.183500  0.792500  1.0  0.1152
  C  C115  1  0.883700  0.441900  0.880600  1.0  -0.1039
  C  C116  1  0.973800  0.486700  0.974700  1.0  -0.0042
  C  C117  1  0.832000  0.415900  0.830120  1.0  0.7213
  C  C118  1  0.862400  0.140500  0.795800  1.0  -0.1002
  C  C119  1  0.585000  0.048400  0.951200  1.0  -0.1291
  C  C120  1  0.462600  0.048700  0.950900  1.0  -0.1521
  C  C121  1  0.608300  0.093900  0.904800  1.0  -0.0728
  C  C122  1  0.485600  0.093700  0.904700  1.0  -0.0344
  C  C123  1  0.366900  0.183400  0.792500  1.0  0.1155
  C  C124  1  0.558200  0.116300  0.880600  1.0  -0.1014
  C  C125  1  0.512900  0.026200  0.974700  1.0  -0.0046
  C  C126  1  0.583900  0.168000  0.830120  1.0  0.7199
  C  C127  1  0.278100  0.137600  0.795800  1.0  -0.1032
  C  C128  1  0.463400  0.415000  0.951200  1.0  -0.1351
  C  C129  1  0.586100  0.537400  0.950900  1.0  -0.1589
  C  C130  1  0.485600  0.391700  0.904800  1.0  -0.0721
  C  C131  1  0.608100  0.514400  0.904700  1.0  -0.0354
  C  C132  1  0.816500  0.633100  0.792500  1.0  0.1154
  C  C133  1  0.558100  0.441800  0.880600  1.0  -0.107
  C  C134  1  0.513300  0.487100  0.974700  1.0  -0.0043
  C  C135  1  0.584100  0.416100  0.830120  1.0  0.7213
  C  C136  1  0.859500  0.721900  0.795800  1.0  -0.1024
  C  C137  1  0.536600  0.951600  0.451200  1.0  -0.1328
  C  C138  1  0.413900  0.951300  0.450900  1.0  -0.1551
  C  C139  1  0.514400  0.906100  0.404800  1.0  -0.0758
  C  C140  1  0.391900  0.906300  0.404700  1.0  -0.0361
  C  C141  1  0.183500  0.816600  0.292500  1.0  0.1155
  C  C142  1  0.441900  0.883700  0.380600  1.0  -0.1009
  C  C143  1  0.486700  0.973800  0.474700  1.0  -0.0043
  C  C144  1  0.415900  0.832000  0.330120  1.0  0.7199
  C  C145  1  0.140500  0.862400  0.295800  1.0  -0.1038
  C  C146  1  0.048400  0.585000  0.451200  1.0  -0.1309
  C  C147  1  0.048700  0.462600  0.450900  1.0  -0.1576
  C  C148  1  0.093900  0.608300  0.404800  1.0  -0.0765
  C  C149  1  0.093700  0.485600  0.404700  1.0  -0.0355
  C  C150  1  0.183400  0.366900  0.292500  1.0  0.1158
  C  C151  1  0.116300  0.558200  0.380600  1.0  -0.1062
  C  C152  1  0.026200  0.512900  0.474700  1.0  -0.0042
  C  C153  1  0.168000  0.583900  0.330120  1.0  0.7213
  C  C154  1  0.137600  0.278100  0.295800  1.0  -0.1029
  C  C155  1  0.415000  0.463400  0.451200  1.0  -0.132
  C  C156  1  0.537400  0.586100  0.450900  1.0  -0.1556
  C  C157  1  0.391700  0.485600  0.404800  1.0  -0.075
  C  C158  1  0.514400  0.608100  0.404700  1.0  -0.0348
  C  C159  1  0.633100  0.816500  0.292500  1.0  0.115
  C  C160  1  0.441800  0.558100  0.380600  1.0  -0.1064
  C  C161  1  0.487100  0.513300  0.474700  1.0  -0.0043
  C  C162  1  0.416100  0.584100  0.330120  1.0  0.7214
  C  C163  1  0.721900  0.859500  0.295800  1.0  -0.1012
  C  C164  1  0.048400  0.463400  0.048800  1.0  -0.1336
  C  C165  1  0.048700  0.586100  0.049100  1.0  -0.1546
  C  C166  1  0.093900  0.485600  0.095200  1.0  -0.072
  C  C167  1  0.093700  0.608100  0.095300  1.0  -0.0406
  C  C168  1  0.183400  0.816500  0.207500  1.0  0.1165
  C  C169  1  0.116300  0.558100  0.119400  1.0  -0.1018
  C  C170  1  0.026200  0.513300  0.025300  1.0  -0.0049
  C  C171  1  0.168000  0.584100  0.169880  1.0  0.7239
  C  C172  1  0.137600  0.859500  0.204200  1.0  -0.1007
  C  C173  1  0.415000  0.951600  0.048800  1.0  -0.131
  C  C174  1  0.537400  0.951300  0.049100  1.0  -0.1563
  C  C175  1  0.391700  0.906100  0.095200  1.0  -0.0751
  C  C176  1  0.514400  0.906300  0.095300  1.0  -0.0337
  C  C177  1  0.633100  0.816600  0.207500  1.0  0.1164
  C  C178  1  0.441800  0.883700  0.119400  1.0  -0.0998
  C  C179  1  0.487100  0.973800  0.025300  1.0  -0.0045
  C  C180  1  0.416100  0.832000  0.169880  1.0  0.7219
  C  C181  1  0.721900  0.862400  0.204200  1.0  -0.0995
  C  C182  1  0.536600  0.585000  0.048800  1.0  -0.1317
  C  C183  1  0.413900  0.462600  0.049100  1.0  -0.1558
  C  C184  1  0.514400  0.608300  0.095200  1.0  -0.0777
  C  C185  1  0.391900  0.485600  0.095300  1.0  -0.0339
  C  C186  1  0.183500  0.366900  0.207500  1.0  0.1171
  C  C187  1  0.441900  0.558200  0.119400  1.0  -0.1042
  C  C188  1  0.486700  0.512900  0.025300  1.0  -0.005
  C  C189  1  0.415900  0.583900  0.169880  1.0  0.7239
  C  C190  1  0.140500  0.278100  0.204200  1.0  -0.1003
  C  C191  1  0.877800  0.122200  0.750000  1.0  0.1869
  C  C192  1  0.925300  0.074700  0.750000  1.0  0.5178
  C  C193  1  0.877800  0.755600  0.750000  1.0  0.1889
  C  C194  1  0.925300  0.850600  0.750000  1.0  0.5154
  C  C195  1  0.244400  0.122200  0.750000  1.0  0.1844
  C  C196  1  0.149400  0.074700  0.750000  1.0  0.5152
  C  C197  1  0.122200  0.877800  0.250000  1.0  0.1844
  C  C198  1  0.074700  0.925300  0.250000  1.0  0.5157
  C  C199  1  0.122200  0.244400  0.250000  1.0  0.1891
  C  C200  1  0.074700  0.149400  0.250000  1.0  0.5154
  C  C201  1  0.755600  0.877800  0.250000  1.0  0.1854
  C  C202  1  0.850600  0.925300  0.250000  1.0  0.5175
  N  N203  1  0.795550  0.204450  0.750000  1.0  -0.26
  N  N204  1  0.795550  0.591100  0.750000  1.0  -0.2672
  N  N205  1  0.408900  0.204450  0.750000  1.0  -0.26
  N  N206  1  0.204450  0.795550  0.250000  1.0  -0.2597
  N  N207  1  0.204450  0.408900  0.250000  1.0  -0.2688
  N  N208  1  0.591100  0.795550  0.250000  1.0  -0.2601
  O  O209  1  0.533790  0.187430  0.688270  1.0  -0.6347
  O  O210  1  0.653600  0.187570  0.688290  1.0  -0.6335
  O  O211  1  0.942500  0.057000  0.701200  1.0  -0.6048
  O  O212  1  0.812570  0.346360  0.688270  1.0  -0.6372
  O  O213  1  0.812430  0.466030  0.688290  1.0  -0.6327
  O  O214  1  0.943000  0.885500  0.701200  1.0  -0.6062
  O  O215  1  0.653640  0.466210  0.688270  1.0  -0.6366
  O  O216  1  0.533970  0.346400  0.688290  1.0  -0.6362
  O  O217  1  0.114500  0.057500  0.701200  1.0  -0.6053
  O  O218  1  0.812570  0.466210  0.811730  1.0  -0.6354
  O  O219  1  0.812430  0.346400  0.811710  1.0  -0.6358
  O  O220  1  0.943000  0.057500  0.798800  1.0  -0.6021
  O  O221  1  0.653640  0.187430  0.811730  1.0  -0.6365
  O  O222  1  0.533970  0.187570  0.811710  1.0  -0.6326
  O  O223  1  0.114500  0.057000  0.798800  1.0  -0.6028
  O  O224  1  0.533790  0.346360  0.811730  1.0  -0.6382
  O  O225  1  0.653600  0.466030  0.811710  1.0  -0.6348
  O  O226  1  0.942500  0.885500  0.798800  1.0  -0.6035
  O  O227  1  0.466210  0.812570  0.311730  1.0  -0.6372
  O  O228  1  0.346400  0.812430  0.311710  1.0  -0.633
  O  O229  1  0.057500  0.943000  0.298800  1.0  -0.6041
  O  O230  1  0.187430  0.653640  0.311730  1.0  -0.6378
  O  O231  1  0.187570  0.533970  0.311710  1.0  -0.6353
  O  O232  1  0.057000  0.114500  0.298800  1.0  -0.6029
  O  O233  1  0.346360  0.533790  0.311730  1.0  -0.6361
  O  O234  1  0.466030  0.653600  0.311710  1.0  -0.6354
  O  O235  1  0.885500  0.942500  0.298800  1.0  -0.6018
  O  O236  1  0.187430  0.533790  0.188270  1.0  -0.6367
  O  O237  1  0.187570  0.653600  0.188290  1.0  -0.636
  O  O238  1  0.057000  0.942500  0.201200  1.0  -0.6056
  O  O239  1  0.346360  0.812570  0.188270  1.0  -0.6354
  O  O240  1  0.466030  0.812430  0.188290  1.0  -0.6343
  O  O241  1  0.885500  0.943000  0.201200  1.0  -0.6056
  O  O242  1  0.466210  0.653640  0.188270  1.0  -0.6372
  O  O243  1  0.346400  0.533970  0.188290  1.0  -0.6334
  O  O244  1  0.057500  0.114500  0.201200  1.0  -0.6055
  O  O245  1  0.666667  0.333333  0.750000  1.0  -1.0174
  O  O246  1  0.333333  0.666667  0.250000  1.0  -1.0174
