# generated using pymatgen
data_In3Co2H9(C3O2)15
_symmetry_space_group_name_H-M   'P 1'
_cell_length_a   18.19970000
_cell_length_b   18.19970000
_cell_length_c   20.02040000
_cell_angle_alpha   90.00000000
_cell_angle_beta   90.00000000
_cell_angle_gamma   120.00000000
_symmetry_Int_Tables_number   1
_chemical_formula_structural   In3Co2H9(C3O2)15
_chemical_formula_sum   'In6 Co4 H18 C90 O60'
_cell_volume   5742.90775368
_cell_formula_units_Z   2
loop_
 _symmetry_equiv_pos_site_id
 _symmetry_equiv_pos_as_xyz
  1  'x, y, z'
loop_
 _atom_site_type_symbol
 _atom_site_label
 _atom_site_symmetry_multiplicity
 _atom_site_fract_x
 _atom_site_fract_y
 _atom_site_fract_z
 _atom_site_occupancy
 _atom_site_charge
  In  In1  1  0.408910  0.408910  0.000000  1.0  1.4724
  In  In2  1  0.591090  0.000000  0.000000  1.0  1.471
  In  In3  1  0.000000  0.591090  0.000000  1.0  1.4735
  In  In4  1  0.408910  0.408910  0.500000  1.0  1.4724
  In  In5  1  0.591090  0.000000  0.500000  1.0  1.471
  In  In6  1  0.000000  0.591090  0.500000  1.0  1.4735
  Co  Co7  1  0.000000  0.000000  0.147040  1.0  0.8099
  Co  Co8  1  0.000000  0.000000  0.352960  1.0  0.8103
  Co  Co9  1  0.000000  0.000000  0.852960  1.0  0.8103
  Co  Co10  1  0.000000  0.000000  0.647040  1.0  0.8099
  H  H11  1  0.205400  0.233700  0.151100  1.0  0.1114
  H  H12  1  0.766300  0.971700  0.151100  1.0  0.1112
  H  H13  1  0.028300  0.794600  0.151100  1.0  0.1116
  H  H14  1  0.205400  0.233700  0.348900  1.0  0.1111
  H  H15  1  0.766300  0.971700  0.348900  1.0  0.1106
  H  H16  1  0.028300  0.794600  0.348900  1.0  0.1111
  H  H17  1  0.233700  0.205400  0.848900  1.0  0.111
  H  H18  1  0.971700  0.766300  0.848900  1.0  0.111
  H  H19  1  0.794600  0.028300  0.848900  1.0  0.1105
  H  H20  1  0.233700  0.205400  0.651100  1.0  0.1115
  H  H21  1  0.971700  0.766300  0.651100  1.0  0.1116
  H  H22  1  0.794600  0.028300  0.651100  1.0  0.1113
  H  H23  1  0.404500  0.410800  0.250000  1.0  0.1212
  H  H24  1  0.589200  0.993700  0.250000  1.0  0.1196
  H  H25  1  0.006300  0.595500  0.250000  1.0  0.1224
  H  H26  1  0.410800  0.404500  0.750000  1.0  0.1224
  H  H27  1  0.993700  0.589200  0.750000  1.0  0.1213
  H  H28  1  0.595500  0.006300  0.750000  1.0  0.12
  C  C29  1  0.310400  0.328600  0.189100  1.0  -0.1591
  C  C30  1  0.352000  0.363600  0.124500  1.0  0.6899
  C  C31  1  0.232000  0.258000  0.191300  1.0  0.0409
  C  C32  1  0.581500  0.267800  0.010700  1.0  0.0107
  C  C33  1  0.603600  0.354200  0.011600  1.0  -0.0421
  C  C34  1  0.531100  0.374000  0.008000  1.0  0.6976
  C  C35  1  0.671400  0.981800  0.189100  1.0  -0.1603
  C  C36  1  0.636400  0.988400  0.124500  1.0  0.6882
  C  C37  1  0.742000  0.974000  0.191300  1.0  0.0396
  C  C38  1  0.732200  0.313700  0.010700  1.0  0.0113
  C  C39  1  0.645800  0.249400  0.011600  1.0  -0.0431
  C  C40  1  0.626000  0.157100  0.008000  1.0  0.6964
  C  C41  1  0.018200  0.689600  0.189100  1.0  -0.1605
  C  C42  1  0.011600  0.648000  0.124500  1.0  0.6909
  C  C43  1  0.026000  0.768000  0.191300  1.0  0.0397
  C  C44  1  0.686300  0.418500  0.010700  1.0  0.0095
  C  C45  1  0.750600  0.396400  0.011600  1.0  -0.0424
  C  C46  1  0.842900  0.468900  0.008000  1.0  0.6954
  C  C47  1  0.310400  0.328600  0.310900  1.0  -0.1592
  C  C48  1  0.352000  0.363600  0.375500  1.0  0.6908
  C  C49  1  0.232000  0.258000  0.308700  1.0  0.0399
  C  C50  1  0.581500  0.267800  0.489300  1.0  0.0099
  C  C51  1  0.603600  0.354200  0.488400  1.0  -0.0421
  C  C52  1  0.531100  0.374000  0.492000  1.0  0.6975
  C  C53  1  0.671400  0.981800  0.310900  1.0  -0.1598
  C  C54  1  0.636400  0.988400  0.375500  1.0  0.6891
  C  C55  1  0.742000  0.974000  0.308700  1.0  0.0401
  C  C56  1  0.732200  0.313700  0.489300  1.0  0.0109
  C  C57  1  0.645800  0.249400  0.488400  1.0  -0.0431
  C  C58  1  0.626000  0.157100  0.492000  1.0  0.6964
  C  C59  1  0.018200  0.689600  0.310900  1.0  -0.1599
  C  C60  1  0.011600  0.648000  0.375500  1.0  0.6919
  C  C61  1  0.026000  0.768000  0.308700  1.0  0.0393
  C  C62  1  0.686300  0.418500  0.489300  1.0  0.0087
  C  C63  1  0.750600  0.396400  0.488400  1.0  -0.0425
  C  C64  1  0.842900  0.468900  0.492000  1.0  0.6954
  C  C65  1  0.328600  0.310400  0.810900  1.0  -0.1602
  C  C66  1  0.363600  0.352000  0.875500  1.0  0.6914
  C  C67  1  0.258000  0.232000  0.808700  1.0  0.04
  C  C68  1  0.267800  0.581500  0.989300  1.0  0.0093
  C  C69  1  0.354200  0.603600  0.988400  1.0  -0.0426
  C  C70  1  0.374000  0.531100  0.992000  1.0  0.6937
  C  C71  1  0.981800  0.671400  0.810900  1.0  -0.1588
  C  C72  1  0.988400  0.636400  0.875500  1.0  0.6912
  C  C73  1  0.974000  0.742000  0.808700  1.0  0.039
  C  C74  1  0.313700  0.732200  0.989300  1.0  0.0124
  C  C75  1  0.249400  0.645800  0.988400  1.0  -0.0424
  C  C76  1  0.157100  0.626000  0.992000  1.0  0.6976
  C  C77  1  0.689600  0.018200  0.810900  1.0  -0.1599
  C  C78  1  0.648000  0.011600  0.875500  1.0  0.6892
  C  C79  1  0.768000  0.026000  0.808700  1.0  0.0399
  C  C80  1  0.418500  0.686300  0.989300  1.0  0.0118
  C  C81  1  0.396400  0.750600  0.988400  1.0  -0.0426
  C  C82  1  0.468900  0.842900  0.992000  1.0  0.6949
  C  C83  1  0.328600  0.310400  0.689100  1.0  -0.1601
  C  C84  1  0.363600  0.352000  0.624500  1.0  0.6905
  C  C85  1  0.258000  0.232000  0.691300  1.0  0.0407
  C  C86  1  0.267800  0.581500  0.510700  1.0  0.0089
  C  C87  1  0.354200  0.603600  0.511600  1.0  -0.0426
  C  C88  1  0.374000  0.531100  0.508000  1.0  0.6937
  C  C89  1  0.981800  0.671400  0.689100  1.0  -0.1594
  C  C90  1  0.988400  0.636400  0.624500  1.0  0.6902
  C  C91  1  0.974000  0.742000  0.691300  1.0  0.0397
  C  C92  1  0.313700  0.732200  0.510700  1.0  0.0114
  C  C93  1  0.249400  0.645800  0.511600  1.0  -0.0424
  C  C94  1  0.157100  0.626000  0.508000  1.0  0.6976
  C  C95  1  0.689600  0.018200  0.689100  1.0  -0.1604
  C  C96  1  0.648000  0.011600  0.624500  1.0  0.6882
  C  C97  1  0.768000  0.026000  0.691300  1.0  0.0397
  C  C98  1  0.418500  0.686300  0.510700  1.0  0.011
  C  C99  1  0.396400  0.750600  0.511600  1.0  -0.0425
  C  C100  1  0.468900  0.842900  0.508000  1.0  0.6949
  C  C101  1  0.103100  0.140600  0.250000  1.0  0.7917
  C  C102  1  0.189800  0.220400  0.250000  1.0  -0.1563
  C  C103  1  0.350400  0.363500  0.250000  1.0  0.0336
  C  C104  1  0.859400  0.962500  0.250000  1.0  0.7899
  C  C105  1  0.779600  0.969400  0.250000  1.0  -0.1547
  C  C106  1  0.636500  0.986900  0.250000  1.0  0.03
  C  C107  1  0.037500  0.896900  0.250000  1.0  0.789
  C  C108  1  0.030600  0.810200  0.250000  1.0  -0.1545
  C  C109  1  0.013100  0.649600  0.250000  1.0  0.0318
  C  C110  1  0.140600  0.103100  0.750000  1.0  0.7893
  C  C111  1  0.220400  0.189800  0.750000  1.0  -0.1552
  C  C112  1  0.363500  0.350400  0.750000  1.0  0.0325
  C  C113  1  0.962500  0.859400  0.750000  1.0  0.7915
  C  C114  1  0.969400  0.779600  0.750000  1.0  -0.156
  C  C115  1  0.986900  0.636500  0.750000  1.0  0.0334
  C  C116  1  0.896900  0.037500  0.750000  1.0  0.7896
  C  C117  1  0.810200  0.030600  0.750000  1.0  -0.1542
  C  C118  1  0.649600  0.013100  0.750000  1.0  0.0299
  O  O119  1  0.072600  0.111900  0.195300  1.0  -0.6207
  O  O120  1  0.313800  0.320500  0.072600  1.0  -0.5244
  O  O121  1  0.419000  0.430600  0.119400  1.0  -0.5545
  O  O122  1  0.548400  0.449000  0.006070  1.0  -0.5174
  O  O123  1  0.457100  0.314000  0.007000  1.0  -0.523
  O  O124  1  0.888100  0.960700  0.195300  1.0  -0.6195
  O  O125  1  0.679500  0.993300  0.072600  1.0  -0.5251
  O  O126  1  0.569400  0.988400  0.119400  1.0  -0.5598
  O  O127  1  0.551000  0.099400  0.006070  1.0  -0.5186
  O  O128  1  0.686000  0.143100  0.007000  1.0  -0.5245
  O  O129  1  0.039300  0.927400  0.195300  1.0  -0.6231
  O  O130  1  0.006700  0.686200  0.072600  1.0  -0.5252
  O  O131  1  0.011600  0.581000  0.119400  1.0  -0.5545
  O  O132  1  0.900600  0.451600  0.006070  1.0  -0.519
  O  O133  1  0.856900  0.542900  0.007000  1.0  -0.5287
  O  O134  1  0.072600  0.111900  0.304700  1.0  -0.6195
  O  O135  1  0.313800  0.320500  0.427400  1.0  -0.524
  O  O136  1  0.419000  0.430600  0.380600  1.0  -0.5545
  O  O137  1  0.548400  0.449000  0.493930  1.0  -0.5174
  O  O138  1  0.457100  0.314000  0.493000  1.0  -0.523
  O  O139  1  0.888100  0.960700  0.304700  1.0  -0.6186
  O  O140  1  0.679500  0.993300  0.427400  1.0  -0.5253
  O  O141  1  0.569400  0.988400  0.380600  1.0  -0.5595
  O  O142  1  0.551000  0.099400  0.493930  1.0  -0.5184
  O  O143  1  0.686000  0.143100  0.493000  1.0  -0.5245
  O  O144  1  0.039300  0.927400  0.304700  1.0  -0.6226
  O  O145  1  0.006700  0.686200  0.427400  1.0  -0.5242
  O  O146  1  0.011600  0.581000  0.380600  1.0  -0.5544
  O  O147  1  0.900600  0.451600  0.493930  1.0  -0.519
  O  O148  1  0.856900  0.542900  0.493000  1.0  -0.5286
  O  O149  1  0.111900  0.072600  0.804700  1.0  -0.6218
  O  O150  1  0.320500  0.313800  0.927400  1.0  -0.5241
  O  O151  1  0.430600  0.419000  0.880600  1.0  -0.5549
  O  O152  1  0.449000  0.548400  0.993930  1.0  -0.5167
  O  O153  1  0.314000  0.457100  0.993000  1.0  -0.5269
  O  O154  1  0.960700  0.888100  0.804700  1.0  -0.6193
  O  O155  1  0.993300  0.679500  0.927400  1.0  -0.5245
  O  O156  1  0.988400  0.569400  0.880600  1.0  -0.5539
  O  O157  1  0.099400  0.551000  0.993930  1.0  -0.52
  O  O158  1  0.143100  0.686000  0.993000  1.0  -0.523
  O  O159  1  0.927400  0.039300  0.804700  1.0  -0.62
  O  O160  1  0.686200  0.006700  0.927400  1.0  -0.5251
  O  O161  1  0.581000  0.011600  0.880600  1.0  -0.5596
  O  O162  1  0.451600  0.900600  0.993930  1.0  -0.519
  O  O163  1  0.542900  0.856900  0.993000  1.0  -0.5254
  O  O164  1  0.111900  0.072600  0.695300  1.0  -0.6227
  O  O165  1  0.320500  0.313800  0.572600  1.0  -0.5245
  O  O166  1  0.430600  0.419000  0.619400  1.0  -0.5551
  O  O167  1  0.449000  0.548400  0.506070  1.0  -0.5168
  O  O168  1  0.314000  0.457100  0.507000  1.0  -0.5269
  O  O169  1  0.960700  0.888100  0.695300  1.0  -0.6196
  O  O170  1  0.993300  0.679500  0.572600  1.0  -0.5257
  O  O171  1  0.988400  0.569400  0.619400  1.0  -0.5539
  O  O172  1  0.099400  0.551000  0.506070  1.0  -0.5201
  O  O173  1  0.143100  0.686000  0.507000  1.0  -0.5231
  O  O174  1  0.927400  0.039300  0.695300  1.0  -0.6204
  O  O175  1  0.686200  0.006700  0.572600  1.0  -0.5252
  O  O176  1  0.581000  0.011600  0.619400  1.0  -0.56
  O  O177  1  0.451600  0.900600  0.506070  1.0  -0.5191
  O  O178  1  0.542900  0.856900  0.507000  1.0  -0.5254
