# generated using pymatgen
data_In3H24C42O13
_symmetry_space_group_name_H-M   'P 1'
_cell_length_a   20.81310000
_cell_length_b   20.81310000
_cell_length_c   23.18500000
_cell_angle_alpha   90.00000000
_cell_angle_beta   90.00000000
_cell_angle_gamma   120.00000000
_symmetry_Int_Tables_number   1
_chemical_formula_structural   In3H24C42O13
_chemical_formula_sum   'In6 H48 C84 O26'
_cell_volume   8697.83718164
_cell_formula_units_Z   2
loop_
 _symmetry_equiv_pos_site_id
 _symmetry_equiv_pos_as_xyz
  1  'x, y, z'
loop_
 _atom_site_type_symbol
 _atom_site_label
 _atom_site_symmetry_multiplicity
 _atom_site_fract_x
 _atom_site_fract_y
 _atom_site_fract_z
 _atom_site_occupancy
 _atom_site_charge
  In  In1  1  0.723080  0.276920  0.750000  1.0  1.5631
  In  In2  1  0.723080  0.446150  0.750000  1.0  1.5645
  In  In3  1  0.553850  0.276920  0.750000  1.0  1.5636
  In  In4  1  0.276920  0.723080  0.250000  1.0  1.5645
  In  In5  1  0.276920  0.553850  0.250000  1.0  1.5631
  In  In6  1  0.446150  0.723080  0.250000  1.0  1.5623
  H  H7  1  0.966100  0.387500  0.533600  1.0  0.1157
  H  H8  1  0.964800  0.577800  0.533400  1.0  0.1297
  H  H9  1  0.881400  0.534800  0.608600  1.0  0.1034
  H  H10  1  0.881800  0.346100  0.608300  1.0  0.1078
  H  H11  1  0.612500  0.578600  0.533600  1.0  0.1159
  H  H12  1  0.422200  0.387000  0.533400  1.0  0.1284
  H  H13  1  0.465200  0.346600  0.608600  1.0  0.1031
  H  H14  1  0.653900  0.535700  0.608300  1.0  0.1102
  H  H15  1  0.421400  0.033900  0.533600  1.0  0.1124
  H  H16  1  0.613000  0.035200  0.533400  1.0  0.1266
  H  H17  1  0.653400  0.118600  0.608600  1.0  0.103
  H  H18  1  0.464300  0.118200  0.608300  1.0  0.1089
  H  H19  1  0.612500  0.033900  0.966400  1.0  0.1141
  H  H20  1  0.422200  0.035200  0.966600  1.0  0.1263
  H  H21  1  0.465200  0.118600  0.891400  1.0  0.1031
  H  H22  1  0.653900  0.118200  0.891700  1.0  0.1086
  H  H23  1  0.421400  0.387500  0.966400  1.0  0.1138
  H  H24  1  0.613000  0.577800  0.966600  1.0  0.1294
  H  H25  1  0.653400  0.534800  0.891400  1.0  0.1038
  H  H26  1  0.464300  0.346100  0.891700  1.0  0.1084
  H  H27  1  0.966100  0.578600  0.966400  1.0  0.1168
  H  H28  1  0.964800  0.387000  0.966600  1.0  0.1293
  H  H29  1  0.881400  0.346600  0.891400  1.0  0.1032
  H  H30  1  0.881800  0.535700  0.891700  1.0  0.1101
  H  H31  1  0.033900  0.612500  0.466400  1.0  0.116
  H  H32  1  0.035200  0.422200  0.466600  1.0  0.1293
  H  H33  1  0.118600  0.465200  0.391400  1.0  0.1032
  H  H34  1  0.118200  0.653900  0.391700  1.0  0.1084
  H  H35  1  0.387500  0.421400  0.466400  1.0  0.1166
  H  H36  1  0.577800  0.613000  0.466600  1.0  0.1293
  H  H37  1  0.534800  0.653400  0.391400  1.0  0.1033
  H  H38  1  0.346100  0.464300  0.391700  1.0  0.1094
  H  H39  1  0.578600  0.966100  0.466400  1.0  0.1127
  H  H40  1  0.387000  0.964800  0.466600  1.0  0.1265
  H  H41  1  0.346600  0.881400  0.391400  1.0  0.1037
  H  H42  1  0.535700  0.881800  0.391700  1.0  0.1094
  H  H43  1  0.387500  0.966100  0.033600  1.0  0.1131
  H  H44  1  0.577800  0.964800  0.033400  1.0  0.1272
  H  H45  1  0.534800  0.881400  0.108600  1.0  0.1027
  H  H46  1  0.346100  0.881800  0.108300  1.0  0.108
  H  H47  1  0.578600  0.612500  0.033600  1.0  0.1139
  H  H48  1  0.387000  0.422200  0.033400  1.0  0.1297
  H  H49  1  0.346600  0.465200  0.108600  1.0  0.1028
  H  H50  1  0.535700  0.653900  0.108300  1.0  0.1087
  H  H51  1  0.033900  0.421400  0.033600  1.0  0.1163
  H  H52  1  0.035200  0.613000  0.033400  1.0  0.1296
  H  H53  1  0.118600  0.653400  0.108600  1.0  0.1027
  H  H54  1  0.118200  0.464300  0.108300  1.0  0.1092
  C  C55  1  0.948900  0.417700  0.548260  1.0  -0.1647
  C  C56  1  0.948200  0.530600  0.548200  1.0  -0.167
  C  C57  1  0.898600  0.504800  0.593560  1.0  -0.0292
  C  C58  1  0.899100  0.393400  0.593380  1.0  -0.0496
  C  C59  1  0.972800  0.486200  0.525100  1.0  0.069
  C  C60  1  0.874960  0.437700  0.616350  1.0  -0.1487
  C  C61  1  0.818550  0.409400  0.665770  1.0  0.7228
  C  C62  1  0.582300  0.531200  0.548260  1.0  -0.1642
  C  C63  1  0.469400  0.417600  0.548200  1.0  -0.1666
  C  C64  1  0.495200  0.393800  0.593560  1.0  -0.0311
  C  C65  1  0.606600  0.505700  0.593380  1.0  -0.0481
  C  C66  1  0.513800  0.486600  0.525100  1.0  0.0695
  C  C67  1  0.562300  0.437260  0.616350  1.0  -0.1495
  C  C68  1  0.590600  0.409150  0.665770  1.0  0.7226
  C  C69  1  0.468800  0.051100  0.548260  1.0  -0.1613
  C  C70  1  0.582400  0.051800  0.548200  1.0  -0.1658
  C  C71  1  0.606200  0.101400  0.593560  1.0  -0.025
  C  C72  1  0.494300  0.100900  0.593380  1.0  -0.045
  C  C73  1  0.513400  0.027200  0.525100  1.0  0.0688
  C  C74  1  0.562740  0.125040  0.616350  1.0  -0.1489
  C  C75  1  0.590850  0.181450  0.665770  1.0  0.7228
  C  C76  1  0.582300  0.051100  0.951740  1.0  -0.1605
  C  C77  1  0.469400  0.051800  0.951800  1.0  -0.1653
  C  C78  1  0.495200  0.101400  0.906440  1.0  -0.0259
  C  C79  1  0.606600  0.100900  0.906620  1.0  -0.0463
  C  C80  1  0.513800  0.027200  0.974900  1.0  0.0693
  C  C81  1  0.562300  0.125040  0.883650  1.0  -0.1473
  C  C82  1  0.590600  0.181450  0.834230  1.0  0.7227
  C  C83  1  0.468800  0.417700  0.951740  1.0  -0.1627
  C  C84  1  0.582400  0.530600  0.951800  1.0  -0.1657
  C  C85  1  0.606200  0.504800  0.906440  1.0  -0.0281
  C  C86  1  0.494300  0.393400  0.906620  1.0  -0.0488
  C  C87  1  0.513400  0.486200  0.974900  1.0  0.0703
  C  C88  1  0.562740  0.437700  0.883650  1.0  -0.1478
  C  C89  1  0.590850  0.409400  0.834230  1.0  0.7214
  C  C90  1  0.948900  0.531200  0.951740  1.0  -0.1646
  C  C91  1  0.948200  0.417600  0.951800  1.0  -0.1676
  C  C92  1  0.898600  0.393800  0.906440  1.0  -0.0303
  C  C93  1  0.899100  0.505700  0.906620  1.0  -0.0485
  C  C94  1  0.972800  0.486600  0.974900  1.0  0.0693
  C  C95  1  0.874960  0.437260  0.883650  1.0  -0.1486
  C  C96  1  0.818550  0.409150  0.834230  1.0  0.7226
  C  C97  1  0.051100  0.582300  0.451740  1.0  -0.1614
  C  C98  1  0.051800  0.469400  0.451800  1.0  -0.1638
  C  C99  1  0.101400  0.495200  0.406440  1.0  -0.029
  C  C100  1  0.100900  0.606600  0.406620  1.0  -0.0498
  C  C101  1  0.027200  0.513800  0.474900  1.0  0.069
  C  C102  1  0.125040  0.562300  0.383650  1.0  -0.1475
  C  C103  1  0.181450  0.590600  0.334230  1.0  0.7219
  C  C104  1  0.417700  0.468800  0.451740  1.0  -0.1609
  C  C105  1  0.530600  0.582400  0.451800  1.0  -0.1618
  C  C106  1  0.504800  0.606200  0.406440  1.0  -0.0299
  C  C107  1  0.393400  0.494300  0.406620  1.0  -0.0481
  C  C108  1  0.486200  0.513400  0.474900  1.0  0.07
  C  C109  1  0.437700  0.562740  0.383650  1.0  -0.148
  C  C110  1  0.409400  0.590850  0.334230  1.0  0.7231
  C  C111  1  0.531200  0.948900  0.451740  1.0  -0.1574
  C  C112  1  0.417600  0.948200  0.451800  1.0  -0.1616
  C  C113  1  0.393800  0.898600  0.406440  1.0  -0.0253
  C  C114  1  0.505700  0.899100  0.406620  1.0  -0.0464
  C  C115  1  0.486600  0.972800  0.474900  1.0  0.0696
  C  C116  1  0.437260  0.874960  0.383650  1.0  -0.147
  C  C117  1  0.409150  0.818550  0.334230  1.0  0.7219
  C  C118  1  0.417700  0.948900  0.048260  1.0  -0.1579
  C  C119  1  0.530600  0.948200  0.048200  1.0  -0.1619
  C  C120  1  0.504800  0.898600  0.093560  1.0  -0.0245
  C  C121  1  0.393400  0.899100  0.093380  1.0  -0.0447
  C  C122  1  0.486200  0.972800  0.025100  1.0  0.0694
  C  C123  1  0.437700  0.874960  0.116350  1.0  -0.1477
  C  C124  1  0.409400  0.818550  0.165770  1.0  0.7223
  C  C125  1  0.531200  0.582300  0.048260  1.0  -0.1609
  C  C126  1  0.417600  0.469400  0.048200  1.0  -0.1634
  C  C127  1  0.393800  0.495200  0.093560  1.0  -0.0294
  C  C128  1  0.505700  0.606600  0.093380  1.0  -0.0491
  C  C129  1  0.486600  0.513800  0.025100  1.0  0.0703
  C  C130  1  0.437260  0.562300  0.116350  1.0  -0.1488
  C  C131  1  0.409150  0.590600  0.165770  1.0  0.7233
  C  C132  1  0.051100  0.468800  0.048260  1.0  -0.1605
  C  C133  1  0.051800  0.582400  0.048200  1.0  -0.1638
  C  C134  1  0.101400  0.606200  0.093560  1.0  -0.0306
  C  C135  1  0.100900  0.494300  0.093380  1.0  -0.048
  C  C136  1  0.027200  0.513400  0.025100  1.0  0.0689
  C  C137  1  0.125040  0.562740  0.116350  1.0  -0.149
  C  C138  1  0.181450  0.590850  0.165770  1.0  0.7231
  O  O139  1  0.799350  0.453600  0.684190  1.0  -0.6454
  O  O140  1  0.799480  0.345740  0.684150  1.0  -0.6562
  O  O141  1  0.546400  0.345750  0.684190  1.0  -0.6481
  O  O142  1  0.654260  0.453740  0.684150  1.0  -0.6547
  O  O143  1  0.654250  0.200650  0.684190  1.0  -0.6494
  O  O144  1  0.546260  0.200520  0.684150  1.0  -0.6541
  O  O145  1  0.546400  0.200650  0.815810  1.0  -0.6474
  O  O146  1  0.654260  0.200520  0.815850  1.0  -0.6558
  O  O147  1  0.654250  0.453600  0.815810  1.0  -0.6472
  O  O148  1  0.546260  0.345740  0.815850  1.0  -0.6556
  O  O149  1  0.799350  0.345750  0.815810  1.0  -0.648
  O  O150  1  0.799480  0.453740  0.815850  1.0  -0.6528
  O  O151  1  0.200650  0.546400  0.315810  1.0  -0.648
  O  O152  1  0.200520  0.654260  0.315850  1.0  -0.6559
  O  O153  1  0.453600  0.654250  0.315810  1.0  -0.6473
  O  O154  1  0.345740  0.546260  0.315850  1.0  -0.6538
  O  O155  1  0.345750  0.799350  0.315810  1.0  -0.647
  O  O156  1  0.453740  0.799480  0.315850  1.0  -0.6555
  O  O157  1  0.453600  0.799350  0.184190  1.0  -0.6489
  O  O158  1  0.345740  0.799480  0.184150  1.0  -0.6547
  O  O159  1  0.345750  0.546400  0.184190  1.0  -0.6468
  O  O160  1  0.453740  0.654260  0.184150  1.0  -0.6558
  O  O161  1  0.200650  0.654250  0.184190  1.0  -0.6486
  O  O162  1  0.200520  0.546260  0.184150  1.0  -0.6555
  O  O163  1  0.666667  0.333333  0.750000  1.0  -1.0577
  O  O164  1  0.333333  0.666667  0.250000  1.0  -1.058
