# generated using pymatgen
data_Co2H19C25N3O8
_symmetry_space_group_name_H-M   'P 1'
_cell_length_a   15.93630000
_cell_length_b   15.93630000
_cell_length_c   21.33800000
_cell_angle_alpha   90.00000000
_cell_angle_beta   90.00000000
_cell_angle_gamma   120.00000000
_symmetry_Int_Tables_number   1
_chemical_formula_structural   Co2H19C25N3O8
_chemical_formula_sum   'Co12 H114 C150 N18 O48'
_cell_volume   4693.09489662
_cell_formula_units_Z   6
loop_
 _symmetry_equiv_pos_site_id
 _symmetry_equiv_pos_as_xyz
  1  'x, y, z'
loop_
 _atom_site_type_symbol
 _atom_site_label
 _atom_site_symmetry_multiplicity
 _atom_site_fract_x
 _atom_site_fract_y
 _atom_site_fract_z
 _atom_site_occupancy
 _atom_site_charge
  Co  Co1  1  0.553350  0.846370  0.911850  1.0  0.9695
  Co  Co2  1  0.482880  0.968990  0.806070  1.0  0.7616
  Co  Co3  1  0.293020  0.446650  0.578520  1.0  0.9696
  Co  Co4  1  0.486110  0.517120  0.472740  1.0  0.7597
  Co  Co5  1  0.153630  0.706980  0.245180  1.0  0.9709
  Co  Co6  1  0.031010  0.513890  0.139400  1.0  0.7602
  Co  Co7  1  0.446650  0.153630  0.411850  1.0  0.9701
  Co  Co8  1  0.517120  0.031010  0.306070  1.0  0.7598
  Co  Co9  1  0.706980  0.553350  0.078520  1.0  0.9703
  Co  Co10  1  0.513890  0.482880  0.972740  1.0  0.7609
  Co  Co11  1  0.846370  0.293020  0.745180  1.0  0.9695
  Co  Co12  1  0.968990  0.486110  0.639400  1.0  0.7611
  H  H13  1  0.472400  0.806200  0.445000  1.0  0.1071
  H  H14  1  0.446200  0.987000  0.563800  1.0  0.1037
  H  H15  1  0.400000  0.731200  0.624400  1.0  0.1117
  H  H16  1  0.384800  0.932700  0.671000  1.0  0.1009
  H  H17  1  0.368700  0.832400  0.694000  1.0  0.1085
  H  H18  1  0.593900  0.894500  0.676500  1.0  0.0994
  H  H19  1  0.502100  0.813700  0.710900  1.0  0.1008
  H  H20  1  0.536300  0.064700  0.661200  1.0  0.0973
  H  H21  1  0.608400  0.027700  0.644900  1.0  0.0925
  H  H22  1  0.705900  0.052200  0.909100  1.0  0.0793
  H  H23  1  0.871600  0.154300  0.915800  1.0  0.1274
  H  H24  1  0.898000  0.921400  0.953600  1.0  0.1373
  H  H25  1  0.736500  0.828200  0.943800  1.0  0.0724
  H  H26  1  0.044500  0.082400  0.952500  1.0  0.1047
  H  H27  1  0.024500  0.234300  0.920200  1.0  0.0988
  H  H28  1  0.170500  0.395600  0.931300  1.0  0.0974
  H  H29  1  0.331600  0.492700  0.945900  1.0  0.0938
  H  H30  1  0.365100  0.267200  0.945400  1.0  0.0741
  H  H31  1  0.206300  0.165800  0.933300  1.0  0.1172
  H  H32  1  0.333800  0.527600  0.111670  1.0  0.1069
  H  H33  1  0.540800  0.553800  0.230470  1.0  0.1028
  H  H34  1  0.331200  0.600000  0.291070  1.0  0.1114
  H  H35  1  0.547900  0.615200  0.337670  1.0  0.1034
  H  H36  1  0.463700  0.631300  0.360670  1.0  0.1086
  H  H37  1  0.300600  0.406100  0.343170  1.0  0.0997
  H  H38  1  0.311600  0.497900  0.377570  1.0  0.1002
  H  H39  1  0.528400  0.463700  0.327870  1.0  0.0963
  H  H40  1  0.419300  0.391600  0.311570  1.0  0.0903
  H  H41  1  0.346300  0.294100  0.575770  1.0  0.0801
  H  H42  1  0.282700  0.128400  0.582470  1.0  0.1267
  H  H43  1  0.023400  0.102000  0.620270  1.0  0.1375
  H  H44  1  0.091700  0.263500  0.610470  1.0  0.072
  H  H45  1  0.037900  0.955500  0.619170  1.0  0.1057
  H  H46  1  0.209800  0.975500  0.586870  1.0  0.1015
  H  H47  1  0.225100  0.829500  0.597970  1.0  0.0964
  H  H48  1  0.161100  0.668400  0.612570  1.0  0.0985
  H  H49  1  0.902100  0.634900  0.612070  1.0  0.072
  H  H50  1  0.959500  0.793700  0.599970  1.0  0.1162
  H  H51  1  0.193800  0.666200  0.778330  1.0  0.1073
  H  H52  1  0.013000  0.459200  0.897130  1.0  0.1027
  H  H53  1  0.268800  0.668800  0.957730  1.0  0.1114
  H  H54  1  0.067300  0.452100  0.004330  1.0  0.0993
  H  H55  1  0.167600  0.536300  0.027330  1.0  0.1086
  H  H56  1  0.105500  0.699400  0.009830  1.0  0.0998
  H  H57  1  0.186300  0.688400  0.044230  1.0  0.0977
  H  H58  1  0.935300  0.471600  0.994530  1.0  0.0974
  H  H59  1  0.972300  0.580700  0.978230  1.0  0.0936
  H  H60  1  0.947800  0.653700  0.242430  1.0  0.0804
  H  H61  1  0.845700  0.717300  0.249130  1.0  0.127
  H  H62  1  0.078600  0.976600  0.286930  1.0  0.1355
  H  H63  1  0.171800  0.908300  0.277130  1.0  0.0719
  H  H64  1  0.917600  0.962100  0.285830  1.0  0.1015
  H  H65  1  0.765700  0.790200  0.253530  1.0  0.0995
  H  H66  1  0.604400  0.774900  0.264630  1.0  0.0969
  H  H67  1  0.507300  0.838900  0.279230  1.0  0.0959
  H  H68  1  0.732800  0.097900  0.278730  1.0  0.0714
  H  H69  1  0.834200  0.040500  0.266630  1.0  0.1164
  H  H70  1  0.527600  0.193800  0.945000  1.0  0.1071
  H  H71  1  0.553800  0.013000  0.063800  1.0  0.103
  H  H72  1  0.600000  0.268800  0.124400  1.0  0.1117
  H  H73  1  0.615200  0.067300  0.171000  1.0  0.1001
  H  H74  1  0.631300  0.167600  0.194000  1.0  0.1063
  H  H75  1  0.406100  0.105500  0.176500  1.0  0.0993
  H  H76  1  0.497900  0.186300  0.210900  1.0  0.0996
  H  H77  1  0.463700  0.935300  0.161200  1.0  0.0975
  H  H78  1  0.391600  0.972300  0.144900  1.0  0.0919
  H  H79  1  0.294100  0.947800  0.409100  1.0  0.0793
  H  H80  1  0.128400  0.845700  0.415800  1.0  0.1275
  H  H81  1  0.102000  0.078600  0.453600  1.0  0.1379
  H  H82  1  0.263500  0.171800  0.443800  1.0  0.072
  H  H83  1  0.955500  0.917600  0.452500  1.0  0.1057
  H  H84  1  0.975500  0.765700  0.420200  1.0  0.0994
  H  H85  1  0.829500  0.604400  0.431300  1.0  0.0974
  H  H86  1  0.668400  0.507300  0.445900  1.0  0.0947
  H  H87  1  0.634900  0.732800  0.445400  1.0  0.0734
  H  H88  1  0.793700  0.834200  0.433300  1.0  0.1168
  H  H89  1  0.666200  0.472400  0.611670  1.0  0.1071
  H  H90  1  0.459200  0.446200  0.730470  1.0  0.1022
  H  H91  1  0.668800  0.400000  0.791070  1.0  0.1115
  H  H92  1  0.452100  0.384800  0.837670  1.0  0.1018
  H  H93  1  0.536300  0.368700  0.860670  1.0  0.1077
  H  H94  1  0.699400  0.593900  0.843170  1.0  0.101
  H  H95  1  0.688400  0.502100  0.877570  1.0  0.1001
  H  H96  1  0.471600  0.536300  0.827870  1.0  0.0957
  H  H97  1  0.580700  0.608400  0.811570  1.0  0.0913
  H  H98  1  0.653700  0.705900  0.075770  1.0  0.08
  H  H99  1  0.717300  0.871600  0.082470  1.0  0.1252
  H  H100  1  0.976600  0.898000  0.120270  1.0  0.1379
  H  H101  1  0.908300  0.736500  0.110470  1.0  0.0727
  H  H102  1  0.962100  0.044500  0.119170  1.0  0.1053
  H  H103  1  0.790200  0.024500  0.086870  1.0  0.1007
  H  H104  1  0.774900  0.170500  0.097970  1.0  0.0968
  H  H105  1  0.838900  0.331600  0.112570  1.0  0.0979
  H  H106  1  0.097900  0.365100  0.112070  1.0  0.0736
  H  H107  1  0.040500  0.206300  0.099970  1.0  0.1156
  H  H108  1  0.806200  0.333800  0.278330  1.0  0.1075
  H  H109  1  0.987000  0.540800  0.397130  1.0  0.103
  H  H110  1  0.731200  0.331200  0.457730  1.0  0.1116
  H  H111  1  0.932700  0.547900  0.504330  1.0  0.0997
  H  H112  1  0.832400  0.463700  0.527330  1.0  0.1102
  H  H113  1  0.894500  0.300600  0.509830  1.0  0.0994
  H  H114  1  0.813700  0.311600  0.544230  1.0  0.0988
  H  H115  1  0.064700  0.528400  0.494530  1.0  0.0981
  H  H116  1  0.027700  0.419300  0.478230  1.0  0.0928
  H  H117  1  0.052200  0.346300  0.742430  1.0  0.0805
  H  H118  1  0.154300  0.282700  0.749130  1.0  0.1272
  H  H119  1  0.921400  0.023400  0.786930  1.0  0.1365
  H  H120  1  0.828200  0.091700  0.777130  1.0  0.072
  H  H121  1  0.082400  0.037900  0.785830  1.0  0.1034
  H  H122  1  0.234300  0.209800  0.753530  1.0  0.1015
  H  H123  1  0.395600  0.225100  0.764630  1.0  0.0974
  H  H124  1  0.492700  0.161100  0.779230  1.0  0.0961
  H  H125  1  0.267200  0.902100  0.778730  1.0  0.0727
  H  H126  1  0.165800  0.959500  0.766630  1.0  0.1162
  C  C127  1  0.431600  0.752300  0.532200  1.0  -0.1474
  C  C128  1  0.457100  0.819500  0.484500  1.0  0.0104
  C  C129  1  0.460000  0.906800  0.495400  1.0  -0.1651
  C  C130  1  0.443500  0.928200  0.556300  1.0  -0.0868
  C  C131  1  0.423600  0.865100  0.604900  1.0  0.0864
  C  C132  1  0.415900  0.775900  0.592100  1.0  -0.1231
  C  C133  1  0.413300  0.891300  0.671900  1.0  -0.061
  C  C134  1  0.552000  0.881500  0.712500  1.0  -0.2111
  C  C135  1  0.611700  0.899200  0.772300  1.0  0.7203
  C  C136  1  0.573100  0.036900  0.678800  1.0  -0.2054
  C  C137  1  0.645000  0.106700  0.727200  1.0  0.7513
  C  C138  1  0.420500  0.652800  0.524400  1.0  0.7022
  C  C139  1  0.478600  0.979800  0.444100  1.0  0.7221
  C  C140  1  0.745300  0.026000  0.917700  1.0  0.1651
  C  C141  1  0.844800  0.088000  0.922200  1.0  -0.1639
  C  C142  1  0.904400  0.048800  0.936700  1.0  0.1083
  C  C143  1  0.860800  0.949800  0.944400  1.0  -0.2094
  C  C144  1  0.764100  0.894700  0.938500  1.0  0.1637
  C  C145  1  0.009500  0.112300  0.941100  1.0  -0.1128
  C  C146  1  0.059500  0.204200  0.931300  1.0  -0.1071
  C  C147  1  0.165100  0.267500  0.935400  1.0  0.1141
  C  C148  1  0.209000  0.367400  0.936200  1.0  -0.1031
  C  C149  1  0.306000  0.426100  0.943800  1.0  0.1408
  C  C150  1  0.324400  0.293300  0.943800  1.0  0.1762
  C  C151  1  0.229500  0.232000  0.937000  1.0  -0.2065
  C  C152  1  0.320700  0.568400  0.198870  1.0  -0.1465
  C  C153  1  0.362400  0.542900  0.151170  1.0  0.0115
  C  C154  1  0.446800  0.540000  0.162070  1.0  -0.1646
  C  C155  1  0.484700  0.556500  0.222970  1.0  -0.0887
  C  C156  1  0.441500  0.576400  0.271570  1.0  0.0851
  C  C157  1  0.360000  0.584100  0.258770  1.0  -0.1212
  C  C158  1  0.478000  0.586700  0.338570  1.0  -0.0622
  C  C159  1  0.329500  0.448000  0.379170  1.0  -0.2087
  C  C160  1  0.287500  0.388300  0.438970  1.0  0.7204
  C  C161  1  0.463800  0.426900  0.345470  1.0  -0.2101
  C  C162  1  0.461700  0.355000  0.393870  1.0  0.7528
  C  C163  1  0.232300  0.579500  0.191070  1.0  0.6988
  C  C164  1  0.501200  0.521400  0.110770  1.0  0.7197
  C  C165  1  0.280700  0.254700  0.584370  1.0  0.1671
  C  C166  1  0.243200  0.155200  0.588870  1.0  -0.1629
  C  C167  1  0.144400  0.095600  0.603370  1.0  0.1086
  C  C168  1  0.089000  0.139200  0.611070  1.0  -0.2078
  C  C169  1  0.130600  0.235900  0.605170  1.0  0.1678
  C  C170  1  0.102800  0.990500  0.607770  1.0  -0.1144
  C  C171  1  0.144700  0.940500  0.597970  1.0  -0.1059
  C  C172  1  0.102400  0.834900  0.602070  1.0  0.1147
  C  C173  1  0.158400  0.791000  0.602870  1.0  -0.1015
  C  C174  1  0.120100  0.694000  0.610470  1.0  0.1402
  C  C175  1  0.968900  0.675600  0.610470  1.0  0.1778
  C  C176  1  0.002500  0.770500  0.603670  1.0  -0.2015
  C  C177  1  0.247700  0.679300  0.865530  1.0  -0.1453
  C  C178  1  0.180500  0.637600  0.817830  1.0  0.0102
  C  C179  1  0.093200  0.553200  0.828730  1.0  -0.1656
  C  C180  1  0.071800  0.515300  0.889630  1.0  -0.0855
  C  C181  1  0.134900  0.558500  0.938230  1.0  0.0882
  C  C182  1  0.224100  0.640000  0.925430  1.0  -0.1251
  C  C183  1  0.108700  0.522000  0.005230  1.0  -0.065
  C  C184  1  0.118500  0.670500  0.045830  1.0  -0.2092
  C  C185  1  0.100800  0.712500  0.105630  1.0  0.7195
  C  C186  1  0.963100  0.536200  0.012130  1.0  -0.2071
  C  C187  1  0.893300  0.538300  0.060530  1.0  0.7501
  C  C188  1  0.347200  0.767700  0.857730  1.0  0.7001
  C  C189  1  0.020200  0.498800  0.777430  1.0  0.7205
  C  C190  1  0.974000  0.719300  0.251030  1.0  0.1645
  C  C191  1  0.912000  0.756800  0.255530  1.0  -0.1646
  C  C192  1  0.951200  0.855600  0.270030  1.0  0.1094
  C  C193  1  0.050200  0.911000  0.277730  1.0  -0.2058
  C  C194  1  0.105300  0.869400  0.271830  1.0  0.1669
  C  C195  1  0.887700  0.897200  0.274430  1.0  -0.1186
  C  C196  1  0.795800  0.855300  0.264630  1.0  -0.1084
  C  C197  1  0.732500  0.897600  0.268730  1.0  0.1152
  C  C198  1  0.632600  0.841600  0.269530  1.0  -0.1027
  C  C199  1  0.573900  0.879900  0.277130  1.0  0.1423
  C  C200  1  0.706700  0.031100  0.277130  1.0  0.1747
  C  C201  1  0.768000  0.997500  0.270330  1.0  -0.2068
  C  C202  1  0.568400  0.247700  0.032200  1.0  -0.1459
  C  C203  1  0.542900  0.180500  0.984500  1.0  0.0102
  C  C204  1  0.540000  0.093200  0.995400  1.0  -0.1664
  C  C205  1  0.556500  0.071800  0.056300  1.0  -0.0871
  C  C206  1  0.576400  0.134900  0.104900  1.0  0.0861
  C  C207  1  0.584100  0.224100  0.092100  1.0  -0.1236
  C  C208  1  0.586700  0.108700  0.171900  1.0  -0.0609
  C  C209  1  0.448000  0.118500  0.212500  1.0  -0.2099
  C  C210  1  0.388300  0.100800  0.272300  1.0  0.7218
  C  C211  1  0.426900  0.963100  0.178800  1.0  -0.2069
  C  C212  1  0.355000  0.893300  0.227200  1.0  0.7519
  C  C213  1  0.579500  0.347200  0.024400  1.0  0.7034
  C  C214  1  0.521400  0.020200  0.944100  1.0  0.7202
  C  C215  1  0.254700  0.974000  0.417700  1.0  0.1648
  C  C216  1  0.155200  0.912000  0.422200  1.0  -0.1626
  C  C217  1  0.095600  0.951200  0.436700  1.0  0.1089
  C  C218  1  0.139200  0.050200  0.444400  1.0  -0.2092
  C  C219  1  0.235900  0.105300  0.438500  1.0  0.1662
  C  C220  1  0.990500  0.887700  0.441100  1.0  -0.1132
  C  C221  1  0.940500  0.795800  0.431300  1.0  -0.1081
  C  C222  1  0.834900  0.732500  0.435400  1.0  0.1144
  C  C223  1  0.791000  0.632600  0.436200  1.0  -0.1034
  C  C224  1  0.694000  0.573900  0.443800  1.0  0.1407
  C  C225  1  0.675600  0.706700  0.443800  1.0  0.1749
  C  C226  1  0.770500  0.768000  0.437000  1.0  -0.2073
  C  C227  1  0.679300  0.431600  0.698870  1.0  -0.1472
  C  C228  1  0.637600  0.457100  0.651170  1.0  0.011
  C  C229  1  0.553200  0.460000  0.662070  1.0  -0.164
  C  C230  1  0.515300  0.443500  0.722970  1.0  -0.0881
  C  C231  1  0.558500  0.423600  0.771570  1.0  0.0857
  C  C232  1  0.640000  0.415900  0.758770  1.0  -0.1214
  C  C233  1  0.522000  0.413300  0.838570  1.0  -0.0631
  C  C234  1  0.670500  0.552000  0.879170  1.0  -0.209
  C  C235  1  0.712500  0.611700  0.938970  1.0  0.7176
  C  C236  1  0.536200  0.573100  0.845470  1.0  -0.2101
  C  C237  1  0.538300  0.645000  0.893870  1.0  0.7528
  C  C238  1  0.767700  0.420500  0.691070  1.0  0.6979
  C  C239  1  0.498800  0.478600  0.610770  1.0  0.7195
  C  C240  1  0.719300  0.745300  0.084370  1.0  0.1673
  C  C241  1  0.756800  0.844800  0.088870  1.0  -0.163
  C  C242  1  0.855600  0.904400  0.103370  1.0  0.1089
  C  C243  1  0.911000  0.860800  0.111070  1.0  -0.2085
  C  C244  1  0.869400  0.764100  0.105170  1.0  0.167
  C  C245  1  0.897200  0.009500  0.107770  1.0  -0.1134
  C  C246  1  0.855300  0.059500  0.097970  1.0  -0.1073
  C  C247  1  0.897600  0.165100  0.102070  1.0  0.1141
  C  C248  1  0.841600  0.209000  0.102870  1.0  -0.1014
  C  C249  1  0.879900  0.306000  0.110470  1.0  0.1409
  C  C250  1  0.031100  0.324400  0.110470  1.0  0.1783
  C  C251  1  0.997500  0.229500  0.103670  1.0  -0.2028
  C  C252  1  0.752300  0.320700  0.365530  1.0  -0.146
  C  C253  1  0.819500  0.362400  0.317830  1.0  0.0109
  C  C254  1  0.906800  0.446800  0.328730  1.0  -0.1658
  C  C255  1  0.928200  0.484700  0.389630  1.0  -0.0873
  C  C256  1  0.865100  0.441500  0.438230  1.0  0.0885
  C  C257  1  0.775900  0.360000  0.425430  1.0  -0.1235
  C  C258  1  0.891300  0.478000  0.505230  1.0  -0.0651
  C  C259  1  0.881500  0.329500  0.545830  1.0  -0.2098
  C  C260  1  0.899200  0.287500  0.605630  1.0  0.7211
  C  C261  1  0.036900  0.463800  0.512130  1.0  -0.2078
  C  C262  1  0.106700  0.461700  0.560530  1.0  0.749
  C  C263  1  0.652800  0.232300  0.357730  1.0  0.6998
  C  C264  1  0.979800  0.501200  0.277430  1.0  0.722
  C  C265  1  0.026000  0.280700  0.751030  1.0  0.1651
  C  C266  1  0.088000  0.243200  0.755530  1.0  -0.1649
  C  C267  1  0.048800  0.144400  0.770030  1.0  0.1093
  C  C268  1  0.949800  0.089000  0.777730  1.0  -0.2086
  C  C269  1  0.894700  0.130600  0.771830  1.0  0.1682
  C  C270  1  0.112300  0.102800  0.774430  1.0  -0.1172
  C  C271  1  0.204200  0.144700  0.764630  1.0  -0.1067
  C  C272  1  0.267500  0.102400  0.768730  1.0  0.1154
  C  C273  1  0.367400  0.158400  0.769530  1.0  -0.1017
  C  C274  1  0.426100  0.120100  0.777130  1.0  0.142
  C  C275  1  0.293300  0.968900  0.777130  1.0  0.1752
  C  C276  1  0.232000  0.002500  0.770330  1.0  -0.2046
  N  N277  1  0.505600  0.941500  0.707700  1.0  -0.1047
  N  N278  1  0.703900  0.930000  0.925300  1.0  -0.349
  N  N279  1  0.364900  0.389600  0.948500  1.0  -0.3192
  N  N280  1  0.435900  0.494400  0.374370  1.0  -0.1038
  N  N281  1  0.226100  0.296100  0.591970  1.0  -0.3476
  N  N282  1  0.024700  0.635100  0.615170  1.0  -0.3185
  N  N283  1  0.058500  0.564100  0.041030  1.0  -0.1042
  N  N284  1  0.070000  0.773900  0.258630  1.0  -0.3476
  N  N285  1  0.610400  0.975300  0.281830  1.0  -0.3217
  N  N286  1  0.494400  0.058500  0.207700  1.0  -0.1046
  N  N287  1  0.296100  0.070000  0.425300  1.0  -0.348
  N  N288  1  0.635100  0.610400  0.448500  1.0  -0.3215
  N  N289  1  0.564100  0.505600  0.874370  1.0  -0.1036
  N  N290  1  0.773900  0.703900  0.091970  1.0  -0.348
  N  N291  1  0.975300  0.364900  0.115170  1.0  -0.3191
  N  N292  1  0.941500  0.435900  0.541030  1.0  -0.104
  N  N293  1  0.930000  0.226100  0.758630  1.0  -0.348
  N  N294  1  0.389600  0.024700  0.781830  1.0  -0.3185
  O  O295  1  0.574000  0.912600  0.822840  1.0  -0.6632
  O  O296  1  0.685800  0.894800  0.770600  1.0  -0.5421
  O  O297  1  0.616600  0.101900  0.782600  1.0  -0.5855
  O  O298  1  0.726400  0.166300  0.707000  1.0  -0.6066
  O  O299  1  0.360900  0.589800  0.561100  1.0  -0.604
  O  O300  1  0.469700  0.639900  0.483200  1.0  -0.6141
  O  O301  1  0.511300  0.969900  0.393200  1.0  -0.5931
  O  O302  1  0.459600  0.044700  0.456700  1.0  -0.632
  O  O303  1  0.338600  0.426000  0.489510  1.0  -0.6641
  O  O304  1  0.209000  0.314200  0.437270  1.0  -0.5426
  O  O305  1  0.485300  0.383400  0.449270  1.0  -0.5825
  O  O306  1  0.439900  0.273600  0.373670  1.0  -0.607
  O  O307  1  0.228900  0.639100  0.227770  1.0  -0.6048
  O  O308  1  0.170200  0.530300  0.149870  1.0  -0.6155
  O  O309  1  0.458600  0.488700  0.059870  1.0  -0.5929
  O  O310  1  0.585100  0.540400  0.123370  1.0  -0.6297
  O  O311  1  0.087400  0.661400  0.156170  1.0  -0.6634
  O  O312  1  0.105200  0.791000  0.103930  1.0  -0.5396
  O  O313  1  0.898100  0.514700  0.115930  1.0  -0.5848
  O  O314  1  0.833700  0.560100  0.040330  1.0  -0.6088
  O  O315  1  0.410200  0.771100  0.894430  1.0  -0.6032
  O  O316  1  0.360100  0.829800  0.816530  1.0  -0.6151
  O  O317  1  0.030100  0.541400  0.726530  1.0  -0.5936
  O  O318  1  0.955300  0.414900  0.790030  1.0  -0.6323
  O  O319  1  0.426000  0.087400  0.322840  1.0  -0.6644
  O  O320  1  0.314200  0.105200  0.270600  1.0  -0.5451
  O  O321  1  0.383400  0.898100  0.282600  1.0  -0.5853
  O  O322  1  0.273600  0.833700  0.207000  1.0  -0.6063
  O  O323  1  0.639100  0.410200  0.061100  1.0  -0.6036
  O  O324  1  0.530300  0.360100  0.983200  1.0  -0.6138
  O  O325  1  0.488700  0.030100  0.893200  1.0  -0.5929
  O  O326  1  0.540400  0.955300  0.956700  1.0  -0.6305
  O  O327  1  0.661400  0.574000  0.989510  1.0  -0.6634
  O  O328  1  0.791000  0.685800  0.937270  1.0  -0.5403
  O  O329  1  0.514700  0.616600  0.949270  1.0  -0.5844
  O  O330  1  0.560100  0.726400  0.873670  1.0  -0.6103
  O  O331  1  0.771100  0.360900  0.727770  1.0  -0.6044
  O  O332  1  0.829800  0.469700  0.649870  1.0  -0.6153
  O  O333  1  0.541400  0.511300  0.559870  1.0  -0.593
  O  O334  1  0.414900  0.459600  0.623370  1.0  -0.6308
  O  O335  1  0.912600  0.338600  0.656170  1.0  -0.6627
  O  O336  1  0.894800  0.209000  0.603930  1.0  -0.5383
  O  O337  1  0.101900  0.485300  0.615930  1.0  -0.5851
  O  O338  1  0.166300  0.439900  0.540330  1.0  -0.6073
  O  O339  1  0.589800  0.228900  0.394430  1.0  -0.6038
  O  O340  1  0.639900  0.170200  0.316530  1.0  -0.6153
  O  O341  1  0.969900  0.458600  0.226530  1.0  -0.5932
  O  O342  1  0.044700  0.585100  0.290030  1.0  -0.6324
