# generated using pymatgen
data_Co2H19C25N3O8
_symmetry_space_group_name_H-M   'P 1'
_cell_length_a   15.88310000
_cell_length_b   15.88310000
_cell_length_c   21.37910000
_cell_angle_alpha   90.00000000
_cell_angle_beta   90.00000000
_cell_angle_gamma   120.00000000
_symmetry_Int_Tables_number   1
_chemical_formula_structural   Co2H19C25N3O8
_chemical_formula_sum   'Co12 H114 C150 N18 O48'
_cell_volume   4670.79267906
_cell_formula_units_Z   6
loop_
 _symmetry_equiv_pos_site_id
 _symmetry_equiv_pos_as_xyz
  1  'x, y, z'
loop_
 _atom_site_type_symbol
 _atom_site_label
 _atom_site_symmetry_multiplicity
 _atom_site_fract_x
 _atom_site_fract_y
 _atom_site_fract_z
 _atom_site_occupancy
 _atom_site_charge
  Co  Co1  1  0.704750  0.556360  0.963030  1.0  0.9471
  Co  Co2  1  0.517640  0.489690  0.858420  1.0  0.8844
  Co  Co3  1  0.851610  0.295250  0.629700  1.0  0.9487
  Co  Co4  1  0.972050  0.482360  0.525080  1.0  0.8848
  Co  Co5  1  0.443640  0.148390  0.296370  1.0  0.948
  Co  Co6  1  0.510310  0.027950  0.191750  1.0  0.8845
  Co  Co7  1  0.295250  0.443640  0.463030  1.0  0.9481
  Co  Co8  1  0.482360  0.510310  0.358420  1.0  0.8843
  Co  Co9  1  0.148390  0.704750  0.129700  1.0  0.9481
  Co  Co10  1  0.027950  0.517640  0.025080  1.0  0.8849
  Co  Co11  1  0.556360  0.851610  0.796370  1.0  0.9477
  Co  Co12  1  0.489690  0.972050  0.691750  1.0  0.8842
  H  H13  1  0.666200  0.469900  0.496700  1.0  0.1054
  H  H14  1  0.462300  0.450300  0.616600  1.0  0.1045
  H  H15  1  0.673200  0.404800  0.677400  1.0  0.102
  H  H16  1  0.458200  0.394000  0.723400  1.0  0.104
  H  H17  1  0.540900  0.375400  0.746800  1.0  0.1057
  H  H18  1  0.709900  0.598300  0.732200  1.0  0.0892
  H  H19  1  0.694300  0.506800  0.769700  1.0  0.1013
  H  H20  1  0.485500  0.547500  0.710200  1.0  0.0894
  H  H21  1  0.596500  0.620900  0.700000  1.0  0.0872
  H  H22  1  0.655200  0.710600  0.967200  1.0  0.0761
  H  H23  1  0.718800  0.874300  0.975000  1.0  0.1249
  H  H24  1  0.980900  0.901800  0.998400  1.0  0.1222
  H  H25  1  0.909500  0.735900  0.990200  1.0  0.0711
  H  H26  1  0.968600  0.049700  0.002900  1.0  0.0972
  H  H27  1  0.792300  0.027400  0.974100  1.0  0.0995
  H  H28  1  0.775400  0.170300  0.976900  1.0  0.1036
  H  H29  1  0.840400  0.334400  0.988900  1.0  0.0774
  H  H30  1  0.097500  0.370700  0.009000  1.0  0.0773
  H  H31  1  0.040800  0.208700  0.998200  1.0  0.1189
  H  H32  1  0.803700  0.333800  0.163370  1.0  0.1057
  H  H33  1  0.988000  0.537700  0.283270  1.0  0.1044
  H  H34  1  0.731600  0.326800  0.344070  1.0  0.102
  H  H35  1  0.935800  0.541800  0.390070  1.0  0.1025
  H  H36  1  0.834500  0.459100  0.413470  1.0  0.1079
  H  H37  1  0.888400  0.290100  0.398870  1.0  0.0889
  H  H38  1  0.812500  0.305700  0.436370  1.0  0.1013
  H  H39  1  0.062000  0.514500  0.376870  1.0  0.0909
  H  H40  1  0.024400  0.403500  0.366670  1.0  0.0891
  H  H41  1  0.055400  0.344800  0.633870  1.0  0.0758
  H  H42  1  0.155500  0.281200  0.641670  1.0  0.1251
  H  H43  1  0.920900  0.019100  0.665070  1.0  0.1202
  H  H44  1  0.826400  0.090500  0.656870  1.0  0.0711
  H  H45  1  0.081100  0.031400  0.669570  1.0  0.0973
  H  H46  1  0.235100  0.207700  0.640770  1.0  0.0995
  H  H47  1  0.394900  0.224600  0.643570  1.0  0.1039
  H  H48  1  0.494000  0.159600  0.655570  1.0  0.076
  H  H49  1  0.273200  0.902500  0.675670  1.0  0.0775
  H  H50  1  0.167900  0.959200  0.664870  1.0  0.1195
  H  H51  1  0.530100  0.196300  0.830030  1.0  0.1054
  H  H52  1  0.549700  0.012000  0.949930  1.0  0.1055
  H  H53  1  0.595200  0.268400  0.010730  1.0  0.102
  H  H54  1  0.606000  0.064200  0.056730  1.0  0.1037
  H  H55  1  0.624600  0.165500  0.080130  1.0  0.1052
  H  H56  1  0.401700  0.111600  0.065530  1.0  0.0893
  H  H57  1  0.493200  0.187500  0.103030  1.0  0.1002
  H  H58  1  0.452500  0.938000  0.043530  1.0  0.0894
  H  H59  1  0.379100  0.975600  0.033330  1.0  0.0885
  H  H60  1  0.289400  0.944600  0.300530  1.0  0.0755
  H  H61  1  0.125700  0.844500  0.308330  1.0  0.1267
  H  H62  1  0.098200  0.079100  0.331730  1.0  0.1222
  H  H63  1  0.264100  0.173600  0.323530  1.0  0.0692
  H  H64  1  0.950300  0.918900  0.336230  1.0  0.0974
  H  H65  1  0.972600  0.764900  0.307430  1.0  0.098
  H  H66  1  0.829700  0.605100  0.310230  1.0  0.1038
  H  H67  1  0.665600  0.506000  0.322230  1.0  0.0767
  H  H68  1  0.629300  0.726800  0.342330  1.0  0.0774
  H  H69  1  0.791300  0.832100  0.331530  1.0  0.12
  H  H70  1  0.333800  0.530100  0.996700  1.0  0.105
  H  H71  1  0.537700  0.549700  0.116600  1.0  0.1041
  H  H72  1  0.326800  0.595200  0.177400  1.0  0.1014
  H  H73  1  0.541800  0.606000  0.223400  1.0  0.1064
  H  H74  1  0.459100  0.624600  0.246800  1.0  0.1047
  H  H75  1  0.290100  0.401700  0.232200  1.0  0.0892
  H  H76  1  0.305700  0.493200  0.269700  1.0  0.1028
  H  H77  1  0.514500  0.452500  0.210200  1.0  0.0906
  H  H78  1  0.403500  0.379100  0.200000  1.0  0.0871
  H  H79  1  0.344800  0.289400  0.467200  1.0  0.0762
  H  H80  1  0.281200  0.125700  0.475000  1.0  0.126
  H  H81  1  0.019100  0.098200  0.498400  1.0  0.1215
  H  H82  1  0.090500  0.264100  0.490200  1.0  0.071
  H  H83  1  0.031400  0.950300  0.502900  1.0  0.0974
  H  H84  1  0.207700  0.972600  0.474100  1.0  0.0994
  H  H85  1  0.224600  0.829700  0.476900  1.0  0.1034
  H  H86  1  0.159600  0.665600  0.488900  1.0  0.0782
  H  H87  1  0.902500  0.629300  0.509000  1.0  0.0767
  H  H88  1  0.959200  0.791300  0.498200  1.0  0.1179
  H  H89  1  0.196300  0.666200  0.663370  1.0  0.1059
  H  H90  1  0.012000  0.462300  0.783270  1.0  0.105
  H  H91  1  0.268400  0.673200  0.844070  1.0  0.102
  H  H92  1  0.064200  0.458200  0.890070  1.0  0.1037
  H  H93  1  0.165500  0.540900  0.913470  1.0  0.106
  H  H94  1  0.111600  0.709900  0.898870  1.0  0.0893
  H  H95  1  0.187500  0.694300  0.936370  1.0  0.0994
  H  H96  1  0.938000  0.485500  0.876870  1.0  0.0912
  H  H97  1  0.975600  0.596500  0.866670  1.0  0.0893
  H  H98  1  0.944600  0.655200  0.133870  1.0  0.0758
  H  H99  1  0.844500  0.718800  0.141670  1.0  0.1253
  H  H100  1  0.079100  0.980900  0.165070  1.0  0.1199
  H  H101  1  0.173600  0.909500  0.156870  1.0  0.0708
  H  H102  1  0.918900  0.968600  0.169570  1.0  0.0966
  H  H103  1  0.764900  0.792300  0.140770  1.0  0.0994
  H  H104  1  0.605100  0.775400  0.143570  1.0  0.1037
  H  H105  1  0.506000  0.840400  0.155570  1.0  0.0761
  H  H106  1  0.726800  0.097500  0.175670  1.0  0.0766
  H  H107  1  0.832100  0.040800  0.164870  1.0  0.1199
  H  H108  1  0.469900  0.803700  0.330030  1.0  0.1055
  H  H109  1  0.450300  0.988000  0.449930  1.0  0.1051
  H  H110  1  0.404800  0.731600  0.510730  1.0  0.1021
  H  H111  1  0.394000  0.935800  0.556730  1.0  0.1037
  H  H112  1  0.375400  0.834500  0.580130  1.0  0.1068
  H  H113  1  0.598300  0.888400  0.565530  1.0  0.0897
  H  H114  1  0.506800  0.812500  0.603030  1.0  0.1008
  H  H115  1  0.547500  0.062000  0.543530  1.0  0.09
  H  H116  1  0.620900  0.024400  0.533330  1.0  0.0894
  H  H117  1  0.710600  0.055400  0.800530  1.0  0.0753
  H  H118  1  0.874300  0.155500  0.808330  1.0  0.126
  H  H119  1  0.901800  0.920900  0.831730  1.0  0.122
  H  H120  1  0.735900  0.826400  0.823530  1.0  0.0704
  H  H121  1  0.049700  0.081100  0.836230  1.0  0.0969
  H  H122  1  0.027400  0.235100  0.807430  1.0  0.0979
  H  H123  1  0.170300  0.394900  0.810230  1.0  0.1038
  H  H124  1  0.334400  0.494000  0.822230  1.0  0.0764
  H  H125  1  0.370700  0.273200  0.842330  1.0  0.0782
  H  H126  1  0.208700  0.167900  0.831530  1.0  0.1207
  C  C127  1  0.684600  0.435800  0.585280  1.0  -0.153
  C  C128  1  0.639800  0.457800  0.536690  1.0  0.0128
  C  C129  1  0.555000  0.461500  0.548480  1.0  -0.1572
  C  C130  1  0.518600  0.447800  0.609010  1.0  -0.0861
  C  C131  1  0.564800  0.430500  0.658350  1.0  0.0521
  C  C132  1  0.644800  0.421300  0.645150  1.0  -0.1123
  C  C133  1  0.528200  0.421200  0.724640  1.0  -0.0303
  C  C134  1  0.677800  0.557900  0.768360  1.0  -0.164
  C  C135  1  0.716400  0.619500  0.827300  1.0  0.7058
  C  C136  1  0.547700  0.583200  0.731260  1.0  -0.1974
  C  C137  1  0.542900  0.651900  0.778840  1.0  0.731
  C  C138  1  0.770600  0.420700  0.577290  1.0  0.7134
  C  C139  1  0.498900  0.476200  0.496400  1.0  0.7118
  C  C140  1  0.721600  0.749700  0.974050  1.0  0.1713
  C  C141  1  0.759400  0.848000  0.978400  1.0  -0.1977
  C  C142  1  0.858800  0.908600  0.987870  1.0  0.1385
  C  C143  1  0.914100  0.864300  0.992300  1.0  -0.218
  C  C144  1  0.870700  0.764300  0.987500  1.0  0.1812
  C  C145  1  0.902800  0.014300  0.992900  1.0  -0.1557
  C  C146  1  0.857900  0.063400  0.984500  1.0  -0.1066
  C  C147  1  0.898900  0.168200  0.989500  1.0  0.1354
  C  C148  1  0.841600  0.209300  0.984800  1.0  -0.2193
  C  C149  1  0.881500  0.308600  0.991600  1.0  0.1797
  C  C150  1  0.031100  0.329700  0.003400  1.0  0.1713
  C  C151  1  0.997600  0.232100  0.997200  1.0  -0.2224
  C  C152  1  0.751200  0.315400  0.251950  1.0  -0.1515
  C  C153  1  0.818000  0.360200  0.203360  1.0  0.0123
  C  C154  1  0.906500  0.445000  0.215150  1.0  -0.1588
  C  C155  1  0.929200  0.481400  0.275680  1.0  -0.0871
  C  C156  1  0.865700  0.435200  0.325020  1.0  0.0509
  C  C157  1  0.776500  0.355200  0.311820  1.0  -0.1139
  C  C158  1  0.893000  0.471800  0.391310  1.0  -0.0323
  C  C159  1  0.880100  0.322200  0.435030  1.0  -0.1658
  C  C160  1  0.903100  0.283600  0.493970  1.0  0.7075
  C  C161  1  0.035500  0.452300  0.397930  1.0  -0.1939
  C  C162  1  0.109000  0.457100  0.445510  1.0  0.7288
  C  C163  1  0.650100  0.229400  0.243960  1.0  0.7151
  C  C164  1  0.977300  0.501100  0.163070  1.0  0.712
  C  C165  1  0.028100  0.278400  0.640720  1.0  0.17
  C  C166  1  0.088600  0.240600  0.645070  1.0  -0.1991
  C  C167  1  0.049800  0.141200  0.654540  1.0  0.1413
  C  C168  1  0.950200  0.085900  0.658970  1.0  -0.2147
  C  C169  1  0.893600  0.129300  0.654170  1.0  0.1806
  C  C170  1  0.111500  0.097200  0.659570  1.0  -0.1582
  C  C171  1  0.205500  0.142100  0.651170  1.0  -0.11
  C  C172  1  0.269300  0.101100  0.656170  1.0  0.138
  C  C173  1  0.367700  0.158400  0.651470  1.0  -0.219
  C  C174  1  0.427100  0.118500  0.658270  1.0  0.1821
  C  C175  1  0.298600  0.968900  0.670070  1.0  0.1695
  C  C176  1  0.234500  0.002400  0.663870  1.0  -0.2242
  C  C177  1  0.564200  0.248800  0.918610  1.0  -0.1517
  C  C178  1  0.542200  0.182000  0.870020  1.0  0.0128
  C  C179  1  0.538500  0.093500  0.881810  1.0  -0.1595
  C  C180  1  0.552200  0.070800  0.942340  1.0  -0.0866
  C  C181  1  0.569500  0.134300  0.991680  1.0  0.0515
  C  C182  1  0.578700  0.223500  0.978480  1.0  -0.1155
  C  C183  1  0.578800  0.107000  0.057970  1.0  -0.0285
  C  C184  1  0.442100  0.119900  0.101690  1.0  -0.1686
  C  C185  1  0.380500  0.096900  0.160630  1.0  0.7052
  C  C186  1  0.416800  0.964500  0.064590  1.0  -0.1919
  C  C187  1  0.348100  0.891000  0.112170  1.0  0.7314
  C  C188  1  0.579300  0.349900  0.910620  1.0  0.7182
  C  C189  1  0.523800  0.022700  0.829730  1.0  0.7113
  C  C190  1  0.250300  0.971900  0.307380  1.0  0.1688
  C  C191  1  0.152000  0.911400  0.311730  1.0  -0.2001
  C  C192  1  0.091400  0.950200  0.321200  1.0  0.1394
  C  C193  1  0.135700  0.049800  0.325630  1.0  -0.2188
  C  C194  1  0.235700  0.106400  0.320830  1.0  0.1788
  C  C195  1  0.985700  0.888500  0.326230  1.0  -0.1538
  C  C196  1  0.936600  0.794500  0.317830  1.0  -0.1082
  C  C197  1  0.831800  0.730700  0.322830  1.0  0.1352
  C  C198  1  0.790700  0.632300  0.318130  1.0  -0.2182
  C  C199  1  0.691400  0.572900  0.324930  1.0  0.1814
  C  C200  1  0.670300  0.701400  0.336730  1.0  0.1695
  C  C201  1  0.767900  0.765500  0.330530  1.0  -0.2294
  C  C202  1  0.315400  0.564200  0.085280  1.0  -0.152
  C  C203  1  0.360200  0.542200  0.036690  1.0  0.0134
  C  C204  1  0.445000  0.538500  0.048480  1.0  -0.1582
  C  C205  1  0.481400  0.552200  0.109010  1.0  -0.0867
  C  C206  1  0.435200  0.569500  0.158350  1.0  0.0511
  C  C207  1  0.355200  0.578700  0.145150  1.0  -0.112
  C  C208  1  0.471800  0.578800  0.224640  1.0  -0.0299
  C  C209  1  0.322200  0.442100  0.268360  1.0  -0.1668
  C  C210  1  0.283600  0.380500  0.327300  1.0  0.7066
  C  C211  1  0.452300  0.416800  0.231260  1.0  -0.1954
  C  C212  1  0.457100  0.348100  0.278840  1.0  0.7319
  C  C213  1  0.229400  0.579300  0.077290  1.0  0.7136
  C  C214  1  0.501100  0.523800  0.996400  1.0  0.7108
  C  C215  1  0.278400  0.250300  0.474050  1.0  0.1708
  C  C216  1  0.240600  0.152000  0.478400  1.0  -0.1999
  C  C217  1  0.141200  0.091400  0.487870  1.0  0.1385
  C  C218  1  0.085900  0.135700  0.492300  1.0  -0.2168
  C  C219  1  0.129300  0.235700  0.487500  1.0  0.1809
  C  C220  1  0.097200  0.985700  0.492900  1.0  -0.1555
  C  C221  1  0.142100  0.936600  0.484500  1.0  -0.1062
  C  C222  1  0.101100  0.831800  0.489500  1.0  0.1345
  C  C223  1  0.158400  0.790700  0.484800  1.0  -0.2172
  C  C224  1  0.118500  0.691400  0.491600  1.0  0.1801
  C  C225  1  0.968900  0.670300  0.503400  1.0  0.1712
  C  C226  1  0.002400  0.767900  0.497200  1.0  -0.2233
  C  C227  1  0.248800  0.684600  0.751950  1.0  -0.1509
  C  C228  1  0.182000  0.639800  0.703360  1.0  0.0118
  C  C229  1  0.093500  0.555000  0.715150  1.0  -0.1583
  C  C230  1  0.070800  0.518600  0.775680  1.0  -0.0848
  C  C231  1  0.134300  0.564800  0.825020  1.0  0.0511
  C  C232  1  0.223500  0.644800  0.811820  1.0  -0.1153
  C  C233  1  0.107000  0.528200  0.891310  1.0  -0.0332
  C  C234  1  0.119900  0.677800  0.935030  1.0  -0.1657
  C  C235  1  0.096900  0.716400  0.993970  1.0  0.7061
  C  C236  1  0.964500  0.547700  0.897930  1.0  -0.195
  C  C237  1  0.891000  0.542900  0.945510  1.0  0.7287
  C  C238  1  0.349900  0.770600  0.743960  1.0  0.715
  C  C239  1  0.022700  0.498900  0.663070  1.0  0.7116
  C  C240  1  0.971900  0.721600  0.140720  1.0  0.1698
  C  C241  1  0.911400  0.759400  0.145070  1.0  -0.1989
  C  C242  1  0.950200  0.858800  0.154540  1.0  0.1416
  C  C243  1  0.049800  0.914100  0.158970  1.0  -0.2129
  C  C244  1  0.106400  0.870700  0.154170  1.0  0.1814
  C  C245  1  0.888500  0.902800  0.159570  1.0  -0.1595
  C  C246  1  0.794500  0.857900  0.151170  1.0  -0.1097
  C  C247  1  0.730700  0.898900  0.156170  1.0  0.138
  C  C248  1  0.632300  0.841600  0.151470  1.0  -0.2174
  C  C249  1  0.572900  0.881500  0.158270  1.0  0.1815
  C  C250  1  0.701400  0.031100  0.170070  1.0  0.1698
  C  C251  1  0.765500  0.997600  0.163870  1.0  -0.2245
  C  C252  1  0.435800  0.751200  0.418610  1.0  -0.1533
  C  C253  1  0.457800  0.818000  0.370020  1.0  0.0125
  C  C254  1  0.461500  0.906500  0.381810  1.0  -0.1586
  C  C255  1  0.447800  0.929200  0.442340  1.0  -0.0869
  C  C256  1  0.430500  0.865700  0.491680  1.0  0.0521
  C  C257  1  0.421300  0.776500  0.478480  1.0  -0.113
  C  C258  1  0.421200  0.893000  0.557970  1.0  -0.0287
  C  C259  1  0.557900  0.880100  0.601690  1.0  -0.1669
  C  C260  1  0.619500  0.903100  0.660630  1.0  0.707
  C  C261  1  0.583200  0.035500  0.564590  1.0  -0.1923
  C  C262  1  0.651900  0.109000  0.612170  1.0  0.7319
  C  C263  1  0.420700  0.650100  0.410620  1.0  0.7168
  C  C264  1  0.476200  0.977300  0.329730  1.0  0.7119
  C  C265  1  0.749700  0.028100  0.807380  1.0  0.1689
  C  C266  1  0.848000  0.088600  0.811730  1.0  -0.1995
  C  C267  1  0.908600  0.049800  0.821200  1.0  0.1393
  C  C268  1  0.864300  0.950200  0.825630  1.0  -0.2191
  C  C269  1  0.764300  0.893600  0.820830  1.0  0.1799
  C  C270  1  0.014300  0.111500  0.826230  1.0  -0.1549
  C  C271  1  0.063400  0.205500  0.817830  1.0  -0.1077
  C  C272  1  0.168200  0.269300  0.822830  1.0  0.1353
  C  C273  1  0.209300  0.367700  0.818130  1.0  -0.2196
  C  C274  1  0.308600  0.427100  0.824930  1.0  0.1815
  C  C275  1  0.329700  0.298600  0.836730  1.0  0.1704
  C  C276  1  0.232100  0.234500  0.830530  1.0  -0.2267
  N  N277  1  0.571820  0.513530  0.760660  1.0  -0.1065
  N  N278  1  0.775700  0.707350  0.979250  1.0  -0.3317
  N  N279  1  0.974800  0.368920  0.001710  1.0  -0.3254
  N  N280  1  0.941710  0.428180  0.427330  1.0  -0.1058
  N  N281  1  0.931650  0.224300  0.645920  1.0  -0.3318
  N  N282  1  0.394120  0.025200  0.668380  1.0  -0.3228
  N  N283  1  0.486470  0.058290  0.093990  1.0  -0.1073
  N  N284  1  0.292650  0.068350  0.312580  1.0  -0.3311
  N  N285  1  0.631080  0.605880  0.335040  1.0  -0.3261
  N  N286  1  0.428180  0.486470  0.260660  1.0  -0.1068
  N  N287  1  0.224300  0.292650  0.479250  1.0  -0.3311
  N  N288  1  0.025200  0.631080  0.501710  1.0  -0.3245
  N  N289  1  0.058290  0.571820  0.927330  1.0  -0.1064
  N  N290  1  0.068350  0.775700  0.145920  1.0  -0.3306
  N  N291  1  0.605880  0.974800  0.168380  1.0  -0.3257
  N  N292  1  0.513530  0.941710  0.593990  1.0  -0.1072
  N  N293  1  0.707350  0.931650  0.812580  1.0  -0.3318
  N  N294  1  0.368920  0.394120  0.835040  1.0  -0.3231
  O  O295  1  0.662190  0.579720  0.876110  1.0  -0.6519
  O  O296  1  0.791690  0.696590  0.826420  1.0  -0.5326
  O  O297  1  0.514330  0.619560  0.833090  1.0  -0.5874
  O  O298  1  0.564130  0.733630  0.759060  1.0  -0.6153
  O  O299  1  0.775330  0.365020  0.616320  1.0  -0.5916
  O  O300  1  0.830270  0.465000  0.534220  1.0  -0.607
  O  O301  1  0.537570  0.500660  0.443850  1.0  -0.6122
  O  O302  1  0.415710  0.459850  0.510820  1.0  -0.6104
  O  O303  1  0.917530  0.337810  0.542780  1.0  -0.6513
  O  O304  1  0.904900  0.208310  0.493090  1.0  -0.5274
  O  O305  1  0.105230  0.485670  0.499760  1.0  -0.5884
  O  O306  1  0.169500  0.435870  0.425730  1.0  -0.6159
  O  O307  1  0.589690  0.224670  0.282990  1.0  -0.5898
  O  O308  1  0.634730  0.169730  0.200890  1.0  -0.6067
  O  O309  1  0.963090  0.462430  0.110520  1.0  -0.6129
  O  O310  1  0.044140  0.584290  0.177490  1.0  -0.6108
  O  O311  1  0.420280  0.082470  0.209440  1.0  -0.6525
  O  O312  1  0.303410  0.095100  0.159750  1.0  -0.5344
  O  O313  1  0.380440  0.894770  0.166420  1.0  -0.5892
  O  O314  1  0.266370  0.830500  0.092390  1.0  -0.6143
  O  O315  1  0.634980  0.410310  0.949650  1.0  -0.5903
  O  O316  1  0.535000  0.365270  0.867550  1.0  -0.6055
  O  O317  1  0.499340  0.036910  0.777180  1.0  -0.6127
  O  O318  1  0.540150  0.955860  0.844150  1.0  -0.6117
  O  O319  1  0.337810  0.420280  0.376110  1.0  -0.6523
  O  O320  1  0.208310  0.303410  0.326420  1.0  -0.5335
  O  O321  1  0.485670  0.380440  0.333090  1.0  -0.5867
  O  O322  1  0.435870  0.266370  0.259060  1.0  -0.6161
  O  O323  1  0.224670  0.634980  0.116320  1.0  -0.5912
  O  O324  1  0.169730  0.535000  0.034220  1.0  -0.6071
  O  O325  1  0.462430  0.499340  0.943850  1.0  -0.6121
  O  O326  1  0.584290  0.540150  0.010820  1.0  -0.6111
  O  O327  1  0.082470  0.662190  0.042780  1.0  -0.6521
  O  O328  1  0.095100  0.791690  0.993090  1.0  -0.5282
  O  O329  1  0.894770  0.514330  0.999760  1.0  -0.5878
  O  O330  1  0.830500  0.564130  0.925730  1.0  -0.6161
  O  O331  1  0.410310  0.775330  0.782990  1.0  -0.589
  O  O332  1  0.365270  0.830270  0.700890  1.0  -0.6065
  O  O333  1  0.036910  0.537570  0.610520  1.0  -0.613
  O  O334  1  0.955860  0.415710  0.677490  1.0  -0.6121
  O  O335  1  0.579720  0.917530  0.709440  1.0  -0.6519
  O  O336  1  0.696590  0.904900  0.659750  1.0  -0.5339
  O  O337  1  0.619560  0.105230  0.666420  1.0  -0.5894
  O  O338  1  0.733630  0.169500  0.592390  1.0  -0.6153
  O  O339  1  0.365020  0.589690  0.449650  1.0  -0.5908
  O  O340  1  0.465000  0.634730  0.367550  1.0  -0.6049
  O  O341  1  0.500660  0.963090  0.277180  1.0  -0.612
  O  O342  1  0.459850  0.044140  0.344150  1.0  -0.611
