# generated using pymatgen
data_FeAgH30(C14N3)3
_symmetry_space_group_name_H-M   'P 1'
_cell_length_a   12.30890000
_cell_length_b   26.95900000
_cell_length_c   33.49300000
_cell_angle_alpha   90.00000000
_cell_angle_beta   90.00000000
_cell_angle_gamma   90.00000000
_symmetry_Int_Tables_number   1
_chemical_formula_structural   FeAgH30(C14N3)3
_chemical_formula_sum   'Fe8 Ag8 H240 C336 N72'
_cell_volume   11114.17092640
_cell_formula_units_Z   8
loop_
 _symmetry_equiv_pos_site_id
 _symmetry_equiv_pos_as_xyz
  1  'x, y, z'
loop_
 _atom_site_type_symbol
 _atom_site_label
 _atom_site_symmetry_multiplicity
 _atom_site_fract_x
 _atom_site_fract_y
 _atom_site_fract_z
 _atom_site_occupancy
 _atom_site_charge
  Fe  Fe1  1  0.981980  0.931740  0.385610  1.0  0.1975
  Fe  Fe2  1  0.518020  0.431740  0.614390  1.0  0.1976
  Fe  Fe3  1  0.481980  0.431740  0.114390  1.0  0.1973
  Fe  Fe4  1  0.018020  0.931740  0.885610  1.0  0.1979
  Fe  Fe5  1  0.518020  0.568260  0.885610  1.0  0.1973
  Fe  Fe6  1  0.981980  0.068260  0.114390  1.0  0.1968
  Fe  Fe7  1  0.018020  0.068260  0.614390  1.0  0.197
  Fe  Fe8  1  0.481980  0.568260  0.385610  1.0  0.1968
  Ag  Ag9  1  0.760950  0.279270  0.361560  1.0  0.2344
  Ag  Ag10  1  0.739050  0.779270  0.638440  1.0  0.2347
  Ag  Ag11  1  0.260950  0.779270  0.138440  1.0  0.2343
  Ag  Ag12  1  0.239050  0.279270  0.861560  1.0  0.2348
  Ag  Ag13  1  0.739050  0.220730  0.861560  1.0  0.235
  Ag  Ag14  1  0.760950  0.720730  0.138440  1.0  0.2344
  Ag  Ag15  1  0.239050  0.720730  0.638440  1.0  0.2351
  Ag  Ag16  1  0.260950  0.220730  0.361560  1.0  0.2344
  H  H17  1  0.213900  0.961300  0.355000  1.0  0.0872
  H  H18  1  0.272600  0.045700  0.334200  1.0  0.1145
  H  H19  1  0.109900  0.100300  0.340500  1.0  0.1129
  H  H20  1  0.709000  0.070700  0.398700  1.0  0.1118
  H  H21  1  0.616600  0.996400  0.428700  1.0  0.1159
  H  H22  1  0.748600  0.926800  0.423400  1.0  0.0875
  H  H23  1  0.003800  0.136700  0.407300  1.0  0.0996
  H  H24  1  0.948700  0.217800  0.398100  1.0  0.084
  H  H25  1  0.745100  0.179500  0.314400  1.0  0.0588
  H  H26  1  0.783600  0.094500  0.323600  1.0  0.1289
  H  H27  1  0.789400  0.966700  0.330900  1.0  0.0914
  H  H28  1  0.780900  0.953500  0.256000  1.0  0.1016
  H  H29  1  0.941300  0.904000  0.235700  1.0  0.1227
  H  H30  1  0.253400  0.816500  0.322400  1.0  0.1227
  H  H31  1  0.309900  0.822100  0.395700  1.0  0.1164
  H  H32  1  0.175100  0.876300  0.428200  1.0  0.0865
  H  H33  1  0.264900  0.892100  0.263200  1.0  0.1193
  H  H34  1  0.326100  0.855500  0.205000  1.0  0.0788
  H  H35  1  0.061600  0.775800  0.196900  1.0  0.0892
  H  H36  1  0.996500  0.810400  0.254500  1.0  0.116
  H  H37  1  0.846000  0.845700  0.345400  1.0  0.1004
  H  H38  1  0.754600  0.780600  0.380800  1.0  0.0932
  H  H39  1  0.768700  0.793400  0.453600  1.0  0.132
  H  H40  1  0.040200  0.920400  0.535500  1.0  0.1106
  H  H41  1  0.168400  0.985500  0.512400  1.0  0.1095
  H  H42  1  0.144300  0.993300  0.438300  1.0  0.0987
  H  H43  1  0.957400  0.785100  0.507200  1.0  0.1192
  H  H44  1  0.874800  0.751900  0.561900  1.0  0.0845
  H  H45  1  0.726900  0.877900  0.587500  1.0  0.0781
  H  H46  1  0.799700  0.914400  0.531300  1.0  0.1153
  H  H47  1  0.286100  0.461300  0.645000  1.0  0.0864
  H  H48  1  0.227400  0.545700  0.665800  1.0  0.1132
  H  H49  1  0.390100  0.600300  0.659500  1.0  0.1128
  H  H50  1  0.791000  0.570700  0.601300  1.0  0.1124
  H  H51  1  0.883400  0.496400  0.571300  1.0  0.1166
  H  H52  1  0.751400  0.426800  0.576600  1.0  0.0875
  H  H53  1  0.496200  0.636700  0.592700  1.0  0.0989
  H  H54  1  0.551300  0.717800  0.601900  1.0  0.0833
  H  H55  1  0.754900  0.679500  0.685600  1.0  0.0588
  H  H56  1  0.716400  0.594500  0.676400  1.0  0.1285
  H  H57  1  0.710600  0.466700  0.669100  1.0  0.0906
  H  H58  1  0.719100  0.453500  0.744000  1.0  0.1011
  H  H59  1  0.558700  0.404000  0.764300  1.0  0.1223
  H  H60  1  0.246600  0.316500  0.677600  1.0  0.1233
  H  H61  1  0.190100  0.322100  0.604300  1.0  0.1151
  H  H62  1  0.324900  0.376300  0.571800  1.0  0.0875
  H  H63  1  0.235100  0.392100  0.736800  1.0  0.1198
  H  H64  1  0.173900  0.355500  0.795000  1.0  0.0785
  H  H65  1  0.438400  0.275800  0.803100  1.0  0.0889
  H  H66  1  0.503500  0.310400  0.745500  1.0  0.1152
  H  H67  1  0.654000  0.345700  0.654600  1.0  0.0999
  H  H68  1  0.745400  0.280600  0.619200  1.0  0.094
  H  H69  1  0.731300  0.293400  0.546400  1.0  0.1317
  H  H70  1  0.459800  0.420400  0.464500  1.0  0.1107
  H  H71  1  0.331600  0.485500  0.487600  1.0  0.1105
  H  H72  1  0.355700  0.493300  0.561700  1.0  0.0997
  H  H73  1  0.542600  0.285100  0.492800  1.0  0.1189
  H  H74  1  0.625200  0.251900  0.438100  1.0  0.0846
  H  H75  1  0.773100  0.377900  0.412500  1.0  0.0783
  H  H76  1  0.700300  0.414400  0.468700  1.0  0.1149
  H  H77  1  0.713900  0.461300  0.145000  1.0  0.0871
  H  H78  1  0.772600  0.545700  0.165800  1.0  0.1147
  H  H79  1  0.609900  0.600300  0.159500  1.0  0.1124
  H  H80  1  0.209000  0.570700  0.101300  1.0  0.1122
  H  H81  1  0.116600  0.496400  0.071300  1.0  0.1152
  H  H82  1  0.248600  0.426800  0.076600  1.0  0.0871
  H  H83  1  0.503800  0.636700  0.092700  1.0  0.0995
  H  H84  1  0.448700  0.717800  0.101900  1.0  0.083
  H  H85  1  0.245100  0.679500  0.185600  1.0  0.0589
  H  H86  1  0.283600  0.594500  0.176400  1.0  0.1289
  H  H87  1  0.289400  0.466700  0.169100  1.0  0.0917
  H  H88  1  0.280900  0.453500  0.244000  1.0  0.1015
  H  H89  1  0.441300  0.404000  0.264300  1.0  0.1226
  H  H90  1  0.753400  0.316500  0.177600  1.0  0.123
  H  H91  1  0.809900  0.322100  0.104300  1.0  0.1163
  H  H92  1  0.675100  0.376300  0.071800  1.0  0.0869
  H  H93  1  0.764900  0.392100  0.236800  1.0  0.1196
  H  H94  1  0.826100  0.355500  0.295000  1.0  0.0785
  H  H95  1  0.561600  0.275800  0.303100  1.0  0.0891
  H  H96  1  0.496500  0.310400  0.245500  1.0  0.1155
  H  H97  1  0.346000  0.345700  0.154600  1.0  0.1004
  H  H98  1  0.254600  0.280600  0.119200  1.0  0.0939
  H  H99  1  0.268700  0.293400  0.046400  1.0  0.1315
  H  H100  1  0.540200  0.420400  0.964500  1.0  0.1106
  H  H101  1  0.668400  0.485500  0.987600  1.0  0.1093
  H  H102  1  0.644300  0.493300  0.061700  1.0  0.0992
  H  H103  1  0.457400  0.285100  0.992800  1.0  0.1193
  H  H104  1  0.374800  0.251900  0.938100  1.0  0.0847
  H  H105  1  0.226900  0.377900  0.912500  1.0  0.0782
  H  H106  1  0.299700  0.414400  0.968700  1.0  0.115
  H  H107  1  0.786100  0.961300  0.855000  1.0  0.086
  H  H108  1  0.727400  0.045700  0.834200  1.0  0.1128
  H  H109  1  0.890100  0.100300  0.840500  1.0  0.113
  H  H110  1  0.291000  0.070700  0.898700  1.0  0.1119
  H  H111  1  0.383400  0.996400  0.928700  1.0  0.1163
  H  H112  1  0.251400  0.926800  0.923400  1.0  0.0875
  H  H113  1  0.996200  0.136700  0.907300  1.0  0.0991
  H  H114  1  0.051300  0.217800  0.898100  1.0  0.0842
  H  H115  1  0.254900  0.179500  0.814400  1.0  0.0593
  H  H116  1  0.216400  0.094500  0.823600  1.0  0.1288
  H  H117  1  0.210600  0.966700  0.830900  1.0  0.0911
  H  H118  1  0.219100  0.953500  0.756000  1.0  0.1014
  H  H119  1  0.058700  0.904000  0.735700  1.0  0.1226
  H  H120  1  0.746600  0.816500  0.822400  1.0  0.1226
  H  H121  1  0.690100  0.822100  0.895700  1.0  0.116
  H  H122  1  0.824900  0.876300  0.928200  1.0  0.0871
  H  H123  1  0.735100  0.892100  0.763200  1.0  0.1198
  H  H124  1  0.673900  0.855500  0.705000  1.0  0.0785
  H  H125  1  0.938400  0.775800  0.696900  1.0  0.0889
  H  H126  1  0.003500  0.810400  0.754500  1.0  0.1159
  H  H127  1  0.154000  0.845700  0.845400  1.0  0.1
  H  H128  1  0.245400  0.780600  0.880800  1.0  0.0937
  H  H129  1  0.231300  0.793400  0.953600  1.0  0.1315
  H  H130  1  0.959800  0.920400  0.035500  1.0  0.1108
  H  H131  1  0.831600  0.985500  0.012400  1.0  0.1108
  H  H132  1  0.855700  0.993300  0.938300  1.0  0.0994
  H  H133  1  0.042600  0.785100  0.007200  1.0  0.1187
  H  H134  1  0.125200  0.751900  0.061900  1.0  0.0843
  H  H135  1  0.273100  0.877900  0.087500  1.0  0.078
  H  H136  1  0.200300  0.914400  0.031300  1.0  0.1152
  H  H137  1  0.286100  0.538700  0.855000  1.0  0.0865
  H  H138  1  0.227400  0.454300  0.834200  1.0  0.1134
  H  H139  1  0.390100  0.399700  0.840500  1.0  0.1121
  H  H140  1  0.791000  0.429300  0.898700  1.0  0.1122
  H  H141  1  0.883400  0.503600  0.928700  1.0  0.1161
  H  H142  1  0.751400  0.573200  0.923400  1.0  0.0882
  H  H143  1  0.496200  0.363300  0.907300  1.0  0.0991
  H  H144  1  0.551300  0.282200  0.898100  1.0  0.084
  H  H145  1  0.754900  0.320500  0.814400  1.0  0.0589
  H  H146  1  0.716400  0.405500  0.823600  1.0  0.1287
  H  H147  1  0.710600  0.533300  0.830900  1.0  0.0913
  H  H148  1  0.719100  0.546500  0.756000  1.0  0.1015
  H  H149  1  0.558700  0.596000  0.735700  1.0  0.1226
  H  H150  1  0.246600  0.683500  0.822400  1.0  0.1233
  H  H151  1  0.190100  0.677900  0.895700  1.0  0.1156
  H  H152  1  0.324900  0.623700  0.928200  1.0  0.0871
  H  H153  1  0.235100  0.607900  0.763200  1.0  0.1195
  H  H154  1  0.173900  0.644500  0.705000  1.0  0.0784
  H  H155  1  0.438400  0.724200  0.696900  1.0  0.0892
  H  H156  1  0.503500  0.689600  0.754500  1.0  0.1157
  H  H157  1  0.654000  0.654300  0.845400  1.0  0.1002
  H  H158  1  0.745400  0.719400  0.880800  1.0  0.0934
  H  H159  1  0.731300  0.706600  0.953600  1.0  0.1318
  H  H160  1  0.459800  0.579600  0.035500  1.0  0.1105
  H  H161  1  0.331600  0.514500  0.012400  1.0  0.1111
  H  H162  1  0.355700  0.506700  0.938300  1.0  0.0993
  H  H163  1  0.542600  0.714900  0.007200  1.0  0.1202
  H  H164  1  0.625200  0.748100  0.061900  1.0  0.0851
  H  H165  1  0.773100  0.622100  0.087500  1.0  0.0781
  H  H166  1  0.700300  0.585600  0.031300  1.0  0.1156
  H  H167  1  0.213900  0.038700  0.145000  1.0  0.0864
  H  H168  1  0.272600  0.954300  0.165800  1.0  0.1152
  H  H169  1  0.109900  0.899700  0.159500  1.0  0.1126
  H  H170  1  0.709000  0.929300  0.101300  1.0  0.1118
  H  H171  1  0.616600  0.003600  0.071300  1.0  0.1152
  H  H172  1  0.748600  0.073200  0.076600  1.0  0.0884
  H  H173  1  0.003800  0.863300  0.092700  1.0  0.0995
  H  H174  1  0.948700  0.782200  0.101900  1.0  0.0839
  H  H175  1  0.745100  0.820500  0.185600  1.0  0.0591
  H  H176  1  0.783600  0.905500  0.176400  1.0  0.1293
  H  H177  1  0.789400  0.033300  0.169100  1.0  0.0917
  H  H178  1  0.780900  0.046500  0.244000  1.0  0.1019
  H  H179  1  0.941300  0.096000  0.264300  1.0  0.1226
  H  H180  1  0.253400  0.183500  0.177600  1.0  0.1233
  H  H181  1  0.309900  0.177900  0.104300  1.0  0.1161
  H  H182  1  0.175100  0.123700  0.071800  1.0  0.0867
  H  H183  1  0.264900  0.107900  0.236800  1.0  0.1192
  H  H184  1  0.326100  0.144500  0.295000  1.0  0.0786
  H  H185  1  0.061600  0.224200  0.303100  1.0  0.0895
  H  H186  1  0.996500  0.189600  0.245500  1.0  0.1155
  H  H187  1  0.846000  0.154300  0.154600  1.0  0.1004
  H  H188  1  0.754600  0.219400  0.119200  1.0  0.0935
  H  H189  1  0.768700  0.206600  0.046400  1.0  0.1324
  H  H190  1  0.040200  0.079600  0.964500  1.0  0.1105
  H  H191  1  0.168400  0.014500  0.987600  1.0  0.1096
  H  H192  1  0.144300  0.006700  0.061700  1.0  0.0993
  H  H193  1  0.957400  0.214900  0.992800  1.0  0.1196
  H  H194  1  0.874800  0.248100  0.938100  1.0  0.0853
  H  H195  1  0.726900  0.122100  0.912500  1.0  0.0779
  H  H196  1  0.799700  0.085600  0.968700  1.0  0.1149
  H  H197  1  0.786100  0.038700  0.645000  1.0  0.0865
  H  H198  1  0.727400  0.954300  0.665800  1.0  0.1137
  H  H199  1  0.890100  0.899700  0.659500  1.0  0.1129
  H  H200  1  0.291000  0.929300  0.601300  1.0  0.1119
  H  H201  1  0.383400  0.003600  0.571300  1.0  0.1164
  H  H202  1  0.251400  0.073200  0.576600  1.0  0.0888
  H  H203  1  0.996200  0.863300  0.592700  1.0  0.0987
  H  H204  1  0.051300  0.782200  0.601900  1.0  0.0834
  H  H205  1  0.254900  0.820500  0.685600  1.0  0.0588
  H  H206  1  0.216400  0.905500  0.676400  1.0  0.1283
  H  H207  1  0.210600  0.033300  0.669100  1.0  0.0909
  H  H208  1  0.219100  0.046500  0.744000  1.0  0.1013
  H  H209  1  0.058700  0.096000  0.764300  1.0  0.1222
  H  H210  1  0.746600  0.183500  0.677600  1.0  0.1236
  H  H211  1  0.690100  0.177900  0.604300  1.0  0.1149
  H  H212  1  0.824900  0.123700  0.571800  1.0  0.0872
  H  H213  1  0.735100  0.107900  0.736800  1.0  0.1191
  H  H214  1  0.673900  0.144500  0.795000  1.0  0.0788
  H  H215  1  0.938400  0.224200  0.803100  1.0  0.0885
  H  H216  1  0.003500  0.189600  0.745500  1.0  0.1153
  H  H217  1  0.154000  0.154300  0.654600  1.0  0.1002
  H  H218  1  0.245400  0.219400  0.619200  1.0  0.0932
  H  H219  1  0.231300  0.206600  0.546400  1.0  0.1323
  H  H220  1  0.959800  0.079600  0.464500  1.0  0.1103
  H  H221  1  0.831600  0.014500  0.487600  1.0  0.1108
  H  H222  1  0.855700  0.006700  0.561700  1.0  0.0996
  H  H223  1  0.042600  0.214900  0.492800  1.0  0.1196
  H  H224  1  0.125200  0.248100  0.438100  1.0  0.0855
  H  H225  1  0.273100  0.122100  0.412500  1.0  0.0779
  H  H226  1  0.200300  0.085600  0.468700  1.0  0.1152
  H  H227  1  0.713900  0.538700  0.355000  1.0  0.0867
  H  H228  1  0.772600  0.454300  0.334200  1.0  0.1151
  H  H229  1  0.609900  0.399700  0.340500  1.0  0.1121
  H  H230  1  0.209000  0.429300  0.398700  1.0  0.1119
  H  H231  1  0.116600  0.503600  0.428700  1.0  0.1159
  H  H232  1  0.248600  0.573200  0.423400  1.0  0.0881
  H  H233  1  0.503800  0.363300  0.407300  1.0  0.0996
  H  H234  1  0.448700  0.282200  0.398100  1.0  0.0846
  H  H235  1  0.245100  0.320500  0.314400  1.0  0.0584
  H  H236  1  0.283600  0.405500  0.323600  1.0  0.1294
  H  H237  1  0.289400  0.533300  0.330900  1.0  0.0913
  H  H238  1  0.280900  0.546500  0.256000  1.0  0.1017
  H  H239  1  0.441300  0.596000  0.235700  1.0  0.1226
  H  H240  1  0.753400  0.683500  0.322400  1.0  0.1233
  H  H241  1  0.809900  0.677900  0.395700  1.0  0.1162
  H  H242  1  0.675100  0.623700  0.428200  1.0  0.0864
  H  H243  1  0.764900  0.607900  0.263200  1.0  0.1194
  H  H244  1  0.826100  0.644500  0.205000  1.0  0.0787
  H  H245  1  0.561600  0.724200  0.196900  1.0  0.0905
  H  H246  1  0.496500  0.689600  0.254500  1.0  0.1156
  H  H247  1  0.346000  0.654300  0.345400  1.0  0.1002
  H  H248  1  0.254600  0.719400  0.380800  1.0  0.0933
  H  H249  1  0.268700  0.706600  0.453600  1.0  0.1323
  H  H250  1  0.540200  0.579600  0.535500  1.0  0.1104
  H  H251  1  0.668400  0.514500  0.512400  1.0  0.1097
  H  H252  1  0.644300  0.506700  0.438300  1.0  0.0988
  H  H253  1  0.457400  0.714900  0.507200  1.0  0.1201
  H  H254  1  0.374800  0.748100  0.561900  1.0  0.085
  H  H255  1  0.226900  0.622100  0.587500  1.0  0.0782
  H  H256  1  0.299700  0.585600  0.531300  1.0  0.1153
  C  C257  1  0.168700  0.989800  0.355700  1.0  0.0565
  C  C258  1  0.202500  0.036500  0.343500  1.0  -0.1171
  C  C259  1  0.114300  0.066300  0.347700  1.0  -0.0871
  C  C260  1  0.033600  0.038500  0.364000  1.0  0.1271
  C  C261  1  0.924100  0.054400  0.374000  1.0  -0.0105
  C  C262  1  0.846500  0.023500  0.390860  1.0  0.207
  C  C263  1  0.739200  0.038500  0.401900  1.0  -0.1988
  C  C264  1  0.687900  0.998000  0.417900  1.0  -0.0983
  C  C265  1  0.763200  0.959700  0.414900  1.0  0.0427
  C  C266  1  0.899800  0.106600  0.366590  1.0  0.0731
  C  C267  1  0.948300  0.144200  0.388500  1.0  -0.2031
  C  C268  1  0.915500  0.192300  0.382800  1.0  0.1493
  C  C269  1  0.795700  0.170300  0.334550  1.0  0.158
  C  C270  1  0.820000  0.119100  0.338900  1.0  -0.1855
  C  C271  1  0.841600  0.949000  0.315600  1.0  -0.0075
  C  C272  1  0.836400  0.941600  0.273200  1.0  -0.1592
  C  C273  1  0.924100  0.914700  0.262000  1.0  -0.1746
  C  C274  1  0.986900  0.905400  0.298170  1.0  0.1219
  C  C275  1  0.078600  0.878800  0.301800  1.0  0.0032
  C  C276  1  0.136400  0.869000  0.338300  1.0  0.1577
  C  C277  1  0.221300  0.836400  0.342600  1.0  -0.1055
  C  C278  1  0.250700  0.838500  0.383100  1.0  -0.1165
  C  C279  1  0.175900  0.869100  0.400400  1.0  0.0362
  C  C280  1  0.123900  0.856300  0.264200  1.0  0.0911
  C  C281  1  0.220900  0.868400  0.249800  1.0  -0.1788
  C  C282  1  0.257100  0.846000  0.215200  1.0  0.1495
  C  C283  1  0.104300  0.799900  0.210500  1.0  0.1469
  C  C284  1  0.065000  0.820600  0.244400  1.0  -0.1593
  C  C285  1  0.846200  0.842000  0.373600  1.0  0.0217
  C  C286  1  0.793600  0.806700  0.393300  1.0  -0.0831
  C  C287  1  0.802200  0.812300  0.433100  1.0  -0.1822
  C  C288  1  0.874900  0.854000  0.436900  1.0  0.1236
  C  C289  1  0.917100  0.874900  0.472600  1.0  0.0371
  C  C290  1  0.992300  0.914300  0.474960  1.0  0.1649
  C  C291  1  0.049300  0.931600  0.508780  1.0  -0.0695
  C  C292  1  0.119300  0.967000  0.496300  1.0  -0.08
  C  C293  1  0.104800  0.971000  0.454830  1.0  0.029
  C  C294  1  0.878000  0.853100  0.510200  1.0  0.087
  C  C295  1  0.907000  0.804200  0.522300  1.0  -0.206
  C  C296  1  0.861300  0.785700  0.555600  1.0  0.1341
  C  C297  1  0.773400  0.858900  0.570800  1.0  0.1377
  C  C298  1  0.814600  0.880500  0.536800  1.0  -0.1618
  C  C299  1  0.331300  0.489800  0.644300  1.0  0.0556
  C  C300  1  0.297500  0.536500  0.656500  1.0  -0.1166
  C  C301  1  0.385700  0.566300  0.652300  1.0  -0.0884
  C  C302  1  0.466400  0.538500  0.636000  1.0  0.1264
  C  C303  1  0.575900  0.554400  0.626000  1.0  -0.0093
  C  C304  1  0.653500  0.523500  0.609140  1.0  0.2103
  C  C305  1  0.760800  0.538500  0.598100  1.0  -0.1985
  C  C306  1  0.812100  0.498000  0.582100  1.0  -0.0996
  C  C307  1  0.736800  0.459700  0.585100  1.0  0.0416
  C  C308  1  0.600200  0.606600  0.633410  1.0  0.0745
  C  C309  1  0.551700  0.644200  0.611500  1.0  -0.2021
  C  C310  1  0.584500  0.692300  0.617200  1.0  0.1492
  C  C311  1  0.704300  0.670300  0.665450  1.0  0.159
  C  C312  1  0.680000  0.619100  0.661100  1.0  -0.1835
  C  C313  1  0.658400  0.449000  0.684400  1.0  -0.0074
  C  C314  1  0.663600  0.441600  0.726800  1.0  -0.1565
  C  C315  1  0.575900  0.414700  0.738000  1.0  -0.1758
  C  C316  1  0.513100  0.405400  0.701830  1.0  0.1213
  C  C317  1  0.421400  0.378800  0.698200  1.0  0.0029
  C  C318  1  0.363600  0.369000  0.661700  1.0  0.1586
  C  C319  1  0.278700  0.336400  0.657400  1.0  -0.1075
  C  C320  1  0.249300  0.338500  0.616900  1.0  -0.1188
  C  C321  1  0.324100  0.369100  0.599600  1.0  0.0362
  C  C322  1  0.376100  0.356300  0.735800  1.0  0.09
  C  C323  1  0.279100  0.368400  0.750200  1.0  -0.1802
  C  C324  1  0.242900  0.346000  0.784800  1.0  0.1506
  C  C325  1  0.395700  0.299900  0.789500  1.0  0.1475
  C  C326  1  0.435000  0.320600  0.755600  1.0  -0.1606
  C  C327  1  0.653800  0.342000  0.626400  1.0  0.0214
  C  C328  1  0.706400  0.306700  0.606700  1.0  -0.0807
  C  C329  1  0.697800  0.312300  0.566900  1.0  -0.1801
  C  C330  1  0.625100  0.354000  0.563100  1.0  0.124
  C  C331  1  0.582900  0.374900  0.527400  1.0  0.0381
  C  C332  1  0.507700  0.414300  0.525040  1.0  0.166
  C  C333  1  0.450700  0.431600  0.491220  1.0  -0.0711
  C  C334  1  0.380700  0.467000  0.503700  1.0  -0.0812
  C  C335  1  0.395200  0.471000  0.545170  1.0  0.0288
  C  C336  1  0.622000  0.353100  0.489800  1.0  0.0865
  C  C337  1  0.593000  0.304200  0.477700  1.0  -0.2052
  C  C338  1  0.638700  0.285700  0.444400  1.0  0.1333
  C  C339  1  0.726600  0.358900  0.429200  1.0  0.1338
  C  C340  1  0.685400  0.380500  0.463200  1.0  -0.1616
  C  C341  1  0.668700  0.489800  0.144300  1.0  0.0562
  C  C342  1  0.702500  0.536500  0.156500  1.0  -0.1175
  C  C343  1  0.614300  0.566300  0.152300  1.0  -0.0873
  C  C344  1  0.533600  0.538500  0.136000  1.0  0.1276
  C  C345  1  0.424100  0.554400  0.126000  1.0  -0.0101
  C  C346  1  0.346500  0.523500  0.109140  1.0  0.207
  C  C347  1  0.239200  0.538500  0.098100  1.0  -0.1985
  C  C348  1  0.187900  0.498000  0.082100  1.0  -0.098
  C  C349  1  0.263200  0.459700  0.085100  1.0  0.0419
  C  C350  1  0.399800  0.606600  0.133410  1.0  0.073
  C  C351  1  0.448300  0.644200  0.111500  1.0  -0.2034
  C  C352  1  0.415500  0.692300  0.117200  1.0  0.1493
  C  C353  1  0.295700  0.670300  0.165450  1.0  0.158
  C  C354  1  0.320000  0.619100  0.161100  1.0  -0.1852
  C  C355  1  0.341600  0.449000  0.184400  1.0  -0.0079
  C  C356  1  0.336400  0.441600  0.226800  1.0  -0.1595
  C  C357  1  0.424100  0.414700  0.238000  1.0  -0.1756
  C  C358  1  0.486900  0.405400  0.201830  1.0  0.1222
  C  C359  1  0.578600  0.378800  0.198200  1.0  0.0034
  C  C360  1  0.636400  0.369000  0.161700  1.0  0.1568
  C  C361  1  0.721300  0.336400  0.157400  1.0  -0.1049
  C  C362  1  0.750700  0.338500  0.116900  1.0  -0.117
  C  C363  1  0.675900  0.369100  0.099600  1.0  0.0365
  C  C364  1  0.623900  0.356300  0.235800  1.0  0.0915
  C  C365  1  0.720900  0.368400  0.250200  1.0  -0.1786
  C  C366  1  0.757100  0.346000  0.284800  1.0  0.1499
  C  C367  1  0.604300  0.299900  0.289500  1.0  0.1478
  C  C368  1  0.565000  0.320600  0.255600  1.0  -0.1596
  C  C369  1  0.346200  0.342000  0.126400  1.0  0.0218
  C  C370  1  0.293600  0.306700  0.106700  1.0  -0.0826
  C  C371  1  0.302200  0.312300  0.066900  1.0  -0.1809
  C  C372  1  0.374900  0.354000  0.063100  1.0  0.1235
  C  C373  1  0.417100  0.374900  0.027400  1.0  0.0372
  C  C374  1  0.492300  0.414300  0.025040  1.0  0.1655
  C  C375  1  0.549300  0.431600  0.991220  1.0  -0.0708
  C  C376  1  0.619300  0.467000  0.003700  1.0  -0.0797
  C  C377  1  0.604800  0.471000  0.045170  1.0  0.0297
  C  C378  1  0.378000  0.353100  0.989800  1.0  0.0868
  C  C379  1  0.407000  0.304200  0.977700  1.0  -0.2068
  C  C380  1  0.361300  0.285700  0.944400  1.0  0.135
  C  C381  1  0.273400  0.358900  0.929200  1.0  0.1371
  C  C382  1  0.314600  0.380500  0.963200  1.0  -0.1627
  C  C383  1  0.831300  0.989800  0.855700  1.0  0.0559
  C  C384  1  0.797500  0.036500  0.843500  1.0  -0.1162
  C  C385  1  0.885700  0.066300  0.847700  1.0  -0.0881
  C  C386  1  0.966400  0.038500  0.864000  1.0  0.126
  C  C387  1  0.075900  0.054400  0.874000  1.0  -0.0094
  C  C388  1  0.153500  0.023500  0.890860  1.0  0.2103
  C  C389  1  0.260800  0.038500  0.901900  1.0  -0.1983
  C  C390  1  0.312100  0.998000  0.917900  1.0  -0.0992
  C  C391  1  0.236800  0.959700  0.914900  1.0  0.0422
  C  C392  1  0.100200  0.106600  0.866590  1.0  0.0749
  C  C393  1  0.051700  0.144200  0.888500  1.0  -0.202
  C  C394  1  0.084500  0.192300  0.882800  1.0  0.1491
  C  C395  1  0.204300  0.170300  0.834550  1.0  0.159
  C  C396  1  0.180000  0.119100  0.838900  1.0  -0.1839
  C  C397  1  0.158400  0.949000  0.815600  1.0  -0.0064
  C  C398  1  0.163600  0.941600  0.773200  1.0  -0.1567
  C  C399  1  0.075900  0.914700  0.762000  1.0  -0.1754
  C  C400  1  0.013100  0.905400  0.798170  1.0  0.1214
  C  C401  1  0.921400  0.878800  0.801800  1.0  0.0026
  C  C402  1  0.863600  0.869000  0.838300  1.0  0.1588
  C  C403  1  0.778700  0.836400  0.842600  1.0  -0.1074
  C  C404  1  0.749300  0.838500  0.883100  1.0  -0.119
  C  C405  1  0.824100  0.869100  0.900400  1.0  0.0356
  C  C406  1  0.876100  0.856300  0.764200  1.0  0.0898
  C  C407  1  0.779100  0.868400  0.749800  1.0  -0.1803
  C  C408  1  0.742900  0.846000  0.715200  1.0  0.1507
  C  C409  1  0.895700  0.799900  0.710500  1.0  0.1464
  C  C410  1  0.935000  0.820600  0.744400  1.0  -0.1604
  C  C411  1  0.153800  0.842000  0.873600  1.0  0.0213
  C  C412  1  0.206400  0.806700  0.893300  1.0  -0.0811
  C  C413  1  0.197800  0.812300  0.933100  1.0  -0.1801
  C  C414  1  0.125100  0.854000  0.936900  1.0  0.1236
  C  C415  1  0.082900  0.874900  0.972600  1.0  0.0379
  C  C416  1  0.007700  0.914300  0.974960  1.0  0.1652
  C  C417  1  0.950700  0.931600  0.008780  1.0  -0.0701
  C  C418  1  0.880700  0.967000  0.996300  1.0  -0.0818
  C  C419  1  0.895200  0.971000  0.954830  1.0  0.0278
  C  C420  1  0.122000  0.853100  0.010200  1.0  0.0871
  C  C421  1  0.093000  0.804200  0.022300  1.0  -0.2039
  C  C422  1  0.138700  0.785700  0.055600  1.0  0.1328
  C  C423  1  0.226600  0.858900  0.070800  1.0  0.1345
  C  C424  1  0.185400  0.880500  0.036800  1.0  -0.1609
  C  C425  1  0.331300  0.510200  0.855700  1.0  0.0564
  C  C426  1  0.297500  0.463500  0.843500  1.0  -0.116
  C  C427  1  0.385700  0.433700  0.847700  1.0  -0.0893
  C  C428  1  0.466400  0.461500  0.864000  1.0  0.126
  C  C429  1  0.575900  0.445600  0.874000  1.0  -0.0092
  C  C430  1  0.653500  0.476500  0.890860  1.0  0.2102
  C  C431  1  0.760800  0.461500  0.901900  1.0  -0.1995
  C  C432  1  0.812100  0.502000  0.917900  1.0  -0.0986
  C  C433  1  0.736800  0.540300  0.914900  1.0  0.0423
  C  C434  1  0.600200  0.393400  0.866590  1.0  0.0751
  C  C435  1  0.551700  0.355800  0.888500  1.0  -0.2019
  C  C436  1  0.584500  0.307700  0.882800  1.0  0.1498
  C  C437  1  0.704300  0.329700  0.834550  1.0  0.1589
  C  C438  1  0.680000  0.380900  0.838900  1.0  -0.1839
  C  C439  1  0.658400  0.551000  0.815600  1.0  -0.0065
  C  C440  1  0.663600  0.558400  0.773200  1.0  -0.1569
  C  C441  1  0.575900  0.585300  0.762000  1.0  -0.1751
  C  C442  1  0.513100  0.594600  0.798170  1.0  0.121
  C  C443  1  0.421400  0.621200  0.801800  1.0  0.0025
  C  C444  1  0.363600  0.631000  0.838300  1.0  0.1575
  C  C445  1  0.278700  0.663600  0.842600  1.0  -0.1068
  C  C446  1  0.249300  0.661500  0.883100  1.0  -0.1194
  C  C447  1  0.324100  0.630900  0.900400  1.0  0.0351
  C  C448  1  0.376100  0.643700  0.764200  1.0  0.0899
  C  C449  1  0.279100  0.631600  0.749800  1.0  -0.1796
  C  C450  1  0.242900  0.654000  0.715200  1.0  0.1503
  C  C451  1  0.395700  0.700100  0.710500  1.0  0.1466
  C  C452  1  0.435000  0.679400  0.744400  1.0  -0.1596
  C  C453  1  0.653800  0.658000  0.873600  1.0  0.0211
  C  C454  1  0.706400  0.693300  0.893300  1.0  -0.0812
  C  C455  1  0.697800  0.687700  0.933100  1.0  -0.1818
  C  C456  1  0.625100  0.646000  0.936900  1.0  0.1235
  C  C457  1  0.582900  0.625100  0.972600  1.0  0.039
  C  C458  1  0.507700  0.585700  0.974960  1.0  0.1655
  C  C459  1  0.450700  0.568400  0.008780  1.0  -0.0701
  C  C460  1  0.380700  0.533000  0.996300  1.0  -0.0816
  C  C461  1  0.395200  0.529000  0.954830  1.0  0.0273
  C  C462  1  0.622000  0.646900  0.010200  1.0  0.0869
  C  C463  1  0.593000  0.695800  0.022300  1.0  -0.2069
  C  C464  1  0.638700  0.714300  0.055600  1.0  0.1314
  C  C465  1  0.726600  0.641100  0.070800  1.0  0.1342
  C  C466  1  0.685400  0.619500  0.036800  1.0  -0.1607
  C  C467  1  0.168700  0.010200  0.144300  1.0  0.0571
  C  C468  1  0.202500  0.963500  0.156500  1.0  -0.1174
  C  C469  1  0.114300  0.933700  0.152300  1.0  -0.0888
  C  C470  1  0.033600  0.961500  0.136000  1.0  0.1275
  C  C471  1  0.924100  0.945600  0.126000  1.0  -0.01
  C  C472  1  0.846500  0.976500  0.109140  1.0  0.207
  C  C473  1  0.739200  0.961500  0.098100  1.0  -0.1996
  C  C474  1  0.687900  0.002000  0.082100  1.0  -0.0974
  C  C475  1  0.763200  0.040300  0.085100  1.0  0.0415
  C  C476  1  0.899800  0.893400  0.133410  1.0  0.0736
  C  C477  1  0.948300  0.855800  0.111500  1.0  -0.2031
  C  C478  1  0.915500  0.807700  0.117200  1.0  0.1487
  C  C479  1  0.795700  0.829700  0.165450  1.0  0.1597
  C  C480  1  0.820000  0.880900  0.161100  1.0  -0.1858
  C  C481  1  0.841600  0.051000  0.184400  1.0  -0.0072
  C  C482  1  0.836400  0.058400  0.226800  1.0  -0.1591
  C  C483  1  0.924100  0.085300  0.238000  1.0  -0.176
  C  C484  1  0.986900  0.094600  0.201830  1.0  0.1218
  C  C485  1  0.078600  0.121200  0.198200  1.0  0.0031
  C  C486  1  0.136400  0.131000  0.161700  1.0  0.1565
  C  C487  1  0.221300  0.163600  0.157400  1.0  -0.1048
  C  C488  1  0.250700  0.161500  0.116900  1.0  -0.1156
  C  C489  1  0.175900  0.130900  0.099600  1.0  0.0367
  C  C490  1  0.123900  0.143700  0.235800  1.0  0.0917
  C  C491  1  0.220900  0.131600  0.250200  1.0  -0.1769
  C  C492  1  0.257100  0.154000  0.284800  1.0  0.1502
  C  C493  1  0.104300  0.200100  0.289500  1.0  0.1469
  C  C494  1  0.065000  0.179400  0.255600  1.0  -0.1608
  C  C495  1  0.846200  0.158000  0.126400  1.0  0.0208
  C  C496  1  0.793600  0.193300  0.106700  1.0  -0.0834
  C  C497  1  0.802200  0.187700  0.066900  1.0  -0.1804
  C  C498  1  0.874900  0.146000  0.063100  1.0  0.1239
  C  C499  1  0.917100  0.125100  0.027400  1.0  0.0379
  C  C500  1  0.992300  0.085700  0.025040  1.0  0.1663
  C  C501  1  0.049300  0.068400  0.991220  1.0  -0.0702
  C  C502  1  0.119300  0.033000  0.003700  1.0  -0.0796
  C  C503  1  0.104800  0.029000  0.045170  1.0  0.0291
  C  C504  1  0.878000  0.146900  0.989800  1.0  0.0866
  C  C505  1  0.907000  0.195800  0.977700  1.0  -0.2072
  C  C506  1  0.861300  0.214300  0.944400  1.0  0.1332
  C  C507  1  0.773400  0.141100  0.929200  1.0  0.1362
  C  C508  1  0.814600  0.119500  0.963200  1.0  -0.1607
  C  C509  1  0.831300  0.010200  0.644300  1.0  0.0553
  C  C510  1  0.797500  0.963500  0.656500  1.0  -0.1164
  C  C511  1  0.885700  0.933700  0.652300  1.0  -0.0894
  C  C512  1  0.966400  0.961500  0.636000  1.0  0.1265
  C  C513  1  0.075900  0.945600  0.626000  1.0  -0.0093
  C  C514  1  0.153500  0.976500  0.609140  1.0  0.2101
  C  C515  1  0.260800  0.961500  0.598100  1.0  -0.1996
  C  C516  1  0.312100  0.002000  0.582100  1.0  -0.0992
  C  C517  1  0.236800  0.040300  0.585100  1.0  0.0422
  C  C518  1  0.100200  0.893400  0.633410  1.0  0.0747
  C  C519  1  0.051700  0.855800  0.611500  1.0  -0.2021
  C  C520  1  0.084500  0.807700  0.617200  1.0  0.1491
  C  C521  1  0.204300  0.829700  0.665450  1.0  0.1599
  C  C522  1  0.180000  0.880900  0.661100  1.0  -0.1836
  C  C523  1  0.158400  0.051000  0.684400  1.0  -0.0073
  C  C524  1  0.163600  0.058400  0.726800  1.0  -0.1566
  C  C525  1  0.075900  0.085300  0.738000  1.0  -0.1761
  C  C526  1  0.013100  0.094600  0.701830  1.0  0.1209
  C  C527  1  0.921400  0.121200  0.698200  1.0  0.0027
  C  C528  1  0.863600  0.131000  0.661700  1.0  0.1577
  C  C529  1  0.778700  0.163600  0.657400  1.0  -0.1076
  C  C530  1  0.749300  0.161500  0.616900  1.0  -0.118
  C  C531  1  0.824100  0.130900  0.599600  1.0  0.0363
  C  C532  1  0.876100  0.143700  0.735800  1.0  0.0899
  C  C533  1  0.779100  0.131600  0.750200  1.0  -0.1798
  C  C534  1  0.742900  0.154000  0.784800  1.0  0.1503
  C  C535  1  0.895700  0.200100  0.789500  1.0  0.1463
  C  C536  1  0.935000  0.179400  0.755600  1.0  -0.1596
  C  C537  1  0.153800  0.158000  0.626400  1.0  0.0215
  C  C538  1  0.206400  0.193300  0.606700  1.0  -0.081
  C  C539  1  0.197800  0.187700  0.566900  1.0  -0.181
  C  C540  1  0.125100  0.146000  0.563100  1.0  0.1237
  C  C541  1  0.082900  0.125100  0.527400  1.0  0.0391
  C  C542  1  0.007700  0.085700  0.525040  1.0  0.1665
  C  C543  1  0.950700  0.068400  0.491220  1.0  -0.0702
  C  C544  1  0.880700  0.033000  0.503700  1.0  -0.081
  C  C545  1  0.895200  0.029000  0.545170  1.0  0.0282
  C  C546  1  0.122000  0.146900  0.489800  1.0  0.0862
  C  C547  1  0.093000  0.195800  0.477700  1.0  -0.2073
  C  C548  1  0.138700  0.214300  0.444400  1.0  0.1313
  C  C549  1  0.226600  0.141100  0.429200  1.0  0.1334
  C  C550  1  0.185400  0.119500  0.463200  1.0  -0.1609
  C  C551  1  0.668700  0.510200  0.355700  1.0  0.0581
  C  C552  1  0.702500  0.463500  0.343500  1.0  -0.1172
  C  C553  1  0.614300  0.433700  0.347700  1.0  -0.0886
  C  C554  1  0.533600  0.461500  0.364000  1.0  0.127
  C  C555  1  0.424100  0.445600  0.374000  1.0  -0.0103
  C  C556  1  0.346500  0.476500  0.390860  1.0  0.2069
  C  C557  1  0.239200  0.461500  0.401900  1.0  -0.1997
  C  C558  1  0.187900  0.502000  0.417900  1.0  -0.0974
  C  C559  1  0.263200  0.540300  0.414900  1.0  0.0415
  C  C560  1  0.399800  0.393400  0.366590  1.0  0.0737
  C  C561  1  0.448300  0.355800  0.388500  1.0  -0.2029
  C  C562  1  0.415500  0.307700  0.382800  1.0  0.1495
  C  C563  1  0.295700  0.329700  0.334550  1.0  0.1579
  C  C564  1  0.320000  0.380900  0.338900  1.0  -0.1859
  C  C565  1  0.341600  0.551000  0.315600  1.0  -0.007
  C  C566  1  0.336400  0.558400  0.273200  1.0  -0.1589
  C  C567  1  0.424100  0.585300  0.262000  1.0  -0.1744
  C  C568  1  0.486900  0.594600  0.298170  1.0  0.1215
  C  C569  1  0.578600  0.621200  0.301800  1.0  0.0029
  C  C570  1  0.636400  0.631000  0.338300  1.0  0.1569
  C  C571  1  0.721300  0.663600  0.342600  1.0  -0.1047
  C  C572  1  0.750700  0.661500  0.383100  1.0  -0.116
  C  C573  1  0.675900  0.630900  0.400400  1.0  0.0364
  C  C574  1  0.623900  0.643700  0.264200  1.0  0.0915
  C  C575  1  0.720900  0.631600  0.249800  1.0  -0.1767
  C  C576  1  0.757100  0.654000  0.215200  1.0  0.1498
  C  C577  1  0.604300  0.700100  0.210500  1.0  0.147
  C  C578  1  0.565000  0.679400  0.244400  1.0  -0.1601
  C  C579  1  0.346200  0.658000  0.373600  1.0  0.021
  C  C580  1  0.293600  0.693300  0.393300  1.0  -0.0835
  C  C581  1  0.302200  0.687700  0.433100  1.0  -0.1825
  C  C582  1  0.374900  0.646000  0.436900  1.0  0.1239
  C  C583  1  0.417100  0.625100  0.472600  1.0  0.0379
  C  C584  1  0.492300  0.585700  0.474960  1.0  0.1652
  C  C585  1  0.549300  0.568400  0.508780  1.0  -0.0697
  C  C586  1  0.619300  0.533000  0.496300  1.0  -0.08
  C  C587  1  0.604800  0.529000  0.454830  1.0  0.0284
  C  C588  1  0.378000  0.646900  0.510200  1.0  0.0866
  C  C589  1  0.407000  0.695800  0.522300  1.0  -0.2066
  C  C590  1  0.361300  0.714300  0.555600  1.0  0.1331
  C  C591  1  0.273400  0.641100  0.570800  1.0  0.1367
  C  C592  1  0.314600  0.619500  0.536800  1.0  -0.1605
  N  N593  1  0.068400  0.989130  0.368190  1.0  -0.3655
  N  N594  1  0.860600  0.973980  0.398570  1.0  -0.3681
  N  N595  1  0.837100  0.204950  0.355840  1.0  -0.3228
  N  N596  1  0.929300  0.927700  0.330060  1.0  -0.3246
  N  N597  1  0.103500  0.888050  0.374610  1.0  -0.4119
  N  N598  1  0.201300  0.812200  0.195470  1.0  -0.3125
  N  N599  1  0.899900  0.871780  0.399230  1.0  -0.3834
  N  N600  1  0.026800  0.938810  0.440870  1.0  -0.3658
  N  N601  1  0.796300  0.812400  0.581250  1.0  -0.3357
  N  N602  1  0.431600  0.489130  0.631810  1.0  -0.3657
  N  N603  1  0.639400  0.473980  0.601430  1.0  -0.366
  N  N604  1  0.662900  0.704950  0.644160  1.0  -0.3241
  N  N605  1  0.570700  0.427700  0.669940  1.0  -0.3249
  N  N606  1  0.396500  0.388050  0.625390  1.0  -0.4111
  N  N607  1  0.298700  0.312200  0.804530  1.0  -0.3122
  N  N608  1  0.600100  0.371780  0.600770  1.0  -0.3834
  N  N609  1  0.473200  0.438810  0.559130  1.0  -0.3655
  N  N610  1  0.703700  0.312400  0.418750  1.0  -0.3392
  N  N611  1  0.568400  0.489130  0.131810  1.0  -0.3654
  N  N612  1  0.360600  0.473980  0.101430  1.0  -0.3675
  N  N613  1  0.337100  0.704950  0.144160  1.0  -0.3229
  N  N614  1  0.429300  0.427700  0.169940  1.0  -0.3248
  N  N615  1  0.603500  0.388050  0.125390  1.0  -0.4118
  N  N616  1  0.701300  0.312200  0.304530  1.0  -0.31
  N  N617  1  0.399900  0.371780  0.100770  1.0  -0.3828
  N  N618  1  0.526800  0.438810  0.059130  1.0  -0.3664
  N  N619  1  0.296300  0.312400  0.918750  1.0  -0.3381
  N  N620  1  0.931600  0.989130  0.868190  1.0  -0.3655
  N  N621  1  0.139400  0.973980  0.898570  1.0  -0.3665
  N  N622  1  0.162900  0.204950  0.855840  1.0  -0.3239
  N  N623  1  0.070700  0.927700  0.830060  1.0  -0.3252
  N  N624  1  0.896500  0.888050  0.874610  1.0  -0.411
  N  N625  1  0.798700  0.812200  0.695470  1.0  -0.3144
  N  N626  1  0.100100  0.871780  0.899230  1.0  -0.3838
  N  N627  1  0.973200  0.938810  0.940870  1.0  -0.3653
  N  N628  1  0.203700  0.812400  0.081250  1.0  -0.3353
  N  N629  1  0.431600  0.510870  0.868190  1.0  -0.3659
  N  N630  1  0.639400  0.526020  0.898570  1.0  -0.366
  N  N631  1  0.662900  0.295050  0.855840  1.0  -0.3247
  N  N632  1  0.570700  0.572300  0.830060  1.0  -0.3256
  N  N633  1  0.396500  0.611950  0.874610  1.0  -0.4111
  N  N634  1  0.298700  0.687800  0.695470  1.0  -0.3093
  N  N635  1  0.600100  0.628220  0.899230  1.0  -0.3831
  N  N636  1  0.473200  0.561190  0.940870  1.0  -0.3648
  N  N637  1  0.703700  0.687600  0.081250  1.0  -0.3355
  N  N638  1  0.068400  0.010870  0.131810  1.0  -0.3658
  N  N639  1  0.860600  0.026020  0.101430  1.0  -0.3674
  N  N640  1  0.837100  0.795050  0.144160  1.0  -0.3239
  N  N641  1  0.929300  0.072300  0.169940  1.0  -0.3249
  N  N642  1  0.103500  0.111950  0.125390  1.0  -0.4125
  N  N643  1  0.201300  0.187800  0.304530  1.0  -0.3086
  N  N644  1  0.899900  0.128220  0.100770  1.0  -0.3827
  N  N645  1  0.026800  0.061190  0.059130  1.0  -0.366
  N  N646  1  0.796300  0.187600  0.918750  1.0  -0.335
  N  N647  1  0.931600  0.010870  0.631810  1.0  -0.3662
  N  N648  1  0.139400  0.026020  0.601430  1.0  -0.3655
  N  N649  1  0.162900  0.795050  0.644160  1.0  -0.3246
  N  N650  1  0.070700  0.072300  0.669940  1.0  -0.325
  N  N651  1  0.896500  0.111950  0.625390  1.0  -0.4112
  N  N652  1  0.798700  0.187800  0.804530  1.0  -0.309
  N  N653  1  0.100100  0.128220  0.600770  1.0  -0.383
  N  N654  1  0.973200  0.061190  0.559130  1.0  -0.365
  N  N655  1  0.203700  0.187600  0.418750  1.0  -0.3389
  N  N656  1  0.568400  0.510870  0.368190  1.0  -0.3658
  N  N657  1  0.360600  0.526020  0.398570  1.0  -0.3681
  N  N658  1  0.337100  0.295050  0.355840  1.0  -0.3239
  N  N659  1  0.429300  0.572300  0.330060  1.0  -0.3251
  N  N660  1  0.603500  0.611950  0.374610  1.0  -0.4126
  N  N661  1  0.701300  0.687800  0.195470  1.0  -0.3102
  N  N662  1  0.399900  0.628220  0.399230  1.0  -0.383
  N  N663  1  0.526800  0.561190  0.440870  1.0  -0.3656
  N  N664  1  0.296300  0.687600  0.581250  1.0  -0.3342
