# generated using pymatgen
data_Co2H19C25N3O8
_symmetry_space_group_name_H-M   'P 1'
_cell_length_a   15.92880000
_cell_length_b   15.92880000
_cell_length_c   21.36630000
_cell_angle_alpha   90.00000000
_cell_angle_beta   90.00000000
_cell_angle_gamma   120.00000000
_symmetry_Int_Tables_number   1
_chemical_formula_structural   Co2H19C25N3O8
_chemical_formula_sum   'Co12 H114 C150 N18 O48'
_cell_volume   4694.89703786
_cell_formula_units_Z   6
loop_
 _symmetry_equiv_pos_site_id
 _symmetry_equiv_pos_as_xyz
  1  'x, y, z'
loop_
 _atom_site_type_symbol
 _atom_site_label
 _atom_site_symmetry_multiplicity
 _atom_site_fract_x
 _atom_site_fract_y
 _atom_site_fract_z
 _atom_site_occupancy
 _atom_site_charge
  Co  Co1  1  0.153440  0.706850  0.991840  1.0  0.9838
  Co  Co2  1  0.030710  0.513760  0.885880  1.0  0.7688
  Co  Co3  1  0.553410  0.846560  0.658510  1.0  0.9839
  Co  Co4  1  0.483050  0.969290  0.552550  1.0  0.7695
  Co  Co5  1  0.293150  0.446590  0.325170  1.0  0.9829
  Co  Co6  1  0.486240  0.516950  0.219210  1.0  0.7685
  Co  Co7  1  0.846560  0.293150  0.491840  1.0  0.9836
  Co  Co8  1  0.969290  0.486240  0.385880  1.0  0.7695
  Co  Co9  1  0.446590  0.153440  0.158510  1.0  0.9825
  Co  Co10  1  0.516950  0.030710  0.052550  1.0  0.7682
  Co  Co11  1  0.706850  0.553410  0.825170  1.0  0.9834
  Co  Co12  1  0.513760  0.483050  0.719210  1.0  0.7687
  H  H13  1  0.194800  0.665200  0.524700  1.0  0.1079
  H  H14  1  0.013200  0.459500  0.643900  1.0  0.103
  H  H15  1  0.268900  0.667700  0.704500  1.0  0.1076
  H  H16  1  0.067900  0.452600  0.750600  1.0  0.1022
  H  H17  1  0.168100  0.537100  0.773500  1.0  0.1166
  H  H18  1  0.103800  0.698700  0.757000  1.0  0.0968
  H  H19  1  0.185400  0.688400  0.790800  1.0  0.105
  H  H20  1  0.935600  0.471300  0.742300  1.0  0.0934
  H  H21  1  0.972600  0.580200  0.725400  1.0  0.0932
  H  H22  1  0.947200  0.653500  0.988900  1.0  0.0811
  H  H23  1  0.845700  0.715600  0.995700  1.0  0.1275
  H  H24  1  0.076400  0.974400  0.033500  1.0  0.1221
  H  H25  1  0.170900  0.907500  0.024300  1.0  0.0712
  H  H26  1  0.917200  0.962800  0.030400  1.0  0.1013
  H  H27  1  0.763500  0.787300  0.002000  1.0  0.0951
  H  H28  1  0.602600  0.772400  0.011400  1.0  0.1037
  H  H29  1  0.507200  0.838900  0.025200  1.0  0.0759
  H  H30  1  0.732900  0.098500  0.025200  1.0  0.0787
  H  H31  1  0.834200  0.039500  0.013200  1.0  0.1202
  H  H32  1  0.470400  0.805200  0.191370  1.0  0.108
  H  H33  1  0.446300  0.986800  0.310570  1.0  0.1044
  H  H34  1  0.398800  0.731100  0.371170  1.0  0.108
  H  H35  1  0.384700  0.932100  0.417270  1.0  0.1014
  H  H36  1  0.369000  0.831900  0.440170  1.0  0.1165
  H  H37  1  0.594900  0.896200  0.423670  1.0  0.0978
  H  H38  1  0.503000  0.814600  0.457470  1.0  0.1055
  H  H39  1  0.535700  0.064400  0.408970  1.0  0.0928
  H  H40  1  0.607600  0.027400  0.392070  1.0  0.0921
  H  H41  1  0.706300  0.052800  0.655570  1.0  0.0805
  H  H42  1  0.869900  0.154300  0.662370  1.0  0.1281
  H  H43  1  0.898000  0.923600  0.700170  1.0  0.1238
  H  H44  1  0.736600  0.829100  0.690970  1.0  0.0728
  H  H45  1  0.045600  0.082800  0.697070  1.0  0.1028
  H  H46  1  0.023800  0.236500  0.668670  1.0  0.0938
  H  H47  1  0.169800  0.397400  0.678070  1.0  0.1041
  H  H48  1  0.331700  0.492800  0.691870  1.0  0.0742
  H  H49  1  0.365600  0.267100  0.691870  1.0  0.0817
  H  H50  1  0.205300  0.165800  0.679870  1.0  0.1203
  H  H51  1  0.334800  0.529600  0.858030  1.0  0.1076
  H  H52  1  0.540500  0.553700  0.977230  1.0  0.1036
  H  H53  1  0.332300  0.601200  0.037830  1.0  0.1078
  H  H54  1  0.547400  0.615300  0.083930  1.0  0.1039
  H  H55  1  0.462900  0.631000  0.106830  1.0  0.1163
  H  H56  1  0.301300  0.405100  0.090330  1.0  0.0973
  H  H57  1  0.311600  0.497000  0.124130  1.0  0.1092
  H  H58  1  0.528700  0.464300  0.075630  1.0  0.0925
  H  H59  1  0.419800  0.392400  0.058730  1.0  0.0901
  H  H60  1  0.346500  0.293700  0.322230  1.0  0.0811
  H  H61  1  0.284400  0.130100  0.329030  1.0  0.1268
  H  H62  1  0.025600  0.102000  0.366830  1.0  0.1233
  H  H63  1  0.092500  0.263400  0.357630  1.0  0.0717
  H  H64  1  0.037200  0.954400  0.363730  1.0  0.1036
  H  H65  1  0.212700  0.976200  0.335330  1.0  0.0961
  H  H66  1  0.227600  0.830200  0.344730  1.0  0.1033
  H  H67  1  0.161100  0.668300  0.358530  1.0  0.0782
  H  H68  1  0.901500  0.634400  0.358530  1.0  0.0806
  H  H69  1  0.960500  0.794700  0.346530  1.0  0.1185
  H  H70  1  0.805200  0.334800  0.024700  1.0  0.1083
  H  H71  1  0.986800  0.540500  0.143900  1.0  0.1038
  H  H72  1  0.731100  0.332300  0.204500  1.0  0.1083
  H  H73  1  0.932100  0.547400  0.250600  1.0  0.1043
  H  H74  1  0.831900  0.462900  0.273500  1.0  0.1175
  H  H75  1  0.896200  0.301300  0.257000  1.0  0.0972
  H  H76  1  0.814600  0.311600  0.290800  1.0  0.1057
  H  H77  1  0.064400  0.528700  0.242300  1.0  0.0939
  H  H78  1  0.027400  0.419800  0.225400  1.0  0.0924
  H  H79  1  0.052800  0.346500  0.488900  1.0  0.0813
  H  H80  1  0.154300  0.284400  0.495700  1.0  0.1274
  H  H81  1  0.923600  0.025600  0.533500  1.0  0.1228
  H  H82  1  0.829100  0.092500  0.524300  1.0  0.0699
  H  H83  1  0.082800  0.037200  0.530400  1.0  0.1032
  H  H84  1  0.236500  0.212700  0.502000  1.0  0.0954
  H  H85  1  0.397400  0.227600  0.511400  1.0  0.1038
  H  H86  1  0.492800  0.161100  0.525200  1.0  0.0758
  H  H87  1  0.267100  0.901500  0.525200  1.0  0.0797
  H  H88  1  0.165800  0.960500  0.513200  1.0  0.1194
  H  H89  1  0.529600  0.194800  0.691370  1.0  0.1078
  H  H90  1  0.553700  0.013200  0.810570  1.0  0.1033
  H  H91  1  0.601200  0.268900  0.871170  1.0  0.108
  H  H92  1  0.615300  0.067900  0.917270  1.0  0.1008
  H  H93  1  0.631000  0.168100  0.940170  1.0  0.1143
  H  H94  1  0.405100  0.103800  0.923670  1.0  0.0968
  H  H95  1  0.497000  0.185400  0.957470  1.0  0.105
  H  H96  1  0.464300  0.935600  0.908970  1.0  0.0921
  H  H97  1  0.392400  0.972600  0.892070  1.0  0.0914
  H  H98  1  0.293700  0.947200  0.155570  1.0  0.0803
  H  H99  1  0.130100  0.845700  0.162370  1.0  0.1292
  H  H100  1  0.102000  0.076400  0.200170  1.0  0.1248
  H  H101  1  0.263400  0.170900  0.190970  1.0  0.071
  H  H102  1  0.954400  0.917200  0.197070  1.0  0.1038
  H  H103  1  0.976200  0.763500  0.168670  1.0  0.094
  H  H104  1  0.830200  0.602600  0.178070  1.0  0.104
  H  H105  1  0.668300  0.507200  0.191870  1.0  0.0754
  H  H106  1  0.634400  0.732900  0.191870  1.0  0.0811
  H  H107  1  0.794700  0.834200  0.179870  1.0  0.1201
  H  H108  1  0.665200  0.470400  0.358030  1.0  0.1078
  H  H109  1  0.459500  0.446300  0.477230  1.0  0.1038
  H  H110  1  0.667700  0.398800  0.537830  1.0  0.1081
  H  H111  1  0.452600  0.384700  0.583930  1.0  0.1028
  H  H112  1  0.537100  0.369000  0.606830  1.0  0.1161
  H  H113  1  0.698700  0.594900  0.590330  1.0  0.0984
  H  H114  1  0.688400  0.503000  0.624130  1.0  0.1068
  H  H115  1  0.471300  0.535700  0.575630  1.0  0.0916
  H  H116  1  0.580200  0.607600  0.558730  1.0  0.0907
  H  H117  1  0.653500  0.706300  0.822230  1.0  0.0809
  H  H118  1  0.715600  0.869900  0.829030  1.0  0.1261
  H  H119  1  0.974400  0.898000  0.866830  1.0  0.1241
  H  H120  1  0.907500  0.736600  0.857630  1.0  0.0708
  H  H121  1  0.962800  0.045600  0.863730  1.0  0.103
  H  H122  1  0.787300  0.023800  0.835330  1.0  0.0953
  H  H123  1  0.772400  0.169800  0.844730  1.0  0.1036
  H  H124  1  0.838900  0.331700  0.858530  1.0  0.0778
  H  H125  1  0.098500  0.365600  0.858530  1.0  0.0816
  H  H126  1  0.039500  0.205300  0.846530  1.0  0.1194
  C  C127  1  0.247100  0.679800  0.612300  1.0  -0.1361
  C  C128  1  0.180800  0.637500  0.564300  1.0  0.0135
  C  C129  1  0.092700  0.553100  0.575600  1.0  -0.1678
  C  C130  1  0.071800  0.515700  0.636300  1.0  -0.0877
  C  C131  1  0.134700  0.559100  0.684700  1.0  0.0502
  C  C132  1  0.223800  0.639700  0.672300  1.0  -0.1128
  C  C133  1  0.108900  0.522500  0.751600  1.0  -0.029
  C  C134  1  0.117500  0.670200  0.792900  1.0  -0.1932
  C  C135  1  0.100700  0.712500  0.852300  1.0  0.7254
  C  C136  1  0.963200  0.536100  0.759500  1.0  -0.187
  C  C137  1  0.892700  0.538600  0.807200  1.0  0.7348
  C  C138  1  0.347500  0.768400  0.603800  1.0  0.6986
  C  C139  1  0.020200  0.499200  0.523700  1.0  0.708
  C  C140  1  0.973300  0.719100  0.997700  1.0  0.1721
  C  C141  1  0.911900  0.755600  0.002200  1.0  -0.189
  C  C142  1  0.949700  0.854300  0.016600  1.0  0.1197
  C  C143  1  0.048100  0.908700  0.024300  1.0  -0.241
  C  C144  1  0.104400  0.868200  0.018700  1.0  0.1684
  C  C145  1  0.887200  0.897300  0.020500  1.0  -0.1281
  C  C146  1  0.793700  0.852900  0.011500  1.0  -0.1166
  C  C147  1  0.731500  0.896800  0.014900  1.0  0.1367
  C  C148  1  0.631100  0.839300  0.015900  1.0  -0.1883
  C  C149  1  0.574000  0.879800  0.023300  1.0  0.1791
  C  C150  1  0.706700  0.031700  0.023500  1.0  0.1649
  C  C151  1  0.767900  0.997000  0.016700  1.0  -0.1963
  C  C152  1  0.432700  0.752900  0.278970  1.0  -0.1383
  C  C153  1  0.456700  0.819200  0.230970  1.0  0.0135
  C  C154  1  0.460400  0.907300  0.242270  1.0  -0.1673
  C  C155  1  0.443900  0.928200  0.302970  1.0  -0.0889
  C  C156  1  0.424400  0.865300  0.351370  1.0  0.0483
  C  C157  1  0.415900  0.776200  0.338970  1.0  -0.1107
  C  C158  1  0.413600  0.891100  0.418270  1.0  -0.0236
  C  C159  1  0.552700  0.882500  0.459570  1.0  -0.1942
  C  C160  1  0.611800  0.899300  0.518970  1.0  0.7267
  C  C161  1  0.572900  0.036800  0.426170  1.0  -0.1846
  C  C162  1  0.645900  0.107300  0.473870  1.0  0.7372
  C  C163  1  0.420900  0.652500  0.270470  1.0  0.6996
  C  C164  1  0.479000  0.979800  0.190370  1.0  0.7092
  C  C165  1  0.745800  0.026700  0.664370  1.0  0.1716
  C  C166  1  0.843700  0.088100  0.668870  1.0  -0.1888
  C  C167  1  0.904600  0.050300  0.683270  1.0  0.1205
  C  C168  1  0.860600  0.951900  0.690970  1.0  -0.2433
  C  C169  1  0.763800  0.895600  0.685370  1.0  0.1672
  C  C170  1  0.010100  0.112800  0.687170  1.0  -0.1228
  C  C171  1  0.059200  0.206300  0.678170  1.0  -0.1159
  C  C172  1  0.165300  0.268500  0.681570  1.0  0.1356
  C  C173  1  0.208200  0.368900  0.682570  1.0  -0.1887
  C  C174  1  0.305800  0.426000  0.689970  1.0  0.1771
  C  C175  1  0.325000  0.293300  0.690170  1.0  0.1659
  C  C176  1  0.229100  0.232100  0.683370  1.0  -0.1958
  C  C177  1  0.320200  0.567300  0.945630  1.0  -0.138
  C  C178  1  0.362500  0.543300  0.897630  1.0  0.0149
  C  C179  1  0.446900  0.539600  0.908930  1.0  -0.167
  C  C180  1  0.484300  0.556100  0.969630  1.0  -0.0901
  C  C181  1  0.440900  0.575600  0.018030  1.0  0.0471
  C  C182  1  0.360300  0.584100  0.005630  1.0  -0.1088
  C  C183  1  0.477500  0.586400  0.084930  1.0  -0.0273
  C  C184  1  0.329800  0.447300  0.126230  1.0  -0.1939
  C  C185  1  0.287500  0.388200  0.185630  1.0  0.7253
  C  C186  1  0.463900  0.427100  0.092830  1.0  -0.1898
  C  C187  1  0.461400  0.354100  0.140530  1.0  0.7377
  C  C188  1  0.231600  0.579100  0.937130  1.0  0.6961
  C  C189  1  0.500800  0.521000  0.857030  1.0  0.707
  C  C190  1  0.280900  0.254200  0.331030  1.0  0.1739
  C  C191  1  0.244400  0.156300  0.335530  1.0  -0.1888
  C  C192  1  0.145700  0.095400  0.349930  1.0  0.1188
  C  C193  1  0.091300  0.139400  0.357630  1.0  -0.24
  C  C194  1  0.131800  0.236200  0.352030  1.0  0.1685
  C  C195  1  0.102700  0.989900  0.353830  1.0  -0.1236
  C  C196  1  0.147100  0.940800  0.344830  1.0  -0.1156
  C  C197  1  0.103200  0.834700  0.348230  1.0  0.1355
  C  C198  1  0.160700  0.791800  0.349230  1.0  -0.1872
  C  C199  1  0.120200  0.694200  0.356630  1.0  0.177
  C  C200  1  0.968300  0.675000  0.356830  1.0  0.1676
  C  C201  1  0.003000  0.770900  0.350030  1.0  -0.1921
  C  C202  1  0.752900  0.320200  0.112300  1.0  -0.1364
  C  C203  1  0.819200  0.362500  0.064300  1.0  0.0138
  C  C204  1  0.907300  0.446900  0.075600  1.0  -0.1673
  C  C205  1  0.928200  0.484300  0.136300  1.0  -0.0884
  C  C206  1  0.865300  0.440900  0.184700  1.0  0.0504
  C  C207  1  0.776200  0.360300  0.172300  1.0  -0.111
  C  C208  1  0.891100  0.477500  0.251600  1.0  -0.0276
  C  C209  1  0.882500  0.329800  0.292900  1.0  -0.1944
  C  C210  1  0.899300  0.287500  0.352300  1.0  0.7268
  C  C211  1  0.036800  0.463900  0.259500  1.0  -0.187
  C  C212  1  0.107300  0.461400  0.307200  1.0  0.7346
  C  C213  1  0.652500  0.231600  0.103800  1.0  0.6977
  C  C214  1  0.979800  0.500800  0.023700  1.0  0.7091
  C  C215  1  0.026700  0.280900  0.497700  1.0  0.1723
  C  C216  1  0.088100  0.244400  0.502200  1.0  -0.1898
  C  C217  1  0.050300  0.145700  0.516600  1.0  0.1202
  C  C218  1  0.951900  0.091300  0.524300  1.0  -0.2427
  C  C219  1  0.895600  0.131800  0.518700  1.0  0.1696
  C  C220  1  0.112800  0.102700  0.520500  1.0  -0.1272
  C  C221  1  0.206300  0.147100  0.511500  1.0  -0.1163
  C  C222  1  0.268500  0.103200  0.514900  1.0  0.1367
  C  C223  1  0.368900  0.160700  0.515900  1.0  -0.1887
  C  C224  1  0.426000  0.120200  0.523300  1.0  0.1789
  C  C225  1  0.293300  0.968300  0.523500  1.0  0.166
  C  C226  1  0.232100  0.003000  0.516700  1.0  -0.1949
  C  C227  1  0.567300  0.247100  0.778970  1.0  -0.1374
  C  C228  1  0.543300  0.180800  0.730970  1.0  0.0135
  C  C229  1  0.539600  0.092700  0.742270  1.0  -0.1682
  C  C230  1  0.556100  0.071800  0.802970  1.0  -0.0895
  C  C231  1  0.575600  0.134700  0.851370  1.0  0.0475
  C  C232  1  0.584100  0.223800  0.838970  1.0  -0.1106
  C  C233  1  0.586400  0.108900  0.918270  1.0  -0.0251
  C  C234  1  0.447300  0.117500  0.959570  1.0  -0.1963
  C  C235  1  0.388200  0.100700  0.018970  1.0  0.7281
  C  C236  1  0.427100  0.963200  0.926170  1.0  -0.1867
  C  C237  1  0.354100  0.892700  0.973870  1.0  0.7378
  C  C238  1  0.579100  0.347500  0.770470  1.0  0.7007
  C  C239  1  0.521000  0.020200  0.690370  1.0  0.7078
  C  C240  1  0.254200  0.973300  0.164370  1.0  0.1711
  C  C241  1  0.156300  0.911900  0.168870  1.0  -0.19
  C  C242  1  0.095400  0.949700  0.183270  1.0  0.1195
  C  C243  1  0.139400  0.048100  0.190970  1.0  -0.2425
  C  C244  1  0.236200  0.104400  0.185370  1.0  0.1687
  C  C245  1  0.989900  0.887200  0.187170  1.0  -0.1222
  C  C246  1  0.940800  0.793700  0.178170  1.0  -0.118
  C  C247  1  0.834700  0.731500  0.181570  1.0  0.1353
  C  C248  1  0.791800  0.631100  0.182570  1.0  -0.1887
  C  C249  1  0.694200  0.574000  0.189970  1.0  0.1778
  C  C250  1  0.675000  0.706700  0.190170  1.0  0.1648
  C  C251  1  0.770900  0.767900  0.183370  1.0  -0.1982
  C  C252  1  0.679800  0.432700  0.445630  1.0  -0.1381
  C  C253  1  0.637500  0.456700  0.397630  1.0  0.0141
  C  C254  1  0.553100  0.460400  0.408930  1.0  -0.1658
  C  C255  1  0.515700  0.443900  0.469630  1.0  -0.0894
  C  C256  1  0.559100  0.424400  0.518030  1.0  0.0477
  C  C257  1  0.639700  0.415900  0.505630  1.0  -0.1095
  C  C258  1  0.522500  0.413600  0.584930  1.0  -0.0266
  C  C259  1  0.670200  0.552700  0.626230  1.0  -0.1919
  C  C260  1  0.712500  0.611800  0.685630  1.0  0.7236
  C  C261  1  0.536100  0.572900  0.592830  1.0  -0.1891
  C  C262  1  0.538600  0.645900  0.640530  1.0  0.7374
  C  C263  1  0.768400  0.420900  0.437130  1.0  0.6957
  C  C264  1  0.499200  0.479000  0.357030  1.0  0.7065
  C  C265  1  0.719100  0.745800  0.831030  1.0  0.1742
  C  C266  1  0.755600  0.843700  0.835530  1.0  -0.1881
  C  C267  1  0.854300  0.904600  0.849930  1.0  0.1195
  C  C268  1  0.908700  0.860600  0.857630  1.0  -0.2427
  C  C269  1  0.868200  0.763800  0.852030  1.0  0.1673
  C  C270  1  0.897300  0.010100  0.853830  1.0  -0.1234
  C  C271  1  0.852900  0.059200  0.844830  1.0  -0.1149
  C  C272  1  0.896800  0.165300  0.848230  1.0  0.136
  C  C273  1  0.839300  0.208200  0.849230  1.0  -0.1871
  C  C274  1  0.879800  0.305800  0.856630  1.0  0.1772
  C  C275  1  0.031700  0.325000  0.856830  1.0  0.1679
  C  C276  1  0.997000  0.229100  0.850030  1.0  -0.1932
  N  N277  1  0.058200  0.564100  0.788430  1.0  -0.0908
  N  N278  1  0.069500  0.773800  0.005500  1.0  -0.3338
  N  N279  1  0.608900  0.974700  0.027930  1.0  -0.3316
  N  N280  1  0.505900  0.941800  0.455100  1.0  -0.0906
  N  N281  1  0.704300  0.930500  0.672170  1.0  -0.3345
  N  N282  1  0.365800  0.391100  0.694600  1.0  -0.328
  N  N283  1  0.435900  0.494100  0.121760  1.0  -0.0898
  N  N284  1  0.226200  0.295700  0.338830  1.0  -0.3331
  N  N285  1  0.025300  0.634200  0.361260  1.0  -0.3288
  N  N286  1  0.941800  0.435900  0.288430  1.0  -0.09
  N  N287  1  0.930500  0.226200  0.505500  1.0  -0.3339
  N  N288  1  0.391100  0.025300  0.527930  1.0  -0.3271
  N  N289  1  0.494100  0.058200  0.955100  1.0  -0.0907
  N  N290  1  0.295700  0.069500  0.172170  1.0  -0.3342
  N  N291  1  0.634200  0.608900  0.194600  1.0  -0.3311
  N  N292  1  0.564100  0.505900  0.621760  1.0  -0.0897
  N  N293  1  0.773800  0.704300  0.838830  1.0  -0.3332
  N  N294  1  0.974700  0.365800  0.861260  1.0  -0.3286
  O  O295  1  0.087700  0.661600  0.902560  1.0  -0.6638
  O  O296  1  0.104700  0.790100  0.850700  1.0  -0.5139
  O  O297  1  0.898800  0.515600  0.862590  1.0  -0.5814
  O  O298  1  0.834500  0.561600  0.787060  1.0  -0.6105
  O  O299  1  0.410100  0.770800  0.640700  1.0  -0.6079
  O  O300  1  0.360400  0.830500  0.563290  1.0  -0.6097
  O  O301  1  0.030400  0.542000  0.472750  1.0  -0.6044
  O  O302  1  0.955400  0.415700  0.536690  1.0  -0.6184
  O  O303  1  0.573900  0.912300  0.569230  1.0  -0.6636
  O  O304  1  0.685400  0.895300  0.517370  1.0  -0.516
  O  O305  1  0.616800  0.101200  0.529260  1.0  -0.5823
  O  O306  1  0.727100  0.165500  0.453730  1.0  -0.6088
  O  O307  1  0.360700  0.589900  0.307370  1.0  -0.6088
  O  O308  1  0.470100  0.639600  0.229960  1.0  -0.6088
  O  O309  1  0.511600  0.969600  0.139420  1.0  -0.6032
  O  O310  1  0.460300  0.044600  0.203360  1.0  -0.6184
  O  O311  1  0.338400  0.426100  0.235890  1.0  -0.6644
  O  O312  1  0.209900  0.314600  0.184030  1.0  -0.5156
  O  O313  1  0.484400  0.383200  0.195920  1.0  -0.5795
  O  O314  1  0.438400  0.272900  0.120390  1.0  -0.6112
  O  O315  1  0.229200  0.639300  0.974030  1.0  -0.6098
  O  O316  1  0.169500  0.529900  0.896620  1.0  -0.6108
  O  O317  1  0.458000  0.488400  0.806080  1.0  -0.6034
  O  O318  1  0.584300  0.539700  0.870020  1.0  -0.617
  O  O319  1  0.912300  0.338400  0.402560  1.0  -0.6629
  O  O320  1  0.895300  0.209900  0.350700  1.0  -0.5136
  O  O321  1  0.101200  0.484400  0.362590  1.0  -0.5819
  O  O322  1  0.165500  0.438400  0.287060  1.0  -0.6111
  O  O323  1  0.589900  0.229200  0.140700  1.0  -0.6081
  O  O324  1  0.639600  0.169500  0.063290  1.0  -0.6103
  O  O325  1  0.969600  0.458000  0.972750  1.0  -0.6037
  O  O326  1  0.044600  0.584300  0.036690  1.0  -0.6177
  O  O327  1  0.426100  0.087700  0.069230  1.0  -0.6641
  O  O328  1  0.314600  0.104700  0.017370  1.0  -0.5188
  O  O329  1  0.383200  0.898800  0.029260  1.0  -0.5816
  O  O330  1  0.272900  0.834500  0.953730  1.0  -0.6101
  O  O331  1  0.639300  0.410100  0.807370  1.0  -0.6089
  O  O332  1  0.529900  0.360400  0.729960  1.0  -0.6079
  O  O333  1  0.488400  0.030400  0.639420  1.0  -0.6032
  O  O334  1  0.539700  0.955400  0.703360  1.0  -0.6175
  O  O335  1  0.661600  0.573900  0.735890  1.0  -0.6638
  O  O336  1  0.790100  0.685400  0.684030  1.0  -0.5154
  O  O337  1  0.515600  0.616800  0.695920  1.0  -0.5804
  O  O338  1  0.561600  0.727100  0.620390  1.0  -0.6112
  O  O339  1  0.770800  0.360700  0.474030  1.0  -0.6096
  O  O340  1  0.830500  0.470100  0.396620  1.0  -0.6104
  O  O341  1  0.542000  0.511600  0.306080  1.0  -0.6037
  O  O342  1  0.415700  0.460300  0.370020  1.0  -0.6174
