# generated using pymatgen
data_CoAgH30(C14N3)3
_symmetry_space_group_name_H-M   'P 1'
_cell_length_a   12.58000000
_cell_length_b   26.71300000
_cell_length_c   33.45500000
_cell_angle_alpha   90.00000000
_cell_angle_beta   90.00000000
_cell_angle_gamma   90.00000000
_symmetry_Int_Tables_number   1
_chemical_formula_structural   CoAgH30(C14N3)3
_chemical_formula_sum   'Co8 Ag8 H240 C336 N72'
_cell_volume   11242.53736070
_cell_formula_units_Z   8
loop_
 _symmetry_equiv_pos_site_id
 _symmetry_equiv_pos_as_xyz
  1  'x, y, z'
loop_
 _atom_site_type_symbol
 _atom_site_label
 _atom_site_symmetry_multiplicity
 _atom_site_fract_x
 _atom_site_fract_y
 _atom_site_fract_z
 _atom_site_occupancy
 _atom_site_charge
  Co  Co1  1  0.514620  0.931240  0.385320  1.0  0.2214
  Co  Co2  1  0.985380  0.431240  0.614680  1.0  0.22
  Co  Co3  1  0.014620  0.431240  0.114680  1.0  0.2203
  Co  Co4  1  0.485380  0.931240  0.885320  1.0  0.2209
  Co  Co5  1  0.985380  0.568760  0.885320  1.0  0.2204
  Co  Co6  1  0.514620  0.068760  0.114680  1.0  0.2199
  Co  Co7  1  0.485380  0.068760  0.614680  1.0  0.2195
  Co  Co8  1  0.014620  0.568760  0.385320  1.0  0.2209
  Ag  Ag9  1  0.741110  0.280080  0.362320  1.0  0.259
  Ag  Ag10  1  0.758890  0.780080  0.637680  1.0  0.2589
  Ag  Ag11  1  0.241110  0.780080  0.137680  1.0  0.2592
  Ag  Ag12  1  0.258890  0.280080  0.862320  1.0  0.2586
  Ag  Ag13  1  0.758890  0.219920  0.862320  1.0  0.2583
  Ag  Ag14  1  0.741110  0.719920  0.137680  1.0  0.2592
  Ag  Ag15  1  0.258890  0.719920  0.637680  1.0  0.2587
  Ag  Ag16  1  0.241110  0.219920  0.362320  1.0  0.2589
  H  H17  1  0.283800  0.958300  0.356300  1.0  0.0946
  H  H18  1  0.222500  0.043500  0.336800  1.0  0.1181
  H  H19  1  0.378600  0.101500  0.344200  1.0  0.1299
  H  H20  1  0.774200  0.073800  0.401200  1.0  0.1251
  H  H21  1  0.870500  0.998300  0.426600  1.0  0.1172
  H  H22  1  0.746100  0.925100  0.419600  1.0  0.0937
  H  H23  1  0.689000  0.096300  0.320100  1.0  0.1242
  H  H24  1  0.738100  0.179600  0.313200  1.0  0.0706
  H  H25  1  0.553100  0.219800  0.401000  1.0  0.0743
  H  H26  1  0.495300  0.138400  0.410200  1.0  0.1103
  H  H27  1  0.694500  0.969800  0.328600  1.0  0.0977
  H  H28  1  0.706100  0.950500  0.254700  1.0  0.1149
  H  H29  1  0.551600  0.896900  0.238100  1.0  0.1073
  H  H30  1  0.241700  0.812900  0.328500  1.0  0.1184
  H  H31  1  0.193400  0.822100  0.400500  1.0  0.114
  H  H32  1  0.328800  0.880000  0.431000  1.0  0.0914
  H  H33  1  0.505100  0.802800  0.255800  1.0  0.1124
  H  H34  1  0.438700  0.768100  0.197800  1.0  0.0892
  H  H35  1  0.173800  0.844800  0.209800  1.0  0.0889
  H  H36  1  0.233500  0.880800  0.268400  1.0  0.1339
  H  H37  1  0.647600  0.846900  0.344000  1.0  0.103
  H  H38  1  0.751100  0.781200  0.380300  1.0  0.1111
  H  H39  1  0.726500  0.796200  0.453700  1.0  0.1198
  H  H40  1  0.462400  0.920400  0.534700  1.0  0.1191
  H  H41  1  0.335300  0.987200  0.511300  1.0  0.1161
  H  H42  1  0.361200  0.996000  0.437200  1.0  0.0949
  H  H43  1  0.555000  0.783100  0.503800  1.0  0.1255
  H  H44  1  0.622500  0.751600  0.562300  1.0  0.0891
  H  H45  1  0.765000  0.878900  0.586800  1.0  0.0754
  H  H46  1  0.697500  0.915400  0.529200  1.0  0.1356
  H  H47  1  0.216200  0.458300  0.643700  1.0  0.0952
  H  H48  1  0.277500  0.543500  0.663200  1.0  0.1179
  H  H49  1  0.121400  0.601500  0.655800  1.0  0.1291
  H  H50  1  0.725800  0.573800  0.598800  1.0  0.1262
  H  H51  1  0.629500  0.498300  0.573400  1.0  0.1161
  H  H52  1  0.753900  0.425100  0.580400  1.0  0.0929
  H  H53  1  0.811000  0.596300  0.679900  1.0  0.1249
  H  H54  1  0.761900  0.679600  0.686800  1.0  0.0714
  H  H55  1  0.946900  0.719800  0.599000  1.0  0.0746
  H  H56  1  0.004700  0.638400  0.589800  1.0  0.1107
  H  H57  1  0.805500  0.469800  0.671400  1.0  0.0979
  H  H58  1  0.793900  0.450500  0.745300  1.0  0.115
  H  H59  1  0.948400  0.396900  0.761900  1.0  0.1076
  H  H60  1  0.258300  0.312900  0.671500  1.0  0.1185
  H  H61  1  0.306600  0.322100  0.599500  1.0  0.1138
  H  H62  1  0.171200  0.380000  0.569000  1.0  0.0916
  H  H63  1  0.994900  0.302800  0.744200  1.0  0.1126
  H  H64  1  0.061300  0.268100  0.802200  1.0  0.0898
  H  H65  1  0.326200  0.344800  0.790200  1.0  0.0887
  H  H66  1  0.266500  0.380800  0.731600  1.0  0.1338
  H  H67  1  0.852400  0.346900  0.656000  1.0  0.1031
  H  H68  1  0.748900  0.281200  0.619700  1.0  0.1121
  H  H69  1  0.773500  0.296200  0.546300  1.0  0.1198
  H  H70  1  0.037600  0.420400  0.465300  1.0  0.1192
  H  H71  1  0.164700  0.487200  0.488700  1.0  0.1153
  H  H72  1  0.138800  0.496000  0.562800  1.0  0.0951
  H  H73  1  0.945000  0.283100  0.496200  1.0  0.1252
  H  H74  1  0.877500  0.251600  0.437700  1.0  0.0884
  H  H75  1  0.735000  0.378900  0.413200  1.0  0.0762
  H  H76  1  0.802500  0.415400  0.470800  1.0  0.1352
  H  H77  1  0.783800  0.458300  0.143700  1.0  0.0947
  H  H78  1  0.722500  0.543500  0.163200  1.0  0.1183
  H  H79  1  0.878600  0.601500  0.155800  1.0  0.1296
  H  H80  1  0.274200  0.573800  0.098800  1.0  0.1257
  H  H81  1  0.370500  0.498300  0.073400  1.0  0.1171
  H  H82  1  0.246100  0.425100  0.080400  1.0  0.0936
  H  H83  1  0.189000  0.596300  0.179900  1.0  0.1248
  H  H84  1  0.238100  0.679600  0.186800  1.0  0.0707
  H  H85  1  0.053100  0.719800  0.099000  1.0  0.0743
  H  H86  1  0.995300  0.638400  0.089800  1.0  0.1103
  H  H87  1  0.194500  0.469800  0.171400  1.0  0.0972
  H  H88  1  0.206100  0.450500  0.245300  1.0  0.1144
  H  H89  1  0.051600  0.396900  0.261900  1.0  0.1075
  H  H90  1  0.741700  0.312900  0.171500  1.0  0.1188
  H  H91  1  0.693400  0.322100  0.099500  1.0  0.1133
  H  H92  1  0.828800  0.380000  0.069000  1.0  0.0913
  H  H93  1  0.005100  0.302800  0.244200  1.0  0.1123
  H  H94  1  0.938700  0.268100  0.302200  1.0  0.0896
  H  H95  1  0.673800  0.344800  0.290200  1.0  0.0892
  H  H96  1  0.733500  0.380800  0.231600  1.0  0.1341
  H  H97  1  0.147600  0.346900  0.156000  1.0  0.1031
  H  H98  1  0.251100  0.281200  0.119700  1.0  0.1111
  H  H99  1  0.226500  0.296200  0.046300  1.0  0.1201
  H  H100  1  0.962400  0.420400  0.965300  1.0  0.1193
  H  H101  1  0.835300  0.487200  0.988700  1.0  0.1157
  H  H102  1  0.861200  0.496000  0.062800  1.0  0.0951
  H  H103  1  0.055000  0.283100  0.996200  1.0  0.126
  H  H104  1  0.122500  0.251600  0.937700  1.0  0.0887
  H  H105  1  0.265000  0.378900  0.913200  1.0  0.0758
  H  H106  1  0.197500  0.415400  0.970800  1.0  0.1356
  H  H107  1  0.716200  0.958300  0.856300  1.0  0.0954
  H  H108  1  0.777500  0.043500  0.836800  1.0  0.1181
  H  H109  1  0.621400  0.101500  0.844200  1.0  0.1299
  H  H110  1  0.225800  0.073800  0.901200  1.0  0.1257
  H  H111  1  0.129500  0.998300  0.926600  1.0  0.117
  H  H112  1  0.253900  0.925100  0.919600  1.0  0.0934
  H  H113  1  0.311000  0.096300  0.820100  1.0  0.1241
  H  H114  1  0.261900  0.179600  0.813200  1.0  0.0711
  H  H115  1  0.446900  0.219800  0.901000  1.0  0.0747
  H  H116  1  0.504700  0.138400  0.910200  1.0  0.1107
  H  H117  1  0.305500  0.969800  0.828600  1.0  0.0976
  H  H118  1  0.293900  0.950500  0.754700  1.0  0.115
  H  H119  1  0.448400  0.896900  0.738100  1.0  0.1069
  H  H120  1  0.758300  0.812900  0.828500  1.0  0.1183
  H  H121  1  0.806600  0.822100  0.900500  1.0  0.1137
  H  H122  1  0.671200  0.880000  0.931000  1.0  0.0913
  H  H123  1  0.494900  0.802800  0.755800  1.0  0.1125
  H  H124  1  0.561300  0.768100  0.697800  1.0  0.0894
  H  H125  1  0.826200  0.844800  0.709800  1.0  0.0889
  H  H126  1  0.766500  0.880800  0.768400  1.0  0.1335
  H  H127  1  0.352400  0.846900  0.844000  1.0  0.103
  H  H128  1  0.248900  0.781200  0.880300  1.0  0.1112
  H  H129  1  0.273500  0.796200  0.953700  1.0  0.1204
  H  H130  1  0.537600  0.920400  0.034700  1.0  0.1189
  H  H131  1  0.664700  0.987200  0.011300  1.0  0.1158
  H  H132  1  0.638800  0.996000  0.937200  1.0  0.0945
  H  H133  1  0.445000  0.783100  0.003800  1.0  0.1251
  H  H134  1  0.377500  0.751600  0.062300  1.0  0.0889
  H  H135  1  0.235000  0.878900  0.086800  1.0  0.0758
  H  H136  1  0.302500  0.915400  0.029200  1.0  0.1352
  H  H137  1  0.216200  0.541700  0.856300  1.0  0.0948
  H  H138  1  0.277500  0.456500  0.836800  1.0  0.1176
  H  H139  1  0.121400  0.398500  0.844200  1.0  0.1296
  H  H140  1  0.725800  0.426200  0.901200  1.0  0.126
  H  H141  1  0.629500  0.501700  0.926600  1.0  0.117
  H  H142  1  0.753900  0.574900  0.919600  1.0  0.0937
  H  H143  1  0.811000  0.403700  0.820100  1.0  0.1241
  H  H144  1  0.761900  0.320400  0.813200  1.0  0.0711
  H  H145  1  0.946900  0.280200  0.901000  1.0  0.0759
  H  H146  1  0.004700  0.361600  0.910200  1.0  0.1105
  H  H147  1  0.805500  0.530200  0.828600  1.0  0.0975
  H  H148  1  0.793900  0.549500  0.754700  1.0  0.1149
  H  H149  1  0.948400  0.603100  0.738100  1.0  0.109
  H  H150  1  0.258300  0.687100  0.828500  1.0  0.119
  H  H151  1  0.306600  0.677900  0.900500  1.0  0.1136
  H  H152  1  0.171200  0.620000  0.931000  1.0  0.0914
  H  H153  1  0.994900  0.697200  0.755800  1.0  0.112
  H  H154  1  0.061300  0.731900  0.697800  1.0  0.0903
  H  H155  1  0.326200  0.655200  0.709800  1.0  0.0886
  H  H156  1  0.266500  0.619200  0.768400  1.0  0.1333
  H  H157  1  0.852400  0.653100  0.844000  1.0  0.1029
  H  H158  1  0.748900  0.718800  0.880300  1.0  0.1112
  H  H159  1  0.773500  0.703800  0.953700  1.0  0.1199
  H  H160  1  0.037600  0.579600  0.034700  1.0  0.1185
  H  H161  1  0.164700  0.512800  0.011300  1.0  0.1161
  H  H162  1  0.138800  0.504000  0.937200  1.0  0.0945
  H  H163  1  0.945000  0.716900  0.003800  1.0  0.1262
  H  H164  1  0.877500  0.748400  0.062300  1.0  0.0885
  H  H165  1  0.735000  0.621100  0.086800  1.0  0.0758
  H  H166  1  0.802500  0.584600  0.029200  1.0  0.1348
  H  H167  1  0.283800  0.041700  0.143700  1.0  0.0949
  H  H168  1  0.222500  0.956500  0.163200  1.0  0.118
  H  H169  1  0.378600  0.898500  0.155800  1.0  0.1302
  H  H170  1  0.774200  0.926200  0.098800  1.0  0.1259
  H  H171  1  0.870500  0.001700  0.073400  1.0  0.1171
  H  H172  1  0.746100  0.074900  0.080400  1.0  0.0945
  H  H173  1  0.689000  0.903700  0.179900  1.0  0.1242
  H  H174  1  0.738100  0.820400  0.186800  1.0  0.0707
  H  H175  1  0.553100  0.780200  0.099000  1.0  0.0752
  H  H176  1  0.495300  0.861600  0.089800  1.0  0.1098
  H  H177  1  0.694500  0.030200  0.171400  1.0  0.0973
  H  H178  1  0.706100  0.049500  0.245300  1.0  0.1145
  H  H179  1  0.551600  0.103100  0.261900  1.0  0.1095
  H  H180  1  0.241700  0.187100  0.171500  1.0  0.1191
  H  H181  1  0.193400  0.177900  0.099500  1.0  0.113
  H  H182  1  0.328800  0.120000  0.069000  1.0  0.0912
  H  H183  1  0.505100  0.197200  0.244200  1.0  0.1128
  H  H184  1  0.438700  0.231900  0.302200  1.0  0.0893
  H  H185  1  0.173800  0.155200  0.290200  1.0  0.0895
  H  H186  1  0.233500  0.119200  0.231600  1.0  0.1333
  H  H187  1  0.647600  0.153100  0.156000  1.0  0.1031
  H  H188  1  0.751100  0.218800  0.119700  1.0  0.1102
  H  H189  1  0.726500  0.203800  0.046300  1.0  0.1201
  H  H190  1  0.462400  0.079600  0.965300  1.0  0.1191
  H  H191  1  0.335300  0.012800  0.988700  1.0  0.116
  H  H192  1  0.361200  0.004000  0.062800  1.0  0.0948
  H  H193  1  0.555000  0.216900  0.996200  1.0  0.1259
  H  H194  1  0.622500  0.248400  0.937700  1.0  0.0891
  H  H195  1  0.765000  0.121100  0.913200  1.0  0.0751
  H  H196  1  0.697500  0.084600  0.970800  1.0  0.1352
  H  H197  1  0.716200  0.041700  0.643700  1.0  0.0945
  H  H198  1  0.777500  0.956500  0.663200  1.0  0.1175
  H  H199  1  0.621400  0.898500  0.655800  1.0  0.1295
  H  H200  1  0.225800  0.926200  0.598800  1.0  0.1261
  H  H201  1  0.129500  0.001700  0.573400  1.0  0.116
  H  H202  1  0.253900  0.074900  0.580400  1.0  0.0938
  H  H203  1  0.311000  0.903700  0.679900  1.0  0.1245
  H  H204  1  0.261900  0.820400  0.686800  1.0  0.0717
  H  H205  1  0.446900  0.780200  0.599000  1.0  0.0758
  H  H206  1  0.504700  0.861600  0.589800  1.0  0.1105
  H  H207  1  0.305500  0.030200  0.671400  1.0  0.0977
  H  H208  1  0.293900  0.049500  0.745300  1.0  0.1151
  H  H209  1  0.448400  0.103100  0.761900  1.0  0.1096
  H  H210  1  0.758300  0.187100  0.671500  1.0  0.1189
  H  H211  1  0.806600  0.177900  0.599500  1.0  0.1135
  H  H212  1  0.671200  0.120000  0.569000  1.0  0.0916
  H  H213  1  0.494900  0.197200  0.744200  1.0  0.1125
  H  H214  1  0.561300  0.231900  0.802200  1.0  0.0901
  H  H215  1  0.826200  0.155200  0.790200  1.0  0.0886
  H  H216  1  0.766500  0.119200  0.731600  1.0  0.1334
  H  H217  1  0.352400  0.153100  0.656000  1.0  0.1029
  H  H218  1  0.248900  0.218800  0.619700  1.0  0.1113
  H  H219  1  0.273500  0.203800  0.546300  1.0  0.12
  H  H220  1  0.537600  0.079600  0.465300  1.0  0.1192
  H  H221  1  0.664700  0.012800  0.488700  1.0  0.1157
  H  H222  1  0.638800  0.004000  0.562800  1.0  0.0952
  H  H223  1  0.445000  0.216900  0.496200  1.0  0.1251
  H  H224  1  0.377500  0.248400  0.437700  1.0  0.0886
  H  H225  1  0.235000  0.121100  0.413200  1.0  0.0758
  H  H226  1  0.302500  0.084600  0.470800  1.0  0.1348
  H  H227  1  0.783800  0.541700  0.356300  1.0  0.0949
  H  H228  1  0.722500  0.456500  0.336800  1.0  0.1178
  H  H229  1  0.878600  0.398500  0.344200  1.0  0.1298
  H  H230  1  0.274200  0.426200  0.401200  1.0  0.1259
  H  H231  1  0.370500  0.501700  0.426600  1.0  0.1173
  H  H232  1  0.246100  0.574900  0.419600  1.0  0.0941
  H  H233  1  0.189000  0.403700  0.320100  1.0  0.124
  H  H234  1  0.238100  0.320400  0.313200  1.0  0.0704
  H  H235  1  0.053100  0.280200  0.401000  1.0  0.0753
  H  H236  1  0.995300  0.361600  0.410200  1.0  0.1101
  H  H237  1  0.194500  0.530200  0.328600  1.0  0.0978
  H  H238  1  0.206100  0.549500  0.254700  1.0  0.1149
  H  H239  1  0.051600  0.603100  0.238100  1.0  0.1094
  H  H240  1  0.741700  0.687100  0.328500  1.0  0.119
  H  H241  1  0.693400  0.677900  0.400500  1.0  0.1137
  H  H242  1  0.828800  0.620000  0.431000  1.0  0.0915
  H  H243  1  0.005100  0.697200  0.255800  1.0  0.1125
  H  H244  1  0.938700  0.731900  0.197800  1.0  0.0895
  H  H245  1  0.673800  0.655200  0.209800  1.0  0.0887
  H  H246  1  0.733500  0.619200  0.268400  1.0  0.1334
  H  H247  1  0.147600  0.653100  0.344000  1.0  0.103
  H  H248  1  0.251100  0.718800  0.380300  1.0  0.1109
  H  H249  1  0.226500  0.703800  0.453700  1.0  0.1194
  H  H250  1  0.962400  0.579600  0.534700  1.0  0.1185
  H  H251  1  0.835300  0.512800  0.511300  1.0  0.1164
  H  H252  1  0.861200  0.504000  0.437200  1.0  0.0946
  H  H253  1  0.055000  0.716900  0.503800  1.0  0.127
  H  H254  1  0.122500  0.748400  0.562300  1.0  0.0888
  H  H255  1  0.265000  0.621100  0.586800  1.0  0.0751
  H  H256  1  0.197500  0.584600  0.529200  1.0  0.1354
  C  C257  1  0.326800  0.987530  0.356960  1.0  0.0297
  C  C258  1  0.291800  0.034860  0.345680  1.0  -0.0928
  C  C259  1  0.377300  0.066700  0.349970  1.0  -0.1794
  C  C260  1  0.462800  0.037500  0.364700  1.0  0.1689
  C  C261  1  0.564600  0.053990  0.374760  1.0  -0.1009
  C  C262  1  0.643900  0.024530  0.391100  1.0  0.198
  C  C263  1  0.747200  0.040660  0.402710  1.0  -0.1784
  C  C264  1  0.800000  0.999400  0.416410  1.0  -0.0902
  C  C265  1  0.729400  0.958630  0.412460  1.0  -0.0004
  C  C266  1  0.590500  0.107480  0.367860  1.0  0.1124
  C  C267  1  0.661000  0.120880  0.337680  1.0  -0.2047
  C  C268  1  0.689600  0.170850  0.333790  1.0  0.1519
  C  C269  1  0.582200  0.194260  0.384590  1.0  0.1627
  C  C270  1  0.547800  0.145490  0.390600  1.0  -0.2188
  C  C271  1  0.645800  0.949480  0.314160  1.0  0.001
  C  C272  1  0.652900  0.939040  0.272690  1.0  -0.1527
  C  C273  1  0.568900  0.909510  0.263800  1.0  -0.1659
  C  C274  1  0.511000  0.900650  0.299640  1.0  0.19
  C  C275  1  0.420600  0.871690  0.304440  1.0  -0.1086
  C  C276  1  0.366500  0.864310  0.340320  1.0  0.1697
  C  C277  1  0.277100  0.833230  0.347660  1.0  -0.1785
  C  C278  1  0.250900  0.837800  0.387030  1.0  -0.1144
  C  C279  1  0.326900  0.870590  0.403600  1.0  0.0283
  C  C280  1  0.378200  0.846340  0.267940  1.0  0.105
  C  C281  1  0.436600  0.812320  0.246560  1.0  -0.1119
  C  C282  1  0.397000  0.791870  0.211890  1.0  0.1336
  C  C283  1  0.242900  0.836700  0.219210  1.0  0.1506
  C  C284  1  0.277600  0.858200  0.254060  1.0  -0.2237
  C  C285  1  0.649900  0.843170  0.372180  1.0  0.0257
  C  C286  1  0.708900  0.806600  0.392250  1.0  -0.1018
  C  C287  1  0.694300  0.814300  0.432480  1.0  -0.1687
  C  C288  1  0.621600  0.854830  0.436240  1.0  0.1652
  C  C289  1  0.581000  0.875330  0.471320  1.0  -0.1006
  C  C290  1  0.508000  0.914490  0.473750  1.0  0.1406
  C  C291  1  0.453100  0.931800  0.508040  1.0  -0.173
  C  C292  1  0.383400  0.968560  0.495220  1.0  -0.0928
  C  C293  1  0.398200  0.972820  0.453650  1.0  0.0263
  C  C294  1  0.619800  0.852860  0.509350  1.0  0.084
  C  C295  1  0.598000  0.803640  0.520370  1.0  -0.1901
  C  C296  1  0.638800  0.785150  0.555170  1.0  0.1395
  C  C297  1  0.721400  0.859330  0.569670  1.0  0.1559
  C  C298  1  0.682100  0.881420  0.535130  1.0  -0.1705
  C  C299  1  0.173200  0.487530  0.643040  1.0  0.0317
  C  C300  1  0.208200  0.534860  0.654320  1.0  -0.0947
  C  C301  1  0.122700  0.566700  0.650030  1.0  -0.1792
  C  C302  1  0.037200  0.537500  0.635300  1.0  0.1698
  C  C303  1  0.935400  0.553990  0.625240  1.0  -0.1018
  C  C304  1  0.856100  0.524530  0.608900  1.0  0.1979
  C  C305  1  0.752800  0.540660  0.597290  1.0  -0.1784
  C  C306  1  0.700000  0.499400  0.583590  1.0  -0.0912
  C  C307  1  0.770600  0.458630  0.587540  1.0  -0.0014
  C  C308  1  0.909500  0.607480  0.632140  1.0  0.1112
  C  C309  1  0.839000  0.620880  0.662320  1.0  -0.2066
  C  C310  1  0.810400  0.670850  0.666210  1.0  0.1506
  C  C311  1  0.917800  0.694260  0.615410  1.0  0.1633
  C  C312  1  0.952200  0.645490  0.609400  1.0  -0.2197
  C  C313  1  0.854200  0.449480  0.685840  1.0  -0.0009
  C  C314  1  0.847100  0.439040  0.727310  1.0  -0.1534
  C  C315  1  0.931100  0.409510  0.736200  1.0  -0.1651
  C  C316  1  0.989000  0.400650  0.700360  1.0  0.1905
  C  C317  1  0.079400  0.371690  0.695560  1.0  -0.109
  C  C318  1  0.133500  0.364310  0.659680  1.0  0.1692
  C  C319  1  0.222900  0.333230  0.652340  1.0  -0.1765
  C  C320  1  0.249100  0.337800  0.612970  1.0  -0.1129
  C  C321  1  0.173100  0.370590  0.596400  1.0  0.0271
  C  C322  1  0.121800  0.346340  0.732060  1.0  0.1062
  C  C323  1  0.063400  0.312320  0.753440  1.0  -0.1119
  C  C324  1  0.103000  0.291870  0.788110  1.0  0.1341
  C  C325  1  0.257100  0.336700  0.780790  1.0  0.1517
  C  C326  1  0.222400  0.358200  0.745940  1.0  -0.221
  C  C327  1  0.850100  0.343170  0.627820  1.0  0.0254
  C  C328  1  0.791100  0.306600  0.607750  1.0  -0.1006
  C  C329  1  0.805700  0.314300  0.567520  1.0  -0.1694
  C  C330  1  0.878400  0.354830  0.563760  1.0  0.1658
  C  C331  1  0.919000  0.375330  0.528680  1.0  -0.1002
  C  C332  1  0.992000  0.414490  0.526250  1.0  0.1413
  C  C333  1  0.046900  0.431800  0.491960  1.0  -0.1743
  C  C334  1  0.116600  0.468560  0.504780  1.0  -0.0915
  C  C335  1  0.101800  0.472820  0.546350  1.0  0.0281
  C  C336  1  0.880200  0.352860  0.490650  1.0  0.0822
  C  C337  1  0.902000  0.303640  0.479630  1.0  -0.1921
  C  C338  1  0.861200  0.285150  0.444830  1.0  0.1419
  C  C339  1  0.778600  0.359330  0.430330  1.0  0.1567
  C  C340  1  0.817900  0.381420  0.464870  1.0  -0.173
  C  C341  1  0.826800  0.487530  0.143040  1.0  0.0299
  C  C342  1  0.791800  0.534860  0.154320  1.0  -0.0931
  C  C343  1  0.877300  0.566700  0.150030  1.0  -0.179
  C  C344  1  0.962800  0.537500  0.135300  1.0  0.1693
  C  C345  1  0.064600  0.553990  0.125240  1.0  -0.101
  C  C346  1  0.143900  0.524530  0.108900  1.0  0.1979
  C  C347  1  0.247200  0.540660  0.097290  1.0  -0.1784
  C  C348  1  0.300000  0.499400  0.083590  1.0  -0.0899
  C  C349  1  0.229400  0.458630  0.087540  1.0  -0.0008
  C  C350  1  0.090500  0.607480  0.132140  1.0  0.1122
  C  C351  1  0.161000  0.620880  0.162320  1.0  -0.2048
  C  C352  1  0.189600  0.670850  0.166210  1.0  0.1514
  C  C353  1  0.082200  0.694260  0.115410  1.0  0.1633
  C  C354  1  0.047800  0.645490  0.109400  1.0  -0.2195
  C  C355  1  0.145800  0.449480  0.185840  1.0  -0.0009
  C  C356  1  0.152900  0.439040  0.227310  1.0  -0.1517
  C  C357  1  0.068900  0.409510  0.236200  1.0  -0.1656
  C  C358  1  0.011000  0.400650  0.200360  1.0  0.1903
  C  C359  1  0.920600  0.371690  0.195560  1.0  -0.1082
  C  C360  1  0.866500  0.364310  0.159680  1.0  0.1697
  C  C361  1  0.777100  0.333230  0.152340  1.0  -0.1781
  C  C362  1  0.750900  0.337800  0.112970  1.0  -0.114
  C  C363  1  0.826900  0.370590  0.096400  1.0  0.0264
  C  C364  1  0.878200  0.346340  0.232060  1.0  0.1051
  C  C365  1  0.936600  0.312320  0.253440  1.0  -0.1123
  C  C366  1  0.897000  0.291870  0.288110  1.0  0.1352
  C  C367  1  0.742900  0.336700  0.280790  1.0  0.151
  C  C368  1  0.777600  0.358200  0.245940  1.0  -0.2228
  C  C369  1  0.149900  0.343170  0.127820  1.0  0.0259
  C  C370  1  0.208900  0.306600  0.107750  1.0  -0.1016
  C  C371  1  0.194300  0.314300  0.067520  1.0  -0.169
  C  C372  1  0.121600  0.354830  0.063760  1.0  0.1656
  C  C373  1  0.081000  0.375330  0.028680  1.0  -0.1003
  C  C374  1  0.008000  0.414490  0.026250  1.0  0.1408
  C  C375  1  0.953100  0.431800  0.991960  1.0  -0.1735
  C  C376  1  0.883400  0.468560  0.004780  1.0  -0.0933
  C  C377  1  0.898200  0.472820  0.046350  1.0  0.0266
  C  C378  1  0.119800  0.352860  0.990650  1.0  0.0832
  C  C379  1  0.098000  0.303640  0.979630  1.0  -0.1911
  C  C380  1  0.138800  0.285150  0.944830  1.0  0.1398
  C  C381  1  0.221400  0.359330  0.930330  1.0  0.1545
  C  C382  1  0.182100  0.381420  0.964870  1.0  -0.1709
  C  C383  1  0.673200  0.987530  0.856960  1.0  0.0318
  C  C384  1  0.708200  0.034860  0.845680  1.0  -0.0948
  C  C385  1  0.622700  0.066700  0.849970  1.0  -0.1797
  C  C386  1  0.537200  0.037500  0.864700  1.0  0.1695
  C  C387  1  0.435400  0.053990  0.874760  1.0  -0.102
  C  C388  1  0.356100  0.024530  0.891100  1.0  0.1982
  C  C389  1  0.252800  0.040660  0.902710  1.0  -0.1789
  C  C390  1  0.200000  0.999400  0.916410  1.0  -0.0914
  C  C391  1  0.270600  0.958630  0.912460  1.0  -0.001
  C  C392  1  0.409500  0.107480  0.867860  1.0  0.1114
  C  C393  1  0.339000  0.120880  0.837680  1.0  -0.2067
  C  C394  1  0.310400  0.170850  0.833790  1.0  0.1499
  C  C395  1  0.417800  0.194260  0.884590  1.0  0.1628
  C  C396  1  0.452200  0.145490  0.890600  1.0  -0.219
  C  C397  1  0.354200  0.949480  0.814160  1.0  1e-04
  C  C398  1  0.347100  0.939040  0.772690  1.0  -0.1532
  C  C399  1  0.431100  0.909510  0.763800  1.0  -0.166
  C  C400  1  0.489000  0.900650  0.799640  1.0  0.1903
  C  C401  1  0.579400  0.871690  0.804440  1.0  -0.1093
  C  C402  1  0.633500  0.864310  0.840320  1.0  0.1696
  C  C403  1  0.722900  0.833230  0.847660  1.0  -0.1771
  C  C404  1  0.749100  0.837800  0.887030  1.0  -0.1128
  C  C405  1  0.673100  0.870590  0.903600  1.0  0.0283
  C  C406  1  0.621800  0.846340  0.767940  1.0  0.1057
  C  C407  1  0.563400  0.812320  0.746560  1.0  -0.1113
  C  C408  1  0.603000  0.791870  0.711890  1.0  0.1326
  C  C409  1  0.757100  0.836700  0.719210  1.0  0.1513
  C  C410  1  0.722400  0.858200  0.754060  1.0  -0.2213
  C  C411  1  0.350100  0.843170  0.872180  1.0  0.0254
  C  C412  1  0.291100  0.806600  0.892250  1.0  -0.1009
  C  C413  1  0.305700  0.814300  0.932480  1.0  -0.1696
  C  C414  1  0.378400  0.854830  0.936240  1.0  0.1656
  C  C415  1  0.419000  0.875330  0.971320  1.0  -0.1005
  C  C416  1  0.492000  0.914490  0.973750  1.0  0.1413
  C  C417  1  0.546900  0.931800  0.008040  1.0  -0.1735
  C  C418  1  0.616600  0.968560  0.995220  1.0  -0.0907
  C  C419  1  0.601800  0.972820  0.953650  1.0  0.0276
  C  C420  1  0.380200  0.852860  0.009350  1.0  0.083
  C  C421  1  0.402000  0.803640  0.020370  1.0  -0.1907
  C  C422  1  0.361200  0.785150  0.055170  1.0  0.1415
  C  C423  1  0.278600  0.859330  0.069670  1.0  0.1582
  C  C424  1  0.317900  0.881420  0.035130  1.0  -0.1719
  C  C425  1  0.173200  0.512470  0.856960  1.0  0.0328
  C  C426  1  0.208200  0.465140  0.845680  1.0  -0.0952
  C  C427  1  0.122700  0.433300  0.849970  1.0  -0.1804
  C  C428  1  0.037200  0.462500  0.864700  1.0  0.1695
  C  C429  1  0.935400  0.446010  0.874760  1.0  -0.1022
  C  C430  1  0.856100  0.475470  0.891100  1.0  0.1976
  C  C431  1  0.752800  0.459340  0.902710  1.0  -0.1807
  C  C432  1  0.700000  0.500600  0.916410  1.0  -0.0911
  C  C433  1  0.770600  0.541370  0.912460  1.0  -0.0009
  C  C434  1  0.909500  0.392520  0.867860  1.0  0.112
  C  C435  1  0.839000  0.379120  0.837680  1.0  -0.2073
  C  C436  1  0.810400  0.329150  0.833790  1.0  0.1493
  C  C437  1  0.917800  0.305740  0.884590  1.0  0.165
  C  C438  1  0.952200  0.354510  0.890600  1.0  -0.2193
  C  C439  1  0.854200  0.550520  0.814160  1.0  0.0009
  C  C440  1  0.847100  0.560960  0.772690  1.0  -0.1531
  C  C441  1  0.931100  0.590490  0.763800  1.0  -0.1659
  C  C442  1  0.989000  0.599350  0.799640  1.0  0.1905
  C  C443  1  0.079400  0.628310  0.804440  1.0  -0.1088
  C  C444  1  0.133500  0.635690  0.840320  1.0  0.1701
  C  C445  1  0.222900  0.666770  0.847660  1.0  -0.1772
  C  C446  1  0.249100  0.662200  0.887030  1.0  -0.1124
  C  C447  1  0.173100  0.629410  0.903600  1.0  0.0285
  C  C448  1  0.121800  0.653660  0.767940  1.0  0.1055
  C  C449  1  0.063400  0.687680  0.746560  1.0  -0.1121
  C  C450  1  0.103000  0.708130  0.711890  1.0  0.1321
  C  C451  1  0.257100  0.663300  0.719210  1.0  0.1517
  C  C452  1  0.222400  0.641800  0.754060  1.0  -0.2201
  C  C453  1  0.850100  0.656830  0.872180  1.0  0.0255
  C  C454  1  0.791100  0.693400  0.892250  1.0  -0.1017
  C  C455  1  0.805700  0.685700  0.932480  1.0  -0.1709
  C  C456  1  0.878400  0.645170  0.936240  1.0  0.1654
  C  C457  1  0.919000  0.624670  0.971320  1.0  -0.1
  C  C458  1  0.992000  0.585510  0.973750  1.0  0.1411
  C  C459  1  0.046900  0.568200  0.008040  1.0  -0.1733
  C  C460  1  0.116600  0.531440  0.995220  1.0  -0.0907
  C  C461  1  0.101800  0.527180  0.953650  1.0  0.0264
  C  C462  1  0.880200  0.647140  0.009350  1.0  0.0829
  C  C463  1  0.902000  0.696360  0.020370  1.0  -0.1926
  C  C464  1  0.861200  0.714850  0.055170  1.0  0.1413
  C  C465  1  0.778600  0.640670  0.069670  1.0  0.1576
  C  C466  1  0.817900  0.618580  0.035130  1.0  -0.1701
  C  C467  1  0.326800  0.012470  0.143040  1.0  0.0304
  C  C468  1  0.291800  0.965140  0.154320  1.0  -0.093
  C  C469  1  0.377300  0.933300  0.150030  1.0  -0.179
  C  C470  1  0.462800  0.962500  0.135300  1.0  0.1695
  C  C471  1  0.564600  0.946010  0.125240  1.0  -0.101
  C  C472  1  0.643900  0.975470  0.108900  1.0  0.1974
  C  C473  1  0.747200  0.959340  0.097290  1.0  -0.181
  C  C474  1  0.800000  0.000600  0.083590  1.0  -0.0897
  C  C475  1  0.729400  0.041370  0.087540  1.0  -0.0006
  C  C476  1  0.590500  0.892520  0.132140  1.0  0.1127
  C  C477  1  0.661000  0.879120  0.162320  1.0  -0.2054
  C  C478  1  0.689600  0.829150  0.166210  1.0  0.1511
  C  C479  1  0.582200  0.805740  0.115410  1.0  0.1639
  C  C480  1  0.547800  0.854510  0.109400  1.0  -0.22
  C  C481  1  0.645800  0.050520  0.185840  1.0  0.0002
  C  C482  1  0.652900  0.060960  0.227310  1.0  -0.1514
  C  C483  1  0.568900  0.090490  0.236200  1.0  -0.1656
  C  C484  1  0.511000  0.099350  0.200360  1.0  0.1901
  C  C485  1  0.420600  0.128310  0.195560  1.0  -0.1078
  C  C486  1  0.366500  0.135690  0.159680  1.0  0.1701
  C  C487  1  0.277100  0.166770  0.152340  1.0  -0.1794
  C  C488  1  0.250900  0.162200  0.112970  1.0  -0.1133
  C  C489  1  0.326900  0.129410  0.096400  1.0  0.0271
  C  C490  1  0.378200  0.153660  0.232060  1.0  0.1041
  C  C491  1  0.436600  0.187680  0.253440  1.0  -0.1107
  C  C492  1  0.397000  0.208130  0.288110  1.0  0.1333
  C  C493  1  0.242900  0.163300  0.280790  1.0  0.151
  C  C494  1  0.277600  0.141800  0.245940  1.0  -0.2231
  C  C495  1  0.649900  0.156830  0.127820  1.0  0.0265
  C  C496  1  0.708900  0.193400  0.107750  1.0  -0.1021
  C  C497  1  0.694300  0.185700  0.067520  1.0  -0.1704
  C  C498  1  0.621600  0.145170  0.063760  1.0  0.1654
  C  C499  1  0.581000  0.124670  0.028680  1.0  -0.0991
  C  C500  1  0.508000  0.085510  0.026250  1.0  0.1409
  C  C501  1  0.453100  0.068200  0.991960  1.0  -0.1728
  C  C502  1  0.383400  0.031440  0.004780  1.0  -0.0924
  C  C503  1  0.398200  0.027180  0.046350  1.0  0.0257
  C  C504  1  0.619800  0.147140  0.990650  1.0  0.0837
  C  C505  1  0.598000  0.196360  0.979630  1.0  -0.1943
  C  C506  1  0.638800  0.214850  0.944830  1.0  0.1398
  C  C507  1  0.721400  0.140670  0.930330  1.0  0.1538
  C  C508  1  0.682100  0.118580  0.964870  1.0  -0.1705
  C  C509  1  0.673200  0.012470  0.643040  1.0  0.0327
  C  C510  1  0.708200  0.965140  0.654320  1.0  -0.0953
  C  C511  1  0.622700  0.933300  0.650030  1.0  -0.1796
  C  C512  1  0.537200  0.962500  0.635300  1.0  0.1701
  C  C513  1  0.435400  0.946010  0.625240  1.0  -0.102
  C  C514  1  0.356100  0.975470  0.608900  1.0  0.1974
  C  C515  1  0.252800  0.959340  0.597290  1.0  -0.1807
  C  C516  1  0.200000  0.000600  0.583590  1.0  -0.0911
  C  C517  1  0.270600  0.041370  0.587540  1.0  -0.001
  C  C518  1  0.409500  0.892520  0.632140  1.0  0.112
  C  C519  1  0.339000  0.879120  0.662320  1.0  -0.2072
  C  C520  1  0.310400  0.829150  0.666210  1.0  0.1508
  C  C521  1  0.417800  0.805740  0.615410  1.0  0.1641
  C  C522  1  0.452200  0.854510  0.609400  1.0  -0.2203
  C  C523  1  0.354200  0.050520  0.685840  1.0  1e-04
  C  C524  1  0.347100  0.060960  0.727310  1.0  -0.153
  C  C525  1  0.431100  0.090490  0.736200  1.0  -0.165
  C  C526  1  0.489000  0.099350  0.700360  1.0  0.1903
  C  C527  1  0.579400  0.128310  0.695560  1.0  -0.1087
  C  C528  1  0.633500  0.135690  0.659680  1.0  0.1698
  C  C529  1  0.722900  0.166770  0.652340  1.0  -0.1775
  C  C530  1  0.749100  0.162200  0.612970  1.0  -0.1119
  C  C531  1  0.673100  0.129410  0.596400  1.0  0.0273
  C  C532  1  0.621800  0.153660  0.732060  1.0  0.1054
  C  C533  1  0.563400  0.187680  0.753440  1.0  -0.1126
  C  C534  1  0.603000  0.208130  0.788110  1.0  0.132
  C  C535  1  0.757100  0.163300  0.780790  1.0  0.1523
  C  C536  1  0.722400  0.141800  0.745940  1.0  -0.2202
  C  C537  1  0.350100  0.156830  0.627820  1.0  0.0254
  C  C538  1  0.291100  0.193400  0.607750  1.0  -0.1021
  C  C539  1  0.305700  0.185700  0.567520  1.0  -0.17
  C  C540  1  0.378400  0.145170  0.563760  1.0  0.1659
  C  C541  1  0.419000  0.124670  0.528680  1.0  -0.0997
  C  C542  1  0.492000  0.085510  0.526250  1.0  0.1414
  C  C543  1  0.546900  0.068200  0.491960  1.0  -0.174
  C  C544  1  0.616600  0.031440  0.504780  1.0  -0.0915
  C  C545  1  0.601800  0.027180  0.546350  1.0  0.027
  C  C546  1  0.380200  0.147140  0.490650  1.0  0.0829
  C  C547  1  0.402000  0.196360  0.479630  1.0  -0.1934
  C  C548  1  0.361200  0.214850  0.444830  1.0  0.1413
  C  C549  1  0.278600  0.140670  0.430330  1.0  0.1564
  C  C550  1  0.317900  0.118580  0.464870  1.0  -0.1704
  C  C551  1  0.826800  0.512470  0.356960  1.0  0.0302
  C  C552  1  0.791800  0.465140  0.345680  1.0  -0.0926
  C  C553  1  0.877300  0.433300  0.349970  1.0  -0.18
  C  C554  1  0.962800  0.462500  0.364700  1.0  0.169
  C  C555  1  0.064600  0.446010  0.374760  1.0  -0.1011
  C  C556  1  0.143900  0.475470  0.391100  1.0  0.1975
  C  C557  1  0.247200  0.459340  0.402710  1.0  -0.1808
  C  C558  1  0.300000  0.500600  0.416410  1.0  -0.0895
  C  C559  1  0.229400  0.541370  0.412460  1.0  -0.0004
  C  C560  1  0.090500  0.392520  0.367860  1.0  0.1129
  C  C561  1  0.161000  0.379120  0.337680  1.0  -0.2049
  C  C562  1  0.189600  0.329150  0.333790  1.0  0.1509
  C  C563  1  0.082200  0.305740  0.384590  1.0  0.1648
  C  C564  1  0.047800  0.354510  0.390600  1.0  -0.2191
  C  C565  1  0.145800  0.550520  0.314160  1.0  0.002
  C  C566  1  0.152900  0.560960  0.272690  1.0  -0.1524
  C  C567  1  0.068900  0.590490  0.263800  1.0  -0.1659
  C  C568  1  0.011000  0.599350  0.299640  1.0  0.1902
  C  C569  1  0.920600  0.628310  0.304440  1.0  -0.108
  C  C570  1  0.866500  0.635690  0.340320  1.0  0.17
  C  C571  1  0.777100  0.666770  0.347660  1.0  -0.1786
  C  C572  1  0.750900  0.662200  0.387030  1.0  -0.1147
  C  C573  1  0.826900  0.629410  0.403600  1.0  0.0281
  C  C574  1  0.878200  0.653660  0.267940  1.0  0.1045
  C  C575  1  0.936600  0.687680  0.246560  1.0  -0.1103
  C  C576  1  0.897000  0.708130  0.211890  1.0  0.133
  C  C577  1  0.742900  0.663300  0.219210  1.0  0.1504
  C  C578  1  0.777600  0.641800  0.254060  1.0  -0.2234
  C  C579  1  0.149900  0.656830  0.372180  1.0  0.0263
  C  C580  1  0.208900  0.693400  0.392250  1.0  -0.1016
  C  C581  1  0.194300  0.685700  0.432480  1.0  -0.1711
  C  C582  1  0.121600  0.645170  0.436240  1.0  0.1648
  C  C583  1  0.081000  0.624670  0.471320  1.0  -0.0994
  C  C584  1  0.008000  0.585510  0.473750  1.0  0.1406
  C  C585  1  0.953100  0.568200  0.508040  1.0  -0.1726
  C  C586  1  0.883400  0.531440  0.495220  1.0  -0.0922
  C  C587  1  0.898200  0.527180  0.453650  1.0  0.0255
  C  C588  1  0.119800  0.647140  0.509350  1.0  0.0838
  C  C589  1  0.098000  0.696360  0.520370  1.0  -0.1941
  C  C590  1  0.138800  0.714850  0.555170  1.0  0.1401
  C  C591  1  0.221400  0.640670  0.569670  1.0  0.1551
  C  C592  1  0.182100  0.618580  0.535130  1.0  -0.1706
  N  N593  1  0.428700  0.988060  0.368840  1.0  -0.3396
  N  N594  1  0.635900  0.973180  0.397340  1.0  -0.3214
  N  N595  1  0.653000  0.207180  0.357320  1.0  -0.2919
  N  N596  1  0.560900  0.926690  0.330320  1.0  -0.3247
  N  N597  1  0.395100  0.886660  0.376460  1.0  -0.3316
  N  N598  1  0.302500  0.804390  0.197590  1.0  -0.3098
  N  N599  1  0.597000  0.872190  0.398060  1.0  -0.3494
  N  N600  1  0.470700  0.940320  0.440100  1.0  -0.3299
  N  N601  1  0.701200  0.812100  0.580020  1.0  -0.3185
  N  N602  1  0.071300  0.488060  0.631160  1.0  -0.3374
  N  N603  1  0.864100  0.473180  0.602660  1.0  -0.3226
  N  N604  1  0.847000  0.707180  0.642680  1.0  -0.2907
  N  N605  1  0.939100  0.426690  0.669680  1.0  -0.3247
  N  N606  1  0.104900  0.386660  0.623540  1.0  -0.3308
  N  N607  1  0.197500  0.304390  0.802410  1.0  -0.3079
  N  N608  1  0.903000  0.372190  0.601940  1.0  -0.3493
  N  N609  1  0.029300  0.440320  0.559900  1.0  -0.3276
  N  N610  1  0.798800  0.312100  0.419980  1.0  -0.3235
  N  N611  1  0.928700  0.488060  0.131160  1.0  -0.3398
  N  N612  1  0.135900  0.473180  0.102660  1.0  -0.3213
  N  N613  1  0.153000  0.707180  0.142680  1.0  -0.2921
  N  N614  1  0.060900  0.426690  0.169680  1.0  -0.3242
  N  N615  1  0.895100  0.386660  0.123540  1.0  -0.3315
  N  N616  1  0.802500  0.304390  0.302410  1.0  -0.3077
  N  N617  1  0.097000  0.372190  0.101940  1.0  -0.3489
  N  N618  1  0.970700  0.440320  0.059900  1.0  -0.329
  N  N619  1  0.201200  0.312100  0.919980  1.0  -0.3223
  N  N620  1  0.571300  0.988060  0.868840  1.0  -0.337
  N  N621  1  0.364100  0.973180  0.897340  1.0  -0.3229
  N  N622  1  0.347000  0.207180  0.857320  1.0  -0.2906
  N  N623  1  0.439100  0.926690  0.830320  1.0  -0.3241
  N  N624  1  0.604900  0.886660  0.876460  1.0  -0.3309
  N  N625  1  0.697500  0.804390  0.697590  1.0  -0.3112
  N  N626  1  0.403000  0.872190  0.898060  1.0  -0.3497
  N  N627  1  0.529300  0.940320  0.940100  1.0  -0.328
  N  N628  1  0.298800  0.812100  0.080020  1.0  -0.3216
  N  N629  1  0.071300  0.511940  0.868840  1.0  -0.3372
  N  N630  1  0.864100  0.526820  0.897340  1.0  -0.3237
  N  N631  1  0.847000  0.292820  0.857320  1.0  -0.2939
  N  N632  1  0.939100  0.573310  0.830320  1.0  -0.324
  N  N633  1  0.104900  0.613340  0.876460  1.0  -0.3307
  N  N634  1  0.197500  0.695610  0.697590  1.0  -0.3111
  N  N635  1  0.903000  0.627810  0.898060  1.0  -0.3495
  N  N636  1  0.029300  0.559680  0.940100  1.0  -0.3279
  N  N637  1  0.798800  0.687900  0.080020  1.0  -0.3184
  N  N638  1  0.428700  0.011940  0.131160  1.0  -0.3396
  N  N639  1  0.635900  0.026820  0.102660  1.0  -0.3218
  N  N640  1  0.653000  0.792820  0.142680  1.0  -0.2923
  N  N641  1  0.560900  0.073310  0.169680  1.0  -0.3241
  N  N642  1  0.395100  0.113340  0.123540  1.0  -0.3311
  N  N643  1  0.302500  0.195610  0.302410  1.0  -0.3074
  N  N644  1  0.597000  0.127810  0.101940  1.0  -0.3488
  N  N645  1  0.470700  0.059680  0.059900  1.0  -0.3291
  N  N646  1  0.701200  0.187900  0.919980  1.0  -0.321
  N  N647  1  0.571300  0.011940  0.631160  1.0  -0.3373
  N  N648  1  0.364100  0.026820  0.602660  1.0  -0.3233
  N  N649  1  0.347000  0.792820  0.642680  1.0  -0.2942
  N  N650  1  0.439100  0.073310  0.669680  1.0  -0.3245
  N  N651  1  0.604900  0.113340  0.623540  1.0  -0.3304
  N  N652  1  0.697500  0.195610  0.802410  1.0  -0.3079
  N  N653  1  0.403000  0.127810  0.601940  1.0  -0.3495
  N  N654  1  0.529300  0.059680  0.559900  1.0  -0.3278
  N  N655  1  0.298800  0.187900  0.419980  1.0  -0.3199
  N  N656  1  0.928700  0.511940  0.368840  1.0  -0.3398
  N  N657  1  0.135900  0.526820  0.397340  1.0  -0.3219
  N  N658  1  0.153000  0.292820  0.357320  1.0  -0.2919
  N  N659  1  0.060900  0.573310  0.330320  1.0  -0.3246
  N  N660  1  0.895100  0.613340  0.376460  1.0  -0.3313
  N  N661  1  0.802500  0.695610  0.197590  1.0  -0.3086
  N  N662  1  0.097000  0.627810  0.398060  1.0  -0.3489
  N  N663  1  0.970700  0.559680  0.440100  1.0  -0.3296
  N  N664  1  0.201200  0.687900  0.580020  1.0  -0.3174
