# generated using pymatgen
data_CoH9C11(NO)2
_symmetry_space_group_name_H-M   'P 1'
_cell_length_a   8.13090000
_cell_length_b   10.51080000
_cell_length_c   11.41940000
_cell_angle_alpha   62.59900000
_cell_angle_beta   84.40850000
_cell_angle_gamma   77.77700000
_symmetry_Int_Tables_number   1
_chemical_formula_structural   CoH9C11(NO)2
_chemical_formula_sum   'Co2 H18 C22 N4 O4'
_cell_volume   846.79460609
_cell_formula_units_Z   2
loop_
 _symmetry_equiv_pos_site_id
 _symmetry_equiv_pos_as_xyz
  1  'x, y, z'
loop_
 _atom_site_type_symbol
 _atom_site_label
 _atom_site_symmetry_multiplicity
 _atom_site_fract_x
 _atom_site_fract_y
 _atom_site_fract_z
 _atom_site_occupancy
 _atom_site_charge
  Co  Co1  1  0.489930  0.688250  0.507580  1.0  0.7929
  Co  Co2  1  0.989930  0.195830  0.492420  1.0  0.7927
  H  H3  1  0.587800  0.569900  0.799000  1.0  0.0657
  H  H4  1  0.405500  0.378100  0.635000  1.0  0.0701
  H  H5  1  0.583500  0.373300  0.001400  1.0  0.1062
  H  H6  1  0.398600  0.178800  0.830000  1.0  0.0995
  H  H7  1  0.538100  0.211900  0.185600  1.0  0.1104
  H  H8  1  0.423000  0.986700  0.011200  1.0  0.1106
  H  H9  1  0.536700  0.009600  0.383800  1.0  0.065
  H  H10  1  0.419000  0.792900  0.216000  1.0  0.0627
  H  H11  1  0.702400  0.394300  0.541600  1.0  0.0013
  H  H12  1  0.087800  0.368900  0.201000  1.0  0.0651
  H  H13  1  0.905500  0.013100  0.365000  1.0  0.069
  H  H14  1  0.083500  0.374700  0.998600  1.0  0.1065
  H  H15  1  0.898600  0.008800  0.170000  1.0  0.0985
  H  H16  1  0.038100  0.397500  0.814400  1.0  0.1084
  H  H17  1  0.923000  0.997900  0.988800  1.0  0.1091
  H  H18  1  0.036700  0.393400  0.616200  1.0  0.0629
  H  H19  1  0.919000  0.008900  0.784000  1.0  0.0624
  H  H20  1  0.202400  0.935900  0.458400  1.0  0.0012
  C  C21  1  0.548100  0.490390  0.805020  1.0  0.1445
  C  C22  1  0.441900  0.377680  0.709840  1.0  0.1436
  C  C23  1  0.546000  0.371670  0.927860  1.0  -0.2188
  C  C24  1  0.437100  0.257620  0.826760  1.0  -0.2086
  C  C25  1  0.489000  0.251450  0.941500  1.0  0.0706
  C  C26  1  0.483200  0.123100  0.072200  1.0  0.0549
  C  C27  1  0.515600  0.127210  0.188780  1.0  -0.2201
  C  C28  1  0.446700  0.994630  0.085340  1.0  -0.2124
  C  C29  1  0.513700  0.005030  0.307740  1.0  0.1483
  C  C30  1  0.445700  0.877710  0.209580  1.0  0.1414
  C  C31  1  0.725300  0.456570  0.454860  1.0  0.6465
  C  C32  1  0.048100  0.295410  0.194980  1.0  0.1457
  C  C33  1  0.941900  0.087520  0.290160  1.0  0.1443
  C  C34  1  0.046000  0.299530  0.072140  1.0  -0.219
  C  C35  1  0.937100  0.084380  0.173240  1.0  -0.2103
  C  C36  1  0.989000  0.192950  0.058500  1.0  0.0684
  C  C37  1  0.983200  0.195300  0.927800  1.0  0.054
  C  C38  1  0.015600  0.315990  0.811220  1.0  -0.2267
  C  C39  1  0.946700  0.079970  0.914660  1.0  -0.214
  C  C40  1  0.013700  0.312770  0.692260  1.0  0.1456
  C  C41  1  0.945700  0.087290  0.790420  1.0  0.1433
  C  C42  1  0.225300  0.911430  0.545140  1.0  0.6441
  N  N43  1  0.496500  0.496610  0.695780  1.0  -0.3393
  N  N44  1  0.480800  0.879710  0.320380  1.0  -0.3454
  N  N45  1  0.996500  0.192390  0.304220  1.0  -0.3496
  N  N46  1  0.980800  0.200090  0.679620  1.0  -0.356
  O  O47  1  0.638800  0.582710  0.404980  1.0  -0.6333
  O  O48  1  0.840500  0.407990  0.396620  1.0  -0.6339
  O  O49  1  0.138800  0.987690  0.595020  1.0  -0.6328
  O  O50  1  0.340500  0.804610  0.603380  1.0  -0.6353
