# generated using pymatgen
data_CoH9C11(NO)2
_symmetry_space_group_name_H-M   'P 1'
_cell_length_a   8.14050000
_cell_length_b   10.52450000
_cell_length_c   11.42950000
_cell_angle_alpha   62.58640000
_cell_angle_beta   84.39390000
_cell_angle_gamma   77.75000000
_symmetry_Int_Tables_number   1
_chemical_formula_structural   CoH9C11(NO)2
_chemical_formula_sum   'Co2 H18 C22 N4 O4'
_cell_volume   849.46655401
_cell_formula_units_Z   2
loop_
 _symmetry_equiv_pos_site_id
 _symmetry_equiv_pos_as_xyz
  1  'x, y, z'
loop_
 _atom_site_type_symbol
 _atom_site_label
 _atom_site_symmetry_multiplicity
 _atom_site_fract_x
 _atom_site_fract_y
 _atom_site_fract_z
 _atom_site_occupancy
 _atom_site_charge
  Co  Co1  1  0.627920  0.200320  0.507480  1.0  0.7292
  Co  Co2  1  0.127920  0.707800  0.492520  1.0  0.7291
  H  H3  1  0.541700  0.889800  0.633000  1.0  0.0804
  H  H4  1  0.726600  0.084100  0.798600  1.0  0.0717
  H  H5  1  0.559100  0.304300  0.214200  1.0  0.0722
  H  H6  1  0.538400  0.688300  0.829400  1.0  0.1019
  H  H7  1  0.678100  0.725800  0.185400  1.0  0.116
  H  H8  1  0.563200  0.496500  0.010000  1.0  0.116
  H  H9  1  0.674800  0.521200  0.384800  1.0  0.074
  H  H10  1  0.722200  0.887100  0.002200  1.0  0.1124
  H  H11  1  0.856000  0.904000  0.540000  1.0  0.0856
  H  H12  1  0.041700  0.522800  0.367000  1.0  0.0789
  H  H13  1  0.226600  0.882700  0.201400  1.0  0.071
  H  H14  1  0.059100  0.518500  0.785800  1.0  0.072
  H  H15  1  0.038400  0.517700  0.170600  1.0  0.1021
  H  H16  1  0.178100  0.911200  0.814600  1.0  0.1152
  H  H17  1  0.063200  0.506500  0.990000  1.0  0.1157
  H  H18  1  0.174800  0.906000  0.615200  1.0  0.0738
  H  H19  1  0.222200  0.889300  0.997800  1.0  0.1141
  H  H20  1  0.356000  0.444000  0.460000  1.0  0.0878
  C  C21  1  0.579800  0.889500  0.709200  1.0  0.1398
  C  C22  1  0.686300  0.002900  0.804800  1.0  0.1222
  C  C23  1  0.627600  0.763300  0.941400  1.0  0.0822
  C  C24  1  0.621000  0.635700  0.072200  1.0  0.0815
  C  C25  1  0.585200  0.390900  0.208200  1.0  0.1425
  C  C26  1  0.576300  0.769300  0.826200  1.0  -0.2328
  C  C27  1  0.654200  0.639900  0.188200  1.0  -0.2359
  C  C28  1  0.586100  0.505400  0.085600  1.0  -0.2137
  C  C29  1  0.651500  0.516800  0.307000  1.0  0.148
  C  C30  1  0.684400  0.885000  0.927200  1.0  -0.2112
  C  C31  1  0.865100  0.967700  0.455200  1.0  0.5816
  C  C32  1  0.079800  0.598700  0.290800  1.0  0.1406
  C  C33  1  0.186300  0.807700  0.195200  1.0  0.124
  C  C34  1  0.127600  0.704700  0.058600  1.0  0.0798
  C  C35  1  0.121000  0.707900  0.927800  1.0  0.0804
  C  C36  1  0.085200  0.599100  0.791800  1.0  0.1437
  C  C37  1  0.076300  0.595500  0.173800  1.0  -0.2357
  C  C38  1  0.154200  0.828100  0.811800  1.0  -0.2419
  C  C39  1  0.086100  0.591000  0.914400  1.0  -0.2145
  C  C40  1  0.151500  0.823800  0.693000  1.0  0.1464
  C  C41  1  0.184400  0.812200  0.072800  1.0  -0.2122
  C  C42  1  0.365100  0.422900  0.544800  1.0  0.5819
  N  N43  1  0.634300  0.009300  0.693800  1.0  -0.3387
  N  N44  1  0.617900  0.391200  0.319800  1.0  -0.3416
  N  N45  1  0.134300  0.703100  0.306200  1.0  -0.349
  N  N46  1  0.117900  0.711000  0.680200  1.0  -0.3492
  O  O47  1  0.777400  0.093600  0.405200  1.0  -0.6337
  O  O48  1  0.978900  0.918830  0.397140  1.0  -0.6351
  O  O49  1  0.277400  0.498800  0.594800  1.0  -0.633
  O  O50  1  0.478900  0.315970  0.602860  1.0  -0.6357
