# generated using pymatgen
data_NiH9C11(NO)2
_symmetry_space_group_name_H-M   'P 1'
_cell_length_a   8.12660000
_cell_length_b   10.48150000
_cell_length_c   11.31670000
_cell_angle_alpha   62.41270000
_cell_angle_beta   84.18700000
_cell_angle_gamma   77.36700000
_symmetry_Int_Tables_number   1
_chemical_formula_structural   NiH9C11(NO)2
_chemical_formula_sum   'Ni2 H18 C22 N4 O4'
_cell_volume   833.66722390
_cell_formula_units_Z   2
loop_
 _symmetry_equiv_pos_site_id
 _symmetry_equiv_pos_as_xyz
  1  'x, y, z'
loop_
 _atom_site_type_symbol
 _atom_site_label
 _atom_site_symmetry_multiplicity
 _atom_site_fract_x
 _atom_site_fract_y
 _atom_site_fract_z
 _atom_site_occupancy
 _atom_site_charge
  Ni  Ni1  1  0.489770  0.688150  0.507780  1.0  0.4768
  Ni  Ni2  1  0.989770  0.195930  0.492220  1.0  0.4772
  H  H3  1  0.600000  0.573100  0.789800  1.0  0.065
  H  H4  1  0.415000  0.381300  0.627400  1.0  0.0679
  H  H5  1  0.606000  0.374400  0.999200  1.0  0.1017
  H  H6  1  0.400800  0.178900  0.827400  1.0  0.1108
  H  H7  1  0.528000  0.220800  0.190400  1.0  0.1054
  H  H8  1  0.418000  0.986100  0.009800  1.0  0.1144
  H  H9  1  0.555000  0.994500  0.395000  1.0  0.0785
  H  H10  1  0.425000  0.776000  0.218000  1.0  0.0962
  H  H11  1  0.709000  0.381300  0.559400  1.0  0.047
  H  H12  1  0.100000  0.362900  0.210200  1.0  0.0639
  H  H13  1  0.915000  0.008700  0.372600  1.0  0.0658
  H  H14  1  0.106000  0.373600  0.000800  1.0  0.1013
  H  H15  1  0.900800  0.006300  0.172600  1.0  0.1103
  H  H16  1  0.028000  0.411200  0.809600  1.0  0.1044
  H  H17  1  0.918000  0.995900  0.990200  1.0  0.1116
  H  H18  1  0.055000  0.389500  0.605000  1.0  0.0784
  H  H19  1  0.925000  0.994000  0.782000  1.0  0.096
  H  H20  1  0.209000  0.940700  0.440600  1.0  0.047
  C  C21  1  0.547400  0.492850  0.803300  1.0  0.1237
  C  C22  1  0.443300  0.381290  0.705420  1.0  0.1572
  C  C23  1  0.543900  0.373880  0.928240  1.0  -0.1401
  C  C24  1  0.438200  0.258050  0.824500  1.0  -0.2099
  C  C25  1  0.489500  0.252580  0.940840  1.0  0.0763
  C  C26  1  0.483700  0.123070  0.073060  1.0  0.0784
  C  C27  1  0.517300  0.125270  0.190660  1.0  -0.1311
  C  C28  1  0.445600  0.993540  0.086520  1.0  -0.1696
  C  C29  1  0.517200  0.001390  0.310620  1.0  0.111
  C  C30  1  0.445500  0.875550  0.210500  1.0  0.1304
  C  C31  1  0.727600  0.454600  0.457600  1.0  0.6185
  C  C32  1  0.047400  0.296150  0.196700  1.0  0.1245
  C  C33  1  0.943300  0.086710  0.294580  1.0  0.1593
  C  C34  1  0.043900  0.302120  0.071760  1.0  -0.1457
  C  C35  1  0.938200  0.082550  0.175500  1.0  -0.2127
  C  C36  1  0.989500  0.193420  0.059160  1.0  0.0745
  C  C37  1  0.983700  0.196130  0.926940  1.0  0.0774
  C  C38  1  0.017300  0.315930  0.809340  1.0  -0.137
  C  C39  1  0.945600  0.080060  0.913480  1.0  -0.169
  C  C40  1  0.017200  0.312010  0.689380  1.0  0.1092
  C  C41  1  0.945500  0.086050  0.789500  1.0  0.1323
  C  C42  1  0.227600  0.912200  0.542400  1.0  0.6185
  N  N43  1  0.495700  0.498770  0.692060  1.0  -0.3329
  N  N44  1  0.481900  0.875400  0.323000  1.0  -0.3437
  N  N45  1  0.995700  0.190830  0.307940  1.0  -0.339
  N  N46  1  0.981900  0.198400  0.677000  1.0  -0.3502
  O  O47  1  0.638100  0.580530  0.407180  1.0  -0.6113
  O  O48  1  0.843200  0.406190  0.398640  1.0  -0.6031
  O  O49  1  0.138100  0.987710  0.592820  1.0  -0.6102
  O  O50  1  0.343200  0.804830  0.601360  1.0  -0.6052
