# generated using pymatgen
data_EuC3O5
_symmetry_space_group_name_H-M   'P 1'
_cell_length_a   4.81050000
_cell_length_b   7.67620000
_cell_length_c   17.84480000
_cell_angle_alpha   90.00000000
_cell_angle_beta   90.00000000
_cell_angle_gamma   90.00000000
_symmetry_Int_Tables_number   1
_chemical_formula_structural   EuC3O5
_chemical_formula_sum   'Eu4 C12 O20'
_cell_volume   658.94351071
_cell_formula_units_Z   4
loop_
 _symmetry_equiv_pos_site_id
 _symmetry_equiv_pos_as_xyz
  1  'x, y, z'
loop_
 _atom_site_type_symbol
 _atom_site_label
 _atom_site_symmetry_multiplicity
 _atom_site_fract_x
 _atom_site_fract_y
 _atom_site_fract_z
 _atom_site_occupancy
 _atom_site_charge
  Eu  Eu1  1  0.970210  0.957350  0.289040  1.0  2.1615
  Eu  Eu2  1  0.970210  0.042650  0.710960  1.0  2.1606
  Eu  Eu3  1  0.970210  0.457350  0.210960  1.0  2.1606
  Eu  Eu4  1  0.970210  0.542650  0.789040  1.0  2.1615
  C  C5  1  0.478000  0.159500  0.277200  1.0  0.6118
  C  C6  1  0.096900  0.533500  0.469200  1.0  -0.0403
  C  C7  1  0.093300  0.595600  0.393100  1.0  0.6728
  C  C8  1  0.478000  0.840500  0.722800  1.0  0.6115
  C  C9  1  0.096900  0.466500  0.530800  1.0  -0.0414
  C  C10  1  0.093300  0.404400  0.606900  1.0  0.6745
  C  C11  1  0.478000  0.659500  0.222800  1.0  0.6109
  C  C12  1  0.096900  0.033500  0.030800  1.0  -0.0408
  C  C13  1  0.093300  0.095600  0.106900  1.0  0.6742
  C  C14  1  0.478000  0.340500  0.777200  1.0  0.6111
  C  C15  1  0.096900  0.966500  0.969200  1.0  -0.0406
  C  C16  1  0.093300  0.904400  0.893100  1.0  0.6723
  O  O17  1  0.233000  0.198200  0.239300  1.0  -0.7248
  O  O18  1  0.463300  0.017300  0.311480  1.0  -0.6478
  O  O19  1  0.070100  0.755200  0.385450  1.0  -0.6761
  O  O20  1  0.094900  0.479500  0.344460  1.0  -0.559
  O  O21  1  0.704000  0.245700  0.277480  1.0  -0.7963
  O  O22  1  0.233000  0.801800  0.760700  1.0  -0.7261
  O  O23  1  0.463300  0.982700  0.688520  1.0  -0.6478
  O  O24  1  0.070100  0.244800  0.614550  1.0  -0.674
  O  O25  1  0.094900  0.520500  0.655540  1.0  -0.5608
  O  O26  1  0.704000  0.754300  0.722520  1.0  -0.7967
  O  O27  1  0.233000  0.698200  0.260700  1.0  -0.7255
  O  O28  1  0.463300  0.517300  0.188520  1.0  -0.6503
  O  O29  1  0.070100  0.255200  0.114550  1.0  -0.6746
  O  O30  1  0.094900  0.979500  0.155540  1.0  -0.5598
  O  O31  1  0.704000  0.745700  0.222520  1.0  -0.7964
  O  O32  1  0.233000  0.301800  0.739300  1.0  -0.7253
  O  O33  1  0.463300  0.482700  0.811480  1.0  -0.6487
  O  O34  1  0.070100  0.744800  0.885450  1.0  -0.6744
  O  O35  1  0.094900  0.020500  0.844460  1.0  -0.5591
  O  O36  1  0.704000  0.254300  0.777480  1.0  -0.7964
