# generated using pymatgen
data_NiH9C11(NO)2
_symmetry_space_group_name_H-M   'P 1'
_cell_length_a   8.14050000
_cell_length_b   10.50320000
_cell_length_c   11.33360000
_cell_angle_alpha   62.39560000
_cell_angle_beta   84.17320000
_cell_angle_gamma   77.34400000
_symmetry_Int_Tables_number   1
_chemical_formula_structural   NiH9C11(NO)2
_chemical_formula_sum   'Ni2 H18 C22 N4 O4'
_cell_volume   837.86555715
_cell_formula_units_Z   2
loop_
 _symmetry_equiv_pos_site_id
 _symmetry_equiv_pos_as_xyz
  1  'x, y, z'
loop_
 _atom_site_type_symbol
 _atom_site_label
 _atom_site_symmetry_multiplicity
 _atom_site_fract_x
 _atom_site_fract_y
 _atom_site_fract_z
 _atom_site_occupancy
 _atom_site_charge
  Ni  Ni1  1  0.818200  0.948260  0.506480  1.0  0.3918
  Ni  Ni2  1  0.318200  0.454740  0.493520  1.0  0.3908
  H  H3  1  0.736000  0.746000  0.376000  1.0  0.0629
  H  H4  1  0.098000  0.757000  0.440000  1.0  -0.0119
  H  H5  1  0.762000  0.739000  0.190000  1.0  0.13
  H  H6  1  0.727000  0.798000  0.966000  1.0  0.0255
  H  H7  1  0.915000  0.151000  0.216000  1.0  0.0739
  H  H8  1  0.739000  0.810000  0.780000  1.0  -0.0046
  H  H9  1  0.868000  0.170000  0.998000  1.0  0.1244
  H  H10  1  0.862000  0.128000  0.622000  1.0  0.1178
  H  H11  1  0.905000  0.103000  0.818000  1.0  0.0042
  H  H12  1  0.236000  0.122000  0.624000  1.0  0.0666
  H  H13  1  0.598000  0.197000  0.560000  1.0  -0.0168
  H  H14  1  0.262000  0.929000  0.810000  1.0  0.1297
  H  H15  1  0.227000  0.764000  0.034000  1.0  0.0269
  H  H16  1  0.415000  0.367000  0.784000  1.0  0.0749
  H  H17  1  0.239000  0.590000  0.220000  1.0  -0.0071
  H  H18  1  0.368000  0.168000  0.002000  1.0  0.1225
  H  H19  1  0.362000  0.750000  0.378000  1.0  0.1127
  H  H20  1  0.405000  0.921000  0.182000  1.0  0.0041
  C  C21  1  0.816200  0.951100  0.940600  1.0  0.0193
  C  C22  1  0.821100  0.946900  0.073600  1.0  0.0824
  C  C23  1  0.789700  0.835400  0.309400  1.0  0.0964
  C  C24  1  0.786200  0.825900  0.190000  1.0  -0.2247
  C  C25  1  0.861200  0.064800  0.084800  1.0  -0.1854
  C  C26  1  0.764000  0.845500  0.925000  1.0  -0.0656
  C  C27  1  0.861500  0.056700  0.209400  1.0  0.1726
  C  C28  1  0.079800  0.689900  0.541800  1.0  0.581
  C  C29  1  0.864000  0.059800  0.823800  1.0  -0.0126
  C  C30  1  0.759000  0.847500  0.804000  1.0  0.2223
  C  C31  1  0.862300  0.060100  0.705000  1.0  0.0613
  C  C32  1  0.316200  0.891700  0.059400  1.0  0.0282
  C  C33  1  0.321100  0.020500  0.926400  1.0  0.0822
  C  C34  1  0.289700  0.144800  0.690600  1.0  0.0971
  C  C35  1  0.286200  0.015900  0.810000  1.0  -0.2213
  C  C36  1  0.361200  0.149600  0.915200  1.0  -0.164
  C  C37  1  0.264000  0.770500  0.075000  1.0  -0.0661
  C  C38  1  0.361500  0.266100  0.790600  1.0  0.1727
  C  C39  1  0.579800  0.231700  0.458200  1.0  0.5816
  C  C40  1  0.364000  0.883600  0.176200  1.0  -0.0103
  C  C41  1  0.259000  0.651500  0.196000  1.0  0.2225
  C  C42  1  0.362300  0.765100  0.295000  1.0  0.0622
  N  N43  1  0.824600  0.945500  0.323800  1.0  -0.2398
  N  N44  1  0.811900  0.953700  0.692200  1.0  -0.3038
  N  N45  1  0.324600  0.269300  0.676200  1.0  -0.2401
  N  N46  1  0.311900  0.645900  0.307800  1.0  -0.2985
  O  O47  1  0.963600  0.738000  0.600600  1.0  -0.5618
  O  O48  1  0.167500  0.564300  0.593600  1.0  -0.5726
  O  O49  1  0.463600  0.338600  0.399400  1.0  -0.5613
  O  O50  1  0.667500  0.157900  0.406400  1.0  -0.5722
