# generated using pymatgen
data_ZnB(PO4)2
_symmetry_space_group_name_H-M   'P 1'
_cell_length_a   9.66850000
_cell_length_b   9.66850000
_cell_length_c   14.88790000
_cell_angle_alpha   90.00000000
_cell_angle_beta   90.00000000
_cell_angle_gamma   120.00000000
_symmetry_Int_Tables_number   1
_chemical_formula_structural   ZnB(PO4)2
_chemical_formula_sum   'Zn6 B6 P12 O48'
_cell_volume   1205.26425820
_cell_formula_units_Z   6
loop_
 _symmetry_equiv_pos_site_id
 _symmetry_equiv_pos_as_xyz
  1  'x, y, z'
loop_
 _atom_site_type_symbol
 _atom_site_label
 _atom_site_symmetry_multiplicity
 _atom_site_fract_x
 _atom_site_fract_y
 _atom_site_fract_z
 _atom_site_occupancy
 _atom_site_charge
  Zn  Zn1  1  0.510020  0.489980  0.083330  1.0  1.1282
  Zn  Zn2  1  0.510020  0.020040  0.750000  1.0  1.1301
  Zn  Zn3  1  0.979960  0.489980  0.416670  1.0  1.1291
  Zn  Zn4  1  0.489980  0.510020  0.583330  1.0  1.1289
  Zn  Zn5  1  0.489980  0.979960  0.250000  1.0  1.1296
  Zn  Zn6  1  0.020040  0.510020  0.916670  1.0  1.1281
  B  B7  1  0.670500  0.835250  0.916670  1.0  0.9193
  B  B8  1  0.164750  0.835250  0.583330  1.0  0.919
  B  B9  1  0.164750  0.329500  0.250000  1.0  0.9191
  B  B10  1  0.329500  0.164750  0.416670  1.0  0.9186
  B  B11  1  0.835250  0.164750  0.083330  1.0  0.9188
  B  B12  1  0.835250  0.670500  0.750000  1.0  0.9192
  P  P13  1  0.761370  0.606600  0.926440  1.0  1.804
  P  P14  1  0.393400  0.154770  0.593110  1.0  1.8046
  P  P15  1  0.845230  0.238630  0.259770  1.0  1.799
  P  P16  1  0.238630  0.393400  0.426440  1.0  1.8035
  P  P17  1  0.606600  0.845230  0.093110  1.0  1.8046
  P  P18  1  0.154770  0.761370  0.759770  1.0  1.803
  P  P19  1  0.606600  0.761370  0.740230  1.0  1.798
  P  P20  1  0.154770  0.393400  0.073560  1.0  1.803
  P  P21  1  0.238630  0.845230  0.406890  1.0  1.8034
  P  P22  1  0.393400  0.238630  0.240230  1.0  1.802
  P  P23  1  0.845230  0.606600  0.573560  1.0  1.802
  P  P24  1  0.761370  0.154770  0.906890  1.0  1.8035
  O  O25  1  0.614200  0.479600  0.973100  1.0  -0.8017
  O  O26  1  0.779000  0.774900  0.939600  1.0  -0.6403
  O  O27  1  0.913900  0.621400  0.961600  1.0  -0.7731
  O  O28  1  0.744200  0.564800  0.824800  1.0  -0.6103
  O  O29  1  0.520400  0.134600  0.639770  1.0  -0.8005
  O  O30  1  0.225100  0.004100  0.606270  1.0  -0.6418
  O  O31  1  0.378600  0.292500  0.628270  1.0  -0.7745
  O  O32  1  0.435200  0.179400  0.491470  1.0  -0.609
  O  O33  1  0.865400  0.385800  0.306430  1.0  -0.8001
  O  O34  1  0.995900  0.221000  0.272930  1.0  -0.6441
  O  O35  1  0.707500  0.086100  0.294930  1.0  -0.7754
  O  O36  1  0.820600  0.255800  0.158130  1.0  -0.6074
  O  O37  1  0.385800  0.520400  0.473100  1.0  -0.8028
  O  O38  1  0.221000  0.225100  0.439600  1.0  -0.6409
  O  O39  1  0.086100  0.378600  0.461600  1.0  -0.7747
  O  O40  1  0.255800  0.435200  0.324800  1.0  -0.6118
  O  O41  1  0.479600  0.865400  0.139770  1.0  -0.7992
  O  O42  1  0.774900  0.995900  0.106270  1.0  -0.6423
  O  O43  1  0.621400  0.707500  0.128270  1.0  -0.7738
  O  O44  1  0.564800  0.820600  0.991470  1.0  -0.6071
  O  O45  1  0.134600  0.614200  0.806430  1.0  -0.7997
  O  O46  1  0.004100  0.779000  0.772930  1.0  -0.6438
  O  O47  1  0.292500  0.913900  0.794930  1.0  -0.7758
  O  O48  1  0.179400  0.744200  0.658130  1.0  -0.6099
  O  O49  1  0.479600  0.614200  0.693570  1.0  -0.7993
  O  O50  1  0.774900  0.779000  0.727070  1.0  -0.6427
  O  O51  1  0.621400  0.913900  0.705070  1.0  -0.7762
  O  O52  1  0.564800  0.744200  0.841870  1.0  -0.6083
  O  O53  1  0.134600  0.520400  0.026900  1.0  -0.8012
  O  O54  1  0.004100  0.225100  0.060400  1.0  -0.6402
  O  O55  1  0.292500  0.378600  0.038400  1.0  -0.7755
  O  O56  1  0.179400  0.435200  0.175200  1.0  -0.6116
  O  O57  1  0.385800  0.865400  0.360230  1.0  -0.8001
  O  O58  1  0.221000  0.995900  0.393730  1.0  -0.6408
  O  O59  1  0.086100  0.707500  0.371730  1.0  -0.775
  O  O60  1  0.255800  0.820600  0.508530  1.0  -0.6091
  O  O61  1  0.520400  0.385800  0.193570  1.0  -0.7997
  O  O62  1  0.225100  0.221000  0.227070  1.0  -0.6426
  O  O63  1  0.378600  0.086100  0.205070  1.0  -0.7777
  O  O64  1  0.435200  0.255800  0.341870  1.0  -0.6091
  O  O65  1  0.865400  0.479600  0.526900  1.0  -0.8027
  O  O66  1  0.995900  0.774900  0.560400  1.0  -0.639
  O  O67  1  0.707500  0.621400  0.538400  1.0  -0.7752
  O  O68  1  0.820600  0.564800  0.675200  1.0  -0.6106
  O  O69  1  0.614200  0.134600  0.860230  1.0  -0.7986
  O  O70  1  0.779000  0.004100  0.893730  1.0  -0.6404
  O  O71  1  0.913900  0.292500  0.871730  1.0  -0.7756
  O  O72  1  0.744200  0.179400  0.008530  1.0  -0.607
