# generated using pymatgen
data_Cu2H21C21(NO3)3
_symmetry_space_group_name_H-M   'P 1'
_cell_length_a   8.53100000
_cell_length_b   12.57000000
_cell_length_c   13.25200000
_cell_angle_alpha   105.07800000
_cell_angle_beta   90.12300000
_cell_angle_gamma   107.13900000
_symmetry_Int_Tables_number   1
_chemical_formula_structural   Cu2H21C21(NO3)3
_chemical_formula_sum   'Cu4 H42 C42 N6 O18'
_cell_volume   1306.42525562
_cell_formula_units_Z   2
loop_
 _symmetry_equiv_pos_site_id
 _symmetry_equiv_pos_as_xyz
  1  'x, y, z'
loop_
 _atom_site_type_symbol
 _atom_site_label
 _atom_site_symmetry_multiplicity
 _atom_site_fract_x
 _atom_site_fract_y
 _atom_site_fract_z
 _atom_site_occupancy
 _atom_site_charge
  Cu  Cu1  1  0.492210  0.595960  0.979480  1.0  0.8219
  Cu  Cu2  1  0.990700  0.594890  0.567270  1.0  0.8172
  Cu  Cu3  1  0.507790  0.404040  0.020520  1.0  0.82
  Cu  Cu4  1  0.009300  0.405110  0.432730  1.0  0.8196
  H  H5  1  0.232000  0.025400  0.026200  1.0  0.3004
  H  H6  1  0.449200  0.362300  0.448900  1.0  0.1163
  H  H7  1  0.496000  0.262900  0.485500  1.0  0.1174
  H  H8  1  0.483700  0.477100  0.629000  1.0  0.0811
  H  H9  1  0.344100  0.355300  0.614300  1.0  0.0784
  H  H10  1  0.681700  0.395600  0.689500  1.0  0.1299
  H  H11  1  0.535200  0.279600  0.682400  1.0  0.1336
  H  H12  1  0.052200  0.631500  0.018700  1.0  0.1179
  H  H13  1  0.007800  0.733500  0.102300  1.0  0.1139
  H  H14  1  0.014400  0.521300  0.144100  1.0  0.071
  H  H15  1  0.156100  0.642600  0.187500  1.0  0.0843
  H  H16  1  0.821000  0.609400  0.240500  1.0  0.1224
  H  H17  1  0.972200  0.722800  0.290700  1.0  0.1231
  H  H18  1  0.400100  0.819400  0.079900  1.0  0.0944
  H  H19  1  0.258500  0.934300  0.848200  1.0  0.1178
  H  H20  1  0.333600  0.792600  0.728500  1.0  0.1203
  H  H21  1  0.441200  0.670500  0.786800  1.0  0.0858
  H  H22  1  0.127200  0.019600  0.325000  1.0  0.1224
  H  H23  1  0.048100  0.169900  0.423100  1.0  0.0777
  H  H24  1  0.111500  0.332900  0.206200  1.0  0.1018
  H  H25  1  0.211200  0.180200  0.102500  1.0  0.1174
  H  H26  1  0.768000  0.974600  0.973800  1.0  0.3008
  H  H27  1  0.550800  0.637700  0.551100  1.0  0.1114
  H  H28  1  0.504000  0.737100  0.514500  1.0  0.1186
  H  H29  1  0.516300  0.522900  0.371000  1.0  0.0766
  H  H30  1  0.655900  0.644700  0.385700  1.0  0.0786
  H  H31  1  0.318300  0.604400  0.310500  1.0  0.1299
  H  H32  1  0.464800  0.720400  0.317600  1.0  0.1342
  H  H33  1  0.947800  0.368500  0.981300  1.0  0.1164
  H  H34  1  0.992200  0.266500  0.897700  1.0  0.1136
  H  H35  1  0.985600  0.478700  0.855900  1.0  0.0735
  H  H36  1  0.843900  0.357400  0.812500  1.0  0.0814
  H  H37  1  0.179000  0.390600  0.759500  1.0  0.1215
  H  H38  1  0.027800  0.277200  0.709300  1.0  0.1235
  H  H39  1  0.599900  0.180600  0.920100  1.0  0.0941
  H  H40  1  0.741500  0.065700  0.151800  1.0  0.1175
  H  H41  1  0.666400  0.207400  0.271500  1.0  0.1193
  H  H42  1  0.558800  0.329500  0.213200  1.0  0.086
  H  H43  1  0.872800  0.980400  0.675000  1.0  0.1221
  H  H44  1  0.951900  0.830100  0.576900  1.0  0.0784
  H  H45  1  0.888500  0.667100  0.793800  1.0  0.1027
  H  H46  1  0.788800  0.819800  0.897500  1.0  0.1188
  C  C47  1  0.692900  0.405000  0.494700  1.0  0.7101
  C  C48  1  0.516400  0.347500  0.501600  1.0  -0.3454
  C  C49  1  0.463400  0.392500  0.612600  1.0  -0.0351
  C  C50  1  0.562700  0.364700  0.697100  1.0  -0.3503
  C  C51  1  0.531400  0.413000  0.809000  1.0  0.6963
  C  C52  1  0.807400  0.593100  0.041100  1.0  0.7127
  C  C53  1  0.985100  0.648500  0.078200  1.0  -0.3175
  C  C54  1  0.036500  0.606200  0.167700  1.0  -0.0302
  C  C55  1  0.940100  0.637500  0.263400  1.0  -0.3477
  C  C56  1  0.969500  0.586200  0.352100  1.0  0.6954
  C  C57  1  0.386600  0.815500  0.007800  1.0  0.1327
  C  C58  1  0.320100  0.893600  0.980100  1.0  0.1389
  C  C59  1  0.302300  0.882900  0.871800  1.0  -0.1061
  C  C60  1  0.346800  0.800300  0.801500  1.0  -0.1135
  C  C61  1  0.410500  0.728700  0.836700  1.0  0.15
  C  C62  1  0.130000  0.084100  0.299400  1.0  -0.1564
  C  C63  1  0.183000  0.092200  0.212000  1.0  0.0124
  C  C64  1  0.078400  0.172600  0.354700  1.0  0.1716
  C  C65  1  0.115000  0.269800  0.232100  1.0  0.1613
  C  C66  1  0.176500  0.179000  0.170400  1.0  -0.1747
  C  C67  1  0.251000  0.989900  0.156100  1.0  0.3791
  C  C68  1  0.307100  0.595000  0.505300  1.0  0.7096
  C  C69  1  0.483600  0.652500  0.498400  1.0  -0.3458
  C  C70  1  0.536600  0.607500  0.387400  1.0  -0.0345
  C  C71  1  0.437300  0.635300  0.302900  1.0  -0.3485
  C  C72  1  0.468600  0.587000  0.191000  1.0  0.699
  C  C73  1  0.192600  0.406900  0.958900  1.0  0.7113
  C  C74  1  0.014900  0.351500  0.921800  1.0  -0.3223
  C  C75  1  0.963500  0.393800  0.832300  1.0  -0.0291
  C  C76  1  0.059900  0.362500  0.736600  1.0  -0.3541
  C  C77  1  0.030500  0.413800  0.647900  1.0  0.6965
  C  C78  1  0.613400  0.184500  0.992200  1.0  0.146
  C  C79  1  0.679900  0.106400  0.019900  1.0  0.139
  C  C80  1  0.697700  0.117100  0.128200  1.0  -0.104
  C  C81  1  0.653200  0.199700  0.198500  1.0  -0.113
  C  C82  1  0.589500  0.271300  0.163300  1.0  0.1504
  C  C83  1  0.870000  0.915900  0.700600  1.0  -0.1578
  C  C84  1  0.817000  0.907800  0.788000  1.0  0.0105
  C  C85  1  0.921600  0.827400  0.645300  1.0  0.1695
  C  C86  1  0.885000  0.730200  0.767900  1.0  0.1614
  C  C87  1  0.823500  0.821000  0.829600  1.0  -0.1743
  C  C88  1  0.749000  0.010100  0.843900  1.0  0.3656
  N  N89  1  0.432000  0.735900  0.937800  1.0  -0.3156
  N  N90  1  0.263200  0.976600  0.052400  1.0  -0.3729
  N  N91  1  0.064500  0.262800  0.324500  1.0  -0.3173
  N  N92  1  0.568000  0.264100  0.062200  1.0  -0.3158
  N  N93  1  0.736800  0.023400  0.947600  1.0  -0.3731
  N  N94  1  0.935500  0.737200  0.675500  1.0  -0.3178
  O  O95  1  0.753200  0.506200  0.545000  1.0  -0.5597
  O  O96  1  0.982300  0.485600  0.328200  1.0  -0.5624
  O  O97  1  0.521600  0.514300  0.835000  1.0  -0.5578
  O  O98  1  0.769300  0.344100  0.437700  1.0  -0.5804
  O  O99  1  0.741700  0.490500  0.041500  1.0  -0.5706
  O  O100  1  0.732900  0.653900  0.010900  1.0  -0.5835
  O  O101  1  0.526000  0.349400  0.869200  1.0  -0.5602
  O  O102  1  0.969500  0.648300  0.443100  1.0  -0.5699
  O  O103  1  0.304300  0.926800  0.209300  1.0  -0.4888
  O  O104  1  0.246800  0.493800  0.455000  1.0  -0.5602
  O  O105  1  0.017700  0.514400  0.671800  1.0  -0.5623
  O  O106  1  0.478400  0.485700  0.165000  1.0  -0.558
  O  O107  1  0.230700  0.655900  0.562300  1.0  -0.5811
  O  O108  1  0.258300  0.509500  0.958500  1.0  -0.5704
  O  O109  1  0.267100  0.346100  0.989100  1.0  -0.5841
  O  O110  1  0.474000  0.650600  0.130800  1.0  -0.5605
  O  O111  1  0.030500  0.351700  0.556900  1.0  -0.5712
  O  O112  1  0.695700  0.073200  0.790700  1.0  -0.4903
