# generated using pymatgen
data_DyH3(CO2)3
_symmetry_space_group_name_H-M   'P 1'
_cell_length_a   6.59200000
_cell_length_b   6.68620000
_cell_length_c   6.68620000
_cell_angle_alpha   115.36500000
_cell_angle_beta   106.43500000
_cell_angle_gamma   73.56460000
_symmetry_Int_Tables_number   1
_chemical_formula_structural   DyH3(CO2)3
_chemical_formula_sum   'Dy1 H3 C3 O6'
_cell_volume   250.92075870
_cell_formula_units_Z   1
loop_
 _symmetry_equiv_pos_site_id
 _symmetry_equiv_pos_as_xyz
  1  'x, y, z'
loop_
 _atom_site_type_symbol
 _atom_site_label
 _atom_site_symmetry_multiplicity
 _atom_site_fract_x
 _atom_site_fract_y
 _atom_site_fract_z
 _atom_site_occupancy
 _atom_site_charge
  Dy  Dy1  1  0.000000  0.000000  0.000000  1.0  2.193
  H  H2  1  0.886000  0.464000  0.846000  1.0  -0.0227
  H  H3  1  0.114000  0.846000  0.464000  1.0  -0.0218
  H  H4  1  0.500000  0.070000  0.070000  1.0  -0.0133
  C  C5  1  0.034900  0.467700  0.937700  1.0  0.6122
  C  C6  1  0.965100  0.937700  0.467700  1.0  0.6135
  C  C7  1  0.500000  0.929900  0.929900  1.0  0.5872
  O  O8  1  0.120300  0.311200  0.003800  1.0  -0.6784
  O  O9  1  0.116800  0.629800  0.974800  1.0  -0.6596
  O  O10  1  0.663300  0.859300  0.844900  1.0  -0.6361
  O  O11  1  0.879700  0.003800  0.311200  1.0  -0.6784
  O  O12  1  0.883200  0.974800  0.629800  1.0  -0.6593
  O  O13  1  0.336700  0.844900  0.859300  1.0  -0.6365
