# generated using pymatgen
data_Co5H24C30(N2O)12
_symmetry_space_group_name_H-M   'P 1'
_cell_length_a   9.27500000
_cell_length_b   12.92200000
_cell_length_c   14.56400000
_cell_angle_alpha   105.06000000
_cell_angle_beta   97.19400000
_cell_angle_gamma   96.25400000
_symmetry_Int_Tables_number   1
_chemical_formula_structural   Co5H24C30(N2O)12
_chemical_formula_sum   'Co5 H24 C30 N24 O12'
_cell_volume   1653.96411062
_cell_formula_units_Z   1
loop_
 _symmetry_equiv_pos_site_id
 _symmetry_equiv_pos_as_xyz
  1  'x, y, z'
loop_
 _atom_site_type_symbol
 _atom_site_label
 _atom_site_symmetry_multiplicity
 _atom_site_fract_x
 _atom_site_fract_y
 _atom_site_fract_z
 _atom_site_occupancy
 _atom_site_charge
  Co  Co1  1  0.445280  0.918850  0.717910  1.0  1.0283
  Co  Co2  1  0.952940  0.702790  0.873170  1.0  0.8577
  Co  Co3  1  0.554720  0.081150  0.282090  1.0  1.0229
  Co  Co4  1  0.047060  0.297210  0.126830  1.0  0.8564
  Co  Co5  1  0.000000  0.000000  0.000000  1.0  0.4132
  H  H6  1  0.700700  0.356200  0.833700  1.0  0.1084
  H  H7  1  0.566700  0.136100  0.580300  1.0  0.1019
  H  H8  1  0.753000  0.433200  0.588900  1.0  0.1144
  H  H9  1  0.044400  0.945000  0.210700  1.0  0.097
  H  H10  1  0.693800  0.018700  0.892400  1.0  0.0729
  H  H11  1  0.193300  0.741300  0.738600  1.0  0.086
  H  H12  1  0.272900  0.122200  0.946300  1.0  0.3601
  H  H13  1  0.367100  0.104700  0.869600  1.0  0.3465
  H  H14  1  0.913800  0.565000  0.011300  1.0  0.3434
  H  H15  1  0.925400  0.575900  0.116500  1.0  0.3667
  H  H16  1  0.540600  0.685700  0.674000  1.0  0.3477
  H  H17  1  0.660800  0.634200  0.713700  1.0  0.3426
  H  H18  1  0.299300  0.643800  0.166300  1.0  0.1095
  H  H19  1  0.433300  0.863900  0.419700  1.0  0.1011
  H  H20  1  0.247000  0.566800  0.411100  1.0  0.1155
  H  H21  1  0.955600  0.055000  0.789300  1.0  0.0956
  H  H22  1  0.306200  0.981300  0.107600  1.0  0.0726
  H  H23  1  0.806700  0.258700  0.261400  1.0  0.0873
  H  H24  1  0.727100  0.877800  0.053700  1.0  0.3616
  H  H25  1  0.632900  0.895300  0.130400  1.0  0.3458
  H  H26  1  0.086200  0.435000  0.988700  1.0  0.3436
  H  H27  1  0.074600  0.424100  0.883500  1.0  0.3635
  H  H28  1  0.459400  0.314300  0.326000  1.0  0.3488
  H  H29  1  0.339200  0.365800  0.286300  1.0  0.3463
  C  C30  1  0.817600  0.521600  0.777300  1.0  0.6282
  C  C31  1  0.741000  0.409300  0.719700  1.0  -0.1664
  C  C32  1  0.690800  0.336400  0.766800  1.0  0.0019
  C  C33  1  0.624600  0.232000  0.713000  1.0  -0.1646
  C  C34  1  0.609600  0.205700  0.616000  1.0  0.0208
  C  C35  1  0.657100  0.280700  0.568000  1.0  -0.1513
  C  C36  1  0.721900  0.382400  0.620000  1.0  0.0012
  C  C37  1  0.634500  0.249100  0.460500  1.0  0.7576
  C  C38  1  0.567400  0.150500  0.763700  1.0  0.6815
  C  C39  1  0.965800  0.711100  0.088500  1.0  0.6632
  C  C40  1  0.021700  0.880200  0.161900  1.0  0.2633
  C  C41  1  0.672100  0.785600  0.781800  1.0  0.6654
  C  C42  1  0.707100  0.947000  0.867700  1.0  0.2669
  C  C43  1  0.238000  0.972200  0.864800  1.0  0.5618
  C  C44  1  0.192100  0.806800  0.783700  1.0  0.2957
  C  C45  1  0.182400  0.478400  0.222700  1.0  0.6297
  C  C46  1  0.259000  0.590700  0.280300  1.0  -0.167
  C  C47  1  0.309200  0.663600  0.233200  1.0  0.0066
  C  C48  1  0.375400  0.768000  0.287000  1.0  -0.1643
  C  C49  1  0.390400  0.794300  0.384000  1.0  0.0181
  C  C50  1  0.342900  0.719300  0.432000  1.0  -0.1511
  C  C51  1  0.278100  0.617600  0.380000  1.0  0.0016
  C  C52  1  0.365500  0.750900  0.539500  1.0  0.7542
  C  C53  1  0.432600  0.849500  0.236300  1.0  0.6822
  C  C54  1  0.034200  0.288900  0.911500  1.0  0.6631
  C  C55  1  0.978300  0.119800  0.838100  1.0  0.2623
  C  C56  1  0.327900  0.214400  0.218200  1.0  0.6655
  C  C57  1  0.292900  0.053000  0.132300  1.0  0.2671
  C  C58  1  0.762000  0.027800  0.135200  1.0  0.5604
  C  C59  1  0.807900  0.193200  0.216300  1.0  0.295
  N  N60  1  0.105800  0.819500  0.849200  1.0  -0.2834
  N  N61  1  0.135500  0.926800  0.902900  1.0  -0.2428
  N  N62  1  0.279200  0.899900  0.789300  1.0  -0.5408
  N  N63  1  0.300500  0.080000  0.897700  1.0  -0.7319
  N  N64  1  0.012400  0.873000  0.071100  1.0  -0.1707
  N  N65  1  0.977300  0.764300  0.021800  1.0  -0.379
  N  N66  1  0.994100  0.781900  0.176600  1.0  -0.5882
  N  N67  1  0.930900  0.605000  0.069900  1.0  -0.7255
  N  N68  1  0.812400  0.906300  0.902900  1.0  -0.1538
  N  N69  1  0.793600  0.797600  0.848900  1.0  -0.4362
  N  N70  1  0.615900  0.877900  0.791300  1.0  -0.5858
  N  N71  1  0.617900  0.690200  0.715000  1.0  -0.739
  N  N72  1  0.894200  0.180500  0.150800  1.0  -0.2813
  N  N73  1  0.864500  0.073200  0.097100  1.0  -0.2434
  N  N74  1  0.720800  0.100100  0.210700  1.0  -0.553
  N  N75  1  0.699500  0.920000  0.102300  1.0  -0.7325
  N  N76  1  0.987600  0.127000  0.928900  1.0  -0.1696
  N  N77  1  0.022700  0.235700  0.978200  1.0  -0.3799
  N  N78  1  0.005900  0.218100  0.823400  1.0  -0.5847
  N  N79  1  0.069100  0.395000  0.930100  1.0  -0.7278
  N  N80  1  0.187600  0.093700  0.097100  1.0  -0.1532
  N  N81  1  0.206400  0.202400  0.151100  1.0  -0.4358
  N  N82  1  0.384100  0.122100  0.208700  1.0  -0.5862
  N  N83  1  0.382100  0.309800  0.285000  1.0  -0.7413
  O  O84  1  0.819700  0.552800  0.866700  1.0  -0.5837
  O  O85  1  0.878700  0.582600  0.734300  1.0  -0.5697
  O  O86  1  0.497600  0.062600  0.706400  1.0  -0.6157
  O  O87  1  0.589300  0.172200  0.851300  1.0  -0.5675
  O  O88  1  0.595500  0.148000  0.419300  1.0  -0.5989
  O  O89  1  0.653200  0.318400  0.417100  1.0  -0.5872
  O  O90  1  0.180300  0.447200  0.133300  1.0  -0.5826
  O  O91  1  0.121300  0.417400  0.265700  1.0  -0.5688
  O  O92  1  0.502400  0.937400  0.293600  1.0  -0.6147
  O  O93  1  0.410700  0.827800  0.148700  1.0  -0.5642
  O  O94  1  0.404500  0.852000  0.580700  1.0  -0.5993
  O  O95  1  0.346800  0.681600  0.582900  1.0  -0.5878
