# generated using pymatgen
data_Co2H18C26N4O13
_symmetry_space_group_name_H-M   'P 1'
_cell_length_a   10.78730000
_cell_length_b   22.34860000
_cell_length_c   26.90720000
_cell_angle_alpha   90.00000000
_cell_angle_beta   90.00000000
_cell_angle_gamma   101.17300000
_symmetry_Int_Tables_number   1
_chemical_formula_structural   Co2H18C26N4O13
_chemical_formula_sum   'Co16 H144 C208 N32 O104'
_cell_volume   6363.86873519
_cell_formula_units_Z   8
loop_
 _symmetry_equiv_pos_site_id
 _symmetry_equiv_pos_as_xyz
  1  'x, y, z'
loop_
 _atom_site_type_symbol
 _atom_site_label
 _atom_site_symmetry_multiplicity
 _atom_site_fract_x
 _atom_site_fract_y
 _atom_site_fract_z
 _atom_site_occupancy
 _atom_site_charge
  Co  Co1  1  0.832770  0.841140  0.344460  1.0  0.8822
  Co  Co2  1  0.087720  0.953010  0.390160  1.0  0.9299
  Co  Co3  1  0.589510  0.944730  0.147880  1.0  0.9503
  Co  Co4  1  0.345880  0.823440  0.101610  1.0  0.8967
  Co  Co5  1  0.667230  0.658860  0.844460  1.0  0.8816
  Co  Co6  1  0.412280  0.546990  0.890160  1.0  0.93
  Co  Co7  1  0.910490  0.555270  0.647880  1.0  0.9495
  Co  Co8  1  0.154120  0.676560  0.601610  1.0  0.8973
  Co  Co9  1  0.167230  0.158860  0.655540  1.0  0.8816
  Co  Co10  1  0.912280  0.046990  0.609840  1.0  0.9306
  Co  Co11  1  0.410490  0.055270  0.852120  1.0  0.95
  Co  Co12  1  0.654120  0.176560  0.898390  1.0  0.8974
  Co  Co13  1  0.332770  0.341140  0.155540  1.0  0.8813
  Co  Co14  1  0.587720  0.453010  0.109840  1.0  0.9298
  Co  Co15  1  0.089510  0.444730  0.352120  1.0  0.9509
  Co  Co16  1  0.845880  0.323440  0.398390  1.0  0.8968
  H  H17  1  0.048000  0.845900  0.384600  1.0  0.2861
  H  H18  1  0.054000  0.853100  0.335900  1.0  0.3336
  H  H19  1  0.379000  0.929300  0.095500  1.0  0.3737
  H  H20  1  0.357000  0.927500  0.145100  1.0  0.3756
  H  H21  1  0.782900  0.068100  0.459400  1.0  0.1091
  H  H22  1  0.869200  0.248600  0.488400  1.0  0.088
  H  H23  1  0.369100  0.980300  0.421300  1.0  0.0968
  H  H24  1  0.724500  0.992300  0.349000  1.0  0.0912
  H  H25  1  0.782700  0.012300  0.402700  1.0  0.0976
  H  H26  1  0.591900  0.000000  0.300200  1.0  0.1016
  H  H27  1  0.213900  0.946600  0.289300  1.0  0.0793
  H  H28  1  0.618000  0.510000  0.007100  1.0  0.0819
  H  H29  1  0.712200  0.694300  0.013900  1.0  0.1227
  H  H30  1  0.660000  0.590000  0.137800  1.0  0.0956
  H  H31  1  0.731800  0.955500  0.246000  1.0  0.0819
  H  H32  1  0.768000  0.193200  0.352800  1.0  0.0924
  H  H33  1  0.191900  0.043500  0.981400  1.0  0.116
  H  H34  1  0.018800  0.944200  0.075700  1.0  0.0954
  H  H35  1  0.162600  0.974900  0.063800  1.0  0.1048
  H  H36  1  0.123200  0.130600  0.106300  1.0  0.0881
  H  H37  1  0.403900  0.205900  0.019600  1.0  0.0818
  H  H38  1  0.066900  0.794800  0.063600  1.0  0.0999
  H  H39  1  0.201900  0.835100  0.198100  1.0  0.0803
  H  H40  1  0.689200  0.843100  0.251900  1.0  0.0724
  H  H41  1  0.554900  0.799600  0.385600  1.0  0.0927
  H  H42  1  0.178900  0.771800  0.326200  1.0  0.0709
  H  H43  1  0.144700  0.747800  0.381500  1.0  0.0868
  H  H44  1  0.313900  0.781300  0.269000  1.0  0.11
  H  H45  1  0.130300  0.577900  0.319800  1.0  0.0903
  H  H46  1  0.225900  0.690200  0.437000  1.0  0.1192
  H  H47  1  0.101800  0.508700  0.454500  1.0  0.0805
  H  H48  1  0.866500  0.983100  0.110300  1.0  0.0925
  H  H49  1  0.110000  0.991200  0.225300  1.0  0.1112
  H  H50  1  0.823200  0.795100  0.177800  1.0  0.118
  H  H51  1  0.690600  0.784900  0.121200  1.0  0.0909
  H  H52  1  0.653400  0.757500  0.067000  1.0  0.0804
  H  H53  1  0.452000  0.654100  0.884600  1.0  0.2841
  H  H54  1  0.446000  0.646900  0.835900  1.0  0.3337
  H  H55  1  0.121000  0.570700  0.595500  1.0  0.3732
  H  H56  1  0.143000  0.572500  0.645100  1.0  0.3774
  H  H57  1  0.717100  0.431900  0.959400  1.0  0.1098
  H  H58  1  0.630800  0.251400  0.988400  1.0  0.0884
  H  H59  1  0.130900  0.519700  0.921300  1.0  0.0973
  H  H60  1  0.775500  0.507700  0.849000  1.0  0.0917
  H  H61  1  0.717300  0.487700  0.902700  1.0  0.098
  H  H62  1  0.908100  0.500000  0.800200  1.0  0.1018
  H  H63  1  0.286100  0.553400  0.789300  1.0  0.0791
  H  H64  1  0.882000  0.990000  0.507100  1.0  0.0817
  H  H65  1  0.787800  0.805700  0.513900  1.0  0.1225
  H  H66  1  0.840000  0.910000  0.637800  1.0  0.0958
  H  H67  1  0.768200  0.544500  0.746000  1.0  0.0819
  H  H68  1  0.732000  0.306800  0.852800  1.0  0.092
  H  H69  1  0.308100  0.456500  0.481400  1.0  0.116
  H  H70  1  0.481200  0.555800  0.575700  1.0  0.0954
  H  H71  1  0.337400  0.525100  0.563800  1.0  0.105
  H  H72  1  0.376800  0.369400  0.606300  1.0  0.0882
  H  H73  1  0.096100  0.294100  0.519600  1.0  0.0824
  H  H74  1  0.433100  0.705200  0.563600  1.0  0.0994
  H  H75  1  0.298100  0.664900  0.698100  1.0  0.0803
  H  H76  1  0.810800  0.656900  0.751900  1.0  0.0724
  H  H77  1  0.945100  0.700400  0.885600  1.0  0.0924
  H  H78  1  0.321100  0.728200  0.826200  1.0  0.0709
  H  H79  1  0.355300  0.752200  0.881500  1.0  0.0862
  H  H80  1  0.186100  0.718700  0.769000  1.0  0.1103
  H  H81  1  0.369700  0.922100  0.819800  1.0  0.0899
  H  H82  1  0.274100  0.809800  0.937000  1.0  0.1202
  H  H83  1  0.398200  0.991300  0.954500  1.0  0.0796
  H  H84  1  0.633500  0.516900  0.610300  1.0  0.092
  H  H85  1  0.390000  0.508800  0.725300  1.0  0.1112
  H  H86  1  0.676800  0.704900  0.677800  1.0  0.1182
  H  H87  1  0.809400  0.715100  0.621200  1.0  0.0905
  H  H88  1  0.846600  0.742500  0.567000  1.0  0.0798
  H  H89  1  0.952000  0.154100  0.615400  1.0  0.2845
  H  H90  1  0.946000  0.146900  0.664100  1.0  0.3329
  H  H91  1  0.621000  0.070700  0.904500  1.0  0.3736
  H  H92  1  0.643000  0.072500  0.854900  1.0  0.3754
  H  H93  1  0.217100  0.931900  0.540600  1.0  0.1099
  H  H94  1  0.130800  0.751400  0.511600  1.0  0.088
  H  H95  1  0.630900  0.019700  0.578700  1.0  0.0972
  H  H96  1  0.275500  0.007700  0.651000  1.0  0.092
  H  H97  1  0.217300  0.987700  0.597300  1.0  0.0993
  H  H98  1  0.408100  0.000000  0.699800  1.0  0.1025
  H  H99  1  0.786100  0.053400  0.710700  1.0  0.0794
  H  H100  1  0.382000  0.490000  0.992900  1.0  0.0816
  H  H101  1  0.287800  0.305700  0.986100  1.0  0.123
  H  H102  1  0.340000  0.410000  0.862200  1.0  0.0963
  H  H103  1  0.268200  0.044500  0.754000  1.0  0.0815
  H  H104  1  0.232000  0.806800  0.647200  1.0  0.0917
  H  H105  1  0.808100  0.956500  0.018600  1.0  0.116
  H  H106  1  0.981200  0.055800  0.924300  1.0  0.0952
  H  H107  1  0.837400  0.025100  0.936200  1.0  0.1054
  H  H108  1  0.876800  0.869400  0.893700  1.0  0.0895
  H  H109  1  0.596100  0.794100  0.980400  1.0  0.0828
  H  H110  1  0.933100  0.205200  0.936400  1.0  0.0995
  H  H111  1  0.798100  0.164900  0.801900  1.0  0.0798
  H  H112  1  0.310800  0.156900  0.748100  1.0  0.0729
  H  H113  1  0.445100  0.200400  0.614400  1.0  0.0925
  H  H114  1  0.821100  0.228200  0.673800  1.0  0.0711
  H  H115  1  0.855300  0.252200  0.618500  1.0  0.0846
  H  H116  1  0.686100  0.218700  0.731000  1.0  0.1102
  H  H117  1  0.869700  0.422100  0.680200  1.0  0.09
  H  H118  1  0.774100  0.309800  0.563000  1.0  0.12
  H  H119  1  0.898200  0.491300  0.545500  1.0  0.0798
  H  H120  1  0.133500  0.016900  0.889700  1.0  0.0928
  H  H121  1  0.890000  0.008800  0.774700  1.0  0.1119
  H  H122  1  0.176800  0.204900  0.822200  1.0  0.1176
  H  H123  1  0.309400  0.215100  0.878800  1.0  0.0911
  H  H124  1  0.346600  0.242500  0.933000  1.0  0.0795
  H  H125  1  0.548000  0.345900  0.115400  1.0  0.2855
  H  H126  1  0.554000  0.353100  0.164100  1.0  0.3343
  H  H127  1  0.879000  0.429300  0.404500  1.0  0.372
  H  H128  1  0.857000  0.427500  0.354900  1.0  0.3762
  H  H129  1  0.282900  0.568100  0.040600  1.0  0.1075
  H  H130  1  0.369200  0.748600  0.011600  1.0  0.0878
  H  H131  1  0.869100  0.480300  0.078700  1.0  0.0975
  H  H132  1  0.224500  0.492300  0.151000  1.0  0.0907
  H  H133  1  0.282700  0.512300  0.097300  1.0  0.0984
  H  H134  1  0.091900  0.500000  0.199800  1.0  0.1021
  H  H135  1  0.713900  0.446600  0.210700  1.0  0.0795
  H  H136  1  0.118000  0.010000  0.492900  1.0  0.0817
  H  H137  1  0.212200  0.194300  0.486100  1.0  0.1219
  H  H138  1  0.160000  0.090000  0.362200  1.0  0.0959
  H  H139  1  0.231800  0.455500  0.254000  1.0  0.0817
  H  H140  1  0.268000  0.693200  0.147200  1.0  0.0923
  H  H141  1  0.691900  0.543500  0.518600  1.0  0.1161
  H  H142  1  0.518800  0.444200  0.424300  1.0  0.0952
  H  H143  1  0.662600  0.474900  0.436200  1.0  0.1057
  H  H144  1  0.623200  0.630600  0.393700  1.0  0.0892
  H  H145  1  0.903900  0.705900  0.480400  1.0  0.0824
  H  H146  1  0.566900  0.294800  0.436400  1.0  0.0998
  H  H147  1  0.701900  0.335100  0.301900  1.0  0.0797
  H  H148  1  0.189200  0.343100  0.248100  1.0  0.0728
  H  H149  1  0.054900  0.299600  0.114400  1.0  0.0925
  H  H150  1  0.678900  0.271800  0.173800  1.0  0.0713
  H  H151  1  0.644700  0.247800  0.118500  1.0  0.0852
  H  H152  1  0.813900  0.281300  0.231000  1.0  0.1103
  H  H153  1  0.630300  0.077900  0.180200  1.0  0.09
  H  H154  1  0.725900  0.190200  0.063000  1.0  0.1193
  H  H155  1  0.601800  0.008700  0.045500  1.0  0.0807
  H  H156  1  0.366500  0.483100  0.389700  1.0  0.0929
  H  H157  1  0.610000  0.491200  0.274700  1.0  0.1116
  H  H158  1  0.323200  0.295100  0.322200  1.0  0.1177
  H  H159  1  0.190600  0.284900  0.378800  1.0  0.0908
  H  H160  1  0.153400  0.257500  0.433000  1.0  0.0801
  C  C161  1  0.935400  0.963030  0.299500  1.0  0.6643
  C  C162  1  0.867600  0.143250  0.534110  1.0  0.6503
  C  C163  1  0.832900  0.156740  0.481960  1.0  -0.1662
  C  C164  1  0.794400  0.109340  0.448810  1.0  -0.1354
  C  C165  1  0.773300  0.123390  0.400050  1.0  0.2207
  C  C166  1  0.843300  0.216240  0.465480  1.0  0.1736
  C  C167  1  0.377800  0.978330  0.386280  1.0  0.1229
  C  C168  1  0.497800  0.990900  0.366010  1.0  0.2143
  C  C169  1  0.718700  0.018920  0.377990  1.0  0.1865
  C  C170  1  0.510900  0.989240  0.315130  1.0  -0.1427
  C  C171  1  0.403900  0.971580  0.286230  1.0  -0.1608
  C  C172  1  0.414800  0.964660  0.231010  1.0  0.6602
  C  C173  1  0.287200  0.958930  0.309230  1.0  0.1576
  C  C174  1  0.637160  0.546290  0.026330  1.0  0.1743
  C  C175  1  0.663200  0.601960  0.001510  1.0  -0.1717
  C  C176  1  0.651290  0.602350  0.945430  1.0  0.6779
  C  C177  1  0.690410  0.655560  0.029510  1.0  -0.1029
  C  C178  1  0.684500  0.650230  0.080930  1.0  0.2355
  C  C179  1  0.660400  0.592890  0.102580  1.0  0.1171
  C  C180  1  0.923400  0.973200  0.244690  1.0  -0.1715
  C  C181  1  0.802400  0.964630  0.224260  1.0  0.1559
  C  C182  1  0.489680  0.823790  0.196650  1.0  0.6819
  C  C183  1  0.784700  0.183950  0.386280  1.0  0.1237
  C  C184  1  0.386000  0.124310  0.945750  1.0  0.6566
  C  C185  1  0.310200  0.125490  0.992710  1.0  -0.1813
  C  C186  1  0.211500  0.077220  0.003370  1.0  -0.1166
  C  C187  1  0.143100  0.079030  0.046090  1.0  0.2331
  C  C188  1  0.084200  0.981550  0.080250  1.0  0.1889
  C  C189  1  0.172300  0.129220  0.077210  1.0  0.1308
  C  C190  1  0.335300  0.173300  0.026220  1.0  0.181
  C  C191  1  0.177800  0.603230  0.510300  1.0  0.6695
  C  C192  1  0.166300  0.599770  0.454510  1.0  -0.1777
  C  C193  1  0.053000  0.800480  0.098000  1.0  0.121
  C  C194  1  0.131600  0.823760  0.176490  1.0  0.1606
  C  C195  1  0.500500  0.813610  0.251650  1.0  -0.1782
  C  C196  1  0.619300  0.828270  0.272890  1.0  0.1831
  C  C197  1  0.541100  0.803470  0.350990  1.0  0.1306
  C  C198  1  0.418400  0.788930  0.333090  1.0  0.1966
  C  C199  1  0.204000  0.747050  0.353540  1.0  0.2086
  C  C200  1  0.396600  0.792630  0.282380  1.0  -0.1122
  C  C201  1  0.138700  0.583400  0.354680  1.0  0.1224
  C  C202  1  0.177300  0.641780  0.372970  1.0  0.2467
  C  C203  1  0.195200  0.650770  0.423750  1.0  -0.1158
  C  C204  1  0.123900  0.543000  0.433230  1.0  0.1707
  C  C205  1  0.880600  0.979480  0.144930  1.0  0.0989
  C  C206  1  0.003400  0.985670  0.162240  1.0  0.2779
  C  C207  1  0.026100  0.984460  0.212750  1.0  -0.1219
  C  C208  1  0.996500  0.825820  0.251410  1.0  0.6608
  C  C209  1  0.010700  0.816400  0.196220  1.0  -0.1535
  C  C210  1  0.906900  0.800540  0.165160  1.0  -0.0984
  C  C211  1  0.929400  0.792850  0.115160  1.0  0.1947
  C  C212  1  0.712400  0.757350  0.095190  1.0  0.1857
  C  C213  1  0.564600  0.536970  0.799500  1.0  0.6659
  C  C214  1  0.632400  0.356750  0.034110  1.0  0.6489
  C  C215  1  0.667100  0.343260  0.981960  1.0  -0.1682
  C  C216  1  0.705600  0.390660  0.948810  1.0  -0.136
  C  C217  1  0.726700  0.376610  0.900050  1.0  0.2221
  C  C218  1  0.656700  0.283760  0.965480  1.0  0.1727
  C  C219  1  0.122200  0.521670  0.886280  1.0  0.123
  C  C220  1  0.002200  0.509100  0.866010  1.0  0.2154
  C  C221  1  0.781300  0.481080  0.877990  1.0  0.1871
  C  C222  1  0.989100  0.510760  0.815130  1.0  -0.1434
  C  C223  1  0.096100  0.528420  0.786230  1.0  -0.1608
  C  C224  1  0.085200  0.535340  0.731010  1.0  0.6591
  C  C225  1  0.212800  0.541070  0.809230  1.0  0.16
  C  C226  1  0.862840  0.953710  0.526330  1.0  0.1753
  C  C227  1  0.836800  0.898040  0.501510  1.0  -0.1723
  C  C228  1  0.848710  0.897650  0.445430  1.0  0.6791
  C  C229  1  0.809590  0.844440  0.529510  1.0  -0.1028
  C  C230  1  0.815500  0.849770  0.580930  1.0  0.2362
  C  C231  1  0.839600  0.907110  0.602580  1.0  0.1169
  C  C232  1  0.576600  0.526800  0.744690  1.0  -0.1707
  C  C233  1  0.697600  0.535370  0.724260  1.0  0.1541
  C  C234  1  0.010320  0.676210  0.696650  1.0  0.6841
  C  C235  1  0.715300  0.316050  0.886280  1.0  0.1235
  C  C236  1  0.114000  0.375690  0.445750  1.0  0.656
  C  C237  1  0.189800  0.374510  0.492710  1.0  -0.1811
  C  C238  1  0.288500  0.422780  0.503370  1.0  -0.1161
  C  C239  1  0.356900  0.420970  0.546090  1.0  0.2341
  C  C240  1  0.415800  0.518450  0.580250  1.0  0.1885
  C  C241  1  0.327700  0.370780  0.577210  1.0  0.1305
  C  C242  1  0.164700  0.326700  0.526220  1.0  0.1813
  C  C243  1  0.322200  0.896770  0.010300  1.0  0.6698
  C  C244  1  0.333700  0.900230  0.954510  1.0  -0.178
  C  C245  1  0.447000  0.699520  0.598000  1.0  0.1203
  C  C246  1  0.368400  0.676240  0.676490  1.0  0.1593
  C  C247  1  0.999500  0.686390  0.751650  1.0  -0.1775
  C  C248  1  0.880700  0.671730  0.772890  1.0  0.1834
  C  C249  1  0.958900  0.696530  0.850990  1.0  0.1298
  C  C250  1  0.081600  0.711070  0.833090  1.0  0.1966
  C  C251  1  0.296000  0.752950  0.853540  1.0  0.2096
  C  C252  1  0.103400  0.707370  0.782380  1.0  -0.1138
  C  C253  1  0.361300  0.916600  0.854680  1.0  0.1212
  C  C254  1  0.322700  0.858220  0.872970  1.0  0.2463
  C  C255  1  0.304800  0.849230  0.923750  1.0  -0.1138
  C  C256  1  0.376100  0.957000  0.933230  1.0  0.1712
  C  C257  1  0.619400  0.520520  0.644930  1.0  0.1012
  C  C258  1  0.496600  0.514330  0.662240  1.0  0.2762
  C  C259  1  0.473900  0.515540  0.712750  1.0  -0.1232
  C  C260  1  0.503500  0.674180  0.751410  1.0  0.6607
  C  C261  1  0.489300  0.683600  0.696220  1.0  -0.1552
  C  C262  1  0.593100  0.699460  0.665160  1.0  -0.0997
  C  C263  1  0.570600  0.707150  0.615160  1.0  0.1951
  C  C264  1  0.787600  0.742650  0.595190  1.0  0.1837
  C  C265  1  0.064600  0.036970  0.700500  1.0  0.6654
  C  C266  1  0.132400  0.856750  0.465890  1.0  0.6486
  C  C267  1  0.167100  0.843260  0.518040  1.0  -0.167
  C  C268  1  0.205600  0.890660  0.551190  1.0  -0.1362
  C  C269  1  0.226700  0.876610  0.599950  1.0  0.2196
  C  C270  1  0.156700  0.783760  0.534520  1.0  0.1723
  C  C271  1  0.622200  0.021670  0.613720  1.0  0.1238
  C  C272  1  0.502200  0.009100  0.633990  1.0  0.2167
  C  C273  1  0.281300  0.981080  0.622010  1.0  0.1872
  C  C274  1  0.489100  0.010760  0.684870  1.0  -0.1438
  C  C275  1  0.596100  0.028420  0.713770  1.0  -0.1619
  C  C276  1  0.585200  0.035340  0.768990  1.0  0.6603
  C  C277  1  0.712800  0.041070  0.690770  1.0  0.1602
  C  C278  1  0.362840  0.453710  0.973670  1.0  0.1751
  C  C279  1  0.336800  0.398040  0.998490  1.0  -0.1711
  C  C280  1  0.348710  0.397650  0.054570  1.0  0.6791
  C  C281  1  0.309590  0.344440  0.970490  1.0  -0.1031
  C  C282  1  0.315500  0.349770  0.919070  1.0  0.2366
  C  C283  1  0.339600  0.407110  0.897420  1.0  0.1173
  C  C284  1  0.076600  0.026800  0.755310  1.0  -0.1703
  C  C285  1  0.197600  0.035370  0.775740  1.0  0.1539
  C  C286  1  0.510320  0.176210  0.803350  1.0  0.683
  C  C287  1  0.215300  0.816050  0.613720  1.0  0.1235
  C  C288  1  0.614000  0.875690  0.054250  1.0  0.6543
  C  C289  1  0.689800  0.874510  0.007290  1.0  -0.1804
  C  C290  1  0.788500  0.922780  0.996630  1.0  -0.1168
  C  C291  1  0.856900  0.920970  0.953910  1.0  0.2342
  C  C292  1  0.915800  0.018450  0.919750  1.0  0.1885
  C  C293  1  0.827700  0.870780  0.922790  1.0  0.1303
  C  C294  1  0.664700  0.826700  0.973780  1.0  0.1817
  C  C295  1  0.822200  0.396770  0.489700  1.0  0.669
  C  C296  1  0.833700  0.400230  0.545490  1.0  -0.1788
  C  C297  1  0.947000  0.199520  0.902000  1.0  0.1198
  C  C298  1  0.868400  0.176240  0.823510  1.0  0.1594
  C  C299  1  0.499500  0.186390  0.748350  1.0  -0.1772
  C  C300  1  0.380700  0.171730  0.727110  1.0  0.1834
  C  C301  1  0.458900  0.196530  0.649010  1.0  0.1324
  C  C302  1  0.581600  0.211070  0.666910  1.0  0.1968
  C  C303  1  0.796000  0.252950  0.646460  1.0  0.2094
  C  C304  1  0.603400  0.207370  0.717620  1.0  -0.1141
  C  C305  1  0.861300  0.416600  0.645320  1.0  0.1211
  C  C306  1  0.822700  0.358220  0.627030  1.0  0.2463
  C  C307  1  0.804800  0.349230  0.576250  1.0  -0.1136
  C  C308  1  0.876100  0.457000  0.566770  1.0  0.1712
  C  C309  1  0.119400  0.020520  0.855070  1.0  0.1011
  C  C310  1  0.996600  0.014330  0.837760  1.0  0.2753
  C  C311  1  0.973900  0.015540  0.787250  1.0  -0.1227
  C  C312  1  0.003500  0.174180  0.748590  1.0  0.6615
  C  C313  1  0.989300  0.183600  0.803780  1.0  -0.1555
  C  C314  1  0.093100  0.199460  0.834840  1.0  -0.0987
  C  C315  1  0.070600  0.207150  0.884840  1.0  0.1942
  C  C316  1  0.287600  0.242650  0.904810  1.0  0.1844
  C  C317  1  0.435400  0.463030  0.200500  1.0  0.6651
  C  C318  1  0.367600  0.643250  0.965890  1.0  0.6498
  C  C319  1  0.332900  0.656740  0.018040  1.0  -0.1679
  C  C320  1  0.294400  0.609340  0.051190  1.0  -0.1344
  C  C321  1  0.273300  0.623390  0.099950  1.0  0.2191
  C  C322  1  0.343300  0.716240  0.034520  1.0  0.1733
  C  C323  1  0.877800  0.478330  0.113720  1.0  0.1241
  C  C324  1  0.997800  0.490900  0.133990  1.0  0.2164
  C  C325  1  0.218700  0.518920  0.122010  1.0  0.1865
  C  C326  1  0.010900  0.489240  0.184870  1.0  -0.1431
  C  C327  1  0.903900  0.471580  0.213770  1.0  -0.1617
  C  C328  1  0.914800  0.464660  0.268990  1.0  0.6602
  C  C329  1  0.787200  0.458930  0.190770  1.0  0.1576
  C  C330  1  0.137160  0.046290  0.473670  1.0  0.1746
  C  C331  1  0.163200  0.101960  0.498490  1.0  -0.1729
  C  C332  1  0.151290  0.102350  0.554570  1.0  0.6782
  C  C333  1  0.190410  0.155560  0.470490  1.0  -0.1027
  C  C334  1  0.184500  0.150230  0.419070  1.0  0.2377
  C  C335  1  0.160400  0.092890  0.397420  1.0  0.1164
  C  C336  1  0.423400  0.473200  0.255310  1.0  -0.1719
  C  C337  1  0.302400  0.464630  0.275740  1.0  0.1558
  C  C338  1  0.989680  0.323790  0.303350  1.0  0.6824
  C  C339  1  0.284700  0.683950  0.113720  1.0  0.1228
  C  C340  1  0.886000  0.624310  0.554250  1.0  0.6551
  C  C341  1  0.810200  0.625490  0.507290  1.0  -0.1808
  C  C342  1  0.711500  0.577220  0.496630  1.0  -0.1168
  C  C343  1  0.643100  0.579030  0.453910  1.0  0.2334
  C  C344  1  0.584200  0.481550  0.419750  1.0  0.1888
  C  C345  1  0.672300  0.629220  0.422790  1.0  0.1326
  C  C346  1  0.835300  0.673300  0.473780  1.0  0.1817
  C  C347  1  0.677800  0.103230  0.989700  1.0  0.6699
  C  C348  1  0.666300  0.099770  0.045490  1.0  -0.1778
  C  C349  1  0.553000  0.300480  0.402000  1.0  0.1207
  C  C350  1  0.631600  0.323760  0.323510  1.0  0.1607
  C  C351  1  0.000500  0.313610  0.248350  1.0  -0.179
  C  C352  1  0.119300  0.328270  0.227110  1.0  0.1834
  C  C353  1  0.041100  0.303470  0.149010  1.0  0.1315
  C  C354  1  0.918400  0.288930  0.166910  1.0  0.1967
  C  C355  1  0.704000  0.247050  0.146460  1.0  0.2087
  C  C356  1  0.896600  0.292630  0.217620  1.0  -0.1123
  C  C357  1  0.638700  0.083400  0.145320  1.0  0.1199
  C  C358  1  0.677300  0.141780  0.127030  1.0  0.2464
  C  C359  1  0.695200  0.150770  0.076250  1.0  -0.1151
  C  C360  1  0.623900  0.043000  0.066770  1.0  0.1708
  C  C361  1  0.380600  0.479480  0.355070  1.0  0.0989
  C  C362  1  0.503400  0.485670  0.337760  1.0  0.2772
  C  C363  1  0.526100  0.484460  0.287250  1.0  -0.1219
  C  C364  1  0.496500  0.325820  0.248590  1.0  0.6601
  C  C365  1  0.510700  0.316400  0.303780  1.0  -0.1534
  C  C366  1  0.406900  0.300540  0.334840  1.0  -0.0975
  C  C367  1  0.429400  0.292850  0.384840  1.0  0.1942
  C  C368  1  0.212400  0.257350  0.404810  1.0  0.1859
  N  N369  1  0.273210  0.963440  0.358400  1.0  -0.3337
  N  N370  1  0.637740  0.541370  0.075860  1.0  -0.3425
  N  N371  1  0.781000  0.968590  0.175750  1.0  -0.3221
  N  N372  1  0.818320  0.229960  0.418520  1.0  -0.3293
  N  N373  1  0.267300  0.175610  0.067520  1.0  -0.3963
  N  N374  1  0.153390  0.815510  0.128060  1.0  -0.3376
  N  N375  1  0.640870  0.822670  0.321590  1.0  -0.3387
  N  N376  1  0.112730  0.534270  0.384030  1.0  -0.3401
  N  N377  1  0.226790  0.536560  0.858400  1.0  -0.3332
  N  N378  1  0.862260  0.958630  0.575860  1.0  -0.3434
  N  N379  1  0.719000  0.531410  0.675750  1.0  -0.3213
  N  N380  1  0.681680  0.270040  0.918520  1.0  -0.3293
  N  N381  1  0.232700  0.324390  0.567520  1.0  -0.395
  N  N382  1  0.346610  0.684490  0.628060  1.0  -0.338
  N  N383  1  0.859130  0.677330  0.821590  1.0  -0.3371
  N  N384  1  0.387270  0.965730  0.884030  1.0  -0.3404
  N  N385  1  0.726790  0.036560  0.641600  1.0  -0.3335
  N  N386  1  0.362260  0.458630  0.924140  1.0  -0.3434
  N  N387  1  0.219000  0.031410  0.824250  1.0  -0.3215
  N  N388  1  0.181680  0.770040  0.581480  1.0  -0.3291
  N  N389  1  0.732700  0.824390  0.932480  1.0  -0.3955
  N  N390  1  0.846610  0.184490  0.871940  1.0  -0.3377
  N  N391  1  0.359130  0.177330  0.678410  1.0  -0.3368
  N  N392  1  0.887270  0.465730  0.615970  1.0  -0.3405
  N  N393  1  0.773210  0.463440  0.141600  1.0  -0.3339
  N  N394  1  0.137740  0.041370  0.424140  1.0  -0.3434
  N  N395  1  0.281000  0.468590  0.324250  1.0  -0.3223
  N  N396  1  0.318320  0.729960  0.081480  1.0  -0.3292
  N  N397  1  0.767300  0.675610  0.432480  1.0  -0.3956
  N  N398  1  0.653390  0.315510  0.371940  1.0  -0.3369
  N  N399  1  0.140870  0.322670  0.178410  1.0  -0.3381
  N  N400  1  0.612730  0.034270  0.115970  1.0  -0.3397
  O  O401  1  0.841080  0.928750  0.319120  1.0  -0.5978
  O  O402  1  0.034500  0.987750  0.321780  1.0  -0.5856
  O  O403  1  0.026100  0.864530  0.361440  1.0  -0.7663
  O  O404  1  0.845560  0.088070  0.547260  1.0  -0.5965
  O  O405  1  0.919540  0.188050  0.559870  1.0  -0.5908
  O  O406  1  0.596740  0.003310  0.399230  1.0  -0.2953
  O  O407  1  0.743700  0.080680  0.362710  1.0  -0.2937
  O  O408  1  0.698000  0.697800  0.114400  1.0  -0.2737
  O  O409  1  0.583360  0.555040  0.927520  1.0  -0.5979
  O  O410  1  0.705780  0.648350  0.921480  1.0  -0.5908
  O  O411  1  0.526160  0.972480  0.213930  1.0  -0.6012
  O  O412  1  0.315570  0.950960  0.206370  1.0  -0.5912
  O  O413  1  0.583890  0.856940  0.176580  1.0  -0.6003
  O  O414  1  0.389650  0.799470  0.174700  1.0  -0.576
  O  O415  1  0.396130  0.916550  0.122530  1.0  -0.8223
  O  O416  1  0.481070  0.165720  0.938990  1.0  -0.5918
  O  O417  1  0.342800  0.081250  0.916710  1.0  -0.5914
  O  O418  1  0.043420  0.031380  0.057730  1.0  -0.29
  O  O419  1  0.216200  0.655120  0.529880  1.0  -0.5736
  O  O420  1  0.145650  0.553940  0.533520  1.0  -0.5776
  O  O421  1  0.327670  0.772720  0.369020  1.0  -0.2704
  O  O422  1  0.195660  0.686740  0.337300  1.0  -0.2785
  O  O423  1  0.107370  0.991850  0.131510  1.0  -0.282
  O  O424  1  0.887000  0.822240  0.268400  1.0  -0.5914
  O  O425  1  0.097410  0.837430  0.276150  1.0  -0.5361
  O  O426  1  0.837250  0.779120  0.078900  1.0  -0.2707
  O  O427  1  0.658920  0.571250  0.819120  1.0  -0.5983
  O  O428  1  0.465500  0.512250  0.821780  1.0  -0.5875
  O  O429  1  0.473900  0.635470  0.861440  1.0  -0.7676
  O  O430  1  0.654440  0.411930  0.047260  1.0  -0.5955
  O  O431  1  0.580460  0.311950  0.059870  1.0  -0.59
  O  O432  1  0.903260  0.496690  0.899230  1.0  -0.2966
  O  O433  1  0.756300  0.419320  0.862710  1.0  -0.2947
  O  O434  1  0.802000  0.802200  0.614400  1.0  -0.2744
  O  O435  1  0.916640  0.944960  0.427520  1.0  -0.5984
  O  O436  1  0.794220  0.851650  0.421480  1.0  -0.5895
  O  O437  1  0.973840  0.527520  0.713930  1.0  -0.6007
  O  O438  1  0.184430  0.549040  0.706370  1.0  -0.5918
  O  O439  1  0.916110  0.643060  0.676580  1.0  -0.599
  O  O440  1  0.110350  0.700530  0.674700  1.0  -0.5749
  O  O441  1  0.103870  0.583450  0.622530  1.0  -0.8237
  O  O442  1  0.018930  0.334280  0.438990  1.0  -0.5942
  O  O443  1  0.157200  0.418750  0.416710  1.0  -0.5917
  O  O444  1  0.456580  0.468620  0.557730  1.0  -0.288
  O  O445  1  0.283800  0.844880  0.029880  1.0  -0.5745
  O  O446  1  0.354350  0.946060  0.033520  1.0  -0.5793
  O  O447  1  0.172330  0.727280  0.869020  1.0  -0.2708
  O  O448  1  0.304340  0.813260  0.837300  1.0  -0.2781
  O  O449  1  0.392630  0.508150  0.631510  1.0  -0.2802
  O  O450  1  0.613000  0.677760  0.768400  1.0  -0.5906
  O  O451  1  0.402590  0.662570  0.776150  1.0  -0.5344
  O  O452  1  0.662750  0.720880  0.578900  1.0  -0.2727
  O  O453  1  0.158920  0.071250  0.680880  1.0  -0.5988
  O  O454  1  0.965500  0.012250  0.678220  1.0  -0.5868
  O  O455  1  0.973900  0.135470  0.638560  1.0  -0.7677
  O  O456  1  0.154440  0.911930  0.452740  1.0  -0.5956
  O  O457  1  0.080460  0.811950  0.440130  1.0  -0.59
  O  O458  1  0.403260  0.996690  0.600770  1.0  -0.2967
  O  O459  1  0.256300  0.919320  0.637290  1.0  -0.2955
  O  O460  1  0.302000  0.302200  0.885600  1.0  -0.2749
  O  O461  1  0.416640  0.444960  0.072480  1.0  -0.598
  O  O462  1  0.294220  0.351650  0.078520  1.0  -0.5896
  O  O463  1  0.473840  0.027520  0.786070  1.0  -0.601
  O  O464  1  0.684430  0.049040  0.793630  1.0  -0.5916
  O  O465  1  0.416110  0.143060  0.823420  1.0  -0.5992
  O  O466  1  0.610350  0.200530  0.825300  1.0  -0.5754
  O  O467  1  0.603870  0.083450  0.877470  1.0  -0.8236
  O  O468  1  0.518930  0.834280  0.061010  1.0  -0.5913
  O  O469  1  0.657200  0.918750  0.083290  1.0  -0.5917
  O  O470  1  0.956580  0.968620  0.942270  1.0  -0.2881
  O  O471  1  0.783800  0.344880  0.470120  1.0  -0.5733
  O  O472  1  0.854350  0.446060  0.466480  1.0  -0.5796
  O  O473  1  0.672330  0.227280  0.630980  1.0  -0.2687
  O  O474  1  0.804340  0.313260  0.662700  1.0  -0.2791
  O  O475  1  0.892630  0.008150  0.868490  1.0  -0.2807
  O  O476  1  0.113000  0.177760  0.731600  1.0  -0.591
  O  O477  1  0.902590  0.162570  0.723850  1.0  -0.5344
  O  O478  1  0.162750  0.220880  0.921100  1.0  -0.2742
  O  O479  1  0.341080  0.428750  0.180880  1.0  -0.5987
  O  O480  1  0.534500  0.487750  0.178220  1.0  -0.5852
  O  O481  1  0.526100  0.364530  0.138560  1.0  -0.7665
  O  O482  1  0.345560  0.588070  0.952740  1.0  -0.5964
  O  O483  1  0.419540  0.688050  0.940130  1.0  -0.5906
  O  O484  1  0.096740  0.503310  0.100770  1.0  -0.295
  O  O485  1  0.243700  0.580680  0.137290  1.0  -0.2954
  O  O486  1  0.198000  0.197800  0.385600  1.0  -0.2753
  O  O487  1  0.083360  0.055040  0.572480  1.0  -0.5978
  O  O488  1  0.205780  0.148350  0.578520  1.0  -0.5913
  O  O489  1  0.026160  0.472480  0.286070  1.0  -0.6011
  O  O490  1  0.815570  0.450960  0.293630  1.0  -0.5908
  O  O491  1  0.083890  0.356940  0.323420  1.0  -0.6002
  O  O492  1  0.889650  0.299470  0.325300  1.0  -0.5769
  O  O493  1  0.896130  0.416550  0.377470  1.0  -0.8222
  O  O494  1  0.981070  0.665720  0.561010  1.0  -0.5943
  O  O495  1  0.842800  0.581250  0.583290  1.0  -0.5911
  O  O496  1  0.543420  0.531380  0.442270  1.0  -0.29
  O  O497  1  0.716200  0.155120  0.970120  1.0  -0.5731
  O  O498  1  0.645650  0.053940  0.966480  1.0  -0.5777
  O  O499  1  0.827670  0.272720  0.130980  1.0  -0.2677
  O  O500  1  0.695660  0.186740  0.162700  1.0  -0.2788
  O  O501  1  0.607370  0.491850  0.368490  1.0  -0.2819
  O  O502  1  0.387000  0.322240  0.231600  1.0  -0.5914
  O  O503  1  0.597410  0.337430  0.223850  1.0  -0.536
  O  O504  1  0.337250  0.279120  0.421100  1.0  -0.2731
