# generated using pymatgen
data_Ni3H20C32(N2O7)2
_symmetry_space_group_name_H-M   'P 1'
_cell_length_a   13.21460000
_cell_length_b   14.42650000
_cell_length_c   14.42650000
_cell_angle_alpha   100.82000000
_cell_angle_beta   92.28060000
_cell_angle_gamma   92.28060000
_symmetry_Int_Tables_number   1
_chemical_formula_structural   Ni3H20C32(N2O7)2
_chemical_formula_sum   'Ni6 H40 C64 N8 O28'
_cell_volume   2696.10770344
_cell_formula_units_Z   2
loop_
 _symmetry_equiv_pos_site_id
 _symmetry_equiv_pos_as_xyz
  1  'x, y, z'
loop_
 _atom_site_type_symbol
 _atom_site_label
 _atom_site_symmetry_multiplicity
 _atom_site_fract_x
 _atom_site_fract_y
 _atom_site_fract_z
 _atom_site_occupancy
 _atom_site_charge
  Ni  Ni1  1  0.254990  0.589440  0.024880  1.0  0.8198
  Ni  Ni2  1  0.245010  0.975120  0.410560  1.0  0.8195
  Ni  Ni3  1  0.745010  0.410560  0.975120  1.0  0.8198
  Ni  Ni4  1  0.754990  0.024880  0.589440  1.0  0.8183
  Ni  Ni5  1  0.500000  0.500000  0.000000  1.0  1.0617
  Ni  Ni6  1  0.000000  0.000000  0.500000  1.0  1.0617
  H  H7  1  0.080200  0.527500  0.144100  1.0  0.0868
  H  H8  1  0.078500  0.546100  0.878900  1.0  0.1014
  H  H9  1  0.389400  0.175700  0.241700  1.0  0.1151
  H  H10  1  0.246100  0.809500  0.066500  1.0  0.1079
  H  H11  1  0.435400  0.298500  0.166700  1.0  0.1044
  H  H12  1  0.160200  0.402700  0.201500  1.0  0.1035
  H  H13  1  0.112600  0.278200  0.274000  1.0  0.1043
  H  H14  1  0.423000  0.314700  0.744500  1.0  0.1157
  H  H15  1  0.138700  0.377600  0.805600  1.0  0.0903
  H  H16  1  0.240500  0.636100  0.241500  1.0  0.1013
  H  H17  1  0.419800  0.855900  0.472500  1.0  0.086
  H  H18  1  0.421500  0.121100  0.453900  1.0  0.1009
  H  H19  1  0.110600  0.758300  0.824300  1.0  0.1162
  H  H20  1  0.253900  0.933500  0.190500  1.0  0.108
  H  H21  1  0.064600  0.833300  0.701500  1.0  0.1061
  H  H22  1  0.339800  0.798500  0.597300  1.0  0.1029
  H  H23  1  0.387400  0.726000  0.721800  1.0  0.1048
  H  H24  1  0.077000  0.255500  0.685300  1.0  0.1156
  H  H25  1  0.361300  0.194400  0.622400  1.0  0.0908
  H  H26  1  0.259500  0.758500  0.363900  1.0  0.0997
  H  H27  1  0.919800  0.472500  0.855900  1.0  0.0865
  H  H28  1  0.921500  0.453900  0.121100  1.0  0.1011
  H  H29  1  0.610600  0.824300  0.758300  1.0  0.1155
  H  H30  1  0.753900  0.190500  0.933500  1.0  0.1076
  H  H31  1  0.564600  0.701500  0.833300  1.0  0.1042
  H  H32  1  0.839800  0.597300  0.798500  1.0  0.1037
  H  H33  1  0.887400  0.721800  0.726000  1.0  0.1047
  H  H34  1  0.577000  0.685300  0.255500  1.0  0.1157
  H  H35  1  0.861300  0.622400  0.194400  1.0  0.0908
  H  H36  1  0.759500  0.363900  0.758500  1.0  0.1002
  H  H37  1  0.580200  0.144100  0.527500  1.0  0.0869
  H  H38  1  0.578500  0.878900  0.546100  1.0  0.1011
  H  H39  1  0.889400  0.241700  0.175700  1.0  0.1155
  H  H40  1  0.746100  0.066500  0.809500  1.0  0.1084
  H  H41  1  0.935400  0.166700  0.298500  1.0  0.1051
  H  H42  1  0.660200  0.201500  0.402700  1.0  0.1027
  H  H43  1  0.612600  0.274000  0.278200  1.0  0.1043
  H  H44  1  0.923000  0.744500  0.314700  1.0  0.1158
  H  H45  1  0.638700  0.805600  0.377600  1.0  0.0904
  H  H46  1  0.740500  0.241500  0.636100  1.0  0.1002
  C  C47  1  0.048600  0.517000  0.084000  1.0  0.1078
  C  C48  1  0.047600  0.527800  0.929800  1.0  0.1053
  C  C49  1  0.342600  0.219900  0.232300  1.0  -0.0608
  C  C50  1  0.325600  0.433500  0.869100  1.0  0.6929
  C  C51  1  0.330700  0.436500  0.119100  1.0  0.6826
  C  C52  1  0.286100  0.356300  0.788300  1.0  -0.105
  C  C53  1  0.302200  0.360600  0.173400  1.0  -0.1233
  C  C54  1  0.209700  0.131600  0.308200  1.0  0.6337
  C  C55  1  0.247400  0.796900  0.127500  1.0  0.1135
  C  C56  1  0.370000  0.293900  0.187500  1.0  -0.0278
  C  C57  1  0.244800  0.212800  0.262600  1.0  -0.1252
  C  C58  1  0.205500  0.356400  0.207800  1.0  -0.0625
  C  C59  1  0.177500  0.281900  0.251700  1.0  -0.034
  C  C60  1  0.353500  0.302700  0.733100  1.0  -0.0593
  C  C61  1  0.183700  0.339800  0.769600  1.0  -0.0476
  C  C62  1  0.245600  0.696900  0.228700  1.0  0.0972
  C  C63  1  0.451400  0.916000  0.483000  1.0  0.1044
  C  C64  1  0.452400  0.070200  0.472200  1.0  0.1052
  C  C65  1  0.157400  0.767700  0.780100  1.0  -0.0602
  C  C66  1  0.174400  0.130900  0.566500  1.0  0.692
  C  C67  1  0.169300  0.880900  0.563500  1.0  0.6833
  C  C68  1  0.213900  0.211700  0.643700  1.0  -0.1056
  C  C69  1  0.197800  0.826600  0.639400  1.0  -0.124
  C  C70  1  0.290300  0.691800  0.868400  1.0  0.6369
  C  C71  1  0.252600  0.872500  0.203100  1.0  0.1116
  C  C72  1  0.130000  0.812500  0.706100  1.0  -0.0292
  C  C73  1  0.255200  0.737400  0.787200  1.0  -0.1262
  C  C74  1  0.294500  0.792200  0.643600  1.0  -0.0629
  C  C75  1  0.322500  0.748300  0.718100  1.0  -0.0338
  C  C76  1  0.146500  0.266900  0.697300  1.0  -0.0608
  C  C77  1  0.316300  0.230400  0.660200  1.0  -0.0467
  C  C78  1  0.254400  0.771300  0.303100  1.0  0.0966
  C  C79  1  0.951400  0.483000  0.916000  1.0  0.1059
  C  C80  1  0.952400  0.472200  0.070200  1.0  0.1055
  C  C81  1  0.657400  0.780100  0.767700  1.0  -0.0604
  C  C82  1  0.674400  0.566500  0.130900  1.0  0.6908
  C  C83  1  0.669300  0.563500  0.880900  1.0  0.6832
  C  C84  1  0.713900  0.643700  0.211700  1.0  -0.106
  C  C85  1  0.697800  0.639400  0.826600  1.0  -0.1241
  C  C86  1  0.790300  0.868400  0.691800  1.0  0.6352
  C  C87  1  0.752600  0.203100  0.872500  1.0  0.1129
  C  C88  1  0.630000  0.706100  0.812500  1.0  -0.0285
  C  C89  1  0.755200  0.787200  0.737400  1.0  -0.1247
  C  C90  1  0.794500  0.643600  0.792200  1.0  -0.0624
  C  C91  1  0.822500  0.718100  0.748300  1.0  -0.0338
  C  C92  1  0.646500  0.697300  0.266900  1.0  -0.061
  C  C93  1  0.816300  0.660200  0.230400  1.0  -0.0471
  C  C94  1  0.754400  0.303100  0.771300  1.0  0.0974
  C  C95  1  0.548600  0.084000  0.517000  1.0  0.1056
  C  C96  1  0.547600  0.929800  0.527800  1.0  0.1054
  C  C97  1  0.842600  0.232300  0.219900  1.0  -0.0611
  C  C98  1  0.825600  0.869100  0.433500  1.0  0.6933
  C  C99  1  0.830700  0.119100  0.436500  1.0  0.684
  C  C100  1  0.786100  0.788300  0.356300  1.0  -0.1051
  C  C101  1  0.802200  0.173400  0.360600  1.0  -0.1242
  C  C102  1  0.709700  0.308200  0.131600  1.0  0.6374
  C  C103  1  0.747400  0.127500  0.796900  1.0  0.1125
  C  C104  1  0.870000  0.187500  0.293900  1.0  -0.0286
  C  C105  1  0.744800  0.262600  0.212800  1.0  -0.1264
  C  C106  1  0.705500  0.207800  0.356400  1.0  -0.0646
  C  C107  1  0.677500  0.251700  0.281900  1.0  -0.035
  C  C108  1  0.853500  0.733100  0.302700  1.0  -0.059
  C  C109  1  0.683700  0.769600  0.339800  1.0  -0.0476
  C  C110  1  0.745600  0.228700  0.696900  1.0  0.0948
  N  N111  1  0.244000  0.707000  0.138200  1.0  -0.2675
  N  N112  1  0.096500  0.545000  0.014800  1.0  -0.2299
  N  N113  1  0.256000  0.861800  0.293000  1.0  -0.2648
  N  N114  1  0.403500  0.985200  0.455000  1.0  -0.2306
  N  N115  1  0.756000  0.293000  0.861800  1.0  -0.2668
  N  N116  1  0.903500  0.455000  0.985200  1.0  -0.2296
  N  N117  1  0.744000  0.138200  0.707000  1.0  -0.2696
  N  N118  1  0.596500  0.014800  0.545000  1.0  -0.2299
  O  O119  1  0.261300  0.479000  0.914800  1.0  -0.553
  O  O120  1  0.271700  0.503500  0.121100  1.0  -0.5834
  O  O121  1  0.274300  0.073300  0.324100  1.0  -0.569
  O  O122  1  0.419800  0.443000  0.881200  1.0  -0.56
  O  O123  1  0.411800  0.620400  0.023200  1.0  -0.4351
  O  O124  1  0.411700  0.426400  0.076200  1.0  -0.536
  O  O125  1  0.118100  0.129300  0.326500  1.0  -0.4332
  O  O126  1  0.238700  0.085200  0.521000  1.0  -0.5521
  O  O127  1  0.228300  0.878900  0.496500  1.0  -0.5855
  O  O128  1  0.225700  0.675900  0.926700  1.0  -0.5694
  O  O129  1  0.080200  0.118800  0.557000  1.0  -0.5589
  O  O130  1  0.088200  0.976800  0.379600  1.0  -0.4313
  O  O131  1  0.088300  0.923800  0.573600  1.0  -0.5415
  O  O132  1  0.381900  0.673500  0.870700  1.0  -0.4312
  O  O133  1  0.738700  0.521000  0.085200  1.0  -0.5515
  O  O134  1  0.728300  0.496500  0.878900  1.0  -0.5832
  O  O135  1  0.725700  0.926700  0.675900  1.0  -0.5677
  O  O136  1  0.580200  0.557000  0.118800  1.0  -0.5603
  O  O137  1  0.588200  0.379600  0.976800  1.0  -0.4292
  O  O138  1  0.588300  0.573600  0.923800  1.0  -0.5373
  O  O139  1  0.881900  0.870700  0.673500  1.0  -0.4312
  O  O140  1  0.761300  0.914800  0.479000  1.0  -0.5532
  O  O141  1  0.771700  0.121100  0.503500  1.0  -0.5854
  O  O142  1  0.774300  0.324100  0.073300  1.0  -0.5697
  O  O143  1  0.919800  0.881200  0.443000  1.0  -0.5594
  O  O144  1  0.911800  0.023200  0.620400  1.0  -0.4318
  O  O145  1  0.911700  0.076200  0.426400  1.0  -0.5353
  O  O146  1  0.618100  0.326500  0.129300  1.0  -0.4317
