# generated using pymatgen
data_CdH28C26(N3O2)2
_symmetry_space_group_name_H-M   'P 1'
_cell_length_a   5.21330000
_cell_length_b   18.41400000
_cell_length_c   28.51700000
_cell_angle_alpha   90.00000000
_cell_angle_beta   90.00000000
_cell_angle_gamma   90.00000000
_symmetry_Int_Tables_number   1
_chemical_formula_structural   CdH28C26(N3O2)2
_chemical_formula_sum   'Cd4 H112 C104 N24 O16'
_cell_volume   2737.56658771
_cell_formula_units_Z   4
loop_
 _symmetry_equiv_pos_site_id
 _symmetry_equiv_pos_as_xyz
  1  'x, y, z'
loop_
 _atom_site_type_symbol
 _atom_site_label
 _atom_site_symmetry_multiplicity
 _atom_site_fract_x
 _atom_site_fract_y
 _atom_site_fract_z
 _atom_site_occupancy
 _atom_site_charge
  Cd  Cd1  1  0.102120  0.670250  0.659910  1.0  1.0396
  Cd  Cd2  1  0.602120  0.329750  0.340090  1.0  1.0375
  Cd  Cd3  1  0.102120  0.170250  0.840090  1.0  1.0387
  Cd  Cd4  1  0.602120  0.829750  0.159910  1.0  1.0393
  H  H5  1  0.306900  0.329100  0.818100  1.0  0.1239
  H  H6  1  0.563500  0.371500  0.826900  1.0  0.1207
  H  H7  1  0.155400  0.309700  0.736500  1.0  0.1077
  H  H8  1  0.145300  0.352700  0.660700  1.0  0.1009
  H  H9  1  0.788400  0.463500  0.682900  1.0  0.1021
  H  H10  1  0.807000  0.419800  0.758400  1.0  0.1027
  H  H11  1  0.615000  0.457000  0.603700  1.0  0.1398
  H  H12  1  0.376900  0.407000  0.594400  1.0  0.1137
  H  H13  1  0.344500  0.542900  0.731900  1.0  0.0688
  H  H14  1  0.715500  0.642900  0.756600  1.0  0.0974
  H  H15  1  0.575400  0.568500  0.833600  1.0  0.089
  H  H16  1  0.761800  0.504800  0.846800  1.0  0.1048
  H  H17  1  0.455700  0.736500  0.873500  1.0  0.1154
  H  H18  1  0.646100  0.732800  0.831000  1.0  0.1233
  H  H19  1  0.464800  0.667000  0.841800  1.0  0.1115
  H  H20  1  0.692400  0.806500  0.902800  1.0  0.1173
  H  H21  1  0.647700  0.790200  0.956100  1.0  0.1151
  H  H22  1  0.913400  0.820000  0.939000  1.0  0.1223
  H  H23  1  0.978300  0.462000  0.900300  1.0  0.1104
  H  H24  1  0.224500  0.490500  0.874700  1.0  0.1103
  H  H25  1  0.228300  0.478200  0.929100  1.0  0.1085
  H  H26  1  0.483700  0.589800  0.973800  1.0  0.1129
  H  H27  1  0.275200  0.592300  0.013400  1.0  0.1073
  H  H28  1  0.296700  0.524000  0.980800  1.0  0.1224
  H  H29  1  0.183500  0.775300  0.983800  1.0  0.107
  H  H30  1  0.304600  0.705100  0.005700  1.0  0.0897
  H  H31  1  0.968400  0.831800  0.055500  1.0  0.1172
  H  H32  1  0.589400  0.666500  0.101300  1.0  0.0799
  H  H33  1  0.806900  0.670900  0.181900  1.0  0.1237
  H  H34  1  0.063500  0.628500  0.173100  1.0  0.1211
  H  H35  1  0.655400  0.690300  0.263500  1.0  0.108
  H  H36  1  0.645300  0.647300  0.339300  1.0  0.1012
  H  H37  1  0.288400  0.536500  0.317100  1.0  0.1014
  H  H38  1  0.307000  0.580200  0.241600  1.0  0.1023
  H  H39  1  0.115000  0.543000  0.396300  1.0  0.141
  H  H40  1  0.876900  0.593000  0.405600  1.0  0.113
  H  H41  1  0.844500  0.457100  0.268100  1.0  0.0692
  H  H42  1  0.215500  0.357100  0.243400  1.0  0.0973
  H  H43  1  0.075400  0.431500  0.166400  1.0  0.0898
  H  H44  1  0.261800  0.495200  0.153200  1.0  0.1044
  H  H45  1  0.955700  0.263500  0.126500  1.0  0.1156
  H  H46  1  0.146100  0.267200  0.169000  1.0  0.125
  H  H47  1  0.964800  0.333000  0.158200  1.0  0.1116
  H  H48  1  0.192400  0.193500  0.097200  1.0  0.1171
  H  H49  1  0.147700  0.209800  0.043900  1.0  0.1162
  H  H50  1  0.413400  0.180000  0.061000  1.0  0.1215
  H  H51  1  0.478300  0.538000  0.099700  1.0  0.1103
  H  H52  1  0.724500  0.509500  0.125300  1.0  0.1108
  H  H53  1  0.728300  0.521800  0.070900  1.0  0.1077
  H  H54  1  0.983700  0.410200  0.026200  1.0  0.1132
  H  H55  1  0.775200  0.407700  0.986600  1.0  0.1079
  H  H56  1  0.796700  0.476000  0.019200  1.0  0.1225
  H  H57  1  0.683500  0.224700  0.016200  1.0  0.107
  H  H58  1  0.804600  0.294900  0.994300  1.0  0.0897
  H  H59  1  0.468400  0.168200  0.944500  1.0  0.1182
  H  H60  1  0.089400  0.333500  0.898700  1.0  0.0794
  H  H61  1  0.306900  0.829100  0.681900  1.0  0.1234
  H  H62  1  0.563500  0.871500  0.673100  1.0  0.1211
  H  H63  1  0.155400  0.809700  0.763500  1.0  0.1076
  H  H64  1  0.145300  0.852700  0.839300  1.0  0.1009
  H  H65  1  0.788400  0.963500  0.817100  1.0  0.1015
  H  H66  1  0.807000  0.919800  0.741600  1.0  0.1025
  H  H67  1  0.615000  0.957000  0.896300  1.0  0.1409
  H  H68  1  0.376900  0.907000  0.905600  1.0  0.1124
  H  H69  1  0.344500  0.042900  0.768100  1.0  0.0689
  H  H70  1  0.715500  0.142900  0.743400  1.0  0.0971
  H  H71  1  0.575400  0.068500  0.666400  1.0  0.0895
  H  H72  1  0.761800  0.004800  0.653200  1.0  0.1047
  H  H73  1  0.455700  0.236500  0.626500  1.0  0.1159
  H  H74  1  0.646100  0.232800  0.669000  1.0  0.1247
  H  H75  1  0.464800  0.167000  0.658200  1.0  0.1115
  H  H76  1  0.692400  0.306500  0.597200  1.0  0.1154
  H  H77  1  0.647700  0.290200  0.543900  1.0  0.1168
  H  H78  1  0.913400  0.320000  0.561000  1.0  0.1216
  H  H79  1  0.978300  0.962000  0.599700  1.0  0.1105
  H  H80  1  0.224500  0.990500  0.625300  1.0  0.111
  H  H81  1  0.228300  0.978200  0.570900  1.0  0.1079
  H  H82  1  0.483700  0.089800  0.526200  1.0  0.1131
  H  H83  1  0.275200  0.092300  0.486600  1.0  0.1077
  H  H84  1  0.296700  0.024000  0.519200  1.0  0.1222
  H  H85  1  0.183500  0.275300  0.516200  1.0  0.1068
  H  H86  1  0.304600  0.205100  0.494300  1.0  0.0897
  H  H87  1  0.968400  0.331800  0.444500  1.0  0.1173
  H  H88  1  0.589400  0.166500  0.398700  1.0  0.0798
  H  H89  1  0.806900  0.170900  0.318100  1.0  0.1236
  H  H90  1  0.063500  0.128500  0.326900  1.0  0.121
  H  H91  1  0.655400  0.190300  0.236500  1.0  0.1079
  H  H92  1  0.645300  0.147300  0.160700  1.0  0.1011
  H  H93  1  0.288400  0.036500  0.182900  1.0  0.1013
  H  H94  1  0.307000  0.080200  0.258400  1.0  0.1027
  H  H95  1  0.115000  0.043000  0.103700  1.0  0.139
  H  H96  1  0.876900  0.093000  0.094400  1.0  0.1134
  H  H97  1  0.844500  0.957100  0.231900  1.0  0.0689
  H  H98  1  0.215500  0.857100  0.256600  1.0  0.0972
  H  H99  1  0.075400  0.931500  0.333600  1.0  0.0894
  H  H100  1  0.261800  0.995200  0.346800  1.0  0.1044
  H  H101  1  0.955700  0.763500  0.373500  1.0  0.1155
  H  H102  1  0.146100  0.767200  0.331000  1.0  0.1231
  H  H103  1  0.964800  0.833000  0.341800  1.0  0.1119
  H  H104  1  0.192400  0.693500  0.402800  1.0  0.1188
  H  H105  1  0.147700  0.709800  0.456100  1.0  0.1155
  H  H106  1  0.413400  0.680000  0.439000  1.0  0.1222
  H  H107  1  0.478300  0.038000  0.400300  1.0  0.1104
  H  H108  1  0.724500  0.009500  0.374700  1.0  0.111
  H  H109  1  0.728300  0.021800  0.429100  1.0  0.1081
  H  H110  1  0.983700  0.910200  0.473800  1.0  0.113
  H  H111  1  0.775200  0.907700  0.513400  1.0  0.1074
  H  H112  1  0.796700  0.976000  0.480800  1.0  0.1222
  H  H113  1  0.683500  0.724700  0.483800  1.0  0.1069
  H  H114  1  0.804600  0.794900  0.505700  1.0  0.0903
  H  H115  1  0.468400  0.668200  0.555500  1.0  0.1183
  H  H116  1  0.089400  0.833500  0.601300  1.0  0.08
  C  C117  1  0.624800  0.263700  0.811900  1.0  0.744
  C  C118  1  0.481900  0.335300  0.807200  1.0  -0.3636
  C  C119  1  0.478900  0.362100  0.756200  1.0  0.0946
  C  C120  1  0.282900  0.341100  0.726000  1.0  -0.1304
  C  C121  1  0.277600  0.366900  0.680600  1.0  -0.1344
  C  C122  1  0.467300  0.414100  0.663700  1.0  0.1066
  C  C123  1  0.659700  0.432600  0.693500  1.0  -0.1289
  C  C124  1  0.670500  0.406900  0.739200  1.0  -0.142
  C  C125  1  0.445100  0.444300  0.614900  1.0  -0.3526
  C  C126  1  0.272900  0.511400  0.612200  1.0  0.7624
  C  C127  1  0.195100  0.557900  0.746900  1.0  0.3053
  C  C128  1  0.857200  0.612500  0.759300  1.0  0.1675
  C  C129  1  0.753700  0.556100  0.839000  1.0  -0.0473
  C  C130  1  0.855600  0.600500  0.880100  1.0  -0.0985
  C  C131  1  0.770200  0.672500  0.887300  1.0  0.0427
  C  C132  1  0.565000  0.705200  0.855400  1.0  -0.3573
  C  C133  1  0.864300  0.712900  0.923900  1.0  0.0419
  C  C134  1  0.771000  0.789300  0.931100  1.0  -0.342
  C  C135  1  0.042700  0.682100  0.954200  1.0  -0.0925
  C  C136  1  0.124300  0.610100  0.948100  1.0  0.0433
  C  C137  1  0.037500  0.570000  0.910500  1.0  0.0468
  C  C138  1  0.125000  0.493300  0.903000  1.0  -0.3357
  C  C139  1  0.312000  0.575900  0.982100  1.0  -0.3456
  C  C140  1  0.145800  0.726600  0.994700  1.0  -0.0597
  C  C141  1  0.903500  0.785200  0.059900  1.0  0.1643
  C  C142  1  0.701100  0.695500  0.084100  1.0  0.2688
  C  C143  1  0.124800  0.736300  0.188100  1.0  0.7432
  C  C144  1  0.981900  0.664700  0.192800  1.0  -0.3619
  C  C145  1  0.978900  0.637900  0.243800  1.0  0.0947
  C  C146  1  0.782900  0.658900  0.274000  1.0  -0.1309
  C  C147  1  0.777600  0.633100  0.319400  1.0  -0.1339
  C  C148  1  0.967300  0.585900  0.336300  1.0  0.1072
  C  C149  1  0.159700  0.567400  0.306500  1.0  -0.1286
  C  C150  1  0.170500  0.593100  0.260800  1.0  -0.1422
  C  C151  1  0.945100  0.555700  0.385100  1.0  -0.3589
  C  C152  1  0.772900  0.488600  0.387800  1.0  0.7623
  C  C153  1  0.695100  0.442100  0.253100  1.0  0.3061
  C  C154  1  0.357200  0.387500  0.240700  1.0  0.1679
  C  C155  1  0.253700  0.443900  0.161000  1.0  -0.0478
  C  C156  1  0.355600  0.399500  0.119900  1.0  -0.0989
  C  C157  1  0.270200  0.327500  0.112700  1.0  0.0427
  C  C158  1  0.065000  0.294800  0.144600  1.0  -0.3574
  C  C159  1  0.364300  0.287100  0.076100  1.0  0.0419
  C  C160  1  0.271000  0.210700  0.068900  1.0  -0.342
  C  C161  1  0.542700  0.317900  0.045800  1.0  -0.0929
  C  C162  1  0.624300  0.389900  0.051900  1.0  0.0429
  C  C163  1  0.537500  0.430000  0.089500  1.0  0.0461
  C  C164  1  0.625000  0.506700  0.097000  1.0  -0.3358
  C  C165  1  0.812000  0.424100  0.017900  1.0  -0.3456
  C  C166  1  0.645800  0.273400  0.005300  1.0  -0.0605
  C  C167  1  0.403500  0.214800  0.940100  1.0  0.1642
  C  C168  1  0.201100  0.304500  0.915900  1.0  0.2686
  C  C169  1  0.624800  0.763700  0.688100  1.0  0.7441
  C  C170  1  0.481900  0.835300  0.692800  1.0  -0.3623
  C  C171  1  0.478900  0.862100  0.743800  1.0  0.095
  C  C172  1  0.282900  0.841100  0.774000  1.0  -0.1306
  C  C173  1  0.277600  0.866900  0.819400  1.0  -0.1342
  C  C174  1  0.467300  0.914100  0.836300  1.0  0.1071
  C  C175  1  0.659700  0.932600  0.806500  1.0  -0.1284
  C  C176  1  0.670500  0.906900  0.760800  1.0  -0.1425
  C  C177  1  0.445100  0.944300  0.885100  1.0  -0.3587
  C  C178  1  0.272900  0.011400  0.887800  1.0  0.7628
  C  C179  1  0.195100  0.057900  0.753100  1.0  0.3061
  C  C180  1  0.857200  0.112500  0.740700  1.0  0.1675
  C  C181  1  0.753700  0.056100  0.661000  1.0  -0.0476
  C  C182  1  0.855600  0.100500  0.619900  1.0  -0.0987
  C  C183  1  0.770200  0.172500  0.612700  1.0  0.0427
  C  C184  1  0.565000  0.205200  0.644600  1.0  -0.3575
  C  C185  1  0.864300  0.212900  0.576100  1.0  0.0418
  C  C186  1  0.771000  0.289300  0.568900  1.0  -0.3426
  C  C187  1  0.042700  0.182100  0.545800  1.0  -0.0931
  C  C188  1  0.124300  0.110100  0.551900  1.0  0.0427
  C  C189  1  0.037500  0.070000  0.589500  1.0  0.0469
  C  C190  1  0.125000  0.993300  0.597000  1.0  -0.3357
  C  C191  1  0.312000  0.075900  0.517900  1.0  -0.3455
  C  C192  1  0.145800  0.226600  0.505300  1.0  -0.0603
  C  C193  1  0.903500  0.285200  0.440100  1.0  0.1642
  C  C194  1  0.701100  0.195500  0.415900  1.0  0.2694
  C  C195  1  0.124800  0.236300  0.311900  1.0  0.7429
  C  C196  1  0.981900  0.164700  0.307200  1.0  -0.3636
  C  C197  1  0.978900  0.137900  0.256200  1.0  0.0942
  C  C198  1  0.782900  0.158900  0.226000  1.0  -0.1308
  C  C199  1  0.777600  0.133100  0.180600  1.0  -0.134
  C  C200  1  0.967300  0.085900  0.163700  1.0  0.1067
  C  C201  1  0.159700  0.067400  0.193500  1.0  -0.1287
  C  C202  1  0.170500  0.093100  0.239200  1.0  -0.1416
  C  C203  1  0.945100  0.055700  0.114900  1.0  -0.357
  C  C204  1  0.772900  0.988600  0.112200  1.0  0.762
  C  C205  1  0.695100  0.942100  0.246900  1.0  0.3054
  C  C206  1  0.357200  0.887500  0.259300  1.0  0.168
  C  C207  1  0.253700  0.943900  0.339000  1.0  -0.0478
  C  C208  1  0.355600  0.899500  0.380100  1.0  -0.0989
  C  C209  1  0.270200  0.827500  0.387300  1.0  0.0426
  C  C210  1  0.065000  0.794800  0.355400  1.0  -0.3568
  C  C211  1  0.364300  0.787100  0.423900  1.0  0.0419
  C  C212  1  0.271000  0.710700  0.431100  1.0  -0.342
  C  C213  1  0.542700  0.817900  0.454200  1.0  -0.0921
  C  C214  1  0.624300  0.889900  0.448100  1.0  0.0433
  C  C215  1  0.537500  0.930000  0.410500  1.0  0.046
  C  C216  1  0.625000  0.006700  0.403000  1.0  -0.3355
  C  C217  1  0.812000  0.924100  0.482100  1.0  -0.3456
  C  C218  1  0.645800  0.773400  0.494700  1.0  -0.0598
  C  C219  1  0.403500  0.714800  0.559900  1.0  0.1646
  C  C220  1  0.201100  0.804500  0.584100  1.0  0.2678
  N  N221  1  0.740300  0.767100  0.093780  1.0  -0.4553
  N  N222  1  0.960700  0.730200  0.033800  1.0  0.1757
  N  N223  1  0.832700  0.671100  0.048900  1.0  -0.38
  N  N224  1  0.902900  0.569500  0.795900  1.0  0.137
  N  N225  1  0.128200  0.532700  0.787940  1.0  -0.3741
  N  N226  1  0.036600  0.606600  0.727490  1.0  -0.4178
  N  N227  1  0.240300  0.232900  0.906220  1.0  -0.4567
  N  N228  1  0.460700  0.269800  0.966200  1.0  0.1755
  N  N229  1  0.332700  0.328900  0.951100  1.0  -0.3798
  N  N230  1  0.402900  0.430500  0.204100  1.0  0.1378
  N  N231  1  0.628200  0.467300  0.212060  1.0  -0.3749
  N  N232  1  0.536600  0.393400  0.272510  1.0  -0.4186
  N  N233  1  0.740300  0.267100  0.406220  1.0  -0.4549
  N  N234  1  0.960700  0.230200  0.466200  1.0  0.1757
  N  N235  1  0.832700  0.171100  0.451100  1.0  -0.3797
  N  N236  1  0.902900  0.069500  0.704100  1.0  0.1375
  N  N237  1  0.128200  0.032700  0.712060  1.0  -0.375
  N  N238  1  0.036600  0.106600  0.772510  1.0  -0.4194
  N  N239  1  0.240300  0.732900  0.593780  1.0  -0.4568
  N  N240  1  0.460700  0.769800  0.533800  1.0  0.1757
  N  N241  1  0.332700  0.828900  0.548900  1.0  -0.3801
  N  N242  1  0.402900  0.930500  0.295900  1.0  0.1373
  N  N243  1  0.628200  0.967300  0.287940  1.0  -0.3735
  N  N244  1  0.536600  0.893400  0.227490  1.0  -0.4188
  O  O245  1  0.083800  0.508200  0.586200  1.0  -0.6661
  O  O246  1  0.328400  0.564300  0.637470  1.0  -0.6808
  O  O247  1  0.860900  0.267600  0.819000  1.0  -0.6115
  O  O248  1  0.500500  0.205000  0.808200  1.0  -0.6617
  O  O249  1  0.583800  0.491800  0.413800  1.0  -0.6646
  O  O250  1  0.828400  0.435700  0.362530  1.0  -0.6803
  O  O251  1  0.360900  0.732400  0.181000  1.0  -0.6101
  O  O252  1  0.000500  0.795000  0.191800  1.0  -0.6636
  O  O253  1  0.083800  0.008200  0.913800  1.0  -0.6658
  O  O254  1  0.328400  0.064300  0.862530  1.0  -0.6806
  O  O255  1  0.860900  0.767600  0.681000  1.0  -0.6116
  O  O256  1  0.500500  0.705000  0.691800  1.0  -0.662
  O  O257  1  0.583800  0.991800  0.086200  1.0  -0.6661
  O  O258  1  0.828400  0.935700  0.137470  1.0  -0.6798
  O  O259  1  0.360900  0.232400  0.319000  1.0  -0.6103
  O  O260  1  0.000500  0.295000  0.308200  1.0  -0.6641
