# generated using pymatgen
data_Zn3H10(C8O5)2
_symmetry_space_group_name_H-M   'P 1'
_cell_length_a   15.26050000
_cell_length_b   17.73740000
_cell_length_c   18.26350000
_cell_angle_alpha   113.07100000
_cell_angle_beta   90.00000000
_cell_angle_gamma   90.00000000
_symmetry_Int_Tables_number   1
_chemical_formula_structural   Zn3H10(C8O5)2
_chemical_formula_sum   'Zn18 H60 C96 O60'
_cell_volume   4548.20447674
_cell_formula_units_Z   6
loop_
 _symmetry_equiv_pos_site_id
 _symmetry_equiv_pos_as_xyz
  1  'x, y, z'
loop_
 _atom_site_type_symbol
 _atom_site_label
 _atom_site_symmetry_multiplicity
 _atom_site_fract_x
 _atom_site_fract_y
 _atom_site_fract_z
 _atom_site_occupancy
 _atom_site_charge
  Zn  Zn1  1  0.495400  0.500250  0.834240  1.0  1.1824
  Zn  Zn2  1  0.096390  0.001990  0.166180  1.0  1.0803
  Zn  Zn3  1  0.596030  0.497730  0.995210  1.0  1.0769
  Zn  Zn4  1  0.906840  0.998050  0.167140  1.0  1.0916
  Zn  Zn5  1  0.995400  0.999750  0.665760  1.0  1.1823
  Zn  Zn6  1  0.596390  0.498010  0.333820  1.0  1.0802
  Zn  Zn7  1  0.096030  0.002270  0.504790  1.0  1.0782
  Zn  Zn8  1  0.406840  0.501950  0.332860  1.0  1.0916
  Zn  Zn9  1  0.504600  0.499750  0.165760  1.0  1.1834
  Zn  Zn10  1  0.903610  0.998010  0.833820  1.0  1.0803
  Zn  Zn11  1  0.403970  0.502270  0.004790  1.0  1.0776
  Zn  Zn12  1  0.093160  0.001950  0.832860  1.0  1.0913
  Zn  Zn13  1  0.004600  0.000250  0.334240  1.0  1.1834
  Zn  Zn14  1  0.403610  0.501990  0.666180  1.0  1.0806
  Zn  Zn15  1  0.903970  0.997730  0.495210  1.0  1.0771
  Zn  Zn16  1  0.593160  0.498050  0.667140  1.0  1.0912
  Zn  Zn17  1  0.000000  0.000000  0.000000  1.0  1.1843
  Zn  Zn18  1  0.500000  0.500000  0.500000  1.0  1.1843
  H  H19  1  0.495100  0.392800  0.688100  1.0  0.4485
  H  H20  1  0.499900  0.607600  0.979900  1.0  0.45
  H  H21  1  0.997200  0.107000  0.145400  1.0  0.4493
  H  H22  1  0.824400  0.167700  0.798000  1.0  0.0946
  H  H23  1  0.748200  0.280900  0.880300  1.0  0.1009
  H  H24  1  0.606200  0.278100  0.694300  1.0  0.1019
  H  H25  1  0.687900  0.167900  0.610600  1.0  0.1046
  H  H26  1  0.119500  0.782500  0.870600  1.0  0.1024
  H  H27  1  0.206300  0.676600  0.787100  1.0  0.1096
  H  H28  1  0.381700  0.720100  0.963100  1.0  0.1043
  H  H29  1  0.294800  0.826700  0.046700  1.0  0.1033
  H  H30  1  0.677200  0.666500  0.973600  1.0  0.1021
  H  H31  1  0.746800  0.785900  0.054700  1.0  0.0985
  H  H32  1  0.823300  0.826200  0.863100  1.0  0.0959
  H  H33  1  0.752500  0.708300  0.781900  1.0  0.1006
  H  H34  1  0.995100  0.107200  0.811900  1.0  0.4465
  H  H35  1  0.999900  0.892400  0.520100  1.0  0.4524
  H  H36  1  0.497200  0.393000  0.354600  1.0  0.4512
  H  H37  1  0.324400  0.332300  0.702000  1.0  0.0948
  H  H38  1  0.248200  0.219100  0.619700  1.0  0.1013
  H  H39  1  0.106200  0.221900  0.805700  1.0  0.1017
  H  H40  1  0.187900  0.332100  0.889400  1.0  0.1044
  H  H41  1  0.619500  0.717500  0.629400  1.0  0.1019
  H  H42  1  0.706300  0.823400  0.712900  1.0  0.1096
  H  H43  1  0.881700  0.779900  0.536900  1.0  0.1045
  H  H44  1  0.794800  0.673300  0.453300  1.0  0.1038
  H  H45  1  0.177200  0.833500  0.526400  1.0  0.1022
  H  H46  1  0.246800  0.714100  0.445300  1.0  0.0989
  H  H47  1  0.323300  0.673800  0.636900  1.0  0.0962
  H  H48  1  0.252500  0.791700  0.718100  1.0  0.1002
  H  H49  1  0.504900  0.607200  0.311900  1.0  0.4463
  H  H50  1  0.500100  0.392400  0.020100  1.0  0.4522
  H  H51  1  0.002800  0.893000  0.854600  1.0  0.4514
  H  H52  1  0.175600  0.832300  0.202000  1.0  0.0946
  H  H53  1  0.251800  0.719100  0.119700  1.0  0.1014
  H  H54  1  0.393800  0.721900  0.305700  1.0  0.1015
  H  H55  1  0.312100  0.832100  0.389400  1.0  0.1041
  H  H56  1  0.880500  0.217500  0.129400  1.0  0.102
  H  H57  1  0.793700  0.323400  0.212900  1.0  0.1094
  H  H58  1  0.618300  0.279900  0.036900  1.0  0.1043
  H  H59  1  0.705200  0.173300  0.953300  1.0  0.1038
  H  H60  1  0.322800  0.333500  0.026400  1.0  0.1021
  H  H61  1  0.253200  0.214100  0.945300  1.0  0.0988
  H  H62  1  0.176700  0.173800  0.136900  1.0  0.0958
  H  H63  1  0.247500  0.291700  0.218100  1.0  0.1003
  H  H64  1  0.004900  0.892800  0.188100  1.0  0.4483
  H  H65  1  0.000100  0.107600  0.479900  1.0  0.4497
  H  H66  1  0.502800  0.607000  0.645400  1.0  0.4495
  H  H67  1  0.675600  0.667700  0.298000  1.0  0.0947
  H  H68  1  0.751800  0.780900  0.380300  1.0  0.1007
  H  H69  1  0.893800  0.778100  0.194300  1.0  0.1017
  H  H70  1  0.812100  0.667900  0.110600  1.0  0.1045
  H  H71  1  0.380500  0.282500  0.370600  1.0  0.1024
  H  H72  1  0.293700  0.176600  0.287100  1.0  0.1094
  H  H73  1  0.118300  0.220100  0.463100  1.0  0.1039
  H  H74  1  0.205200  0.326700  0.546700  1.0  0.1032
  H  H75  1  0.822800  0.166500  0.473600  1.0  0.1021
  H  H76  1  0.753200  0.285900  0.554700  1.0  0.0987
  H  H77  1  0.676700  0.326200  0.363100  1.0  0.0957
  H  H78  1  0.747500  0.208300  0.281900  1.0  0.1008
  C  C79  1  0.824900  0.090500  0.642200  1.0  0.7123
  C  C80  1  0.766300  0.157600  0.695200  1.0  -0.1354
  C  C81  1  0.782100  0.191000  0.776700  1.0  -0.0468
  C  C82  1  0.735900  0.258300  0.826100  1.0  -0.0595
  C  C83  1  0.670800  0.292900  0.795600  1.0  -0.1301
  C  C84  1  0.623900  0.368800  0.848900  1.0  0.7076
  C  C85  1  0.651500  0.257300  0.714900  1.0  -0.0549
  C  C86  1  0.700000  0.190600  0.664900  1.0  -0.0577
  C  C87  1  0.141700  0.883400  0.021200  1.0  0.7044
  C  C88  1  0.198500  0.815700  0.967300  1.0  -0.1302
  C  C89  1  0.172200  0.770300  0.889100  1.0  -0.0488
  C  C90  1  0.224200  0.707100  0.839100  1.0  -0.0496
  C  C91  1  0.303400  0.689300  0.866600  1.0  -0.1229
  C  C92  1  0.360000  0.621400  0.811900  1.0  0.6953
  C  C93  1  0.329500  0.733100  0.944400  1.0  -0.0499
  C  C94  1  0.277100  0.796700  0.994600  1.0  -0.0476
  C  C95  1  0.659200  0.599600  0.816500  1.0  0.7141
  C  C96  1  0.707100  0.675800  0.869500  1.0  -0.1288
  C  C97  1  0.705900  0.698700  0.951400  1.0  -0.0548
  C  C98  1  0.748100  0.770100  0.999800  1.0  -0.0513
  C  C99  1  0.792200  0.818500  0.967800  1.0  -0.1378
  C  C100  1  0.841100  0.893700  0.019800  1.0  0.7239
  C  C101  1  0.793700  0.794500  0.885400  1.0  -0.0533
  C  C102  1  0.751400  0.723900  0.836800  1.0  -0.0548
  C  C103  1  0.324900  0.409500  0.857800  1.0  0.7126
  C  C104  1  0.266300  0.342400  0.804800  1.0  -0.136
  C  C105  1  0.282100  0.309000  0.723300  1.0  -0.0471
  C  C106  1  0.235900  0.241700  0.673900  1.0  -0.0585
  C  C107  1  0.170800  0.207100  0.704400  1.0  -0.1301
  C  C108  1  0.123900  0.131200  0.651100  1.0  0.7069
  C  C109  1  0.151500  0.242700  0.785100  1.0  -0.0546
  C  C110  1  0.200000  0.309400  0.835100  1.0  -0.0575
  C  C111  1  0.641700  0.616600  0.478800  1.0  0.7041
  C  C112  1  0.698500  0.684300  0.532700  1.0  -0.1301
  C  C113  1  0.672200  0.729700  0.610900  1.0  -0.0496
  C  C114  1  0.724200  0.792900  0.660900  1.0  -0.0497
  C  C115  1  0.803400  0.810700  0.633400  1.0  -0.123
  C  C116  1  0.860000  0.878600  0.688100  1.0  0.6958
  C  C117  1  0.829500  0.766900  0.555600  1.0  -0.0498
  C  C118  1  0.777100  0.703300  0.505400  1.0  -0.0475
  C  C119  1  0.159200  0.900400  0.683500  1.0  0.7137
  C  C120  1  0.207100  0.824200  0.630500  1.0  -0.1288
  C  C121  1  0.205900  0.801300  0.548600  1.0  -0.055
  C  C122  1  0.248100  0.729900  0.500200  1.0  -0.0509
  C  C123  1  0.292200  0.681500  0.532200  1.0  -0.1383
  C  C124  1  0.341100  0.606300  0.480200  1.0  0.7235
  C  C125  1  0.293700  0.705500  0.614600  1.0  -0.0527
  C  C126  1  0.251400  0.776100  0.663200  1.0  -0.0546
  C  C127  1  0.175100  0.909500  0.357800  1.0  0.7131
  C  C128  1  0.233700  0.842400  0.304800  1.0  -0.1359
  C  C129  1  0.217900  0.809000  0.223300  1.0  -0.0469
  C  C130  1  0.264100  0.741700  0.173900  1.0  -0.0584
  C  C131  1  0.329200  0.707100  0.204400  1.0  -0.1302
  C  C132  1  0.376100  0.631200  0.151100  1.0  0.7064
  C  C133  1  0.348500  0.742700  0.285100  1.0  -0.0546
  C  C134  1  0.300000  0.809400  0.335100  1.0  -0.0571
  C  C135  1  0.858300  0.116600  0.978800  1.0  0.7035
  C  C136  1  0.801500  0.184300  0.032700  1.0  -0.1294
  C  C137  1  0.827800  0.229700  0.110900  1.0  -0.0493
  C  C138  1  0.775800  0.292900  0.160900  1.0  -0.0498
  C  C139  1  0.696600  0.310700  0.133400  1.0  -0.123
  C  C140  1  0.640000  0.378600  0.188100  1.0  0.6968
  C  C141  1  0.670500  0.266900  0.055600  1.0  -0.0496
  C  C142  1  0.722900  0.203300  0.005400  1.0  -0.0471
  C  C143  1  0.340800  0.400400  0.183500  1.0  0.7133
  C  C144  1  0.292900  0.324200  0.130500  1.0  -0.129
  C  C145  1  0.294100  0.301300  0.048600  1.0  -0.0554
  C  C146  1  0.251900  0.229900  0.000200  1.0  -0.051
  C  C147  1  0.207800  0.181500  0.032200  1.0  -0.1376
  C  C148  1  0.158900  0.106300  0.980200  1.0  0.7244
  C  C149  1  0.206300  0.205500  0.114600  1.0  -0.0534
  C  C150  1  0.248600  0.276100  0.163200  1.0  -0.055
  C  C151  1  0.675100  0.590500  0.142200  1.0  0.713
  C  C152  1  0.733700  0.657600  0.195200  1.0  -0.1349
  C  C153  1  0.717900  0.691000  0.276700  1.0  -0.0468
  C  C154  1  0.764100  0.758300  0.326100  1.0  -0.0598
  C  C155  1  0.829200  0.792900  0.295600  1.0  -0.1305
  C  C156  1  0.876100  0.868800  0.348900  1.0  0.7075
  C  C157  1  0.848500  0.757300  0.214900  1.0  -0.0553
  C  C158  1  0.800000  0.690600  0.164900  1.0  -0.0573
  C  C159  1  0.358300  0.383400  0.521200  1.0  0.7039
  C  C160  1  0.301500  0.315700  0.467300  1.0  -0.1296
  C  C161  1  0.327800  0.270300  0.389100  1.0  -0.0486
  C  C162  1  0.275800  0.207100  0.339100  1.0  -0.0499
  C  C163  1  0.196600  0.189300  0.366600  1.0  -0.1231
  C  C164  1  0.140000  0.121400  0.311900  1.0  0.6962
  C  C165  1  0.170500  0.233100  0.444400  1.0  -0.0497
  C  C166  1  0.222900  0.296700  0.494600  1.0  -0.0477
  C  C167  1  0.840800  0.099600  0.316500  1.0  0.713
  C  C168  1  0.792900  0.175800  0.369500  1.0  -0.1294
  C  C169  1  0.794100  0.198700  0.451400  1.0  -0.055
  C  C170  1  0.751900  0.270100  0.499800  1.0  -0.0511
  C  C171  1  0.707800  0.318500  0.467800  1.0  -0.137
  C  C172  1  0.658900  0.393700  0.519800  1.0  0.7243
  C  C173  1  0.706300  0.294500  0.385400  1.0  -0.0538
  C  C174  1  0.748600  0.223900  0.336800  1.0  -0.0545
  O  O175  1  0.496470  0.452870  0.711310  1.0  -0.9993
  O  O176  1  0.498190  0.547600  0.956680  1.0  -0.9957
  O  O177  1  0.998700  0.046980  0.122140  1.0  -1.0
  O  O178  1  0.330350  0.583350  0.742190  1.0  -0.6028
  O  O179  1  0.172260  0.923270  0.089970  1.0  -0.598
  O  O180  1  0.823530  0.075820  0.568060  1.0  -0.6155
  O  O181  1  0.553840  0.388230  0.825390  1.0  -0.6314
  O  O182  1  0.432290  0.608320  0.836530  1.0  -0.6311
  O  O183  1  0.879700  0.934700  0.989140  1.0  -0.6172
  O  O184  1  0.658740  0.408420  0.916140  1.0  -0.6083
  O  O185  1  0.069280  0.895810  0.996370  1.0  -0.6295
  O  O186  1  0.870650  0.053080  0.672950  1.0  -0.6245
  O  O187  1  0.620700  0.557430  0.846390  1.0  -0.626
  O  O188  1  0.838500  0.909400  0.094300  1.0  -0.6293
  O  O189  1  0.661550  0.585100  0.742350  1.0  -0.6265
  O  O190  1  0.996470  0.047130  0.788690  1.0  -0.9989
  O  O191  1  0.998190  0.952400  0.543320  1.0  -0.9959
  O  O192  1  0.498700  0.453020  0.377860  1.0  -1.0004
  O  O193  1  0.830350  0.916650  0.757810  1.0  -0.6046
  O  O194  1  0.672260  0.576730  0.410030  1.0  -0.5976
  O  O195  1  0.323530  0.424180  0.931940  1.0  -0.6159
  O  O196  1  0.053840  0.111770  0.674610  1.0  -0.6315
  O  O197  1  0.932290  0.891680  0.663470  1.0  -0.6306
  O  O198  1  0.379700  0.565300  0.510860  1.0  -0.6167
  O  O199  1  0.158740  0.091580  0.583860  1.0  -0.6098
  O  O200  1  0.569280  0.604190  0.503630  1.0  -0.6295
  O  O201  1  0.370650  0.446920  0.827050  1.0  -0.6252
  O  O202  1  0.120700  0.942570  0.653610  1.0  -0.6257
  O  O203  1  0.338500  0.590600  0.405700  1.0  -0.628
  O  O204  1  0.161550  0.914900  0.757650  1.0  -0.6265
  O  O205  1  0.503530  0.547130  0.288690  1.0  -0.9989
  O  O206  1  0.501810  0.452400  0.043320  1.0  -0.9955
  O  O207  1  0.001300  0.953020  0.877860  1.0  -1.0002
  O  O208  1  0.669650  0.416650  0.257810  1.0  -0.6047
  O  O209  1  0.827740  0.076730  0.910030  1.0  -0.598
  O  O210  1  0.176470  0.924180  0.431940  1.0  -0.6154
  O  O211  1  0.446160  0.611770  0.174610  1.0  -0.6316
  O  O212  1  0.567710  0.391680  0.163470  1.0  -0.6299
  O  O213  1  0.120300  0.065300  0.010860  1.0  -0.6167
  O  O214  1  0.341260  0.591580  0.083860  1.0  -0.6091
  O  O215  1  0.930720  0.104190  0.003630  1.0  -0.63
  O  O216  1  0.129350  0.946920  0.327050  1.0  -0.6254
  O  O217  1  0.379300  0.442570  0.153610  1.0  -0.6256
  O  O218  1  0.161500  0.090600  0.905700  1.0  -0.6265
  O  O219  1  0.338450  0.414900  0.257650  1.0  -0.6275
  O  O220  1  0.003530  0.952870  0.211310  1.0  -0.9991
  O  O221  1  0.001810  0.047600  0.456680  1.0  -0.9953
  O  O222  1  0.501300  0.546980  0.622140  1.0  -0.9998
  O  O223  1  0.169650  0.083350  0.242190  1.0  -0.6037
  O  O224  1  0.327740  0.423270  0.589970  1.0  -0.5977
  O  O225  1  0.676470  0.575820  0.068060  1.0  -0.6144
  O  O226  1  0.946160  0.888230  0.325390  1.0  -0.6314
  O  O227  1  0.067710  0.108320  0.336530  1.0  -0.6302
  O  O228  1  0.620300  0.434700  0.489140  1.0  -0.6172
  O  O229  1  0.841260  0.908420  0.416140  1.0  -0.6074
  O  O230  1  0.430720  0.395810  0.496370  1.0  -0.6297
  O  O231  1  0.629350  0.553080  0.172950  1.0  -0.6247
  O  O232  1  0.879300  0.057430  0.346390  1.0  -0.6261
  O  O233  1  0.661500  0.409400  0.594300  1.0  -0.6296
  O  O234  1  0.838450  0.085100  0.242350  1.0  -0.6282
