# generated using pymatgen
data_TbH2C6SNO7
_symmetry_space_group_name_H-M   'P 1'
_cell_length_a   10.67270000
_cell_length_b   10.69260000
_cell_length_c   15.75330000
_cell_angle_alpha   95.86500000
_cell_angle_beta   90.00000000
_cell_angle_gamma   90.00000000
_symmetry_Int_Tables_number   1
_chemical_formula_structural   TbH2C6SNO7
_chemical_formula_sum   'Tb4 H8 C24 S4 N4 O28'
_cell_volume   1788.33900040
_cell_formula_units_Z   4
loop_
 _symmetry_equiv_pos_site_id
 _symmetry_equiv_pos_as_xyz
  1  'x, y, z'
loop_
 _atom_site_type_symbol
 _atom_site_label
 _atom_site_symmetry_multiplicity
 _atom_site_fract_x
 _atom_site_fract_y
 _atom_site_fract_z
 _atom_site_occupancy
 _atom_site_charge
  Tb  Tb1  1  0.032090  0.749350  0.981500  1.0  2.2326
  Tb  Tb2  1  0.532090  0.750650  0.518500  1.0  2.2324
  Tb  Tb3  1  0.967910  0.250650  0.018500  1.0  2.2325
  Tb  Tb4  1  0.467910  0.249350  0.481500  1.0  2.2321
  H  H5  1  0.803600  0.253900  0.802300  1.0  0.1138
  H  H6  1  0.654400  0.262700  0.682900  1.0  0.1101
  H  H7  1  0.303600  0.246100  0.697700  1.0  0.1141
  H  H8  1  0.154400  0.237300  0.817100  1.0  0.1103
  H  H9  1  0.196400  0.746100  0.197700  1.0  0.1144
  H  H10  1  0.345600  0.737300  0.317100  1.0  0.1103
  H  H11  1  0.696400  0.753900  0.302300  1.0  0.1141
  H  H12  1  0.845600  0.762700  0.182900  1.0  0.1102
  C  C13  1  0.920000  0.475900  0.874800  1.0  0.7564
  C  C14  1  0.827900  0.444900  0.806000  1.0  -0.2117
  C  C15  1  0.781400  0.329000  0.778600  1.0  -0.0846
  C  C16  1  0.695700  0.334500  0.710300  1.0  -0.0785
  C  C17  1  0.678600  0.452600  0.688100  1.0  -0.2148
  C  C18  1  0.595500  0.493100  0.621100  1.0  0.7646
  C  C19  1  0.420000  0.024100  0.625200  1.0  0.755
  C  C20  1  0.327900  0.055100  0.694000  1.0  -0.2119
  C  C21  1  0.281400  0.171000  0.721400  1.0  -0.0865
  C  C22  1  0.195700  0.165500  0.789700  1.0  -0.0783
  C  C23  1  0.178600  0.047400  0.811900  1.0  -0.2141
  C  C24  1  0.095500  0.006900  0.878900  1.0  0.7671
  C  C25  1  0.080000  0.524100  0.125200  1.0  0.7552
  C  C26  1  0.172100  0.555100  0.194000  1.0  -0.2115
  C  C27  1  0.218600  0.671000  0.221400  1.0  -0.0857
  C  C28  1  0.304300  0.665500  0.289700  1.0  -0.0798
  C  C29  1  0.321400  0.547400  0.311900  1.0  -0.2142
  C  C30  1  0.404500  0.506900  0.378900  1.0  0.7687
  C  C31  1  0.580000  0.975900  0.374800  1.0  0.7568
  C  C32  1  0.672100  0.944900  0.306000  1.0  -0.2109
  C  C33  1  0.718600  0.829000  0.278600  1.0  -0.0835
  C  C34  1  0.804300  0.834500  0.210300  1.0  -0.0786
  C  C35  1  0.821400  0.952600  0.188100  1.0  -0.2149
  C  C36  1  0.904500  0.993100  0.121100  1.0  0.7664
  S  S37  1  0.767450  0.559750  0.749850  1.0  0.1711
  S  S38  1  0.267450  0.940250  0.750150  1.0  0.1759
  S  S39  1  0.232550  0.440250  0.250150  1.0  0.1756
  S  S40  1  0.732550  0.059750  0.249850  1.0  0.1709
  N  N41  1  0.760400  0.750800  0.962800  1.0  0.8611
  N  N42  1  0.260400  0.749200  0.537200  1.0  0.8588
  N  N43  1  0.239600  0.249200  0.037200  1.0  0.8597
  N  N44  1  0.739600  0.250800  0.462800  1.0  0.8635
  O  O45  1  0.962900  0.585900  0.883200  1.0  -0.7175
  O  O46  1  0.534200  0.409900  0.576900  1.0  -0.7193
  O  O47  1  0.812300  0.689100  0.017900  1.0  -0.6035
  O  O48  1  0.830800  0.815200  0.920700  1.0  -0.5762
  O  O49  1  0.645900  0.747000  0.951600  1.0  -0.3814
  O  O50  1  0.949800  0.390300  0.920200  1.0  -0.7355
  O  O51  1  0.591400  0.608600  0.612600  1.0  -0.6877
  O  O52  1  0.462900  0.914100  0.616800  1.0  -0.7179
  O  O53  1  0.034200  0.090100  0.923100  1.0  -0.7217
  O  O54  1  0.312300  0.810900  0.482100  1.0  -0.6028
  O  O55  1  0.330800  0.684800  0.579300  1.0  -0.5782
  O  O56  1  0.145900  0.753000  0.548400  1.0  -0.3809
  O  O57  1  0.449800  0.109700  0.579800  1.0  -0.7355
  O  O58  1  0.091400  0.891400  0.887400  1.0  -0.6905
  O  O59  1  0.037100  0.414100  0.116800  1.0  -0.7165
  O  O60  1  0.465800  0.590100  0.423100  1.0  -0.7218
  O  O61  1  0.187700  0.310900  0.982100  1.0  -0.5985
  O  O62  1  0.169200  0.184800  0.079300  1.0  -0.5778
  O  O63  1  0.354100  0.253000  0.048400  1.0  -0.3834
  O  O64  1  0.050200  0.609700  0.079800  1.0  -0.7349
  O  O65  1  0.408600  0.391400  0.387400  1.0  -0.691
  O  O66  1  0.537100  0.085900  0.383200  1.0  -0.7167
  O  O67  1  0.965800  0.909900  0.076900  1.0  -0.7204
  O  O68  1  0.687700  0.189100  0.517900  1.0  -0.6013
  O  O69  1  0.669200  0.315200  0.420700  1.0  -0.5765
  O  O70  1  0.854100  0.247000  0.451600  1.0  -0.3828
  O  O71  1  0.550200  0.890300  0.420200  1.0  -0.7354
  O  O72  1  0.908600  0.108600  0.112600  1.0  -0.6886
