# generated using pymatgen
data_MnH4(C2O)4
_symmetry_space_group_name_H-M   'P 1'
_cell_length_a   10.58420000
_cell_length_b   13.47380000
_cell_length_c   14.42000000
_cell_angle_alpha   77.22030000
_cell_angle_beta   68.46950000
_cell_angle_gamma   66.87310000
_symmetry_Int_Tables_number   1
_chemical_formula_structural   MnH4(C2O)4
_chemical_formula_sum   'Mn6 H24 C48 O24'
_cell_volume   1752.05439218
_cell_formula_units_Z   6
loop_
 _symmetry_equiv_pos_site_id
 _symmetry_equiv_pos_as_xyz
  1  'x, y, z'
loop_
 _atom_site_type_symbol
 _atom_site_label
 _atom_site_symmetry_multiplicity
 _atom_site_fract_x
 _atom_site_fract_y
 _atom_site_fract_z
 _atom_site_occupancy
 _atom_site_charge
  Mn  Mn1  1  0.358370  0.037050  0.611350  1.0  1.101
  Mn  Mn2  1  0.006770  0.462950  0.888650  1.0  1.0998
  Mn  Mn3  1  0.641630  0.962950  0.388650  1.0  1.1012
  Mn  Mn4  1  0.993230  0.537050  0.111350  1.0  1.0999
  Mn  Mn5  1  0.281610  0.250000  0.750000  1.0  1.2535
  Mn  Mn6  1  0.718390  0.750000  0.250000  1.0  1.2558
  H  H7  1  0.361000  0.409500  0.511900  1.0  0.0958
  H  H8  1  0.700800  0.180400  0.347000  1.0  0.1091
  H  H9  1  0.450800  0.542400  0.409800  1.0  0.1063
  H  H10  1  0.793700  0.313100  0.249900  1.0  0.1043
  H  H11  1  0.038500  0.164800  0.946800  1.0  0.0975
  H  H12  1  0.089900  0.869900  0.887100  1.0  0.1088
  H  H13  1  0.282400  0.090500  0.988100  1.0  0.0966
  H  H14  1  0.228200  0.319600  0.153000  1.0  0.1086
  H  H15  1  0.403000  0.957600  0.090200  1.0  0.1045
  H  H16  1  0.356700  0.186900  0.250100  1.0  0.1055
  H  H17  1  0.150100  0.335200  0.553200  1.0  0.0973
  H  H18  1  0.846900  0.630100  0.612900  1.0  0.1095
  H  H19  1  0.639000  0.590500  0.488100  1.0  0.0958
  H  H20  1  0.299200  0.819600  0.653000  1.0  0.1085
  H  H21  1  0.549200  0.457600  0.590200  1.0  0.106
  H  H22  1  0.206300  0.686900  0.750100  1.0  0.104
  H  H23  1  0.961500  0.835200  0.053200  1.0  0.0969
  H  H24  1  0.910100  0.130100  0.112900  1.0  0.1087
  H  H25  1  0.717600  0.909500  0.011900  1.0  0.0968
  H  H26  1  0.771800  0.680400  0.847000  1.0  0.1083
  H  H27  1  0.597000  0.042400  0.909800  1.0  0.1043
  H  H28  1  0.643300  0.813100  0.749900  1.0  0.1053
  H  H29  1  0.849900  0.664800  0.446800  1.0  0.0976
  H  H30  1  0.153100  0.369900  0.387100  1.0  0.1091
  C  C31  1  0.467000  0.194800  0.505400  1.0  0.7336
  C  C32  1  0.522000  0.281800  0.440400  1.0  -0.1496
  C  C33  1  0.448800  0.389500  0.458300  1.0  -0.0377
  C  C34  1  0.650700  0.253900  0.361100  1.0  -0.061
  C  C35  1  0.503600  0.468500  0.398100  1.0  -0.0572
  C  C36  1  0.705400  0.333333  0.303100  1.0  -0.0445
  C  C37  1  0.634000  0.441600  0.321000  1.0  -0.1207
  C  C38  1  0.697500  0.526200  0.259600  1.0  0.7129
  C  C39  1  0.163400  0.042100  0.794700  1.0  0.6813
  C  C40  1  0.076600  0.021400  0.900600  1.0  -0.1208
  C  C41  1  0.022900  0.097500  0.968300  1.0  -0.0567
  C  C42  1  0.053400  0.923200  0.932800  1.0  -0.0594
  C  C43  1  0.167200  0.305200  0.994600  1.0  0.7347
  C  C44  1  0.244200  0.218200  0.059600  1.0  -0.1495
  C  C45  1  0.296600  0.110500  0.041700  1.0  -0.0378
  C  C46  1  0.265700  0.246100  0.138900  1.0  -0.0596
  C  C47  1  0.370200  0.031500  0.101900  1.0  -0.0556
  C  C48  1  0.341800  0.166700  0.196900  1.0  -0.0481
  C  C49  1  0.396600  0.058400  0.179000  1.0  -0.1237
  C  C50  1  0.483300  0.973800  0.240400  1.0  0.7155
  C  C51  1  0.000200  0.457900  0.705300  1.0  0.6833
  C  C52  1  0.998600  0.478600  0.599400  1.0  -0.1227
  C  C53  1  0.088700  0.402500  0.531700  1.0  -0.0565
  C  C54  1  0.909400  0.576800  0.567200  1.0  -0.0597
  C  C55  1  0.533000  0.805200  0.494600  1.0  0.7334
  C  C56  1  0.478000  0.718200  0.559600  1.0  -0.1494
  C  C57  1  0.551200  0.610500  0.541700  1.0  -0.0385
  C  C58  1  0.349300  0.746100  0.638900  1.0  -0.0604
  C  C59  1  0.496400  0.531500  0.601900  1.0  -0.0574
  C  C60  1  0.294600  0.666667  0.696900  1.0  -0.0452
  C  C61  1  0.366000  0.558400  0.679000  1.0  -0.1203
  C  C62  1  0.302500  0.473800  0.740400  1.0  0.7127
  C  C63  1  0.836600  0.957900  0.205300  1.0  0.684
  C  C64  1  0.923400  0.978600  0.099400  1.0  -0.1215
  C  C65  1  0.977100  0.902500  0.031700  1.0  -0.0565
  C  C66  1  0.946600  0.076800  0.067200  1.0  -0.0568
  C  C67  1  0.832800  0.694800  0.005400  1.0  0.7346
  C  C68  1  0.755800  0.781800  0.940400  1.0  -0.1504
  C  C69  1  0.703400  0.889500  0.958300  1.0  -0.0382
  C  C70  1  0.734300  0.753900  0.861100  1.0  -0.0588
  C  C71  1  0.629800  0.968500  0.898100  1.0  -0.057
  C  C72  1  0.658200  0.833300  0.803100  1.0  -0.0483
  C  C73  1  0.603400  0.941600  0.821000  1.0  -0.1249
  C  C74  1  0.516700  0.026200  0.759600  1.0  0.716
  C  C75  1  0.999800  0.542100  0.294700  1.0  0.6815
  C  C76  1  0.001400  0.521400  0.400600  1.0  -0.1217
  C  C77  1  0.911300  0.597500  0.468300  1.0  -0.0588
  C  C78  1  0.090600  0.423200  0.432800  1.0  -0.0544
  O  O79  1  0.367520  0.215350  0.587210  1.0  -0.6374
  O  O80  1  0.517290  0.101810  0.475410  1.0  -0.658
  O  O81  1  0.811760  0.491780  0.190900  1.0  -0.613
  O  O82  1  0.634660  0.622080  0.284200  1.0  -0.6227
  O  O83  1  0.216240  0.968920  0.737600  1.0  -0.5822
  O  O84  1  0.180470  0.132960  0.766100  1.0  -0.6564
  O  O85  1  0.170080  0.284650  0.912790  1.0  -0.6369
  O  O86  1  0.094510  0.398190  0.024590  1.0  -0.6557
  O  O87  1  0.494440  0.008220  0.309100  1.0  -0.615
  O  O88  1  0.540940  0.877920  0.215800  1.0  -0.6224
  O  O89  1  0.922760  0.531080  0.762400  1.0  -0.5848
  O  O90  1  0.079530  0.367040  0.733900  1.0  -0.6546
  O  O91  1  0.632480  0.784650  0.412790  1.0  -0.6374
  O  O92  1  0.482710  0.898190  0.524590  1.0  -0.6559
  O  O93  1  0.188240  0.508220  0.809100  1.0  -0.6139
  O  O94  1  0.365340  0.377920  0.715800  1.0  -0.6219
  O  O95  1  0.783760  0.031080  0.262400  1.0  -0.5835
  O  O96  1  0.819530  0.867040  0.233900  1.0  -0.6565
  O  O97  1  0.829920  0.715350  0.087210  1.0  -0.6363
  O  O98  1  0.905490  0.601810  0.975410  1.0  -0.6595
  O  O99  1  0.505560  0.991780  0.690900  1.0  -0.6136
  O  O100  1  0.459060  0.122080  0.784200  1.0  -0.623
  O  O101  1  0.077240  0.468920  0.237600  1.0  -0.5857
  O  O102  1  0.920470  0.632960  0.266100  1.0  -0.6543
