# generated using pymatgen
data_MnH4(C2O)4
_symmetry_space_group_name_H-M   'P 1'
_cell_length_a   10.85420000
_cell_length_b   13.50210000
_cell_length_c   14.45120000
_cell_angle_alpha   76.37670000
_cell_angle_beta   67.94200000
_cell_angle_gamma   66.30030000
_symmetry_Int_Tables_number   1
_chemical_formula_structural   MnH4(C2O)4
_chemical_formula_sum   'Mn6 H24 C48 O24'
_cell_volume   1788.37777640
_cell_formula_units_Z   6
loop_
 _symmetry_equiv_pos_site_id
 _symmetry_equiv_pos_as_xyz
  1  'x, y, z'
loop_
 _atom_site_type_symbol
 _atom_site_label
 _atom_site_symmetry_multiplicity
 _atom_site_fract_x
 _atom_site_fract_y
 _atom_site_fract_z
 _atom_site_occupancy
 _atom_site_charge
  Mn  Mn1  1  0.860980  0.037940  0.111380  1.0  1.1025
  Mn  Mn2  1  0.510300  0.462060  0.388620  1.0  1.1009
  Mn  Mn3  1  0.139020  0.962060  0.888620  1.0  1.1027
  Mn  Mn4  1  0.489700  0.537940  0.611380  1.0  1.102
  Mn  Mn5  1  0.786210  0.250000  0.250000  1.0  1.255
  Mn  Mn6  1  0.213790  0.750000  0.750000  1.0  1.2578
  H  H7  1  0.201400  0.180100  0.848300  1.0  0.1025
  H  H8  1  0.295000  0.312200  0.753200  1.0  0.1057
  H  H9  1  0.955900  0.540800  0.907400  1.0  0.1073
  H  H10  1  0.868300  0.407800  0.008800  1.0  0.0944
  H  H11  1  0.550700  0.159000  0.451600  1.0  0.0971
  H  H12  1  0.578500  0.878200  0.383800  1.0  0.1065
  H  H13  1  0.729800  0.319900  0.651700  1.0  0.1016
  H  H14  1  0.860400  0.187800  0.746800  1.0  0.1069
  H  H15  1  0.904100  0.959200  0.592600  1.0  0.1062
  H  H16  1  0.784900  0.092200  0.491200  1.0  0.095
  H  H17  1  0.661300  0.341000  0.048400  1.0  0.0967
  H  H18  1  0.340500  0.621800  0.116200  1.0  0.1063
  H  H19  1  0.798600  0.819900  0.151700  1.0  0.1018
  H  H20  1  0.705000  0.687800  0.246800  1.0  0.1054
  H  H21  1  0.044100  0.459200  0.092600  1.0  0.1072
  H  H22  1  0.131700  0.592200  0.991200  1.0  0.0941
  H  H23  1  0.449300  0.841000  0.548400  1.0  0.0968
  H  H24  1  0.421500  0.121800  0.616200  1.0  0.1067
  H  H25  1  0.270200  0.680100  0.348300  1.0  0.1018
  H  H26  1  0.139600  0.812200  0.253200  1.0  0.1068
  H  H27  1  0.095900  0.040800  0.407400  1.0  0.1063
  H  H28  1  0.215100  0.907800  0.508800  1.0  0.0948
  H  H29  1  0.338700  0.659000  0.951600  1.0  0.0971
  H  H30  1  0.659500  0.378200  0.883800  1.0  0.1062
  C  C31  1  0.969360  0.194800  0.003960  1.0  0.7348
  C  C32  1  0.026150  0.280710  0.939190  1.0  -0.1544
  C  C33  1  0.153160  0.252290  0.861590  1.0  -0.0414
  C  C34  1  0.208210  0.331810  0.803770  1.0  -0.0626
  C  C35  1  0.135350  0.439950  0.820550  1.0  -0.1252
  C  C36  1  0.006800  0.468120  0.896480  1.0  -0.0498
  C  C37  1  0.953340  0.388450  0.956670  1.0  -0.0316
  C  C38  1  0.198950  0.524670  0.759430  1.0  0.7131
  C  C39  1  0.665970  0.044140  0.296320  1.0  0.6999
  C  C40  1  0.578510  0.021610  0.401770  1.0  -0.124
  C  C41  1  0.530680  0.095000  0.471040  1.0  -0.0577
  C  C42  1  0.547320  0.927090  0.430470  1.0  -0.056
  C  C43  1  0.668120  0.305200  0.496040  1.0  0.7362
  C  C44  1  0.746050  0.219290  0.560810  1.0  -0.1546
  C  C45  1  0.767040  0.247710  0.638410  1.0  -0.0416
  C  C46  1  0.843790  0.168190  0.696230  1.0  -0.0644
  C  C47  1  0.895850  0.060050  0.679450  1.0  -0.1279
  C  C48  1  0.871400  0.031880  0.603520  1.0  -0.0476
  C  C49  1  0.798460  0.111550  0.543330  1.0  -0.0327
  C  C50  1  0.983050  0.975330  0.740570  1.0  0.7127
  C  C51  1  0.506430  0.455860  0.203680  1.0  0.7006
  C  C52  1  0.501890  0.478390  0.098230  1.0  -0.1251
  C  C53  1  0.596720  0.405000  0.028960  1.0  -0.0582
  C  C54  1  0.404880  0.572910  0.069530  1.0  -0.0567
  C  C55  1  0.030640  0.805200  0.996040  1.0  0.7346
  C  C56  1  0.973850  0.719290  0.060810  1.0  -0.1541
  C  C57  1  0.846840  0.747710  0.138410  1.0  -0.0418
  C  C58  1  0.791790  0.668190  0.196230  1.0  -0.0631
  C  C59  1  0.864650  0.560050  0.179450  1.0  -0.125
  C  C60  1  0.993200  0.531880  0.103520  1.0  -0.049
  C  C61  1  0.046660  0.611550  0.043330  1.0  -0.0334
  C  C62  1  0.801050  0.475330  0.240570  1.0  0.7116
  C  C63  1  0.334030  0.955860  0.703680  1.0  0.7011
  C  C64  1  0.421490  0.978390  0.598230  1.0  -0.1244
  C  C65  1  0.469320  0.905000  0.528960  1.0  -0.0555
  C  C66  1  0.452680  0.072910  0.569530  1.0  -0.0572
  C  C67  1  0.331880  0.694800  0.503960  1.0  0.7356
  C  C68  1  0.253950  0.780710  0.439190  1.0  -0.1547
  C  C69  1  0.232960  0.752290  0.361590  1.0  -0.0409
  C  C70  1  0.156210  0.831810  0.303770  1.0  -0.065
  C  C71  1  0.104150  0.939950  0.320550  1.0  -0.1284
  C  C72  1  0.128600  0.968120  0.396480  1.0  -0.0488
  C  C73  1  0.201540  0.888450  0.456670  1.0  -0.0348
  C  C74  1  0.016950  0.024670  0.259430  1.0  0.7138
  C  C75  1  0.493570  0.544140  0.796320  1.0  0.7
  C  C76  1  0.498110  0.521610  0.901770  1.0  -0.1245
  C  C77  1  0.403280  0.595000  0.971040  1.0  -0.0568
  C  C78  1  0.595120  0.427090  0.930470  1.0  -0.0558
  O  O79  1  0.017530  0.101380  0.975420  1.0  -0.6404
  O  O80  1  0.871800  0.215680  0.086260  1.0  -0.6505
  O  O81  1  0.135900  0.620480  0.782480  1.0  -0.6188
  O  O82  1  0.313490  0.490990  0.691230  1.0  -0.6193
  O  O83  1  0.686260  0.133110  0.268910  1.0  -0.6576
  O  O84  1  0.717060  0.972270  0.237610  1.0  -0.5973
  O  O85  1  0.594330  0.398620  0.524580  1.0  -0.6402
  O  O86  1  0.673740  0.284320  0.413740  1.0  -0.6503
  O  O87  1  0.038860  0.879520  0.717520  1.0  -0.6195
  O  O88  1  0.995710  0.009010  0.808770  1.0  -0.6219
  O  O89  1  0.588280  0.366890  0.231090  1.0  -0.6572
  O  O90  1  0.426940  0.527730  0.262390  1.0  -0.598
  O  O91  1  0.982470  0.898620  0.024580  1.0  -0.6409
  O  O92  1  0.128200  0.784320  0.913740  1.0  -0.6505
  O  O93  1  0.864100  0.379520  0.217520  1.0  -0.6196
  O  O94  1  0.686510  0.509010  0.308770  1.0  -0.6192
  O  O95  1  0.313740  0.866890  0.731090  1.0  -0.6585
  O  O96  1  0.282940  0.027730  0.762390  1.0  -0.5965
  O  O97  1  0.405670  0.601380  0.475420  1.0  -0.6398
  O  O98  1  0.326260  0.715680  0.586260  1.0  -0.6492
  O  O99  1  0.961140  0.120480  0.282480  1.0  -0.6189
  O  O100  1  0.004290  0.990990  0.191230  1.0  -0.6202
  O  O101  1  0.411720  0.633110  0.768910  1.0  -0.6588
  O  O102  1  0.573060  0.472270  0.737610  1.0  -0.5985
