# generated using pymatgen
data_Cd3H16(C2O)16
_symmetry_space_group_name_H-M   'P 1'
_cell_length_a   13.68600000
_cell_length_b   18.25200000
_cell_length_c   14.90600000
_cell_angle_alpha   90.00000000
_cell_angle_beta   101.07000000
_cell_angle_gamma   90.00000000
_symmetry_Int_Tables_number   1
_chemical_formula_structural   Cd3H16(C2O)16
_chemical_formula_sum   'Cd12 H64 C128 O64'
_cell_volume   3654.19076996
_cell_formula_units_Z   4
loop_
 _symmetry_equiv_pos_site_id
 _symmetry_equiv_pos_as_xyz
  1  'x, y, z'
loop_
 _atom_site_type_symbol
 _atom_site_label
 _atom_site_symmetry_multiplicity
 _atom_site_fract_x
 _atom_site_fract_y
 _atom_site_fract_z
 _atom_site_occupancy
 _atom_site_charge
  Cd  Cd1  1  0.658770  0.790470  0.574560  1.0  1.0722
  Cd  Cd2  1  0.158770  0.290470  0.574560  1.0  1.0722
  Cd  Cd3  1  0.341230  0.790470  0.925440  1.0  1.0734
  Cd  Cd4  1  0.841230  0.290470  0.925440  1.0  1.0734
  Cd  Cd5  1  0.341230  0.209530  0.425440  1.0  1.074
  Cd  Cd6  1  0.841230  0.709530  0.425440  1.0  1.074
  Cd  Cd7  1  0.658770  0.209530  0.074560  1.0  1.0724
  Cd  Cd8  1  0.158770  0.709530  0.074560  1.0  1.0724
  Cd  Cd9  1  0.500000  0.172520  0.250000  1.0  1.1801
  Cd  Cd10  1  0.000000  0.672520  0.250000  1.0  1.1801
  Cd  Cd11  1  0.500000  0.827480  0.750000  1.0  1.1795
  Cd  Cd12  1  0.000000  0.327480  0.750000  1.0  1.1795
  H  H13  1  0.936000  0.891000  0.435500  1.0  0.1324
  H  H14  1  0.661400  0.975400  0.346100  1.0  0.1366
  H  H15  1  0.001100  0.973300  0.342100  1.0  0.1284
  H  H16  1  0.896000  0.055400  0.249500  1.0  0.1338
  H  H17  1  0.296400  0.123200  0.075300  1.0  0.1318
  H  H18  1  0.133600  0.104300  0.997200  1.0  0.1333
  H  H19  1  0.356500  0.236300  0.859400  1.0  0.1449
  H  H20  1  0.081900  0.150400  0.849200  1.0  0.1354
  H  H21  1  0.436000  0.391000  0.435500  1.0  0.1324
  H  H22  1  0.161400  0.475400  0.346100  1.0  0.1366
  H  H23  1  0.501100  0.473300  0.342100  1.0  0.1284
  H  H24  1  0.396000  0.555400  0.249500  1.0  0.1338
  H  H25  1  0.796400  0.623200  0.075300  1.0  0.1318
  H  H26  1  0.633600  0.604300  0.997200  1.0  0.1333
  H  H27  1  0.856500  0.736300  0.859400  1.0  0.1449
  H  H28  1  0.581900  0.650400  0.849200  1.0  0.1354
  H  H29  1  0.064000  0.891000  0.064500  1.0  0.1321
  H  H30  1  0.338600  0.975400  0.153900  1.0  0.1373
  H  H31  1  0.998900  0.973300  0.157900  1.0  0.1285
  H  H32  1  0.104000  0.055400  0.250500  1.0  0.1337
  H  H33  1  0.703600  0.123200  0.424700  1.0  0.1317
  H  H34  1  0.866400  0.104300  0.502800  1.0  0.1333
  H  H35  1  0.643500  0.236300  0.640600  1.0  0.1444
  H  H36  1  0.918100  0.150400  0.650800  1.0  0.1364
  H  H37  1  0.564000  0.391000  0.064500  1.0  0.1321
  H  H38  1  0.838600  0.475400  0.153900  1.0  0.1373
  H  H39  1  0.498900  0.473300  0.157900  1.0  0.1285
  H  H40  1  0.604000  0.555400  0.250500  1.0  0.1337
  H  H41  1  0.203600  0.623200  0.424700  1.0  0.1317
  H  H42  1  0.366400  0.604300  0.502800  1.0  0.1333
  H  H43  1  0.143500  0.736300  0.640600  1.0  0.1444
  H  H44  1  0.418100  0.650400  0.650800  1.0  0.1364
  H  H45  1  0.064000  0.109000  0.564500  1.0  0.1323
  H  H46  1  0.338600  0.024600  0.653900  1.0  0.1372
  H  H47  1  0.998900  0.026700  0.657900  1.0  0.1267
  H  H48  1  0.104000  0.944600  0.750500  1.0  0.1339
  H  H49  1  0.703600  0.876800  0.924700  1.0  0.132
  H  H50  1  0.866400  0.895700  0.002800  1.0  0.1336
  H  H51  1  0.643500  0.763700  0.140600  1.0  0.1444
  H  H52  1  0.918100  0.849600  0.150800  1.0  0.1361
  H  H53  1  0.564000  0.609000  0.564500  1.0  0.1323
  H  H54  1  0.838600  0.524600  0.653900  1.0  0.1372
  H  H55  1  0.498900  0.526700  0.657900  1.0  0.1267
  H  H56  1  0.604000  0.444600  0.750500  1.0  0.1339
  H  H57  1  0.203600  0.376800  0.924700  1.0  0.132
  H  H58  1  0.366400  0.395700  0.002800  1.0  0.1336
  H  H59  1  0.143500  0.263700  0.140600  1.0  0.1444
  H  H60  1  0.418100  0.349600  0.150800  1.0  0.1361
  H  H61  1  0.936000  0.109000  0.935500  1.0  0.132
  H  H62  1  0.661400  0.024600  0.846100  1.0  0.1365
  H  H63  1  0.001100  0.026700  0.842100  1.0  0.1272
  H  H64  1  0.896000  0.944600  0.749500  1.0  0.1337
  H  H65  1  0.296400  0.876800  0.575300  1.0  0.1319
  H  H66  1  0.133600  0.895700  0.497200  1.0  0.1334
  H  H67  1  0.356500  0.763700  0.359400  1.0  0.1447
  H  H68  1  0.081900  0.849600  0.349200  1.0  0.1361
  H  H69  1  0.436000  0.609000  0.935500  1.0  0.132
  H  H70  1  0.161400  0.524600  0.846100  1.0  0.1365
  H  H71  1  0.501100  0.526700  0.842100  1.0  0.1272
  H  H72  1  0.396000  0.444600  0.749500  1.0  0.1337
  H  H73  1  0.796400  0.376800  0.575300  1.0  0.1319
  H  H74  1  0.633600  0.395700  0.497200  1.0  0.1334
  H  H75  1  0.856500  0.263700  0.359400  1.0  0.1447
  H  H76  1  0.581900  0.349600  0.349200  1.0  0.1361
  C  C77  1  0.748000  0.871260  0.456680  1.0  0.6991
  C  C78  1  0.792000  0.924420  0.398500  1.0  -0.1003
  C  C79  1  0.893100  0.924450  0.398000  1.0  -0.0152
  C  C80  1  0.730500  0.974770  0.344800  1.0  -0.0272
  C  C81  1  0.931800  0.973410  0.342600  1.0  -0.0504
  C  C82  1  0.869300  0.022600  0.288000  1.0  -0.0216
  C  C83  1  0.768500  0.024190  0.289270  1.0  -0.1478
  C  C84  1  0.699900  0.080830  0.235790  1.0  0.7016
  C  C85  1  0.448600  0.193030  0.021800  1.0  0.734
  C  C86  1  0.275700  0.142530  0.015500  1.0  -0.0152
  C  C87  1  0.342200  0.182360  0.974960  1.0  -0.1416
  C  C88  1  0.179100  0.130910  0.968800  1.0  -0.0612
  C  C89  1  0.311400  0.208850  0.887200  1.0  -0.0013
  C  C90  1  0.148300  0.157830  0.880800  1.0  -0.0069
  C  C91  1  0.216200  0.196080  0.839240  1.0  -0.0948
  C  C92  1  0.189000  0.223060  0.743440  1.0  0.71
  C  C93  1  0.248000  0.371260  0.456680  1.0  0.6991
  C  C94  1  0.292000  0.424420  0.398500  1.0  -0.1003
  C  C95  1  0.393100  0.424450  0.398000  1.0  -0.0152
  C  C96  1  0.230500  0.474770  0.344800  1.0  -0.0272
  C  C97  1  0.431800  0.473410  0.342600  1.0  -0.0504
  C  C98  1  0.369300  0.522600  0.288000  1.0  -0.0216
  C  C99  1  0.268500  0.524190  0.289270  1.0  -0.1478
  C  C100  1  0.199900  0.580830  0.235790  1.0  0.7016
  C  C101  1  0.948600  0.693030  0.021800  1.0  0.734
  C  C102  1  0.775700  0.642530  0.015500  1.0  -0.0152
  C  C103  1  0.842200  0.682360  0.974960  1.0  -0.1416
  C  C104  1  0.679100  0.630910  0.968800  1.0  -0.0612
  C  C105  1  0.811400  0.708850  0.887200  1.0  -0.0013
  C  C106  1  0.648300  0.657830  0.880800  1.0  -0.0069
  C  C107  1  0.716200  0.696080  0.839240  1.0  -0.0948
  C  C108  1  0.689000  0.723060  0.743440  1.0  0.71
  C  C109  1  0.252000  0.871260  0.043320  1.0  0.6974
  C  C110  1  0.208000  0.924420  0.101500  1.0  -0.1004
  C  C111  1  0.106900  0.924450  0.102000  1.0  -0.0155
  C  C112  1  0.269500  0.974770  0.155200  1.0  -0.0261
  C  C113  1  0.068200  0.973410  0.157400  1.0  -0.0498
  C  C114  1  0.130700  0.022600  0.212000  1.0  -0.023
  C  C115  1  0.231500  0.024190  0.210730  1.0  -0.1504
  C  C116  1  0.300100  0.080830  0.264210  1.0  0.7011
  C  C117  1  0.551400  0.193030  0.478200  1.0  0.7345
  C  C118  1  0.724300  0.142530  0.484500  1.0  -0.0154
  C  C119  1  0.657800  0.182360  0.525040  1.0  -0.1418
  C  C120  1  0.820900  0.130910  0.531200  1.0  -0.0624
  C  C121  1  0.688600  0.208850  0.612800  1.0  -0.0013
  C  C122  1  0.851700  0.157830  0.619200  1.0  -0.009
  C  C123  1  0.783800  0.196080  0.660760  1.0  -0.0936
  C  C124  1  0.811000  0.223060  0.756560  1.0  0.7096
  C  C125  1  0.752000  0.371260  0.043320  1.0  0.6974
  C  C126  1  0.708000  0.424420  0.101500  1.0  -0.1004
  C  C127  1  0.606900  0.424450  0.102000  1.0  -0.0155
  C  C128  1  0.769500  0.474770  0.155200  1.0  -0.0261
  C  C129  1  0.568200  0.473410  0.157400  1.0  -0.0498
  C  C130  1  0.630700  0.522600  0.212000  1.0  -0.023
  C  C131  1  0.731500  0.524190  0.210730  1.0  -0.1504
  C  C132  1  0.800100  0.580830  0.264210  1.0  0.7011
  C  C133  1  0.051400  0.693030  0.478200  1.0  0.7345
  C  C134  1  0.224300  0.642530  0.484500  1.0  -0.0154
  C  C135  1  0.157800  0.682360  0.525040  1.0  -0.1418
  C  C136  1  0.320900  0.630910  0.531200  1.0  -0.0624
  C  C137  1  0.188600  0.708850  0.612800  1.0  -0.0013
  C  C138  1  0.351700  0.657830  0.619200  1.0  -0.009
  C  C139  1  0.283800  0.696080  0.660760  1.0  -0.0936
  C  C140  1  0.311000  0.723060  0.756560  1.0  0.7096
  C  C141  1  0.252000  0.128740  0.543320  1.0  0.6979
  C  C142  1  0.208000  0.075580  0.601500  1.0  -0.1
  C  C143  1  0.106900  0.075550  0.602000  1.0  -0.0158
  C  C144  1  0.269500  0.025230  0.655200  1.0  -0.0258
  C  C145  1  0.068200  0.026590  0.657400  1.0  -0.0494
  C  C146  1  0.130700  0.977400  0.712000  1.0  -0.0219
  C  C147  1  0.231500  0.975810  0.710730  1.0  -0.1499
  C  C148  1  0.300100  0.919170  0.764210  1.0  0.6985
  C  C149  1  0.551400  0.806970  0.978200  1.0  0.7338
  C  C150  1  0.724300  0.857470  0.984500  1.0  -0.0146
  C  C151  1  0.657800  0.817640  0.025040  1.0  -0.1408
  C  C152  1  0.820900  0.869090  0.031200  1.0  -0.0611
  C  C153  1  0.688600  0.791150  0.112800  1.0  -0.0017
  C  C154  1  0.851700  0.842170  0.119200  1.0  -0.009
  C  C155  1  0.783800  0.803920  0.160760  1.0  -0.0937
  C  C156  1  0.811000  0.776940  0.256560  1.0  0.7094
  C  C157  1  0.752000  0.628740  0.543320  1.0  0.6979
  C  C158  1  0.708000  0.575580  0.601500  1.0  -0.1
  C  C159  1  0.606900  0.575550  0.602000  1.0  -0.0158
  C  C160  1  0.769500  0.525230  0.655200  1.0  -0.0258
  C  C161  1  0.568200  0.526590  0.657400  1.0  -0.0494
  C  C162  1  0.630700  0.477400  0.712000  1.0  -0.0219
  C  C163  1  0.731500  0.475810  0.710730  1.0  -0.1499
  C  C164  1  0.800100  0.419170  0.764210  1.0  0.6985
  C  C165  1  0.051400  0.306970  0.978200  1.0  0.7338
  C  C166  1  0.224300  0.357470  0.984500  1.0  -0.0146
  C  C167  1  0.157800  0.317640  0.025040  1.0  -0.1408
  C  C168  1  0.320900  0.369090  0.031200  1.0  -0.0611
  C  C169  1  0.188600  0.291150  0.112800  1.0  -0.0017
  C  C170  1  0.351700  0.342170  0.119200  1.0  -0.009
  C  C171  1  0.283800  0.303920  0.160760  1.0  -0.0937
  C  C172  1  0.311000  0.276940  0.256560  1.0  0.7094
  C  C173  1  0.748000  0.128740  0.956680  1.0  0.6994
  C  C174  1  0.792000  0.075580  0.898500  1.0  -0.1003
  C  C175  1  0.893100  0.075550  0.898000  1.0  -0.0151
  C  C176  1  0.730500  0.025230  0.844800  1.0  -0.0274
  C  C177  1  0.931800  0.026590  0.842600  1.0  -0.0501
  C  C178  1  0.869300  0.977400  0.788000  1.0  -0.0222
  C  C179  1  0.768500  0.975810  0.789270  1.0  -0.1493
  C  C180  1  0.699900  0.919170  0.735790  1.0  0.7034
  C  C181  1  0.448600  0.806970  0.521800  1.0  0.7338
  C  C182  1  0.275700  0.857470  0.515500  1.0  -0.0146
  C  C183  1  0.342200  0.817640  0.474960  1.0  -0.1417
  C  C184  1  0.179100  0.869090  0.468800  1.0  -0.061
  C  C185  1  0.311400  0.791150  0.387200  1.0  -0.0017
  C  C186  1  0.148300  0.842170  0.380800  1.0  -0.0071
  C  C187  1  0.216200  0.803920  0.339240  1.0  -0.0945
  C  C188  1  0.189000  0.776940  0.243440  1.0  0.7098
  C  C189  1  0.248000  0.628740  0.956680  1.0  0.6994
  C  C190  1  0.292000  0.575580  0.898500  1.0  -0.1003
  C  C191  1  0.393100  0.575550  0.898000  1.0  -0.0151
  C  C192  1  0.230500  0.525230  0.844800  1.0  -0.0274
  C  C193  1  0.431800  0.526590  0.842600  1.0  -0.0501
  C  C194  1  0.369300  0.477400  0.788000  1.0  -0.0222
  C  C195  1  0.268500  0.475810  0.789270  1.0  -0.1493
  C  C196  1  0.199900  0.419170  0.735790  1.0  0.7034
  C  C197  1  0.948600  0.306970  0.521800  1.0  0.7338
  C  C198  1  0.775700  0.357470  0.515500  1.0  -0.0146
  C  C199  1  0.842200  0.317640  0.474960  1.0  -0.1417
  C  C200  1  0.679100  0.369090  0.468800  1.0  -0.061
  C  C201  1  0.811400  0.291150  0.387200  1.0  -0.0017
  C  C202  1  0.648300  0.342170  0.380800  1.0  -0.0071
  C  C203  1  0.716200  0.303920  0.339240  1.0  -0.0945
  C  C204  1  0.689000  0.276940  0.243440  1.0  0.7098
  O  O205  1  0.801290  0.821300  0.499270  1.0  -0.6685
  O  O206  1  0.657730  0.879140  0.462330  1.0  -0.5536
  O  O207  1  0.503110  0.235070  0.986760  1.0  -0.5958
  O  O208  1  0.480830  0.155270  0.092500  1.0  -0.6592
  O  O209  1  0.619990  0.090490  0.264650  1.0  -0.5788
  O  O210  1  0.726610  0.112520  0.170790  1.0  -0.6394
  O  O211  1  0.098960  0.237260  0.709140  1.0  -0.6183
  O  O212  1  0.256810  0.231010  0.698090  1.0  -0.5826
  O  O213  1  0.301290  0.321300  0.499270  1.0  -0.6685
  O  O214  1  0.157730  0.379140  0.462330  1.0  -0.5536
  O  O215  1  0.003110  0.735070  0.986760  1.0  -0.5958
  O  O216  1  0.980830  0.655270  0.092500  1.0  -0.6592
  O  O217  1  0.119990  0.590490  0.264650  1.0  -0.5788
  O  O218  1  0.226610  0.612520  0.170790  1.0  -0.6394
  O  O219  1  0.598960  0.737260  0.709140  1.0  -0.6183
  O  O220  1  0.756810  0.731010  0.698090  1.0  -0.5826
  O  O221  1  0.198710  0.821300  0.000730  1.0  -0.6698
  O  O222  1  0.342270  0.879140  0.037670  1.0  -0.5561
  O  O223  1  0.496890  0.235070  0.513240  1.0  -0.5947
  O  O224  1  0.519170  0.155270  0.407500  1.0  -0.66
  O  O225  1  0.380010  0.090490  0.235350  1.0  -0.5747
  O  O226  1  0.273390  0.112520  0.329210  1.0  -0.6405
  O  O227  1  0.901040  0.237260  0.790860  1.0  -0.6189
  O  O228  1  0.743190  0.231010  0.801910  1.0  -0.5821
  O  O229  1  0.698710  0.321300  0.000730  1.0  -0.6698
  O  O230  1  0.842270  0.379140  0.037670  1.0  -0.5561
  O  O231  1  0.996890  0.735070  0.513240  1.0  -0.5947
  O  O232  1  0.019170  0.655270  0.407500  1.0  -0.66
  O  O233  1  0.880010  0.590490  0.235350  1.0  -0.5747
  O  O234  1  0.773390  0.612520  0.329210  1.0  -0.6405
  O  O235  1  0.401040  0.737260  0.790860  1.0  -0.6189
  O  O236  1  0.243190  0.731010  0.801910  1.0  -0.5821
  O  O237  1  0.198710  0.178700  0.500730  1.0  -0.669
  O  O238  1  0.342270  0.120860  0.537670  1.0  -0.5558
  O  O239  1  0.496890  0.764930  0.013240  1.0  -0.5945
  O  O240  1  0.519170  0.844730  0.907500  1.0  -0.6603
  O  O241  1  0.380010  0.909510  0.735350  1.0  -0.5758
  O  O242  1  0.273390  0.887480  0.829210  1.0  -0.6406
  O  O243  1  0.901040  0.762740  0.290860  1.0  -0.6191
  O  O244  1  0.743190  0.768990  0.301910  1.0  -0.582
  O  O245  1  0.698710  0.678700  0.500730  1.0  -0.669
  O  O246  1  0.842270  0.620860  0.537670  1.0  -0.5558
  O  O247  1  0.996890  0.264930  0.013240  1.0  -0.5945
  O  O248  1  0.019170  0.344730  0.907500  1.0  -0.6603
  O  O249  1  0.880010  0.409510  0.735350  1.0  -0.5758
  O  O250  1  0.773390  0.387480  0.829210  1.0  -0.6409
  O  O251  1  0.401040  0.262740  0.290860  1.0  -0.6191
  O  O252  1  0.243190  0.268990  0.301910  1.0  -0.582
  O  O253  1  0.801290  0.178700  0.999270  1.0  -0.6686
  O  O254  1  0.657730  0.120860  0.962330  1.0  -0.5535
  O  O255  1  0.503110  0.764930  0.486760  1.0  -0.5957
  O  O256  1  0.480830  0.844730  0.592500  1.0  -0.6592
  O  O257  1  0.619990  0.909510  0.764650  1.0  -0.5796
  O  O258  1  0.726610  0.887480  0.670790  1.0  -0.6395
  O  O259  1  0.098960  0.762740  0.209140  1.0  -0.6192
  O  O260  1  0.256810  0.768990  0.198090  1.0  -0.5836
  O  O261  1  0.301290  0.678700  0.999270  1.0  -0.6686
  O  O262  1  0.157730  0.620860  0.962330  1.0  -0.5535
  O  O263  1  0.003110  0.264930  0.486760  1.0  -0.5957
  O  O264  1  0.980830  0.344730  0.592500  1.0  -0.6592
  O  O265  1  0.119990  0.409510  0.764650  1.0  -0.5796
  O  O266  1  0.226610  0.387480  0.670790  1.0  -0.6398
  O  O267  1  0.598960  0.262740  0.209140  1.0  -0.6192
  O  O268  1  0.756810  0.268990  0.198090  1.0  -0.5836
