# generated using pymatgen
data_MnH4(C2O)4
_symmetry_space_group_name_H-M   'P 1'
_cell_length_a   10.71150000
_cell_length_b   13.50900000
_cell_length_c   14.39200000
_cell_angle_alpha   76.73450000
_cell_angle_beta   68.15280000
_cell_angle_gamma   66.64310000
_symmetry_Int_Tables_number   1
_chemical_formula_structural   MnH4(C2O)4
_chemical_formula_sum   'Mn6 H24 C48 O24'
_cell_volume   1766.35399860
_cell_formula_units_Z   6
loop_
 _symmetry_equiv_pos_site_id
 _symmetry_equiv_pos_as_xyz
  1  'x, y, z'
loop_
 _atom_site_type_symbol
 _atom_site_label
 _atom_site_symmetry_multiplicity
 _atom_site_fract_x
 _atom_site_fract_y
 _atom_site_fract_z
 _atom_site_occupancy
 _atom_site_charge
  Mn  Mn1  1  0.994280  0.039120  0.609380  1.0  1.1086
  Mn  Mn2  1  0.642780  0.460880  0.890620  1.0  1.1095
  Mn  Mn3  1  0.005720  0.960880  0.390620  1.0  1.1082
  Mn  Mn4  1  0.357220  0.539120  0.109380  1.0  1.109
  Mn  Mn5  1  0.717540  0.250000  0.750000  1.0  1.2468
  Mn  Mn6  1  0.282460  0.750000  0.250000  1.0  1.2454
  H  H7  1  0.798400  0.813000  0.751600  1.0  0.1046
  H  H8  1  0.453200  0.042600  0.907600  1.0  0.1095
  H  H9  1  0.702400  0.680200  0.846200  1.0  0.1081
  H  H10  1  0.363900  0.909800  0.010600  1.0  0.0987
  H  H11  1  0.161200  0.874300  0.884700  1.0  0.1106
  H  H12  1  0.843700  0.161900  0.948500  1.0  0.0928
  H  H13  1  0.363000  0.687000  0.748400  1.0  0.1055
  H  H14  1  0.403400  0.457400  0.592400  1.0  0.1079
  H  H15  1  0.228800  0.819800  0.653800  1.0  0.1075
  H  H16  1  0.284300  0.590200  0.489400  1.0  0.0989
  H  H17  1  0.920200  0.625700  0.615300  1.0  0.1105
  H  H18  1  0.954100  0.338100  0.551500  1.0  0.0925
  H  H19  1  0.201600  0.187000  0.248400  1.0  0.1041
  H  H20  1  0.546800  0.957400  0.092400  1.0  0.1091
  H  H21  1  0.297600  0.319800  0.153800  1.0  0.1077
  H  H22  1  0.636100  0.090200  0.989400  1.0  0.0984
  H  H23  1  0.838800  0.125700  0.115300  1.0  0.1108
  H  H24  1  0.156300  0.838100  0.051500  1.0  0.0917
  H  H25  1  0.637000  0.313000  0.251600  1.0  0.1057
  H  H26  1  0.596600  0.542600  0.407600  1.0  0.1077
  H  H27  1  0.771200  0.180200  0.346200  1.0  0.1071
  H  H28  1  0.715700  0.409800  0.510600  1.0  0.0992
  H  H29  1  0.079800  0.374300  0.384700  1.0  0.11
  H  H30  1  0.045900  0.661900  0.448500  1.0  0.0923
  C  C31  1  0.701700  0.025100  0.759500  1.0  0.7101
  C  C32  1  0.635600  0.940900  0.820100  1.0  -0.1214
  C  C33  1  0.708700  0.833000  0.803200  1.0  -0.0442
  C  C34  1  0.505500  0.968600  0.896600  1.0  -0.0538
  C  C35  1  0.652900  0.753600  0.860400  1.0  -0.0466
  C  C36  1  0.451200  0.889900  0.956900  1.0  -0.0407
  C  C37  1  0.524700  0.781500  0.938500  1.0  -0.1486
  C  C38  1  0.468500  0.694800  0.004000  1.0  0.7265
  C  C39  1  0.000700  0.044300  0.793700  1.0  0.6935
  C  C40  1  0.002000  0.022900  0.899700  1.0  -0.1224
  C  C41  1  0.095600  0.925600  0.931400  1.0  -0.0748
  C  C42  1  0.907700  0.095700  0.969300  1.0  -0.0601
  C  C43  1  0.486300  0.474900  0.740500  1.0  0.713
  C  C44  1  0.396600  0.559100  0.679900  1.0  -0.1234
  C  C45  1  0.344900  0.667000  0.696800  1.0  -0.0459
  C  C46  1  0.370700  0.531400  0.603400  1.0  -0.0519
  C  C47  1  0.266900  0.746400  0.639600  1.0  -0.0451
  C  C48  1  0.298000  0.610100  0.543100  1.0  -0.0418
  C  C49  1  0.244700  0.718500  0.561500  1.0  -0.1495
  C  C50  1  0.167300  0.805200  0.496000  1.0  0.7272
  C  C51  1  0.838700  0.455700  0.706300  1.0  0.6945
  C  C52  1  0.924600  0.477100  0.600300  1.0  -0.1221
  C  C53  1  0.952600  0.574400  0.568600  1.0  -0.0766
  C  C54  1  0.972700  0.404300  0.530700  1.0  -0.0582
  C  C55  1  0.298300  0.974900  0.240500  1.0  0.7108
  C  C56  1  0.364400  0.059100  0.179900  1.0  -0.1204
  C  C57  1  0.291300  0.167000  0.196800  1.0  -0.0445
  C  C58  1  0.494500  0.031400  0.103400  1.0  -0.0538
  C  C59  1  0.347100  0.246400  0.139600  1.0  -0.0457
  C  C60  1  0.548800  0.110100  0.043100  1.0  -0.0419
  C  C61  1  0.475300  0.218500  0.061500  1.0  -0.1489
  C  C62  1  0.531500  0.305200  0.996000  1.0  0.7266
  C  C63  1  0.999300  0.955700  0.206300  1.0  0.6941
  C  C64  1  0.998000  0.977100  0.100300  1.0  -0.1237
  C  C65  1  0.904400  0.074400  0.068600  1.0  -0.0734
  C  C66  1  0.092300  0.904300  0.030700  1.0  -0.0571
  C  C67  1  0.513700  0.525100  0.259500  1.0  0.7131
  C  C68  1  0.603400  0.440900  0.320100  1.0  -0.1244
  C  C69  1  0.655100  0.333000  0.303200  1.0  -0.0465
  C  C70  1  0.629300  0.468600  0.396600  1.0  -0.0524
  C  C71  1  0.733100  0.253600  0.360400  1.0  -0.045
  C  C72  1  0.702000  0.389900  0.456900  1.0  -0.0415
  C  C73  1  0.755300  0.281500  0.438500  1.0  -0.1496
  C  C74  1  0.832700  0.194800  0.504000  1.0  0.7269
  C  C75  1  0.161300  0.544300  0.293700  1.0  0.6938
  C  C76  1  0.075400  0.522900  0.399700  1.0  -0.1226
  C  C77  1  0.047400  0.425600  0.431400  1.0  -0.0727
  C  C78  1  0.027300  0.595700  0.469300  1.0  -0.0573
  O  O79  1  0.817010  0.991880  0.691900  1.0  -0.6179
  O  O80  1  0.636690  0.121320  0.783300  1.0  -0.6267
  O  O81  1  0.518650  0.601570  0.975530  1.0  -0.6417
  O  O82  1  0.368750  0.716500  0.086000  1.0  -0.64
  O  O83  1  0.081410  0.973080  0.734700  1.0  -0.5922
  O  O84  1  0.919480  0.133840  0.765800  1.0  -0.6555
  O  O85  1  0.500790  0.508120  0.808100  1.0  -0.6199
  O  O86  1  0.541310  0.378680  0.716700  1.0  -0.6272
  O  O87  1  0.095750  0.898430  0.524470  1.0  -0.6414
  O  O88  1  0.171250  0.783500  0.414000  1.0  -0.6394
  O  O89  1  0.789190  0.526920  0.765300  1.0  -0.5905
  O  O90  1  0.819120  0.366160  0.734200  1.0  -0.657
  O  O91  1  0.182990  0.008120  0.308100  1.0  -0.6178
  O  O92  1  0.363310  0.878680  0.216700  1.0  -0.6267
  O  O93  1  0.481350  0.398430  0.024470  1.0  -0.642
  O  O94  1  0.631250  0.283500  0.914000  1.0  -0.6396
  O  O95  1  0.918590  0.026920  0.265300  1.0  -0.5937
  O  O96  1  0.080520  0.866160  0.234200  1.0  -0.6551
  O  O97  1  0.499210  0.491880  0.191900  1.0  -0.6178
  O  O98  1  0.458690  0.621320  0.283300  1.0  -0.6269
  O  O99  1  0.904250  0.101570  0.475530  1.0  -0.6436
  O  O100  1  0.828750  0.216500  0.586000  1.0  -0.6386
  O  O101  1  0.210810  0.473080  0.234700  1.0  -0.5908
  O  O102  1  0.180880  0.633840  0.265800  1.0  -0.6579
