# generated using pymatgen
data_MnH4(C2O)4
_symmetry_space_group_name_H-M   'P 1'
_cell_length_a   10.82670000
_cell_length_b   13.50460000
_cell_length_c   14.44360000
_cell_angle_alpha   76.45660000
_cell_angle_beta   67.98860000
_cell_angle_gamma   66.36850000
_symmetry_Int_Tables_number   1
_chemical_formula_structural   MnH4(C2O)4
_chemical_formula_sum   'Mn6 H24 C48 O24'
_cell_volume   1784.90744249
_cell_formula_units_Z   6
loop_
 _symmetry_equiv_pos_site_id
 _symmetry_equiv_pos_as_xyz
  1  'x, y, z'
loop_
 _atom_site_type_symbol
 _atom_site_label
 _atom_site_symmetry_multiplicity
 _atom_site_fract_x
 _atom_site_fract_y
 _atom_site_fract_z
 _atom_site_occupancy
 _atom_site_charge
  Mn  Mn1  1  0.860360  0.038130  0.111070  1.0  1.103
  Mn  Mn2  1  0.509560  0.461870  0.388930  1.0  1.1026
  Mn  Mn3  1  0.139640  0.961870  0.888930  1.0  1.1044
  Mn  Mn4  1  0.490440  0.538130  0.611070  1.0  1.1041
  Mn  Mn5  1  0.785550  0.250000  0.250000  1.0  1.2556
  Mn  Mn6  1  0.214450  0.750000  0.750000  1.0  1.2583
  H  H7  1  0.201600  0.180300  0.847900  1.0  0.1049
  H  H8  1  0.295300  0.312400  0.753200  1.0  0.1063
  H  H9  1  0.955400  0.541000  0.907600  1.0  0.1089
  H  H10  1  0.867700  0.407900  0.009100  1.0  0.0942
  H  H11  1  0.549500  0.159400  0.451200  1.0  0.0978
  H  H12  1  0.578700  0.877800  0.384000  1.0  0.1076
  H  H13  1  0.729800  0.319700  0.652100  1.0  0.1041
  H  H14  1  0.860900  0.187600  0.746800  1.0  0.1075
  H  H15  1  0.904000  0.959000  0.592400  1.0  0.1076
  H  H16  1  0.784700  0.092100  0.490900  1.0  0.0949
  H  H17  1  0.660100  0.340600  0.048800  1.0  0.0972
  H  H18  1  0.340500  0.622200  0.116000  1.0  0.1075
  H  H19  1  0.798400  0.819700  0.152100  1.0  0.1045
  H  H20  1  0.704700  0.687600  0.246800  1.0  0.1061
  H  H21  1  0.044600  0.459000  0.092400  1.0  0.1086
  H  H22  1  0.132300  0.592100  0.990900  1.0  0.0939
  H  H23  1  0.450500  0.840600  0.548800  1.0  0.0974
  H  H24  1  0.421300  0.122200  0.616000  1.0  0.1079
  H  H25  1  0.270200  0.680300  0.347900  1.0  0.1042
  H  H26  1  0.139100  0.812400  0.253200  1.0  0.1075
  H  H27  1  0.096000  0.041000  0.407600  1.0  0.1078
  H  H28  1  0.215300  0.907900  0.509100  1.0  0.0948
  H  H29  1  0.339900  0.659400  0.951200  1.0  0.0978
  H  H30  1  0.659500  0.377800  0.884000  1.0  0.1074
  C  C31  1  0.969200  0.194860  0.003940  1.0  0.734
  C  C32  1  0.025870  0.280790  0.939270  1.0  -0.1543
  C  C33  1  0.153300  0.252420  0.861380  1.0  -0.0526
  C  C34  1  0.208250  0.331960  0.803740  1.0  -0.0616
  C  C35  1  0.135040  0.440160  0.820560  1.0  -0.1262
  C  C36  1  0.006410  0.468370  0.896610  1.0  -0.0481
  C  C37  1  0.952890  0.388560  0.956860  1.0  -0.0296
  C  C38  1  0.199180  0.524840  0.759600  1.0  0.7104
  C  C39  1  0.665150  0.044050  0.295850  1.0  0.6997
  C  C40  1  0.577960  0.021890  0.401590  1.0  -0.1207
  C  C41  1  0.529920  0.095150  0.470810  1.0  -0.0587
  C  C42  1  0.547470  0.926860  0.430600  1.0  -0.0551
  C  C43  1  0.668000  0.305140  0.496060  1.0  0.7351
  C  C44  1  0.745930  0.219210  0.560730  1.0  -0.1546
  C  C45  1  0.767100  0.247580  0.638620  1.0  -0.0527
  C  C46  1  0.843950  0.168040  0.696260  1.0  -0.0637
  C  C47  1  0.895760  0.059840  0.679440  1.0  -0.1286
  C  C48  1  0.871390  0.031630  0.603390  1.0  -0.0459
  C  C49  1  0.798310  0.111440  0.543140  1.0  -0.0307
  C  C50  1  0.983620  0.975160  0.740400  1.0  0.71
  C  C51  1  0.505050  0.455950  0.204150  1.0  0.7015
  C  C52  1  0.501440  0.478110  0.098410  1.0  -0.121
  C  C53  1  0.595880  0.404850  0.029190  1.0  -0.0597
  C  C54  1  0.404930  0.573140  0.069400  1.0  -0.0564
  C  C55  1  0.030800  0.805140  0.996060  1.0  0.7335
  C  C56  1  0.974130  0.719210  0.060730  1.0  -0.1537
  C  C57  1  0.846700  0.747580  0.138620  1.0  -0.0527
  C  C58  1  0.791750  0.668040  0.196260  1.0  -0.0621
  C  C59  1  0.864960  0.559840  0.179440  1.0  -0.1261
  C  C60  1  0.993590  0.531630  0.103390  1.0  -0.0478
  C  C61  1  0.047110  0.611440  0.043140  1.0  -0.0316
  C  C62  1  0.800820  0.475160  0.240400  1.0  0.709
  C  C63  1  0.334850  0.955950  0.704150  1.0  0.7019
  C  C64  1  0.422040  0.978110  0.598410  1.0  -0.1208
  C  C65  1  0.470080  0.904850  0.529190  1.0  -0.0589
  C  C66  1  0.452530  0.073140  0.569400  1.0  -0.0561
  C  C67  1  0.332000  0.694860  0.503940  1.0  0.7347
  C  C68  1  0.254070  0.780790  0.439270  1.0  -0.1547
  C  C69  1  0.232900  0.752420  0.361380  1.0  -0.0517
  C  C70  1  0.156050  0.831960  0.303740  1.0  -0.0641
  C  C71  1  0.104240  0.940160  0.320560  1.0  -0.1293
  C  C72  1  0.128610  0.968370  0.396610  1.0  -0.0471
  C  C73  1  0.201690  0.888560  0.456860  1.0  -0.0323
  C  C74  1  0.016380  0.024840  0.259600  1.0  0.7108
  C  C75  1  0.494950  0.544050  0.795850  1.0  0.7004
  C  C76  1  0.498560  0.521890  0.901590  1.0  -0.1203
  C  C77  1  0.404120  0.595150  0.970810  1.0  -0.06
  C  C78  1  0.595070  0.426860  0.930600  1.0  -0.0549
  O  O79  1  0.017640  0.101310  0.975550  1.0  -0.6399
  O  O80  1  0.871130  0.215890  0.086270  1.0  -0.6496
  O  O81  1  0.136170  0.620690  0.782570  1.0  -0.6177
  O  O82  1  0.313980  0.491150  0.691290  1.0  -0.6198
  O  O83  1  0.685230  0.133240  0.268300  1.0  -0.66
  O  O84  1  0.715670  0.972460  0.237200  1.0  -0.5978
  O  O85  1  0.594500  0.398690  0.524450  1.0  -0.6401
  O  O86  1  0.673290  0.284110  0.413730  1.0  -0.6492
  O  O87  1  0.039430  0.879310  0.717430  1.0  -0.6179
  O  O88  1  0.996420  0.008850  0.808710  1.0  -0.622
  O  O89  1  0.586770  0.366760  0.231700  1.0  -0.6592
  O  O90  1  0.425330  0.527540  0.262800  1.0  -0.5986
  O  O91  1  0.982360  0.898690  0.024450  1.0  -0.6406
  O  O92  1  0.128870  0.784110  0.913730  1.0  -0.6494
  O  O93  1  0.863830  0.379310  0.217430  1.0  -0.6183
  O  O94  1  0.686020  0.508850  0.308710  1.0  -0.6192
  O  O95  1  0.314770  0.866760  0.731700  1.0  -0.6604
  O  O96  1  0.284330  0.027540  0.762800  1.0  -0.5969
  O  O97  1  0.405500  0.601310  0.475550  1.0  -0.6395
  O  O98  1  0.326710  0.715890  0.586270  1.0  -0.6485
  O  O99  1  0.960570  0.120690  0.282570  1.0  -0.6178
  O  O100  1  0.003580  0.991150  0.191290  1.0  -0.6203
  O  O101  1  0.413230  0.633240  0.768300  1.0  -0.6598
  O  O102  1  0.574670  0.472460  0.737200  1.0  -0.5988
