# generated using pymatgen
data_MnH4(C2O)4
_symmetry_space_group_name_H-M   'P 1'
_cell_length_a   10.65700000
_cell_length_b   13.48300000
_cell_length_c   14.36500000
_cell_angle_alpha   76.86560000
_cell_angle_beta   68.22670000
_cell_angle_gamma   66.72150000
_symmetry_Int_Tables_number   1
_chemical_formula_structural   MnH4(C2O)4
_chemical_formula_sum   'Mn6 H24 C48 O24'
_cell_volume   1752.90352201
_cell_formula_units_Z   6
loop_
 _symmetry_equiv_pos_site_id
 _symmetry_equiv_pos_as_xyz
  1  'x, y, z'
loop_
 _atom_site_type_symbol
 _atom_site_label
 _atom_site_symmetry_multiplicity
 _atom_site_fract_x
 _atom_site_fract_y
 _atom_site_fract_z
 _atom_site_occupancy
 _atom_site_charge
  Mn  Mn1  1  0.856240  0.039250  0.109210  1.0  1.0961
  Mn  Mn2  1  0.504700  0.460750  0.390790  1.0  1.0949
  Mn  Mn3  1  0.143760  0.960750  0.890790  1.0  1.0963
  Mn  Mn4  1  0.495300  0.539250  0.609210  1.0  1.095
  Mn  Mn5  1  0.780860  0.250000  0.250000  1.0  1.2503
  Mn  Mn6  1  0.219140  0.750000  0.750000  1.0  1.2525
  H  H7  1  0.201200  0.181700  0.846300  1.0  0.1026
  H  H8  1  0.297300  0.313700  0.752500  1.0  0.1068
  H  H9  1  0.953000  0.542100  0.907700  1.0  0.1095
  H  H10  1  0.863300  0.409100  0.009300  1.0  0.0971
  H  H11  1  0.543200  0.162400  0.447400  1.0  0.098
  H  H12  1  0.580800  0.874400  0.385400  1.0  0.1083
  H  H13  1  0.729200  0.318300  0.653700  1.0  0.1024
  H  H14  1  0.863500  0.186300  0.747500  1.0  0.1081
  H  H15  1  0.902800  0.957900  0.592300  1.0  0.1086
  H  H16  1  0.781700  0.090900  0.490700  1.0  0.0977
  H  H17  1  0.653000  0.337600  0.052600  1.0  0.0977
  H  H18  1  0.340600  0.625600  0.114600  1.0  0.1084
  H  H19  1  0.798800  0.818300  0.153700  1.0  0.1029
  H  H20  1  0.702700  0.686300  0.247500  1.0  0.1066
  H  H21  1  0.047000  0.457900  0.092300  1.0  0.1097
  H  H22  1  0.136700  0.590900  0.990700  1.0  0.0971
  H  H23  1  0.456800  0.837600  0.552600  1.0  0.0979
  H  H24  1  0.419200  0.125600  0.614600  1.0  0.1083
  H  H25  1  0.270800  0.681700  0.346300  1.0  0.102
  H  H26  1  0.136500  0.813700  0.252500  1.0  0.1079
  H  H27  1  0.097200  0.042100  0.407700  1.0  0.1086
  H  H28  1  0.218300  0.909100  0.509300  1.0  0.0977
  H  H29  1  0.347000  0.662400  0.947400  1.0  0.0986
  H  H30  1  0.659400  0.374400  0.885400  1.0  0.1084
  C  C31  1  0.967640  0.195520  0.004200  1.0  0.7221
  C  C32  1  0.024170  0.281740  0.939320  1.0  -0.1562
  C  C33  1  0.152820  0.253650  0.860510  1.0  -0.0419
  C  C34  1  0.209060  0.333210  0.803070  1.0  -0.0576
  C  C35  1  0.134880  0.441140  0.820500  1.0  -0.1232
  C  C36  1  0.004350  0.469540  0.896760  1.0  -0.0605
  C  C37  1  0.949720  0.389840  0.957120  1.0  -0.0316
  C  C38  1  0.200520  0.525810  0.760550  1.0  0.7054
  C  C39  1  0.659180  0.043880  0.293160  1.0  0.6946
  C  C40  1  0.575130  0.021850  0.400090  1.0  -0.1234
  C  C41  1  0.526120  0.097060  0.468500  1.0  -0.0499
  C  C42  1  0.548660  0.924730  0.431350  1.0  -0.0465
  C  C43  1  0.667360  0.304480  0.495800  1.0  0.7224
  C  C44  1  0.745230  0.218260  0.560680  1.0  -0.1571
  C  C45  1  0.766980  0.246350  0.639490  1.0  -0.0428
  C  C46  1  0.845340  0.166790  0.696930  1.0  -0.0594
  C  C47  1  0.896520  0.058860  0.679500  1.0  -0.1256
  C  C48  1  0.870650  0.030460  0.603240  1.0  -0.0584
  C  C49  1  0.796680  0.110160  0.542880  1.0  -0.031
  C  C50  1  0.986880  0.974190  0.739450  1.0  0.707
  C  C51  1  0.496220  0.456120  0.206840  1.0  0.6945
  C  C52  1  0.497070  0.478150  0.099910  1.0  -0.1237
  C  C53  1  0.591680  0.402940  0.031500  1.0  -0.0495
  C  C54  1  0.404740  0.575270  0.068650  1.0  -0.0478
  C  C55  1  0.032360  0.804480  0.995800  1.0  0.7214
  C  C56  1  0.975830  0.718260  0.060680  1.0  -0.1564
  C  C57  1  0.847180  0.746350  0.139490  1.0  -0.043
  C  C58  1  0.790940  0.666790  0.196930  1.0  -0.0585
  C  C59  1  0.865120  0.558860  0.179500  1.0  -0.1225
  C  C60  1  0.995650  0.530460  0.103240  1.0  -0.0608
  C  C61  1  0.050280  0.610160  0.042880  1.0  -0.0331
  C  C62  1  0.799480  0.474190  0.239450  1.0  0.7051
  C  C63  1  0.340820  0.956120  0.706840  1.0  0.6953
  C  C64  1  0.424870  0.978150  0.599910  1.0  -0.1237
  C  C65  1  0.473880  0.902940  0.531500  1.0  -0.0486
  C  C66  1  0.451340  0.075270  0.568650  1.0  -0.0481
  C  C67  1  0.332640  0.695520  0.504200  1.0  0.7219
  C  C68  1  0.254770  0.781740  0.439320  1.0  -0.1568
  C  C69  1  0.233020  0.753650  0.360510  1.0  -0.0413
  C  C70  1  0.154660  0.833210  0.303070  1.0  -0.0606
  C  C71  1  0.103480  0.941140  0.320500  1.0  -0.1271
  C  C72  1  0.129350  0.969540  0.396760  1.0  -0.059
  C  C73  1  0.203320  0.889840  0.457120  1.0  -0.0321
  C  C74  1  0.013120  0.025810  0.260550  1.0  0.7069
  C  C75  1  0.503780  0.543880  0.793160  1.0  0.6941
  C  C76  1  0.502930  0.521850  0.900090  1.0  -0.1238
  C  C77  1  0.408320  0.597060  0.968500  1.0  -0.05
  C  C78  1  0.595260  0.424730  0.931350  1.0  -0.0463
  O  O79  1  0.018380  0.101210  0.976230  1.0  -0.6383
  O  O80  1  0.867050  0.216850  0.086450  1.0  -0.6485
  O  O81  1  0.137170  0.621800  0.783860  1.0  -0.6187
  O  O82  1  0.317740  0.491840  0.692080  1.0  -0.6201
  O  O83  1  0.679170  0.133770  0.264690  1.0  -0.66
  O  O84  1  0.708810  0.972110  0.234070  1.0  -0.5883
  O  O85  1  0.595820  0.398790  0.523770  1.0  -0.6387
  O  O86  1  0.670350  0.283150  0.413550  1.0  -0.6476
  O  O87  1  0.042830  0.878200  0.716140  1.0  -0.6192
  O  O88  1  0.001660  0.008160  0.807920  1.0  -0.6212
  O  O89  1  0.577630  0.366230  0.235310  1.0  -0.657
  O  O90  1  0.414990  0.527890  0.265930  1.0  -0.5898
  O  O91  1  0.981620  0.898790  0.023770  1.0  -0.638
  O  O92  1  0.132950  0.783150  0.913550  1.0  -0.6479
  O  O93  1  0.862830  0.378200  0.216140  1.0  -0.6183
  O  O94  1  0.682260  0.508160  0.307920  1.0  -0.6199
  O  O95  1  0.320830  0.866230  0.735310  1.0  -0.6585
  O  O96  1  0.291190  0.027890  0.765930  1.0  -0.5879
  O  O97  1  0.404180  0.601210  0.476230  1.0  -0.6388
  O  O98  1  0.329650  0.716850  0.586450  1.0  -0.6476
  O  O99  1  0.957170  0.121800  0.283860  1.0  -0.6194
  O  O100  1  0.998340  0.991840  0.192080  1.0  -0.6194
  O  O101  1  0.422370  0.633770  0.764690  1.0  -0.6574
  O  O102  1  0.585010  0.472110  0.734070  1.0  -0.5885
