# generated using pymatgen
data_MnH4(C2O)4
_symmetry_space_group_name_H-M   'P 1'
_cell_length_a   10.77680000
_cell_length_b   13.50570000
_cell_length_c   14.42480000
_cell_angle_alpha   76.58720000
_cell_angle_beta   68.06520000
_cell_angle_gamma   66.48610000
_symmetry_Int_Tables_number   1
_chemical_formula_structural   MnH4(C2O)4
_chemical_formula_sum   'Mn6 H24 C48 O24'
_cell_volume   1777.29659798
_cell_formula_units_Z   6
loop_
 _symmetry_equiv_pos_site_id
 _symmetry_equiv_pos_as_xyz
  1  'x, y, z'
loop_
 _atom_site_type_symbol
 _atom_site_label
 _atom_site_symmetry_multiplicity
 _atom_site_fract_x
 _atom_site_fract_y
 _atom_site_fract_z
 _atom_site_occupancy
 _atom_site_charge
  Mn  Mn1  1  0.858990  0.038560  0.110380  1.0  1.1051
  Mn  Mn2  1  0.507930  0.461440  0.389620  1.0  1.1045
  Mn  Mn3  1  0.141010  0.961440  0.889620  1.0  1.1056
  Mn  Mn4  1  0.492070  0.538560  0.610380  1.0  1.1056
  Mn  Mn5  1  0.784160  0.250000  0.250000  1.0  1.256
  Mn  Mn6  1  0.215840  0.750000  0.750000  1.0  1.2581
  H  H7  1  0.201500  0.180600  0.847200  1.0  0.1026
  H  H8  1  0.296100  0.312900  0.752900  1.0  0.1055
  H  H9  1  0.955000  0.541200  0.907800  1.0  0.1073
  H  H10  1  0.866400  0.408000  0.009000  1.0  0.0935
  H  H11  1  0.547700  0.160300  0.450100  1.0  0.0942
  H  H12  1  0.578500  0.877100  0.384300  1.0  0.1058
  H  H13  1  0.729300  0.319400  0.652800  1.0  0.1022
  H  H14  1  0.861900  0.187100  0.747100  1.0  0.1064
  H  H15  1  0.904000  0.958800  0.592200  1.0  0.106
  H  H16  1  0.783400  0.092000  0.491000  1.0  0.0939
  H  H17  1  0.658100  0.339700  0.049900  1.0  0.0936
  H  H18  1  0.339900  0.622900  0.115700  1.0  0.1058
  H  H19  1  0.798500  0.819400  0.152800  1.0  0.1024
  H  H20  1  0.703900  0.687100  0.247100  1.0  0.1051
  H  H21  1  0.045000  0.458800  0.092200  1.0  0.107
  H  H22  1  0.133600  0.592000  0.991000  1.0  0.0932
  H  H23  1  0.452300  0.839700  0.549900  1.0  0.0936
  H  H24  1  0.421500  0.122900  0.615700  1.0  0.1061
  H  H25  1  0.270700  0.680600  0.347200  1.0  0.1019
  H  H26  1  0.138100  0.812900  0.252900  1.0  0.1062
  H  H27  1  0.096000  0.041200  0.407800  1.0  0.106
  H  H28  1  0.216600  0.908000  0.509000  1.0  0.094
  H  H29  1  0.341900  0.660300  0.950100  1.0  0.0942
  H  H30  1  0.660100  0.377100  0.884300  1.0  0.1058
  C  C31  1  0.968830  0.195010  0.003930  1.0  0.7338
  C  C32  1  0.025630  0.280970  0.939170  1.0  -0.1567
  C  C33  1  0.153290  0.252660  0.860960  1.0  -0.0449
  C  C34  1  0.208680  0.332400  0.803440  1.0  -0.0549
  C  C35  1  0.135230  0.440460  0.820480  1.0  -0.1216
  C  C36  1  0.005930  0.468650  0.896690  1.0  -0.0597
  C  C37  1  0.951990  0.388750  0.956870  1.0  -0.0333
  C  C38  1  0.199900  0.525160  0.759840  1.0  0.7132
  C  C39  1  0.663110  0.044060  0.294920  1.0  0.6953
  C  C40  1  0.577220  0.021920  0.401040  1.0  -0.1219
  C  C41  1  0.528990  0.095730  0.470090  1.0  -0.0516
  C  C42  1  0.547480  0.926350  0.430690  1.0  -0.0555
  C  C43  1  0.667770  0.304990  0.496070  1.0  0.7343
  C  C44  1  0.745770  0.219030  0.560830  1.0  -0.1573
  C  C45  1  0.766910  0.247340  0.639040  1.0  -0.0448
  C  C46  1  0.844520  0.167600  0.696560  1.0  -0.0572
  C  C47  1  0.896170  0.059540  0.679520  1.0  -0.1233
  C  C48  1  0.871270  0.031350  0.603310  1.0  -0.0571
  C  C49  1  0.797610  0.111250  0.543130  1.0  -0.0339
  C  C50  1  0.984900  0.974840  0.740160  1.0  0.7133
  C  C51  1  0.502090  0.455940  0.205080  1.0  0.6958
  C  C52  1  0.500180  0.478080  0.098960  1.0  -0.1224
  C  C53  1  0.594810  0.404270  0.029910  1.0  -0.0523
  C  C54  1  0.404520  0.573650  0.069310  1.0  -0.0568
  C  C55  1  0.031170  0.804990  0.996070  1.0  0.7329
  C  C56  1  0.974370  0.719030  0.060830  1.0  -0.1562
  C  C57  1  0.846710  0.747340  0.139040  1.0  -0.0451
  C  C58  1  0.791320  0.667600  0.196560  1.0  -0.0557
  C  C59  1  0.864770  0.559540  0.179520  1.0  -0.1219
  C  C60  1  0.994070  0.531350  0.103310  1.0  -0.0591
  C  C61  1  0.048010  0.611250  0.043130  1.0  -0.0355
  C  C62  1  0.800100  0.474840  0.240160  1.0  0.7112
  C  C63  1  0.336890  0.955940  0.705080  1.0  0.6965
  C  C64  1  0.422780  0.978080  0.598960  1.0  -0.1223
  C  C65  1  0.471010  0.904270  0.529910  1.0  -0.0516
  C  C66  1  0.452520  0.073650  0.569310  1.0  -0.0565
  C  C67  1  0.332230  0.695010  0.503930  1.0  0.7344
  C  C68  1  0.254230  0.780970  0.439170  1.0  -0.1575
  C  C69  1  0.233090  0.752660  0.360960  1.0  -0.0444
  C  C70  1  0.155480  0.832400  0.303440  1.0  -0.058
  C  C71  1  0.103830  0.940460  0.320480  1.0  -0.1238
  C  C72  1  0.128730  0.968650  0.396690  1.0  -0.0582
  C  C73  1  0.202390  0.888750  0.456870  1.0  -0.0355
  C  C74  1  0.015100  0.025160  0.259840  1.0  0.7143
  C  C75  1  0.497910  0.544060  0.794920  1.0  0.6952
  C  C76  1  0.499820  0.521920  0.901040  1.0  -0.1218
  C  C77  1  0.405190  0.595730  0.970090  1.0  -0.0526
  C  C78  1  0.595480  0.426350  0.930690  1.0  -0.0551
  O  O79  1  0.017850  0.101230  0.975850  1.0  -0.6396
  O  O80  1  0.870040  0.216230  0.086270  1.0  -0.649
  O  O81  1  0.136460  0.620910  0.782970  1.0  -0.6193
  O  O82  1  0.315300  0.491430  0.691570  1.0  -0.6258
  O  O83  1  0.683300  0.133460  0.267140  1.0  -0.6544
  O  O84  1  0.712950  0.972630  0.236070  1.0  -0.5938
  O  O85  1  0.594930  0.398770  0.524150  1.0  -0.6392
  O  O86  1  0.672540  0.283770  0.413730  1.0  -0.6487
  O  O87  1  0.040340  0.879090  0.717030  1.0  -0.6196
  O  O88  1  0.998300  0.008570  0.808430  1.0  -0.6271
  O  O89  1  0.583900  0.366540  0.232860  1.0  -0.6518
  O  O90  1  0.421650  0.527370  0.263930  1.0  -0.5946
  O  O91  1  0.982150  0.898770  0.024150  1.0  -0.6395
  O  O92  1  0.129960  0.783770  0.913730  1.0  -0.6488
  O  O93  1  0.863540  0.379090  0.217030  1.0  -0.6195
  O  O94  1  0.684700  0.508570  0.308430  1.0  -0.6254
  O  O95  1  0.316700  0.866540  0.732860  1.0  -0.6534
  O  O96  1  0.287050  0.027370  0.763930  1.0  -0.5924
  O  O97  1  0.405070  0.601230  0.475850  1.0  -0.6389
  O  O98  1  0.327460  0.716230  0.586270  1.0  -0.6479
  O  O99  1  0.959660  0.120910  0.282970  1.0  -0.6189
  O  O100  1  0.001700  0.991430  0.191570  1.0  -0.626
  O  O101  1  0.416100  0.633460  0.767140  1.0  -0.653
  O  O102  1  0.578350  0.472630  0.736070  1.0  -0.5946
