# generated using pymatgen
data_ZnHC4O3
_symmetry_space_group_name_H-M   'P 1'
_cell_length_a   6.83650000
_cell_length_b   15.14440000
_cell_length_c   15.14440000
_cell_angle_alpha   62.22270000
_cell_angle_beta   81.34560000
_cell_angle_gamma   98.65440000
_symmetry_Int_Tables_number   1
_chemical_formula_structural   ZnHC4O3
_chemical_formula_sum   'Zn6 H6 C24 O18'
_cell_volume   1327.15646372
_cell_formula_units_Z   6
loop_
 _symmetry_equiv_pos_site_id
 _symmetry_equiv_pos_as_xyz
  1  'x, y, z'
loop_
 _atom_site_type_symbol
 _atom_site_label
 _atom_site_symmetry_multiplicity
 _atom_site_fract_x
 _atom_site_fract_y
 _atom_site_fract_z
 _atom_site_occupancy
 _atom_site_charge
  Zn  Zn1  1  0.889260  0.684390  0.577920  1.0  1.0917
  Zn  Zn2  1  0.467180  0.577920  0.737690  1.0  1.0889
  Zn  Zn3  1  0.204870  0.737690  0.684390  1.0  1.0909
  Zn  Zn4  1  0.110740  0.315610  0.422080  1.0  1.0889
  Zn  Zn5  1  0.532820  0.422080  0.262310  1.0  1.0895
  Zn  Zn6  1  0.795130  0.262310  0.315610  1.0  1.0918
  H  H7  1  0.669500  0.018100  0.529700  1.0  0.1232
  H  H8  1  0.199200  0.529700  0.452200  1.0  0.1263
  H  H9  1  0.651400  0.452200  0.018100  1.0  0.1265
  H  H10  1  0.330500  0.981900  0.470300  1.0  0.1229
  H  H11  1  0.800800  0.470300  0.547800  1.0  0.1267
  H  H12  1  0.348600  0.547800  0.981900  1.0  0.1269
  C  C13  1  0.648340  0.823880  0.614060  1.0  0.7469
  C  C14  1  0.835020  0.912180  0.553320  1.0  -0.2632
  C  C15  1  0.035880  0.899470  0.534730  1.0  0.3399
  C  C16  1  0.805340  0.011250  0.517630  1.0  -0.1179
  C  C17  1  0.262400  0.614060  0.562060  1.0  0.7478
  C  C18  1  0.388340  0.553320  0.534500  1.0  -0.2625
  C  C19  1  0.570610  0.534730  0.565800  1.0  0.3426
  C  C20  1  0.322970  0.517630  0.471120  1.0  -0.1227
  C  C21  1  0.824460  0.562060  0.823880  1.0  0.7483
  C  C22  1  0.922840  0.534500  0.912180  1.0  -0.2633
  C  C23  1  0.136410  0.565800  0.899470  1.0  0.3424
  C  C24  1  0.794090  0.471120  0.011250  1.0  -0.1215
  C  C25  1  0.351660  0.176120  0.385940  1.0  0.7454
  C  C26  1  0.164980  0.087820  0.446680  1.0  -0.2647
  C  C27  1  0.964120  0.100530  0.465270  1.0  0.34
  C  C28  1  0.194660  0.988750  0.482370  1.0  -0.1181
  C  C29  1  0.737600  0.385940  0.437940  1.0  0.7477
  C  C30  1  0.611660  0.446680  0.465500  1.0  -0.2636
  C  C31  1  0.429390  0.465270  0.434200  1.0  0.3426
  C  C32  1  0.677030  0.482370  0.528880  1.0  -0.1242
  C  C33  1  0.175540  0.437940  0.176120  1.0  0.7491
  C  C34  1  0.077160  0.465500  0.087820  1.0  -0.2625
  C  C35  1  0.863590  0.434200  0.100530  1.0  0.3422
  C  C36  1  0.205910  0.528880  0.988750  1.0  -0.1236
  O  O37  1  0.670540  0.733080  0.651660  1.0  -0.6525
  O  O38  1  0.477210  0.843950  0.625520  1.0  -0.6041
  O  O39  1  0.082430  0.808240  0.563050  1.0  -0.664
  O  O40  1  0.322200  0.651660  0.615260  1.0  -0.653
  O  O41  1  0.102730  0.625520  0.530530  1.0  -0.6054
  O  O42  1  0.645480  0.563050  0.628710  1.0  -0.6631
  O  O43  1  0.937460  0.615260  0.733080  1.0  -0.6511
  O  O44  1  0.633260  0.530530  0.843950  1.0  -0.6046
  O  O45  1  0.274190  0.628710  0.808240  1.0  -0.6634
  O  O46  1  0.329460  0.266920  0.348340  1.0  -0.651
  O  O47  1  0.522790  0.156050  0.374480  1.0  -0.6048
  O  O48  1  0.917570  0.191760  0.436950  1.0  -0.6636
  O  O49  1  0.677800  0.348340  0.384740  1.0  -0.6521
  O  O50  1  0.897270  0.374480  0.469470  1.0  -0.6049
  O  O51  1  0.354520  0.436950  0.371290  1.0  -0.6627
  O  O52  1  0.062540  0.384740  0.266920  1.0  -0.6521
  O  O53  1  0.366740  0.469470  0.156050  1.0  -0.606
  O  O54  1  0.725810  0.371290  0.191760  1.0  -0.6627
