# generated using pymatgen
data_MnH4(C2O)4
_symmetry_space_group_name_H-M   'P 1'
_cell_length_a   10.69780000
_cell_length_b   13.49120000
_cell_length_c   14.38430000
_cell_angle_alpha   76.77080000
_cell_angle_beta   68.16990000
_cell_angle_gamma   66.64220000
_symmetry_Int_Tables_number   1
_chemical_formula_structural   MnH4(C2O)4
_chemical_formula_sum   'Mn6 H24 C48 O24'
_cell_volume   1761.13071781
_cell_formula_units_Z   6
loop_
 _symmetry_equiv_pos_site_id
 _symmetry_equiv_pos_as_xyz
  1  'x, y, z'
loop_
 _atom_site_type_symbol
 _atom_site_label
 _atom_site_symmetry_multiplicity
 _atom_site_fract_x
 _atom_site_fract_y
 _atom_site_fract_z
 _atom_site_occupancy
 _atom_site_charge
  Mn  Mn1  1  0.857090  0.039110  0.109510  1.0  1.1005
  Mn  Mn2  1  0.505710  0.460890  0.390490  1.0  1.0992
  Mn  Mn3  1  0.142910  0.960890  0.890490  1.0  1.1004
  Mn  Mn4  1  0.494290  0.539110  0.609510  1.0  1.0991
  Mn  Mn5  1  0.782020  0.250000  0.250000  1.0  1.2534
  Mn  Mn6  1  0.217980  0.750000  0.750000  1.0  1.2552
  H  H7  1  0.201200  0.181400  0.846600  1.0  0.1033
  H  H8  1  0.297100  0.313400  0.752600  1.0  0.1071
  H  H9  1  0.954400  0.541600  0.907600  1.0  0.109
  H  H10  1  0.864600  0.408900  0.009300  1.0  0.0974
  H  H11  1  0.545200  0.161600  0.448200  1.0  0.0985
  H  H12  1  0.579400  0.875300  0.385100  1.0  0.1055
  H  H13  1  0.729200  0.318600  0.653400  1.0  0.1031
  H  H14  1  0.863100  0.186600  0.747400  1.0  0.1082
  H  H15  1  0.903600  0.958400  0.592400  1.0  0.1079
  H  H16  1  0.782800  0.091100  0.490700  1.0  0.0978
  H  H17  1  0.655000  0.338400  0.051800  1.0  0.0981
  H  H18  1  0.339800  0.624700  0.114900  1.0  0.1059
  H  H19  1  0.798800  0.818600  0.153400  1.0  0.1034
  H  H20  1  0.702900  0.686600  0.247400  1.0  0.1068
  H  H21  1  0.045600  0.458400  0.092400  1.0  0.1089
  H  H22  1  0.135400  0.591100  0.990700  1.0  0.0974
  H  H23  1  0.454800  0.838400  0.551800  1.0  0.0982
  H  H24  1  0.420600  0.124700  0.614900  1.0  0.1057
  H  H25  1  0.270800  0.681400  0.346600  1.0  0.1025
  H  H26  1  0.136900  0.813400  0.252600  1.0  0.1079
  H  H27  1  0.096400  0.041600  0.407600  1.0  0.1078
  H  H28  1  0.217200  0.908900  0.509300  1.0  0.098
  H  H29  1  0.345000  0.661600  0.948200  1.0  0.0989
  H  H30  1  0.660200  0.375300  0.885100  1.0  0.1058
  C  C31  1  0.968100  0.195540  0.004060  1.0  0.7297
  C  C32  1  0.024800  0.281520  0.939080  1.0  -0.1559
  C  C33  1  0.153000  0.253350  0.860650  1.0  -0.0427
  C  C34  1  0.209080  0.332870  0.803170  1.0  -0.0552
  C  C35  1  0.135200  0.440700  0.820500  1.0  -0.1201
  C  C36  1  0.005460  0.469000  0.896680  1.0  -0.0598
  C  C37  1  0.950720  0.389540  0.957020  1.0  -0.036
  C  C38  1  0.200700  0.525440  0.760160  1.0  0.7041
  C  C39  1  0.660480  0.044330  0.293710  1.0  0.6903
  C  C40  1  0.575780  0.021980  0.400260  1.0  -0.123
  C  C41  1  0.527310  0.096620  0.468960  1.0  -0.0496
  C  C42  1  0.547840  0.925300  0.431220  1.0  -0.053
  C  C43  1  0.667700  0.304460  0.495940  1.0  0.7302
  C  C44  1  0.745400  0.218480  0.560920  1.0  -0.1564
  C  C45  1  0.767000  0.246650  0.639350  1.0  -0.0436
  C  C46  1  0.845120  0.167130  0.696830  1.0  -0.0568
  C  C47  1  0.896400  0.059300  0.679500  1.0  -0.1229
  C  C48  1  0.871140  0.031000  0.603320  1.0  -0.0588
  C  C49  1  0.797280  0.110460  0.542980  1.0  -0.0359
  C  C50  1  0.986300  0.974560  0.739840  1.0  0.7049
  C  C51  1  0.498520  0.455670  0.206290  1.0  0.6904
  C  C52  1  0.498020  0.478020  0.099740  1.0  -0.1231
  C  C53  1  0.592890  0.403380  0.031040  1.0  -0.0499
  C  C54  1  0.404360  0.574700  0.068780  1.0  -0.0543
  C  C55  1  0.031900  0.804460  0.995940  1.0  0.7293
  C  C56  1  0.975200  0.718480  0.060920  1.0  -0.1557
  C  C57  1  0.847000  0.746650  0.139350  1.0  -0.0437
  C  C58  1  0.790920  0.667130  0.196830  1.0  -0.0562
  C  C59  1  0.864800  0.559300  0.179500  1.0  -0.1196
  C  C60  1  0.994540  0.531000  0.103320  1.0  -0.0602
  C  C61  1  0.049280  0.610460  0.042980  1.0  -0.0377
  C  C62  1  0.799300  0.474560  0.239840  1.0  0.7032
  C  C63  1  0.339520  0.955670  0.706290  1.0  0.691
  C  C64  1  0.424220  0.978020  0.599740  1.0  -0.123
  C  C65  1  0.472690  0.903380  0.531040  1.0  -0.0489
  C  C66  1  0.452160  0.074700  0.568780  1.0  -0.0548
  C  C67  1  0.332300  0.695540  0.504060  1.0  0.7302
  C  C68  1  0.254600  0.781520  0.439080  1.0  -0.1564
  C  C69  1  0.233000  0.753350  0.360650  1.0  -0.042
  C  C70  1  0.154880  0.832870  0.303170  1.0  -0.0575
  C  C71  1  0.103600  0.940700  0.320500  1.0  -0.124
  C  C72  1  0.128860  0.969000  0.396680  1.0  -0.0587
  C  C73  1  0.202720  0.889540  0.457020  1.0  -0.0373
  C  C74  1  0.013700  0.025440  0.260160  1.0  0.7053
  C  C75  1  0.501480  0.544330  0.793710  1.0  0.69
  C  C76  1  0.501980  0.521980  0.900260  1.0  -0.1229
  C  C77  1  0.407110  0.596620  0.968960  1.0  -0.0499
  C  C78  1  0.595640  0.425300  0.931220  1.0  -0.0524
  O  O79  1  0.018190  0.101170  0.976050  1.0  -0.6379
  O  O80  1  0.868200  0.216520  0.086280  1.0  -0.648
  O  O81  1  0.137100  0.621390  0.783610  1.0  -0.6195
  O  O82  1  0.317430  0.491580  0.691960  1.0  -0.625
  O  O83  1  0.680730  0.133620  0.265520  1.0  -0.6525
  O  O84  1  0.709830  0.972670  0.234470  1.0  -0.5913
  O  O85  1  0.595410  0.398830  0.523950  1.0  -0.6384
  O  O86  1  0.671000  0.283480  0.413720  1.0  -0.6473
  O  O87  1  0.042100  0.878610  0.716390  1.0  -0.6193
  O  O88  1  0.000970  0.008420  0.808040  1.0  -0.6264
  O  O89  1  0.579870  0.366380  0.234480  1.0  -0.6495
  O  O90  1  0.416970  0.527330  0.265530  1.0  -0.5927
  O  O91  1  0.981810  0.898830  0.023950  1.0  -0.638
  O  O92  1  0.131800  0.783480  0.913720  1.0  -0.6476
  O  O93  1  0.862900  0.378610  0.216390  1.0  -0.619
  O  O94  1  0.682570  0.508420  0.308040  1.0  -0.6251
  O  O95  1  0.319270  0.866380  0.734480  1.0  -0.6522
  O  O96  1  0.290170  0.027330  0.765530  1.0  -0.5901
  O  O97  1  0.404590  0.601170  0.476050  1.0  -0.6385
  O  O98  1  0.329000  0.716520  0.586280  1.0  -0.6463
  O  O99  1  0.957900  0.121390  0.283610  1.0  -0.6187
  O  O100  1  0.999030  0.991580  0.191960  1.0  -0.6247
  O  O101  1  0.420130  0.633620  0.765520  1.0  -0.6515
  O  O102  1  0.583030  0.472670  0.734470  1.0  -0.5919
