# generated using pymatgen
data_MnH4(C2O)4
_symmetry_space_group_name_H-M   'P 1'
_cell_length_a   10.65700000
_cell_length_b   13.53690000
_cell_length_c   14.41730000
_cell_angle_alpha   76.98160000
_cell_angle_beta   68.30950000
_cell_angle_gamma   66.81950000
_symmetry_Int_Tables_number   1
_chemical_formula_structural   MnH4(C2O)4
_chemical_formula_sum   'Mn6 H24 C48 O24'
_cell_volume   1768.82381592
_cell_formula_units_Z   6
loop_
 _symmetry_equiv_pos_site_id
 _symmetry_equiv_pos_as_xyz
  1  'x, y, z'
loop_
 _atom_site_type_symbol
 _atom_site_label
 _atom_site_symmetry_multiplicity
 _atom_site_fract_x
 _atom_site_fract_y
 _atom_site_fract_z
 _atom_site_occupancy
 _atom_site_charge
  Mn  Mn1  1  0.355760  0.539160  0.609160  1.0  1.1002
  Mn  Mn2  1  0.004070  0.960850  0.890840  1.0  1.0998
  Mn  Mn3  1  0.644240  0.460850  0.390840  1.0  1.1021
  Mn  Mn4  1  0.995930  0.039150  0.109160  1.0  1.1007
  Mn  Mn5  1  0.280170  0.750000  0.750000  1.0  1.2447
  Mn  Mn6  1  0.719830  0.250000  0.250000  1.0  1.247
  H  H7  1  0.700900  0.682000  0.347200  1.0  0.1023
  H  H8  1  0.797300  0.813500  0.252900  1.0  0.1064
  H  H9  1  0.450600  0.042400  0.407600  1.0  0.1116
  H  H10  1  0.361100  0.909600  0.509000  1.0  0.0952
  H  H11  1  0.042300  0.662700  0.946900  1.0  0.0995
  H  H12  1  0.082600  0.373400  0.886000  1.0  0.1097
  H  H13  1  0.230100  0.818000  0.152800  1.0  0.1017
  H  H14  1  0.363700  0.686500  0.247100  1.0  0.1079
  H  H15  1  0.400600  0.457600  0.092400  1.0  0.1105
  H  H16  1  0.279700  0.590400  0.991000  1.0  0.0961
  H  H17  1  0.151900  0.837300  0.553100  1.0  0.0991
  H  H18  1  0.842000  0.126600  0.614000  1.0  0.1102
  H  H19  1  0.299100  0.318000  0.652800  1.0  0.1016
  H  H20  1  0.202700  0.186500  0.747100  1.0  0.1061
  H  H21  1  0.549400  0.957600  0.592400  1.0  0.1118
  H  H22  1  0.638900  0.090400  0.491000  1.0  0.0954
  H  H23  1  0.957700  0.337300  0.053100  1.0  0.0994
  H  H24  1  0.917400  0.626600  0.114000  1.0  0.1101
  H  H25  1  0.769900  0.182000  0.847200  1.0  0.1012
  H  H26  1  0.636300  0.313500  0.752900  1.0  0.1077
  H  H27  1  0.599400  0.542400  0.907600  1.0  0.1103
  H  H28  1  0.720300  0.409600  0.009000  1.0  0.0959
  H  H29  1  0.848100  0.162700  0.446900  1.0  0.1001
  H  H30  1  0.158000  0.873400  0.386000  1.0  0.1097
  C  C31  1  0.466720  0.695640  0.504540  1.0  0.7207
  C  C32  1  0.523300  0.781980  0.439460  1.0  -0.1527
  C  C33  1  0.652580  0.753750  0.361010  1.0  -0.0358
  C  C34  1  0.709240  0.833040  0.303300  1.0  -0.0546
  C  C35  1  0.634430  0.941700  0.320800  1.0  -0.1167
  C  C36  1  0.502330  0.970150  0.396970  1.0  -0.0576
  C  C37  1  0.447650  0.890450  0.457190  1.0  -0.0349
  C  C38  1  0.700730  0.025820  0.260340  1.0  0.7082
  C  C39  1  0.158570  0.543820  0.793020  1.0  0.6734
  C  C40  1  0.074940  0.521650  0.899890  1.0  -0.1185
  C  C41  1  0.025390  0.597630  0.968170  1.0  -0.0505
  C  C42  1  0.049640  0.424000  0.931540  1.0  -0.0432
  C  C43  1  0.166900  0.804360  0.995460  1.0  0.7208
  C  C44  1  0.244740  0.718020  0.060540  1.0  -0.1534
  C  C45  1  0.267340  0.746250  0.138990  1.0  -0.0363
  C  C46  1  0.345580  0.666960  0.196700  1.0  -0.0556
  C  C47  1  0.396930  0.558300  0.179200  1.0  -0.1193
  C  C48  1  0.369450  0.529850  0.103030  1.0  -0.055
  C  C49  1  0.295290  0.609550  0.042810  1.0  -0.0351
  C  C50  1  0.486890  0.474180  0.239660  1.0  0.7077
  C  C51  1  0.995410  0.956180  0.706980  1.0  0.6744
  C  C52  1  0.996480  0.978350  0.600110  1.0  -0.1182
  C  C53  1  0.091190  0.902370  0.531830  1.0  -0.0504
  C  C54  1  0.905180  0.076000  0.568460  1.0  -0.0439
  C  C55  1  0.533280  0.304360  0.495460  1.0  0.7198
  C  C56  1  0.476700  0.218020  0.560540  1.0  -0.1512
  C  C57  1  0.347420  0.246250  0.638990  1.0  -0.037
  C  C58  1  0.290760  0.166960  0.696700  1.0  -0.0556
  C  C59  1  0.365570  0.058300  0.679200  1.0  -0.1177
  C  C60  1  0.497670  0.029850  0.603030  1.0  -0.0572
  C  C61  1  0.552350  0.109550  0.542810  1.0  -0.0375
  C  C62  1  0.299270  0.974180  0.739660  1.0  0.7073
  C  C63  1  0.841430  0.456180  0.206980  1.0  0.674
  C  C64  1  0.925060  0.478350  0.100110  1.0  -0.1183
  C  C65  1  0.974610  0.402370  0.031830  1.0  -0.0491
  C  C66  1  0.950360  0.576000  0.068460  1.0  -0.0442
  C  C67  1  0.833100  0.195640  0.004540  1.0  0.7205
  C  C68  1  0.755260  0.281980  0.939460  1.0  -0.1529
  C  C69  1  0.732660  0.253750  0.861010  1.0  -0.0355
  C  C70  1  0.654420  0.333040  0.803300  1.0  -0.0568
  C  C71  1  0.603070  0.441700  0.820800  1.0  -0.1193
  C  C72  1  0.630550  0.470150  0.896970  1.0  -0.0551
  C  C73  1  0.704710  0.390450  0.957190  1.0  -0.0367
  C  C74  1  0.513110  0.525820  0.760340  1.0  0.7092
  C  C75  1  0.004590  0.043820  0.293020  1.0  0.6728
  C  C76  1  0.003520  0.021650  0.399890  1.0  -0.1189
  C  C77  1  0.908810  0.097630  0.468170  1.0  -0.0504
  C  C78  1  0.094820  0.924000  0.431540  1.0  -0.0425
  O  O79  1  0.518420  0.601410  0.476070  1.0  -0.6385
  O  O80  1  0.365940  0.716930  0.586610  1.0  -0.6431
  O  O81  1  0.636710  0.121830  0.284410  1.0  -0.6244
  O  O82  1  0.817540  0.992040  0.191920  1.0  -0.6212
  O  O83  1  0.178120  0.633820  0.763900  1.0  -0.6669
  O  O84  1  0.208290  0.471690  0.734030  1.0  -0.5914
  O  O85  1  0.095900  0.898590  0.023930  1.0  -0.6391
  O  O86  1  0.169480  0.783070  0.913390  1.0  -0.6423
  O  O87  1  0.542950  0.378170  0.215590  1.0  -0.6255
  O  O88  1  0.501500  0.507960  0.308080  1.0  -0.6224
  O  O89  1  0.075840  0.866180  0.736100  1.0  -0.663
  O  O90  1  0.914010  0.028310  0.765970  1.0  -0.5928
  O  O91  1  0.481580  0.398590  0.523930  1.0  -0.6385
  O  O92  1  0.634060  0.283070  0.413390  1.0  -0.6426
  O  O93  1  0.363290  0.878170  0.715590  1.0  -0.6241
  O  O94  1  0.182460  0.007960  0.808080  1.0  -0.6215
  O  O95  1  0.821880  0.366180  0.236100  1.0  -0.6646
  O  O96  1  0.791710  0.528310  0.265970  1.0  -0.5908
  O  O97  1  0.904100  0.101410  0.976070  1.0  -0.6389
  O  O98  1  0.830520  0.216930  0.086610  1.0  -0.6424
  O  O99  1  0.457050  0.621830  0.784410  1.0  -0.6251
  O  O100  1  0.498500  0.492040  0.691920  1.0  -0.6206
  O  O101  1  0.924160  0.133820  0.263900  1.0  -0.6637
  O  O102  1  0.085990  0.971690  0.234030  1.0  -0.5921
