# generated using pymatgen
data_MnH4(C2O)4
_symmetry_space_group_name_H-M   'P 1'
_cell_length_a   10.79640000
_cell_length_b   13.49960000
_cell_length_c   14.42740000
_cell_angle_alpha   76.52630000
_cell_angle_beta   68.02750000
_cell_angle_gamma   66.42950000
_symmetry_Int_Tables_number   1
_chemical_formula_structural   MnH4(C2O)4
_chemical_formula_sum   'Mn6 H24 C48 O24'
_cell_volume   1778.70258708
_cell_formula_units_Z   6
loop_
 _symmetry_equiv_pos_site_id
 _symmetry_equiv_pos_as_xyz
  1  'x, y, z'
loop_
 _atom_site_type_symbol
 _atom_site_label
 _atom_site_symmetry_multiplicity
 _atom_site_fract_x
 _atom_site_fract_y
 _atom_site_fract_z
 _atom_site_occupancy
 _atom_site_charge
  Mn  Mn1  1  0.859680  0.038340  0.110700  1.0  1.1023
  Mn  Mn2  1  0.508720  0.461660  0.389300  1.0  1.1017
  Mn  Mn3  1  0.140320  0.961660  0.889300  1.0  1.1032
  Mn  Mn4  1  0.491280  0.538340  0.610700  1.0  1.1032
  Mn  Mn5  1  0.784880  0.250000  0.250000  1.0  1.2538
  Mn  Mn6  1  0.215120  0.750000  0.750000  1.0  1.2564
  H  H7  1  0.201300  0.180300  0.847500  1.0  0.1066
  H  H8  1  0.295900  0.312600  0.753000  1.0  0.1065
  H  H9  1  0.955000  0.541000  0.907600  1.0  0.1083
  H  H10  1  0.867100  0.407800  0.009200  1.0  0.0945
  H  H11  1  0.548000  0.160200  0.450400  1.0  0.0967
  H  H12  1  0.578600  0.877300  0.384100  1.0  0.1052
  H  H13  1  0.729100  0.319700  0.652500  1.0  0.1058
  H  H14  1  0.861500  0.187400  0.747000  1.0  0.1074
  H  H15  1  0.903600  0.959000  0.592400  1.0  0.1072
  H  H16  1  0.784100  0.092200  0.490800  1.0  0.0949
  H  H17  1  0.658600  0.339800  0.049600  1.0  0.0962
  H  H18  1  0.340000  0.622700  0.115900  1.0  0.1054
  H  H19  1  0.798700  0.819700  0.152500  1.0  0.1059
  H  H20  1  0.704100  0.687400  0.247000  1.0  0.1061
  H  H21  1  0.045000  0.459000  0.092400  1.0  0.1082
  H  H22  1  0.132900  0.592200  0.990800  1.0  0.0941
  H  H23  1  0.452000  0.839800  0.549600  1.0  0.0964
  H  H24  1  0.421400  0.122700  0.615900  1.0  0.1056
  H  H25  1  0.270900  0.680300  0.347500  1.0  0.1055
  H  H26  1  0.138500  0.812600  0.253000  1.0  0.1072
  H  H27  1  0.096400  0.041000  0.407600  1.0  0.1074
  H  H28  1  0.215900  0.907800  0.509200  1.0  0.095
  H  H29  1  0.341400  0.660200  0.950400  1.0  0.097
  H  H30  1  0.660000  0.377300  0.884100  1.0  0.1052
  C  C31  1  0.968860  0.194950  0.003930  1.0  0.7324
  C  C32  1  0.025690  0.281020  0.939200  1.0  -0.1536
  C  C33  1  0.153180  0.252500  0.861140  1.0  -0.0481
  C  C34  1  0.208600  0.332120  0.803480  1.0  -0.0585
  C  C35  1  0.134940  0.440170  0.820550  1.0  -0.122
  C  C36  1  0.006050  0.468420  0.896680  1.0  -0.0604
  C  C37  1  0.952410  0.388620  0.956960  1.0  -0.0304
  C  C38  1  0.199720  0.524960  0.759600  1.0  0.714
  C  C39  1  0.664130  0.044060  0.295480  1.0  0.6933
  C  C40  1  0.577610  0.021730  0.401250  1.0  -0.1227
  C  C41  1  0.529070  0.095680  0.470380  1.0  -0.0527
  C  C42  1  0.547500  0.926480  0.430720  1.0  -0.056
  C  C43  1  0.667740  0.305050  0.496070  1.0  0.7334
  C  C44  1  0.745910  0.218980  0.560800  1.0  -0.1542
  C  C45  1  0.766820  0.247500  0.638860  1.0  -0.0485
  C  C46  1  0.844200  0.167880  0.696520  1.0  -0.0605
  C  C47  1  0.895660  0.059830  0.679450  1.0  -0.1244
  C  C48  1  0.871150  0.031580  0.603320  1.0  -0.0575
  C  C49  1  0.797990  0.111380  0.543040  1.0  -0.0318
  C  C50  1  0.984280  0.975040  0.740400  1.0  0.714
  C  C51  1  0.503670  0.455940  0.204520  1.0  0.6941
  C  C52  1  0.500590  0.478270  0.098750  1.0  -0.1235
  C  C53  1  0.595130  0.404320  0.029620  1.0  -0.0538
  C  C54  1  0.404700  0.573520  0.069280  1.0  -0.0574
  C  C55  1  0.031140  0.805050  0.996070  1.0  0.7319
  C  C56  1  0.974310  0.718980  0.060800  1.0  -0.1535
  C  C57  1  0.846820  0.747500  0.138860  1.0  -0.049
  C  C58  1  0.791400  0.667880  0.196520  1.0  -0.0591
  C  C59  1  0.865060  0.559830  0.179450  1.0  -0.122
  C  C60  1  0.993950  0.531580  0.103320  1.0  -0.0596
  C  C61  1  0.047590  0.611380  0.043040  1.0  -0.0324
  C  C62  1  0.800280  0.475040  0.240400  1.0  0.7122
  C  C63  1  0.335870  0.955940  0.704520  1.0  0.6946
  C  C64  1  0.422390  0.978270  0.598750  1.0  -0.1235
  C  C65  1  0.470930  0.904320  0.529620  1.0  -0.0532
  C  C66  1  0.452500  0.073520  0.569280  1.0  -0.057
  C  C67  1  0.332260  0.694950  0.503930  1.0  0.7334
  C  C68  1  0.254090  0.781020  0.439200  1.0  -0.1542
  C  C69  1  0.233180  0.752500  0.361140  1.0  -0.0483
  C  C70  1  0.155800  0.832120  0.303480  1.0  -0.0613
  C  C71  1  0.104340  0.940170  0.320550  1.0  -0.1256
  C  C72  1  0.128850  0.968420  0.396680  1.0  -0.0587
  C  C73  1  0.202010  0.888620  0.456960  1.0  -0.0336
  C  C74  1  0.015720  0.024960  0.259600  1.0  0.715
  C  C75  1  0.496330  0.544060  0.795480  1.0  0.6937
  C  C76  1  0.499410  0.521730  0.901250  1.0  -0.1229
  C  C77  1  0.404870  0.595680  0.970380  1.0  -0.0541
  C  C78  1  0.595300  0.426480  0.930720  1.0  -0.0557
  O  O79  1  0.017830  0.101290  0.975690  1.0  -0.6383
  O  O80  1  0.870650  0.215910  0.086310  1.0  -0.6485
  O  O81  1  0.136140  0.620850  0.782790  1.0  -0.621
  O  O82  1  0.314510  0.491330  0.691450  1.0  -0.6194
  O  O83  1  0.684310  0.133310  0.267690  1.0  -0.6581
  O  O84  1  0.714480  0.972470  0.236570  1.0  -0.5928
  O  O85  1  0.594810  0.398710  0.524310  1.0  -0.6381
  O  O86  1  0.672870  0.284090  0.413690  1.0  -0.6484
  O  O87  1  0.039780  0.879150  0.717210  1.0  -0.6211
  O  O88  1  0.997290  0.008670  0.808550  1.0  -0.6213
  O  O89  1  0.585310  0.366690  0.232310  1.0  -0.6574
  O  O90  1  0.423520  0.527530  0.263430  1.0  -0.5929
  O  O91  1  0.982170  0.898710  0.024310  1.0  -0.6381
  O  O92  1  0.129350  0.784090  0.913690  1.0  -0.6485
  O  O93  1  0.863860  0.379150  0.217210  1.0  -0.621
  O  O94  1  0.685490  0.508670  0.308550  1.0  -0.6193
  O  O95  1  0.315690  0.866690  0.732310  1.0  -0.6588
  O  O96  1  0.285520  0.027530  0.763430  1.0  -0.5919
  O  O97  1  0.405190  0.601290  0.475690  1.0  -0.6377
  O  O98  1  0.327130  0.715910  0.586310  1.0  -0.6474
  O  O99  1  0.960220  0.120850  0.282790  1.0  -0.6208
  O  O100  1  0.002710  0.991330  0.191450  1.0  -0.6195
  O  O101  1  0.414690  0.633310  0.767690  1.0  -0.6578
  O  O102  1  0.576480  0.472470  0.736570  1.0  -0.5934
