# generated using pymatgen
data_MnH4(C2O)4
_symmetry_space_group_name_H-M   'P 1'
_cell_length_a   10.72800000
_cell_length_b   13.50010000
_cell_length_c   14.39970000
_cell_angle_alpha   76.70420000
_cell_angle_beta   68.12970000
_cell_angle_gamma   66.58870000
_symmetry_Int_Tables_number   1
_chemical_formula_structural   MnH4(C2O)4
_chemical_formula_sum   'Mn6 H24 C48 O24'
_cell_volume   1767.82538835
_cell_formula_units_Z   6
loop_
 _symmetry_equiv_pos_site_id
 _symmetry_equiv_pos_as_xyz
  1  'x, y, z'
loop_
 _atom_site_type_symbol
 _atom_site_label
 _atom_site_symmetry_multiplicity
 _atom_site_fract_x
 _atom_site_fract_y
 _atom_site_fract_z
 _atom_site_occupancy
 _atom_site_charge
  Mn  Mn1  1  0.857680  0.038970  0.109750  1.0  1.0997
  Mn  Mn2  1  0.506400  0.461030  0.390250  1.0  1.0986
  Mn  Mn3  1  0.142320  0.961030  0.890250  1.0  1.0997
  Mn  Mn4  1  0.493600  0.538970  0.609750  1.0  1.0985
  Mn  Mn5  1  0.782710  0.250000  0.250000  1.0  1.2531
  Mn  Mn6  1  0.217290  0.750000  0.750000  1.0  1.2551
  H  H7  1  0.201200  0.181300  0.846900  1.0  0.0998
  H  H8  1  0.297000  0.313100  0.752700  1.0  0.1071
  H  H9  1  0.954500  0.541500  0.908100  1.0  0.1086
  H  H10  1  0.865300  0.408500  0.009100  1.0  0.0936
  H  H11  1  0.546500  0.161100  0.448700  1.0  0.0983
  H  H12  1  0.579100  0.876100  0.384700  1.0  0.1051
  H  H13  1  0.729400  0.318700  0.653100  1.0  0.0995
  H  H14  1  0.862800  0.186900  0.747300  1.0  0.108
  H  H15  1  0.904100  0.958500  0.591900  1.0  0.1072
  H  H16  1  0.782900  0.091500  0.490900  1.0  0.0939
  H  H17  1  0.656300  0.338900  0.051300  1.0  0.098
  H  H18  1  0.339900  0.623900  0.115300  1.0  0.1055
  H  H19  1  0.798800  0.818700  0.153100  1.0  0.0997
  H  H20  1  0.703000  0.686900  0.247300  1.0  0.1067
  H  H21  1  0.045500  0.458500  0.091900  1.0  0.1086
  H  H22  1  0.134700  0.591500  0.990900  1.0  0.0933
  H  H23  1  0.453500  0.838900  0.551300  1.0  0.0983
  H  H24  1  0.420900  0.123900  0.615300  1.0  0.1051
  H  H25  1  0.270600  0.681300  0.346900  1.0  0.0989
  H  H26  1  0.137200  0.813100  0.252700  1.0  0.1079
  H  H27  1  0.095900  0.041500  0.408100  1.0  0.1074
  H  H28  1  0.217100  0.908500  0.509100  1.0  0.094
  H  H29  1  0.343700  0.661100  0.948700  1.0  0.0986
  H  H30  1  0.660100  0.376100  0.884700  1.0  0.1056
  C  C31  1  0.968330  0.195300  0.004040  1.0  0.7306
  C  C32  1  0.025120  0.281280  0.939080  1.0  -0.1609
  C  C33  1  0.153030  0.253330  0.860810  1.0  -0.0433
  C  C34  1  0.209340  0.332620  0.803100  1.0  -0.0581
  C  C35  1  0.135150  0.440620  0.820480  1.0  -0.1213
  C  C36  1  0.005470  0.468990  0.896870  1.0  -0.0609
  C  C37  1  0.951210  0.389260  0.956920  1.0  -0.0327
  C  C38  1  0.200630  0.525350  0.760190  1.0  0.7066
  C  C39  1  0.661100  0.044290  0.294110  1.0  0.6911
  C  C40  1  0.576210  0.022090  0.400490  1.0  -0.1218
  C  C41  1  0.528100  0.096340  0.469260  1.0  -0.0355
  C  C42  1  0.547650  0.925740  0.430960  1.0  -0.0516
  C  C43  1  0.667670  0.304700  0.495960  1.0  0.731
  C  C44  1  0.745480  0.218720  0.560920  1.0  -0.1614
  C  C45  1  0.767170  0.246670  0.639190  1.0  -0.0441
  C  C46  1  0.845060  0.167380  0.696900  1.0  -0.0589
  C  C47  1  0.896250  0.059380  0.679520  1.0  -0.1244
  C  C48  1  0.871330  0.031010  0.603130  1.0  -0.0595
  C  C49  1  0.797390  0.110740  0.543080  1.0  -0.0326
  C  C50  1  0.986170  0.974650  0.739810  1.0  0.7075
  C  C51  1  0.499500  0.455710  0.205890  1.0  0.6919
  C  C52  1  0.498790  0.477910  0.099510  1.0  -0.122
  C  C53  1  0.593700  0.403660  0.030740  1.0  -0.036
  C  C54  1  0.404350  0.574260  0.069040  1.0  -0.0533
  C  C55  1  0.031670  0.804700  0.995960  1.0  0.7302
  C  C56  1  0.974880  0.718720  0.060920  1.0  -0.1606
  C  C57  1  0.846970  0.746670  0.139190  1.0  -0.0445
  C  C58  1  0.790660  0.667380  0.196900  1.0  -0.0587
  C  C59  1  0.864850  0.559380  0.179520  1.0  -0.1212
  C  C60  1  0.994530  0.531010  0.103130  1.0  -0.0614
  C  C61  1  0.048790  0.610740  0.043080  1.0  -0.0346
  C  C62  1  0.799370  0.474650  0.239810  1.0  0.7058
  C  C63  1  0.338900  0.955710  0.705890  1.0  0.6918
  C  C64  1  0.423790  0.977910  0.599510  1.0  -0.1216
  C  C65  1  0.471900  0.903660  0.530740  1.0  -0.0349
  C  C66  1  0.452350  0.074260  0.569040  1.0  -0.0534
  C  C67  1  0.332330  0.695300  0.504040  1.0  0.7313
  C  C68  1  0.254520  0.781280  0.439080  1.0  -0.1614
  C  C69  1  0.232830  0.753330  0.360810  1.0  -0.0426
  C  C70  1  0.154940  0.832620  0.303100  1.0  -0.0598
  C  C71  1  0.103750  0.940620  0.320480  1.0  -0.1252
  C  C72  1  0.128670  0.968990  0.396870  1.0  -0.0594
  C  C73  1  0.202610  0.889260  0.456920  1.0  -0.034
  C  C74  1  0.013830  0.025350  0.260190  1.0  0.7081
  C  C75  1  0.500500  0.544290  0.794110  1.0  0.6912
  C  C76  1  0.501210  0.522090  0.900490  1.0  -0.1218
  C  C77  1  0.406300  0.596340  0.969260  1.0  -0.0359
  C  C78  1  0.595650  0.425740  0.930960  1.0  -0.0516
  O  O79  1  0.018250  0.101150  0.975950  1.0  -0.6376
  O  O80  1  0.868960  0.216410  0.086270  1.0  -0.6489
  O  O81  1  0.136830  0.621270  0.783470  1.0  -0.6194
  O  O82  1  0.316900  0.491520  0.691880  1.0  -0.6262
  O  O83  1  0.681500  0.133570  0.266030  1.0  -0.6545
  O  O84  1  0.710630  0.972840  0.234900  1.0  -0.592
  O  O85  1  0.595350  0.398850  0.524050  1.0  -0.6384
  O  O86  1  0.671640  0.283590  0.413730  1.0  -0.6483
  O  O87  1  0.041570  0.878730  0.716530  1.0  -0.6197
  O  O88  1  0.000300  0.008480  0.808120  1.0  -0.6279
  O  O89  1  0.581100  0.366430  0.233970  1.0  -0.6517
  O  O90  1  0.418370  0.527160  0.265100  1.0  -0.5935
  O  O91  1  0.981750  0.898850  0.024050  1.0  -0.6375
  O  O92  1  0.131040  0.783590  0.913730  1.0  -0.6485
  O  O93  1  0.863170  0.378730  0.216530  1.0  -0.6191
  O  O94  1  0.683100  0.508480  0.308120  1.0  -0.6261
  O  O95  1  0.318500  0.866430  0.733970  1.0  -0.6532
  O  O96  1  0.289370  0.027160  0.765100  1.0  -0.591
  O  O97  1  0.404650  0.601150  0.475950  1.0  -0.6384
  O  O98  1  0.328360  0.716410  0.586270  1.0  -0.6475
  O  O99  1  0.958430  0.121270  0.283470  1.0  -0.6198
  O  O100  1  0.999700  0.991520  0.191880  1.0  -0.626
  O  O101  1  0.418900  0.633570  0.766030  1.0  -0.6524
  O  O102  1  0.581630  0.472840  0.734900  1.0  -0.5924
