# generated using pymatgen
data_MnH4(C2O)4
_symmetry_space_group_name_H-M   'P 1'
_cell_length_a   10.68430000
_cell_length_b   13.48410000
_cell_length_c   14.37890000
_cell_angle_alpha   76.88040000
_cell_angle_beta   68.19010000
_cell_angle_gamma   66.66030000
_symmetry_Int_Tables_number   1
_chemical_formula_structural   MnH4(C2O)4
_chemical_formula_sum   'Mn6 H24 C48 O24'
_cell_volume   1758.13464575
_cell_formula_units_Z   6
loop_
 _symmetry_equiv_pos_site_id
 _symmetry_equiv_pos_as_xyz
  1  'x, y, z'
loop_
 _atom_site_type_symbol
 _atom_site_label
 _atom_site_symmetry_multiplicity
 _atom_site_fract_x
 _atom_site_fract_y
 _atom_site_fract_z
 _atom_site_occupancy
 _atom_site_charge
  Mn  Mn1  1  0.856650  0.039210  0.109330  1.0  1.0988
  Mn  Mn2  1  0.505190  0.460790  0.390670  1.0  1.0977
  Mn  Mn3  1  0.143350  0.960790  0.890670  1.0  1.0988
  Mn  Mn4  1  0.494810  0.539210  0.609330  1.0  1.0976
  Mn  Mn5  1  0.781390  0.250000  0.250000  1.0  1.2529
  Mn  Mn6  1  0.218610  0.750000  0.750000  1.0  1.2547
  H  H7  1  0.201200  0.181300  0.846700  1.0  0.1005
  H  H8  1  0.297100  0.313500  0.752500  1.0  0.1066
  H  H9  1  0.953200  0.542200  0.907600  1.0  0.1093
  H  H10  1  0.864200  0.409000  0.009400  1.0  0.0947
  H  H11  1  0.543700  0.162100  0.447900  1.0  0.0977
  H  H12  1  0.580000  0.874700  0.385300  1.0  0.1061
  H  H13  1  0.729200  0.318700  0.653300  1.0  0.1002
  H  H14  1  0.863100  0.186500  0.747500  1.0  0.1077
  H  H15  1  0.903000  0.957800  0.592400  1.0  0.1085
  H  H16  1  0.782600  0.091000  0.490600  1.0  0.0954
  H  H17  1  0.653700  0.337900  0.052100  1.0  0.0974
  H  H18  1  0.340000  0.625300  0.114700  1.0  0.1066
  H  H19  1  0.798800  0.818700  0.153300  1.0  0.1008
  H  H20  1  0.702900  0.686500  0.247500  1.0  0.1063
  H  H21  1  0.046800  0.457800  0.092400  1.0  0.1094
  H  H22  1  0.135800  0.591000  0.990600  1.0  0.0948
  H  H23  1  0.456300  0.837900  0.552100  1.0  0.0976
  H  H24  1  0.420000  0.125300  0.614700  1.0  0.1064
  H  H25  1  0.270800  0.681300  0.346700  1.0  0.0998
  H  H26  1  0.136900  0.813500  0.252500  1.0  0.1075
  H  H27  1  0.097000  0.042200  0.407600  1.0  0.1082
  H  H28  1  0.217400  0.909000  0.509400  1.0  0.0954
  H  H29  1  0.346300  0.662100  0.947900  1.0  0.0983
  H  H30  1  0.660000  0.374700  0.885300  1.0  0.1064
  C  C31  1  0.967800  0.195540  0.004260  1.0  0.7303
  C  C32  1  0.024450  0.281740  0.939160  1.0  -0.1564
  C  C33  1  0.152900  0.253320  0.860680  1.0  -0.0382
  C  C34  1  0.209200  0.332920  0.803080  1.0  -0.0565
  C  C35  1  0.134920  0.440930  0.820630  1.0  -0.1215
  C  C36  1  0.004680  0.469540  0.896700  1.0  -0.0545
  C  C37  1  0.950340  0.389650  0.957070  1.0  -0.032
  C  C38  1  0.200730  0.525620  0.760320  1.0  0.7038
  C  C39  1  0.659900  0.043980  0.293420  1.0  0.6919
  C  C40  1  0.575550  0.021700  0.400200  1.0  -0.1206
  C  C41  1  0.526460  0.096870  0.468810  1.0  -0.0541
  C  C42  1  0.548220  0.924870  0.431290  1.0  -0.0535
  C  C43  1  0.667600  0.304460  0.495740  1.0  0.7307
  C  C44  1  0.745350  0.218260  0.560840  1.0  -0.1567
  C  C45  1  0.766900  0.246680  0.639320  1.0  -0.039
  C  C46  1  0.845200  0.167080  0.696920  1.0  -0.0577
  C  C47  1  0.896480  0.059070  0.679370  1.0  -0.1235
  C  C48  1  0.870920  0.030460  0.603300  1.0  -0.0525
  C  C49  1  0.797060  0.110350  0.542930  1.0  -0.0317
  C  C50  1  0.986670  0.974380  0.739680  1.0  0.7047
  C  C51  1  0.497300  0.456020  0.206580  1.0  0.692
  C  C52  1  0.497450  0.478300  0.099800  1.0  -0.1212
  C  C53  1  0.592140  0.403130  0.031190  1.0  -0.0543
  C  C54  1  0.404380  0.575130  0.068710  1.0  -0.0547
  C  C55  1  0.032200  0.804460  0.995740  1.0  0.7301
  C  C56  1  0.975550  0.718260  0.060840  1.0  -0.156
  C  C57  1  0.847100  0.746680  0.139320  1.0  -0.0392
  C  C58  1  0.790800  0.667080  0.196920  1.0  -0.0571
  C  C59  1  0.865080  0.559070  0.179370  1.0  -0.1207
  C  C60  1  0.995320  0.530460  0.103300  1.0  -0.0548
  C  C61  1  0.049660  0.610350  0.042930  1.0  -0.0337
  C  C62  1  0.799270  0.474380  0.239680  1.0  0.7029
  C  C63  1  0.340100  0.956020  0.706580  1.0  0.6927
  C  C64  1  0.424450  0.978300  0.599800  1.0  -0.1208
  C  C65  1  0.473540  0.903130  0.531190  1.0  -0.0536
  C  C66  1  0.451780  0.075130  0.568710  1.0  -0.0552
  C  C67  1  0.332400  0.695540  0.504260  1.0  0.7308
  C  C68  1  0.254650  0.781740  0.439160  1.0  -0.1571
  C  C69  1  0.233100  0.753320  0.360680  1.0  -0.0377
  C  C70  1  0.154800  0.832920  0.303080  1.0  -0.0585
  C  C71  1  0.103520  0.940930  0.320630  1.0  -0.1255
  C  C72  1  0.129080  0.969540  0.396700  1.0  -0.0525
  C  C73  1  0.202940  0.889650  0.457070  1.0  -0.0325
  C  C74  1  0.013330  0.025620  0.260320  1.0  0.7052
  C  C75  1  0.502700  0.543980  0.793420  1.0  0.6913
  C  C76  1  0.502550  0.521700  0.900200  1.0  -0.1212
  C  C77  1  0.407860  0.596870  0.968810  1.0  -0.055
  C  C78  1  0.595620  0.424870  0.931290  1.0  -0.0528
  O  O79  1  0.018300  0.101160  0.976040  1.0  -0.6383
  O  O80  1  0.867660  0.216750  0.086330  1.0  -0.6477
  O  O81  1  0.136950  0.621650  0.783850  1.0  -0.6185
  O  O82  1  0.317620  0.491680  0.692080  1.0  -0.6241
  O  O83  1  0.679950  0.133530  0.265170  1.0  -0.6575
  O  O84  1  0.709200  0.972530  0.234270  1.0  -0.5918
  O  O85  1  0.595500  0.398840  0.523960  1.0  -0.6391
  O  O86  1  0.670740  0.283250  0.413670  1.0  -0.6468
  O  O87  1  0.042450  0.878350  0.716150  1.0  -0.6184
  O  O88  1  0.001380  0.008320  0.807920  1.0  -0.6257
  O  O89  1  0.578650  0.366470  0.234830  1.0  -0.6549
  O  O90  1  0.416000  0.527470  0.265730  1.0  -0.5934
  O  O91  1  0.981700  0.898840  0.023960  1.0  -0.6385
  O  O92  1  0.132340  0.783250  0.913670  1.0  -0.6472
  O  O93  1  0.863050  0.378350  0.216150  1.0  -0.6182
  O  O94  1  0.682380  0.508320  0.307920  1.0  -0.6241
  O  O95  1  0.320050  0.866470  0.734830  1.0  -0.6566
  O  O96  1  0.290800  0.027470  0.765730  1.0  -0.5908
  O  O97  1  0.404500  0.601160  0.476040  1.0  -0.639
  O  O98  1  0.329260  0.716750  0.586330  1.0  -0.6461
  O  O99  1  0.957550  0.121650  0.283850  1.0  -0.6179
  O  O100  1  0.998620  0.991680  0.192080  1.0  -0.6239
  O  O101  1  0.421350  0.633530  0.765170  1.0  -0.6559
  O  O102  1  0.584000  0.472530  0.734270  1.0  -0.5919
