# generated using pymatgen
data_MnH4(C2O)4
_symmetry_space_group_name_H-M   'P 1'
_cell_length_a   10.65270000
_cell_length_b   13.53390000
_cell_length_c   14.39940000
_cell_angle_alpha   76.94040000
_cell_angle_beta   68.29040000
_cell_angle_gamma   66.82400000
_symmetry_Int_Tables_number   1
_chemical_formula_structural   MnH4(C2O)4
_chemical_formula_sum   'Mn6 H24 C48 O24'
_cell_volume   1765.22880884
_cell_formula_units_Z   6
loop_
 _symmetry_equiv_pos_site_id
 _symmetry_equiv_pos_as_xyz
  1  'x, y, z'
loop_
 _atom_site_type_symbol
 _atom_site_label
 _atom_site_symmetry_multiplicity
 _atom_site_fract_x
 _atom_site_fract_y
 _atom_site_fract_z
 _atom_site_occupancy
 _atom_site_charge
  Mn  Mn1  1  0.003280  0.960310  0.891370  1.0  1.1012
  Mn  Mn2  1  0.354960  0.539690  0.608630  1.0  1.102
  Mn  Mn3  1  0.996720  0.039690  0.108630  1.0  1.1011
  Mn  Mn4  1  0.645040  0.460310  0.391370  1.0  1.102
  Mn  Mn5  1  0.279790  0.750000  0.750000  1.0  1.234
  Mn  Mn6  1  0.720210  0.250000  0.250000  1.0  1.2357
  H  H7  1  0.224360  0.830020  0.155660  1.0  0.123
  H  H8  1  0.365800  0.689480  0.256560  1.0  0.1273
  H  H9  1  0.405770  0.445730  0.090610  1.0  0.1329
  H  H10  1  0.279210  0.587200  0.981720  1.0  0.1237
  H  H11  1  0.161370  0.826130  0.556830  1.0  0.1171
  H  H12  1  0.830540  0.134840  0.621700  1.0  0.1293
  H  H13  1  0.710040  0.669980  0.344340  1.0  0.124
  H  H14  1  0.811840  0.810520  0.243440  1.0  0.1272
  H  H15  1  0.442110  0.054270  0.409390  1.0  0.135
  H  H16  1  0.348130  0.912800  0.518280  1.0  0.1242
  H  H17  1  0.044330  0.673870  0.943170  1.0  0.116
  H  H18  1  0.087080  0.365160  0.878300  1.0  0.1292
  H  H19  1  0.775640  0.169980  0.844340  1.0  0.1224
  H  H20  1  0.634200  0.310520  0.743440  1.0  0.1266
  H  H21  1  0.594230  0.554270  0.909390  1.0  0.1336
  H  H22  1  0.720790  0.412800  0.018280  1.0  0.1242
  H  H23  1  0.838630  0.173870  0.443170  1.0  0.1178
  H  H24  1  0.169460  0.865160  0.378300  1.0  0.1302
  H  H25  1  0.289960  0.330020  0.655660  1.0  0.1238
  H  H26  1  0.188160  0.189480  0.756560  1.0  0.1261
  H  H27  1  0.557890  0.945730  0.590610  1.0  0.1351
  H  H28  1  0.651870  0.087200  0.481720  1.0  0.1241
  H  H29  1  0.955670  0.326130  0.056830  1.0  0.1158
  H  H30  1  0.912920  0.634840  0.121700  1.0  0.1287
  C  C31  1  0.167350  0.804490  0.995550  1.0  0.7327
  C  C32  1  0.245070  0.718110  0.060650  1.0  -0.0929
  C  C33  1  0.267710  0.746440  0.139500  1.0  -0.0825
  C  C34  1  0.345910  0.666910  0.197070  1.0  -0.1103
  C  C35  1  0.397440  0.558200  0.179300  1.0  -0.0983
  C  C36  1  0.369660  0.529920  0.103080  1.0  -0.0859
  C  C37  1  0.296180  0.609660  0.042620  1.0  -0.0994
  C  C38  1  0.487980  0.474320  0.239440  1.0  0.7229
  C  C39  1  0.994200  0.955820  0.707500  1.0  0.6858
  C  C40  1  0.995860  0.978250  0.600310  1.0  -0.0888
  C  C41  1  0.091550  0.902360  0.531720  1.0  -0.1016
  C  C42  1  0.904110  0.075790  0.568750  1.0  -0.0923
  C  C43  1  0.467390  0.695510  0.504450  1.0  0.7333
  C  C44  1  0.523830  0.781890  0.439350  1.0  -0.0929
  C  C45  1  0.653650  0.753560  0.360500  1.0  -0.0828
  C  C46  1  0.709890  0.833090  0.302930  1.0  -0.1131
  C  C47  1  0.634940  0.941800  0.320700  1.0  -0.0963
  C  C48  1  0.502660  0.970080  0.396920  1.0  -0.0888
  C  C49  1  0.448460  0.890340  0.457380  1.0  -0.1032
  C  C50  1  0.701740  0.025680  0.260560  1.0  0.7217
  C  C51  1  0.157520  0.544180  0.792500  1.0  0.6862
  C  C52  1  0.074420  0.521750  0.899690  1.0  -0.0883
  C  C53  1  0.025630  0.597640  0.968280  1.0  -0.1023
  C  C54  1  0.048650  0.424210  0.931250  1.0  -0.0903
  C  C55  1  0.832650  0.195510  0.004450  1.0  0.7329
  C  C56  1  0.754930  0.281890  0.939350  1.0  -0.0933
  C  C57  1  0.732290  0.253560  0.860500  1.0  -0.0828
  C  C58  1  0.654090  0.333090  0.802930  1.0  -0.1105
  C  C59  1  0.602560  0.441800  0.820700  1.0  -0.0997
  C  C60  1  0.630340  0.470080  0.896920  1.0  -0.0884
  C  C61  1  0.703820  0.390340  0.957380  1.0  -0.0985
  C  C62  1  0.512020  0.525680  0.760560  1.0  0.7219
  C  C63  1  0.005800  0.044180  0.292500  1.0  0.6842
  C  C64  1  0.004140  0.021750  0.399690  1.0  -0.0892
  C  C65  1  0.908450  0.097640  0.468280  1.0  -0.1036
  C  C66  1  0.095890  0.924210  0.431250  1.0  -0.0907
  C  C67  1  0.532610  0.304490  0.495550  1.0  0.7319
  C  C68  1  0.476170  0.218110  0.560650  1.0  -0.0932
  C  C69  1  0.346350  0.246440  0.639500  1.0  -0.0827
  C  C70  1  0.290110  0.166910  0.697070  1.0  -0.1122
  C  C71  1  0.365060  0.058200  0.679300  1.0  -0.0975
  C  C72  1  0.497340  0.029920  0.603080  1.0  -0.087
  C  C73  1  0.551540  0.109660  0.542620  1.0  -0.1013
  C  C74  1  0.298260  0.974320  0.739440  1.0  0.7214
  C  C75  1  0.842480  0.455820  0.207500  1.0  0.6862
  C  C76  1  0.925580  0.478250  0.100310  1.0  -0.0883
  C  C77  1  0.974370  0.402360  0.031720  1.0  -0.101
  C  C78  1  0.951350  0.575790  0.068750  1.0  -0.092
  O  O79  1  0.096320  0.898620  0.024000  1.0  -0.6231
  O  O80  1  0.170020  0.783000  0.913500  1.0  -0.6591
  O  O81  1  0.543490  0.378270  0.215430  1.0  -0.6037
  O  O82  1  0.503750  0.508150  0.307510  1.0  -0.609
  O  O83  1  0.075640  0.865900  0.736260  1.0  -0.6683
  O  O84  1  0.911370  0.027150  0.767290  1.0  -0.5986
  O  O85  1  0.518940  0.601380  0.476000  1.0  -0.6227
  O  O86  1  0.366520  0.717000  0.586500  1.0  -0.659
  O  O87  1  0.637190  0.121730  0.284570  1.0  -0.6038
  O  O88  1  0.819410  0.991850  0.192490  1.0  -0.6067
  O  O89  1  0.177800  0.634100  0.763740  1.0  -0.6699
  O  O90  1  0.205810  0.472850  0.732710  1.0  -0.5955
  O  O91  1  0.903680  0.101380  0.976000  1.0  -0.6233
  O  O92  1  0.829980  0.217000  0.086500  1.0  -0.6585
  O  O93  1  0.456510  0.621730  0.784570  1.0  -0.6031
  O  O94  1  0.496250  0.491850  0.692490  1.0  -0.6063
  O  O95  1  0.924360  0.134100  0.263740  1.0  -0.6673
  O  O96  1  0.088630  0.972850  0.232710  1.0  -0.5979
  O  O97  1  0.481060  0.398620  0.524000  1.0  -0.6225
  O  O98  1  0.633480  0.283000  0.413500  1.0  -0.6598
  O  O99  1  0.362810  0.878270  0.715430  1.0  -0.6022
  O  O100  1  0.180590  0.008150  0.807510  1.0  -0.6078
  O  O101  1  0.822200  0.365900  0.236260  1.0  -0.6688
  O  O102  1  0.794190  0.527150  0.267290  1.0  -0.5955
