# generated using pymatgen
data_MnH4(C2O)4
_symmetry_space_group_name_H-M   'P 1'
_cell_length_a   10.75310000
_cell_length_b   13.50320000
_cell_length_c   14.41020000
_cell_angle_alpha   76.63770000
_cell_angle_beta   68.09270000
_cell_angle_gamma   66.53620000
_symmetry_Int_Tables_number   1
_chemical_formula_structural   MnH4(C2O)4
_chemical_formula_sum   'Mn6 H24 C48 O24'
_cell_volume   1772.36818290
_cell_formula_units_Z   6
loop_
 _symmetry_equiv_pos_site_id
 _symmetry_equiv_pos_as_xyz
  1  'x, y, z'
loop_
 _atom_site_type_symbol
 _atom_site_label
 _atom_site_symmetry_multiplicity
 _atom_site_fract_x
 _atom_site_fract_y
 _atom_site_fract_z
 _atom_site_occupancy
 _atom_site_charge
  Mn  Mn1  1  0.858320  0.038790  0.110040  1.0  1.1063
  Mn  Mn2  1  0.507150  0.461210  0.389960  1.0  1.1056
  Mn  Mn3  1  0.141680  0.961210  0.889960  1.0  1.1078
  Mn  Mn4  1  0.492850  0.538790  0.610040  1.0  1.1073
  Mn  Mn5  1  0.783460  0.250000  0.250000  1.0  1.2453
  Mn  Mn6  1  0.216540  0.750000  0.750000  1.0  1.2399
  H  H7  1  0.201600  0.180800  0.846800  1.0  0.1018
  H  H8  1  0.296500  0.313000  0.752800  1.0  0.1065
  H  H9  1  0.955300  0.541200  0.907800  1.0  0.1088
  H  H10  1  0.865500  0.408300  0.009100  1.0  0.0972
  H  H11  1  0.546700  0.160800  0.449400  1.0  0.0952
  H  H12  1  0.578200  0.876800  0.384400  1.0  0.1053
  H  H13  1  0.729200  0.319200  0.653200  1.0  0.1026
  H  H14  1  0.862300  0.187000  0.747200  1.0  0.1074
  H  H15  1  0.904300  0.958800  0.592200  1.0  0.1074
  H  H16  1  0.782900  0.091700  0.490900  1.0  0.0975
  H  H17  1  0.656900  0.339200  0.050600  1.0  0.0947
  H  H18  1  0.339400  0.623200  0.115600  1.0  0.1059
  H  H19  1  0.798400  0.819200  0.153200  1.0  0.1018
  H  H20  1  0.703500  0.687000  0.247200  1.0  0.1061
  H  H21  1  0.044700  0.458800  0.092200  1.0  0.1083
  H  H22  1  0.134500  0.591700  0.990900  1.0  0.097
  H  H23  1  0.453300  0.839200  0.550600  1.0  0.0951
  H  H24  1  0.421800  0.123200  0.615600  1.0  0.1058
  H  H25  1  0.270800  0.680800  0.346800  1.0  0.101
  H  H26  1  0.137700  0.813000  0.252800  1.0  0.1073
  H  H27  1  0.095700  0.041200  0.407800  1.0  0.1075
  H  H28  1  0.217100  0.908300  0.509100  1.0  0.0978
  H  H29  1  0.343100  0.660800  0.949400  1.0  0.0954
  H  H30  1  0.660600  0.376800  0.884400  1.0  0.1057
  C  C31  1  0.968750  0.195170  0.003930  1.0  0.728
  C  C32  1  0.025590  0.280980  0.939040  1.0  -0.1557
  C  C33  1  0.153410  0.252830  0.860750  1.0  -0.0509
  C  C34  1  0.208900  0.332480  0.803320  1.0  -0.0564
  C  C35  1  0.135340  0.440420  0.820500  1.0  -0.1203
  C  C36  1  0.006150  0.468640  0.896660  1.0  -0.0362
  C  C37  1  0.951390  0.389030  0.956990  1.0  -0.0425
  C  C38  1  0.200160  0.525130  0.759950  1.0  0.7069
  C  C39  1  0.662230  0.044250  0.294490  1.0  0.693
  C  C40  1  0.576840  0.021830  0.400690  1.0  -0.1206
  C  C41  1  0.528390  0.096040  0.469780  1.0  -0.0572
  C  C42  1  0.547320  0.926140  0.430820  1.0  -0.0521
  C  C43  1  0.667850  0.304830  0.496070  1.0  0.7291
  C  C44  1  0.745610  0.219020  0.560960  1.0  -0.1563
  C  C45  1  0.766990  0.247170  0.639250  1.0  -0.0491
  C  C46  1  0.844700  0.167520  0.696680  1.0  -0.0582
  C  C47  1  0.896260  0.059580  0.679500  1.0  -0.1228
  C  C48  1  0.871450  0.031360  0.603340  1.0  -0.0344
  C  C49  1  0.797410  0.110970  0.543010  1.0  -0.0406
  C  C50  1  0.985240  0.974870  0.740050  1.0  0.7064
  C  C51  1  0.500970  0.455750  0.205510  1.0  0.6952
  C  C52  1  0.499360  0.478170  0.099310  1.0  -0.121
  C  C53  1  0.594210  0.403960  0.030220  1.0  -0.0589
  C  C54  1  0.404280  0.573860  0.069180  1.0  -0.0534
  C  C55  1  0.031250  0.804830  0.996070  1.0  0.7245
  C  C56  1  0.974410  0.719020  0.060960  1.0  -0.1553
  C  C57  1  0.846590  0.747170  0.139250  1.0  -0.05
  C  C58  1  0.791100  0.667520  0.196680  1.0  -0.0566
  C  C59  1  0.864660  0.559580  0.179500  1.0  -0.1201
  C  C60  1  0.993850  0.531360  0.103340  1.0  -0.0349
  C  C61  1  0.048610  0.610970  0.043010  1.0  -0.0373
  C  C62  1  0.799840  0.474870  0.240050  1.0  0.7048
  C  C63  1  0.337770  0.955750  0.705510  1.0  0.6955
  C  C64  1  0.423160  0.978170  0.599310  1.0  -0.121
  C  C65  1  0.471610  0.903960  0.530220  1.0  -0.0597
  C  C66  1  0.452680  0.073860  0.569180  1.0  -0.0531
  C  C67  1  0.332150  0.695170  0.503930  1.0  0.726
  C  C68  1  0.254390  0.780980  0.439040  1.0  -0.1563
  C  C69  1  0.233010  0.752830  0.360750  1.0  -0.0491
  C  C70  1  0.155300  0.832480  0.303320  1.0  -0.0595
  C  C71  1  0.103740  0.940420  0.320500  1.0  -0.124
  C  C72  1  0.128550  0.968640  0.396660  1.0  -0.0347
  C  C73  1  0.202590  0.889030  0.456990  1.0  -0.0366
  C  C74  1  0.014760  0.025130  0.259950  1.0  0.7078
  C  C75  1  0.499030  0.544250  0.794490  1.0  0.6934
  C  C76  1  0.500640  0.521830  0.900690  1.0  -0.1209
  C  C77  1  0.405790  0.596040  0.969780  1.0  -0.0615
  C  C78  1  0.595720  0.426140  0.930820  1.0  -0.0518
  O  O79  1  0.018210  0.101170  0.975810  1.0  -0.6382
  O  O80  1  0.869540  0.216320  0.086280  1.0  -0.65
  O  O81  1  0.136680  0.621120  0.783120  1.0  -0.6206
  O  O82  1  0.316110  0.491450  0.691730  1.0  -0.6269
  O  O83  1  0.682430  0.133530  0.266610  1.0  -0.6536
  O  O84  1  0.711720  0.972750  0.235410  1.0  -0.5904
  O  O85  1  0.595190  0.398830  0.524190  1.0  -0.6392
  O  O86  1  0.672140  0.283680  0.413720  1.0  -0.6485
  O  O87  1  0.040920  0.878880  0.716880  1.0  -0.6204
  O  O88  1  0.999290  0.008550  0.808270  1.0  -0.6281
  O  O89  1  0.582570  0.366470  0.233390  1.0  -0.6511
  O  O90  1  0.419880  0.527250  0.264590  1.0  -0.5911
  O  O91  1  0.981790  0.898830  0.024190  1.0  -0.6402
  O  O92  1  0.130460  0.783680  0.913720  1.0  -0.6498
  O  O93  1  0.863320  0.378880  0.216880  1.0  -0.6197
  O  O94  1  0.683890  0.508550  0.308270  1.0  -0.6267
  O  O95  1  0.317570  0.866470  0.733390  1.0  -0.6528
  O  O96  1  0.288280  0.027250  0.764590  1.0  -0.5893
  O  O97  1  0.404810  0.601170  0.475810  1.0  -0.64
  O  O98  1  0.327860  0.716320  0.586280  1.0  -0.6483
  O  O99  1  0.959080  0.121120  0.283120  1.0  -0.6195
  O  O100  1  0.000710  0.991450  0.191730  1.0  -0.6268
  O  O101  1  0.417430  0.633530  0.766610  1.0  -0.6518
  O  O102  1  0.580120  0.472750  0.735410  1.0  -0.59
