# generated using pymatgen
data_TbH12(C9O2)3
_symmetry_space_group_name_H-M   'P 1'
_cell_length_a   9.82940000
_cell_length_b   12.10980000
_cell_length_c   14.62790000
_cell_angle_alpha   109.75000000
_cell_angle_beta   103.61300000
_cell_angle_gamma   100.14000000
_symmetry_Int_Tables_number   1
_chemical_formula_structural   TbH12(C9O2)3
_chemical_formula_sum   'Tb2 H24 C54 O12'
_cell_volume   1529.29303307
_cell_formula_units_Z   2
loop_
 _symmetry_equiv_pos_site_id
 _symmetry_equiv_pos_as_xyz
  1  'x, y, z'
loop_
 _atom_site_type_symbol
 _atom_site_label
 _atom_site_symmetry_multiplicity
 _atom_site_fract_x
 _atom_site_fract_y
 _atom_site_fract_z
 _atom_site_occupancy
 _atom_site_charge
  Tb  Tb1  1  0.239700  0.978740  0.004690  1.0  2.3011
  Tb  Tb2  1  0.760300  0.021260  0.995310  1.0  2.3025
  H  H3  1  0.565200  0.872000  0.719800  1.0  0.1165
  H  H4  1  0.203900  0.639800  0.709200  1.0  0.1177
  H  H5  1  0.084300  0.439700  0.557800  1.0  0.1132
  H  H6  1  0.062600  0.315800  0.395500  1.0  0.1045
  H  H7  1  0.157700  0.266000  0.246000  1.0  0.1102
  H  H8  1  0.506700  0.505800  0.251700  1.0  0.1205
  H  H9  1  0.628100  0.703900  0.403900  1.0  0.1168
  H  H10  1  0.646700  0.831000  0.564900  1.0  0.0974
  H  H11  1  0.126300  0.925100  0.738000  1.0  0.104
  H  H12  1  0.790900  0.073300  0.696700  1.0  0.1114
  H  H13  1  0.245300  0.866000  0.602700  1.0  0.0882
  H  H14  1  0.714800  0.123200  0.542200  1.0  0.1121
  H  H15  1  0.434800  0.128000  0.280200  1.0  0.1158
  H  H16  1  0.796100  0.360200  0.290800  1.0  0.1188
  H  H17  1  0.915700  0.560300  0.442200  1.0  0.1131
  H  H18  1  0.937400  0.684200  0.604500  1.0  0.1047
  H  H19  1  0.842300  0.734000  0.754000  1.0  0.1111
  H  H20  1  0.493300  0.494200  0.748300  1.0  0.12
  H  H21  1  0.371900  0.296100  0.596100  1.0  0.1162
  H  H22  1  0.353300  0.169000  0.435100  1.0  0.0967
  H  H23  1  0.873700  0.074900  0.262000  1.0  0.1041
  H  H24  1  0.209100  0.926700  0.303300  1.0  0.1109
  H  H25  1  0.754700  0.134000  0.397300  1.0  0.0882
  H  H26  1  0.285200  0.876800  0.457800  1.0  0.1118
  C  C27  1  0.486700  0.799500  0.683200  1.0  -0.1636
  C  C28  1  0.386200  0.767700  0.729700  1.0  -0.1014
  C  C29  1  0.273100  0.659600  0.677400  1.0  -0.0776
  C  C30  1  0.149900  0.464300  0.525300  1.0  -0.1922
  C  C31  1  0.138400  0.390300  0.429600  1.0  -0.1155
  C  C32  1  0.230900  0.342100  0.280400  1.0  -0.0804
  C  C33  1  0.329500  0.373700  0.233700  1.0  -0.1251
  C  C34  1  0.438800  0.485100  0.284000  1.0  -0.0633
  C  C35  1  0.560700  0.680800  0.435700  1.0  -0.1427
  C  C36  1  0.571800  0.755900  0.531000  1.0  -0.1335
  C  C37  1  0.472100  0.724400  0.582500  1.0  0.0146
  C  C38  1  0.359400  0.612800  0.530300  1.0  -0.0099
  C  C39  1  0.260200  0.580300  0.579400  1.0  0.0307
  C  C40  1  0.237300  0.420500  0.377600  1.0  0.0125
  C  C41  1  0.347700  0.534700  0.429400  1.0  0.011
  C  C42  1  0.448900  0.566500  0.381500  1.0  0.0167
  C  C43  1  0.399300  0.853600  0.835400  1.0  0.7672
  C  C44  1  0.328000  0.286500  0.130300  1.0  0.7084
  C  C45  1  0.956200  0.999500  0.732000  1.0  -0.1385
  C  C46  1  0.063900  0.954800  0.697900  1.0  -0.0676
  C  C47  1  0.081800  0.952900  0.605800  1.0  -0.0674
  C  C48  1  0.990800  0.999600  0.547300  1.0  0.0287
  C  C49  1  0.881300  0.045600  0.581400  1.0  0.0301
  C  C50  1  0.865200  0.043800  0.673600  1.0  -0.0999
  C  C51  1  0.936000  0.999500  0.830600  1.0  0.7388
  C  C52  1  0.188200  0.902800  0.566400  1.0  -0.112
  C  C53  1  0.790300  0.093800  0.520800  1.0  -0.134
  C  C54  1  0.513300  0.200500  0.316800  1.0  -0.1642
  C  C55  1  0.613800  0.232300  0.270300  1.0  -0.0974
  C  C56  1  0.726900  0.340400  0.322600  1.0  -0.0772
  C  C57  1  0.850100  0.535700  0.474700  1.0  -0.1919
  C  C58  1  0.861600  0.609700  0.570400  1.0  -0.1129
  C  C59  1  0.769100  0.657900  0.719600  1.0  -0.0833
  C  C60  1  0.670500  0.626300  0.766300  1.0  -0.1214
  C  C61  1  0.561200  0.514900  0.716000  1.0  -0.0595
  C  C62  1  0.439300  0.319200  0.564300  1.0  -0.1421
  C  C63  1  0.428200  0.244100  0.469000  1.0  -0.1347
  C  C64  1  0.527900  0.275600  0.417500  1.0  0.0156
  C  C65  1  0.640600  0.387200  0.469700  1.0  -0.0093
  C  C66  1  0.739800  0.419700  0.420600  1.0  0.0306
  C  C67  1  0.762700  0.579500  0.622400  1.0  0.0121
  C  C68  1  0.652300  0.465300  0.570600  1.0  0.0118
  C  C69  1  0.551100  0.433500  0.618500  1.0  0.016
  C  C70  1  0.600700  0.146400  0.164600  1.0  0.7665
  C  C71  1  0.672000  0.713500  0.869700  1.0  0.7123
  C  C72  1  0.043800  0.000500  0.268000  1.0  -0.1384
  C  C73  1  0.936100  0.045200  0.302100  1.0  -0.0668
  C  C74  1  0.918200  0.047100  0.394200  1.0  -0.0675
  C  C75  1  0.009200  0.000400  0.452700  1.0  0.0285
  C  C76  1  0.118700  0.954400  0.418600  1.0  0.0304
  C  C77  1  0.134800  0.956200  0.326400  1.0  -0.0971
  C  C78  1  0.064000  0.000500  0.169400  1.0  0.7418
  C  C79  1  0.811800  0.097200  0.433600  1.0  -0.1118
  C  C80  1  0.209700  0.906200  0.479200  1.0  -0.1364
  O  O81  1  0.287600  0.846000  0.863100  1.0  -0.6837
  O  O82  1  0.520200  0.931600  0.889200  1.0  -0.7649
  O  O83  1  0.230600  0.182100  0.090100  1.0  -0.7287
  O  O84  1  0.416400  0.318400  0.089500  1.0  -0.5328
  O  O85  1  0.035600  0.983800  0.892500  1.0  -0.7879
  O  O86  1  0.818000  0.015200  0.845500  1.0  -0.6608
  O  O87  1  0.712400  0.154000  0.136900  1.0  -0.6828
  O  O88  1  0.479800  0.068400  0.110800  1.0  -0.7655
  O  O89  1  0.769400  0.817900  0.909900  1.0  -0.7258
  O  O90  1  0.583600  0.681600  0.910500  1.0  -0.5354
  O  O91  1  0.964400  0.016200  0.107500  1.0  -0.7882
  O  O92  1  0.182000  0.984800  0.154500  1.0  -0.659
