# generated using pymatgen
data_TbH3(C3O2)3
_symmetry_space_group_name_H-M   'P 1'
_cell_length_a   10.27920000
_cell_length_b   10.27920000
_cell_length_c   14.53760000
_cell_angle_alpha   90.00000000
_cell_angle_beta   90.00000000
_cell_angle_gamma   90.00000000
_symmetry_Int_Tables_number   1
_chemical_formula_structural   TbH3(C3O2)3
_chemical_formula_sum   'Tb4 H12 C36 O24'
_cell_volume   1536.07120270
_cell_formula_units_Z   4
loop_
 _symmetry_equiv_pos_site_id
 _symmetry_equiv_pos_as_xyz
  1  'x, y, z'
loop_
 _atom_site_type_symbol
 _atom_site_label
 _atom_site_symmetry_multiplicity
 _atom_site_fract_x
 _atom_site_fract_y
 _atom_site_fract_z
 _atom_site_occupancy
 _atom_site_charge
  Tb  Tb1  1  0.851290  0.851290  0.375000  1.0  2.3346
  Tb  Tb2  1  0.148710  0.148710  0.875000  1.0  2.3339
  Tb  Tb3  1  0.148710  0.851290  0.625000  1.0  2.3342
  Tb  Tb4  1  0.851290  0.148710  0.125000  1.0  2.3343
  H  H5  1  0.926700  0.435800  0.371700  1.0  0.1041
  H  H6  1  0.073300  0.564200  0.871700  1.0  0.1045
  H  H7  1  0.564200  0.926700  0.621700  1.0  0.1042
  H  H8  1  0.435800  0.073300  0.121700  1.0  0.1043
  H  H9  1  0.073300  0.435800  0.628300  1.0  0.1045
  H  H10  1  0.926700  0.564200  0.128300  1.0  0.1043
  H  H11  1  0.435800  0.926700  0.378300  1.0  0.1046
  H  H12  1  0.564200  0.073300  0.878300  1.0  0.1041
  H  H13  1  0.000000  0.101000  0.500000  1.0  0.0898
  H  H14  1  0.000000  0.899000  0.000000  1.0  0.0895
  H  H15  1  0.899000  0.000000  0.750000  1.0  0.0884
  H  H16  1  0.101000  0.000000  0.250000  1.0  0.089
  C  C17  1  0.959500  0.394900  0.423100  1.0  -0.003
  C  C18  1  0.959000  0.261000  0.423300  1.0  -0.1795
  C  C19  1  0.914300  0.185500  0.340200  1.0  0.7579
  C  C20  1  0.040500  0.605100  0.923100  1.0  -0.0046
  C  C21  1  0.041000  0.739000  0.923300  1.0  -0.1793
  C  C22  1  0.085700  0.814500  0.840200  1.0  0.7567
  C  C23  1  0.605100  0.959500  0.673100  1.0  -0.0028
  C  C24  1  0.739000  0.959000  0.673300  1.0  -0.1788
  C  C25  1  0.814500  0.914300  0.590200  1.0  0.7597
  C  C26  1  0.394900  0.040500  0.173100  1.0  -0.0043
  C  C27  1  0.261000  0.041000  0.173300  1.0  -0.1783
  C  C28  1  0.185500  0.085700  0.090200  1.0  0.7591
  C  C29  1  0.040500  0.394900  0.576900  1.0  -0.0045
  C  C30  1  0.041000  0.261000  0.576700  1.0  -0.1805
  C  C31  1  0.085700  0.185500  0.659800  1.0  0.757
  C  C32  1  0.959500  0.605100  0.076900  1.0  -0.0048
  C  C33  1  0.959000  0.739000  0.076700  1.0  -0.1804
  C  C34  1  0.914300  0.814500  0.159800  1.0  0.7574
  C  C35  1  0.394900  0.959500  0.326900  1.0  -0.0048
  C  C36  1  0.261000  0.959000  0.326700  1.0  -0.1804
  C  C37  1  0.185500  0.914300  0.409800  1.0  0.7594
  C  C38  1  0.605100  0.040500  0.826900  1.0  -0.0044
  C  C39  1  0.739000  0.041000  0.826700  1.0  -0.1791
  C  C40  1  0.814500  0.085700  0.909800  1.0  0.7598
  C  C41  1  0.000000  0.461000  0.500000  1.0  -0.1642
  C  C42  1  0.000000  0.194000  0.500000  1.0  -0.0236
  C  C43  1  0.000000  0.609000  0.500000  1.0  0.7994
  C  C44  1  0.000000  0.539000  0.000000  1.0  -0.164
  C  C45  1  0.000000  0.806000  0.000000  1.0  -0.0236
  C  C46  1  0.000000  0.391000  0.000000  1.0  0.7977
  C  C47  1  0.539000  0.000000  0.750000  1.0  -0.1652
  C  C48  1  0.806000  0.000000  0.750000  1.0  -0.0215
  C  C49  1  0.391000  0.000000  0.750000  1.0  0.8015
  C  C50  1  0.461000  0.000000  0.250000  1.0  -0.1642
  C  C51  1  0.194000  0.000000  0.250000  1.0  -0.0235
  C  C52  1  0.609000  0.000000  0.250000  1.0  0.8004
  O  O53  1  0.929100  0.664700  0.441800  1.0  -0.7245
  O  O54  1  0.889400  0.069100  0.347900  1.0  -0.7556
  O  O55  1  0.756200  0.908100  0.514700  1.0  -0.7163
  O  O56  1  0.070900  0.335300  0.941800  1.0  -0.726
  O  O57  1  0.110600  0.930900  0.847900  1.0  -0.7555
  O  O58  1  0.243800  0.091900  0.014700  1.0  -0.7167
  O  O59  1  0.335300  0.929100  0.691800  1.0  -0.7267
  O  O60  1  0.930900  0.889400  0.597900  1.0  -0.7546
  O  O61  1  0.091900  0.756200  0.764700  1.0  -0.713
  O  O62  1  0.664700  0.070900  0.191800  1.0  -0.7258
  O  O63  1  0.069100  0.110600  0.097900  1.0  -0.7534
  O  O64  1  0.908100  0.243800  0.264700  1.0  -0.7148
  O  O65  1  0.070900  0.664700  0.558200  1.0  -0.7256
  O  O66  1  0.110600  0.069100  0.652100  1.0  -0.7546
  O  O67  1  0.243800  0.908100  0.485300  1.0  -0.7197
  O  O68  1  0.929100  0.335300  0.058200  1.0  -0.7258
  O  O69  1  0.889400  0.930900  0.152100  1.0  -0.7561
  O  O70  1  0.756200  0.091900  0.985300  1.0  -0.7182
  O  O71  1  0.664700  0.929100  0.308200  1.0  -0.7265
  O  O72  1  0.069100  0.889400  0.402100  1.0  -0.7543
  O  O73  1  0.908100  0.756200  0.235300  1.0  -0.7166
  O  O74  1  0.335300  0.070900  0.808200  1.0  -0.726
  O  O75  1  0.930900  0.110600  0.902100  1.0  -0.7537
  O  O76  1  0.091900  0.243800  0.735300  1.0  -0.7153
