# generated using pymatgen
data_Al7P7(HO15)2
_symmetry_space_group_name_H-M   'P 1'
_cell_length_a   24.08500000
_cell_length_b   14.39300000
_cell_length_c   8.71220000
_cell_angle_alpha   90.00000000
_cell_angle_beta   94.26000000
_cell_angle_gamma   90.00000000
_symmetry_Int_Tables_number   1
_chemical_formula_structural   Al7P7(HO15)2
_chemical_formula_sum   'Al28 P28 H8 O120'
_cell_volume   3011.78730824
_cell_formula_units_Z   4
loop_
 _symmetry_equiv_pos_site_id
 _symmetry_equiv_pos_as_xyz
  1  'x, y, z'
loop_
 _atom_site_type_symbol
 _atom_site_label
 _atom_site_symmetry_multiplicity
 _atom_site_fract_x
 _atom_site_fract_y
 _atom_site_fract_z
 _atom_site_occupancy
 _atom_site_charge
  Al  Al1  1  0.278110  0.876410  0.624040  1.0  1.9913
  Al  Al2  1  0.450190  0.629790  0.500320  1.0  2.0035
  Al  Al3  1  0.402120  0.888850  0.240870  1.0  1.8014
  Al  Al4  1  0.778110  0.376410  0.624040  1.0  1.9913
  Al  Al5  1  0.950190  0.129790  0.500320  1.0  2.0035
  Al  Al6  1  0.902120  0.388850  0.240870  1.0  1.8014
  Al  Al7  1  0.721890  0.876410  0.875960  1.0  1.9923
  Al  Al8  1  0.549810  0.629790  0.999680  1.0  2.0028
  Al  Al9  1  0.597880  0.888850  0.259130  1.0  1.8044
  Al  Al10  1  0.221890  0.376410  0.875960  1.0  1.9923
  Al  Al11  1  0.049810  0.129790  0.999680  1.0  2.0028
  Al  Al12  1  0.097880  0.388850  0.259130  1.0  1.8044
  Al  Al13  1  0.721890  0.123590  0.375960  1.0  1.992
  Al  Al14  1  0.549810  0.370210  0.499680  1.0  2.0023
  Al  Al15  1  0.597880  0.111150  0.759130  1.0  1.8045
  Al  Al16  1  0.221890  0.623590  0.375960  1.0  1.992
  Al  Al17  1  0.049810  0.870210  0.499680  1.0  2.0023
  Al  Al18  1  0.097880  0.611150  0.759130  1.0  1.8045
  Al  Al19  1  0.278110  0.123590  0.124040  1.0  1.9911
  Al  Al20  1  0.450190  0.370210  0.000320  1.0  2.0032
  Al  Al21  1  0.402120  0.111150  0.740870  1.0  1.8013
  Al  Al22  1  0.778110  0.623590  0.124040  1.0  1.9911
  Al  Al23  1  0.950190  0.870210  0.000320  1.0  2.0032
  Al  Al24  1  0.902120  0.611150  0.740870  1.0  1.8013
  Al  Al25  1  0.500000  0.054710  0.250000  1.0  1.6429
  Al  Al26  1  0.000000  0.554710  0.250000  1.0  1.6429
  Al  Al27  1  0.500000  0.945290  0.750000  1.0  1.6438
  Al  Al28  1  0.000000  0.445290  0.750000  1.0  1.6438
  P  P29  1  0.338170  0.731980  0.429860  1.0  2.0786
  P  P30  1  0.326030  0.969130  0.939300  1.0  1.9096
  P  P31  1  0.491580  0.178880  0.526260  1.0  1.8291
  P  P32  1  0.838170  0.231980  0.429860  1.0  2.0786
  P  P33  1  0.826030  0.469130  0.939300  1.0  1.9096
  P  P34  1  0.991580  0.678880  0.526260  1.0  1.8291
  P  P35  1  0.661830  0.731980  0.070140  1.0  2.0788
  P  P36  1  0.673970  0.969130  0.560700  1.0  1.9107
  P  P37  1  0.508420  0.178880  0.973740  1.0  1.831
  P  P38  1  0.161830  0.231980  0.070140  1.0  2.0788
  P  P39  1  0.173970  0.469130  0.560700  1.0  1.9107
  P  P40  1  0.008420  0.678880  0.973740  1.0  1.831
  P  P41  1  0.661830  0.268020  0.570140  1.0  2.0819
  P  P42  1  0.673970  0.030870  0.060700  1.0  1.9112
  P  P43  1  0.508420  0.821120  0.473740  1.0  1.8327
  P  P44  1  0.161830  0.768020  0.570140  1.0  2.0819
  P  P45  1  0.173970  0.530870  0.060700  1.0  1.9112
  P  P46  1  0.008420  0.321120  0.473740  1.0  1.8327
  P  P47  1  0.338170  0.268020  0.929860  1.0  2.0818
  P  P48  1  0.326030  0.030870  0.439300  1.0  1.9097
  P  P49  1  0.491580  0.821120  0.026260  1.0  1.8304
  P  P50  1  0.838170  0.768020  0.929860  1.0  2.0818
  P  P51  1  0.826030  0.530870  0.439300  1.0  1.9097
  P  P52  1  0.991580  0.321120  0.026260  1.0  1.8304
  P  P53  1  0.500000  0.494640  0.750000  1.0  2.1304
  P  P54  1  0.000000  0.994640  0.750000  1.0  2.1304
  P  P55  1  0.500000  0.505360  0.250000  1.0  2.1306
  P  P56  1  0.000000  0.005360  0.250000  1.0  2.1306
  H  H57  1  0.434000  0.001000  0.102000  1.0  0.3748
  H  H58  1  0.934000  0.501000  0.102000  1.0  0.3748
  H  H59  1  0.566000  0.001000  0.398000  1.0  0.3749
  H  H60  1  0.066000  0.501000  0.398000  1.0  0.3749
  H  H61  1  0.566000  0.999000  0.898000  1.0  0.3746
  H  H62  1  0.066000  0.499000  0.898000  1.0  0.3746
  H  H63  1  0.434000  0.999000  0.602000  1.0  0.3746
  H  H64  1  0.934000  0.499000  0.602000  1.0  0.3746
  O  O65  1  0.324890  0.791800  0.568500  1.0  -1.0044
  O  O66  1  0.358180  0.788200  0.300500  1.0  -0.9406
  O  O67  1  0.381480  0.661100  0.492900  1.0  -0.9773
  O  O68  1  0.286310  0.676100  0.374900  1.0  -0.9687
  O  O69  1  0.349890  0.907900  0.068800  1.0  -0.8823
  O  O70  1  0.369530  0.970600  0.374700  1.0  -0.8561
  O  O71  1  0.279150  0.969600  0.498100  1.0  -0.9099
  O  O72  1  0.298110  0.905000  0.813500  1.0  -0.993
  O  O73  1  0.460130  0.555400  0.654600  1.0  -0.9682
  O  O74  1  0.465490  0.565300  0.344300  1.0  -0.956
  O  O75  1  0.444350  0.990500  0.164400  1.0  -0.8309
  O  O76  1  0.469630  0.125800  0.382200  1.0  -0.8723
  O  O77  1  0.493030  0.723260  0.529100  1.0  -1.0312
  O  O78  1  0.443060  0.806100  0.126000  1.0  -0.798
  O  O79  1  0.458120  0.871600  0.402100  1.0  -0.8915
  O  O80  1  0.824890  0.291800  0.568500  1.0  -1.0044
  O  O81  1  0.858180  0.288200  0.300500  1.0  -0.9406
  O  O82  1  0.881480  0.161100  0.492900  1.0  -0.9773
  O  O83  1  0.786310  0.176100  0.374900  1.0  -0.9687
  O  O84  1  0.849890  0.407900  0.068800  1.0  -0.8823
  O  O85  1  0.869530  0.470600  0.374700  1.0  -0.8561
  O  O86  1  0.779150  0.469600  0.498100  1.0  -0.9099
  O  O87  1  0.798110  0.405000  0.813500  1.0  -0.993
  O  O88  1  0.960130  0.055400  0.654600  1.0  -0.9682
  O  O89  1  0.965490  0.065300  0.344300  1.0  -0.956
  O  O90  1  0.944350  0.490500  0.164400  1.0  -0.8309
  O  O91  1  0.969630  0.625800  0.382200  1.0  -0.8723
  O  O92  1  0.993030  0.223260  0.529100  1.0  -1.0312
  O  O93  1  0.943060  0.306100  0.126000  1.0  -0.798
  O  O94  1  0.958120  0.371600  0.402100  1.0  -0.8915
  O  O95  1  0.675110  0.791800  0.931500  1.0  -1.0046
  O  O96  1  0.641820  0.788200  0.199500  1.0  -0.9399
  O  O97  1  0.618520  0.661100  0.007100  1.0  -0.9762
  O  O98  1  0.713690  0.676100  0.125100  1.0  -0.968
  O  O99  1  0.650110  0.907900  0.431200  1.0  -0.8809
  O  O100  1  0.630470  0.970600  0.125300  1.0  -0.8545
  O  O101  1  0.720850  0.969600  0.001900  1.0  -0.9098
  O  O102  1  0.701890  0.905000  0.686500  1.0  -0.9952
  O  O103  1  0.539870  0.555400  0.845400  1.0  -0.9692
  O  O104  1  0.534510  0.565300  0.155700  1.0  -0.9547
  O  O105  1  0.555650  0.990500  0.335600  1.0  -0.836
  O  O106  1  0.530370  0.125800  0.117800  1.0  -0.8727
  O  O107  1  0.506970  0.723260  0.970900  1.0  -1.03
  O  O108  1  0.556940  0.806100  0.374000  1.0  -0.7954
  O  O109  1  0.541880  0.871600  0.097900  1.0  -0.8932
  O  O110  1  0.175110  0.291800  0.931500  1.0  -1.0046
  O  O111  1  0.141820  0.288200  0.199500  1.0  -0.9399
  O  O112  1  0.118520  0.161100  0.007100  1.0  -0.9762
  O  O113  1  0.213690  0.176100  0.125100  1.0  -0.968
  O  O114  1  0.150110  0.407900  0.431200  1.0  -0.8809
  O  O115  1  0.130470  0.470600  0.125300  1.0  -0.8545
  O  O116  1  0.220850  0.469600  0.001900  1.0  -0.9098
  O  O117  1  0.201890  0.405000  0.686500  1.0  -0.9952
  O  O118  1  0.039870  0.055400  0.845400  1.0  -0.9692
  O  O119  1  0.034510  0.065300  0.155700  1.0  -0.9547
  O  O120  1  0.055650  0.490500  0.335600  1.0  -0.836
  O  O121  1  0.030370  0.625800  0.117800  1.0  -0.8727
  O  O122  1  0.006970  0.223260  0.970900  1.0  -1.03
  O  O123  1  0.056940  0.306100  0.374000  1.0  -0.7954
  O  O124  1  0.041880  0.371600  0.097900  1.0  -0.8932
  O  O125  1  0.675110  0.208200  0.431500  1.0  -1.0054
  O  O126  1  0.641820  0.211800  0.699500  1.0  -0.9392
  O  O127  1  0.618520  0.338900  0.507100  1.0  -0.976
  O  O128  1  0.713690  0.323900  0.625100  1.0  -0.9689
  O  O129  1  0.650110  0.092100  0.931200  1.0  -0.8812
  O  O130  1  0.630470  0.029400  0.625300  1.0  -0.8546
  O  O131  1  0.720850  0.030400  0.501900  1.0  -0.9079
  O  O132  1  0.701890  0.095000  0.186500  1.0  -0.9943
  O  O133  1  0.539870  0.444600  0.345400  1.0  -0.9702
  O  O134  1  0.534510  0.434700  0.655700  1.0  -0.955
  O  O135  1  0.555650  0.009500  0.835600  1.0  -0.8353
  O  O136  1  0.530370  0.874200  0.617800  1.0  -0.8716
  O  O137  1  0.506970  0.276740  0.470900  1.0  -1.0313
  O  O138  1  0.556940  0.193900  0.874000  1.0  -0.7954
  O  O139  1  0.541880  0.128400  0.597900  1.0  -0.8925
  O  O140  1  0.175110  0.708200  0.431500  1.0  -1.0054
  O  O141  1  0.141820  0.711800  0.699500  1.0  -0.9392
  O  O142  1  0.118520  0.838900  0.507100  1.0  -0.976
  O  O143  1  0.213690  0.823900  0.625100  1.0  -0.9689
  O  O144  1  0.150110  0.592100  0.931200  1.0  -0.8812
  O  O145  1  0.130470  0.529400  0.625300  1.0  -0.8546
  O  O146  1  0.220850  0.530400  0.501900  1.0  -0.9079
  O  O147  1  0.201890  0.595000  0.186500  1.0  -0.9943
  O  O148  1  0.039870  0.944600  0.345400  1.0  -0.9702
  O  O149  1  0.034510  0.934700  0.655700  1.0  -0.955
  O  O150  1  0.055650  0.509500  0.835600  1.0  -0.8353
  O  O151  1  0.030370  0.374200  0.617800  1.0  -0.8716
  O  O152  1  0.006970  0.776740  0.470900  1.0  -1.0313
  O  O153  1  0.056940  0.693900  0.874000  1.0  -0.7954
  O  O154  1  0.041880  0.628400  0.597900  1.0  -0.8925
  O  O155  1  0.324890  0.208200  0.068500  1.0  -1.0056
  O  O156  1  0.358180  0.211800  0.800500  1.0  -0.9415
  O  O157  1  0.381480  0.338900  0.992900  1.0  -0.977
  O  O158  1  0.286310  0.323900  0.874900  1.0  -0.9687
  O  O159  1  0.349890  0.092100  0.568800  1.0  -0.8839
  O  O160  1  0.369530  0.029400  0.874700  1.0  -0.8561
  O  O161  1  0.279150  0.030400  0.998100  1.0  -0.9082
  O  O162  1  0.298110  0.095000  0.313500  1.0  -0.9945
  O  O163  1  0.460130  0.444600  0.154600  1.0  -0.9685
  O  O164  1  0.465490  0.434700  0.844300  1.0  -0.956
  O  O165  1  0.444350  0.009500  0.664400  1.0  -0.8306
  O  O166  1  0.469630  0.874200  0.882200  1.0  -0.8712
  O  O167  1  0.493030  0.276740  0.029100  1.0  -1.0314
  O  O168  1  0.443060  0.193900  0.626000  1.0  -0.7983
  O  O169  1  0.458120  0.128400  0.902100  1.0  -0.8914
  O  O170  1  0.824890  0.708200  0.068500  1.0  -1.0056
  O  O171  1  0.858180  0.711800  0.800500  1.0  -0.9415
  O  O172  1  0.881480  0.838900  0.992900  1.0  -0.977
  O  O173  1  0.786310  0.823900  0.874900  1.0  -0.9687
  O  O174  1  0.849890  0.592100  0.568800  1.0  -0.8839
  O  O175  1  0.869530  0.529400  0.874700  1.0  -0.8561
  O  O176  1  0.779150  0.530400  0.998100  1.0  -0.9082
  O  O177  1  0.798110  0.595000  0.313500  1.0  -0.9945
  O  O178  1  0.960130  0.944600  0.154600  1.0  -0.9685
  O  O179  1  0.965490  0.934700  0.844300  1.0  -0.956
  O  O180  1  0.944350  0.509500  0.664400  1.0  -0.8306
  O  O181  1  0.969630  0.374200  0.882200  1.0  -0.8712
  O  O182  1  0.993030  0.776740  0.029100  1.0  -1.0314
  O  O183  1  0.943060  0.693900  0.626000  1.0  -0.7983
  O  O184  1  0.958120  0.628400  0.902100  1.0  -0.8914
