# generated using pymatgen
data_Cu23H64C105N41
_symmetry_space_group_name_H-M   'P 1'
_cell_length_a   21.69710000
_cell_length_b   19.78860000
_cell_length_c   17.50750000
_cell_angle_alpha   90.00000000
_cell_angle_beta   98.12000000
_cell_angle_gamma   90.00000000
_symmetry_Int_Tables_number   1
_chemical_formula_structural   Cu23H64C105N41
_chemical_formula_sum   'Cu46 H128 C210 N82'
_cell_volume   7441.57504397
_cell_formula_units_Z   2
loop_
 _symmetry_equiv_pos_site_id
 _symmetry_equiv_pos_as_xyz
  1  'x, y, z'
loop_
 _atom_site_type_symbol
 _atom_site_label
 _atom_site_symmetry_multiplicity
 _atom_site_fract_x
 _atom_site_fract_y
 _atom_site_fract_z
 _atom_site_occupancy
 _atom_site_charge
  Cu  Cu1  1  0.332700  0.001500  0.998600  1.0  0.3622
  Cu  Cu2  1  0.341900  0.252000  0.990400  1.0  0.495
  Cu  Cu3  1  0.348000  0.369400  0.736100  1.0  0.5349
  Cu  Cu4  1  0.322500  0.377600  0.234900  1.0  0.4627
  Cu  Cu5  1  0.323400  0.752100  0.982600  1.0  0.4907
  Cu  Cu6  1  0.444300  0.000200  0.111600  1.0  0.3862
  Cu  Cu7  1  0.434800  0.368300  0.624600  1.0  0.4693
  Cu  Cu8  1  0.667300  0.001500  0.501400  1.0  0.3624
  Cu  Cu9  1  0.658100  0.252000  0.509600  1.0  0.4939
  Cu  Cu10  1  0.652000  0.369400  0.763900  1.0  0.5353
  Cu  Cu11  1  0.677500  0.377600  0.265100  1.0  0.4607
  Cu  Cu12  1  0.676600  0.752100  0.517400  1.0  0.4922
  Cu  Cu13  1  0.555700  0.000200  0.388400  1.0  0.3852
  Cu  Cu14  1  0.565200  0.368300  0.875400  1.0  0.4696
  Cu  Cu15  1  0.667300  0.998500  0.001400  1.0  0.3624
  Cu  Cu16  1  0.658100  0.748000  0.009600  1.0  0.4945
  Cu  Cu17  1  0.652000  0.630600  0.263900  1.0  0.5347
  Cu  Cu18  1  0.677500  0.622400  0.765100  1.0  0.4613
  Cu  Cu19  1  0.676600  0.247900  0.017400  1.0  0.4919
  Cu  Cu20  1  0.555700  0.999800  0.888400  1.0  0.3853
  Cu  Cu21  1  0.565200  0.631700  0.375400  1.0  0.4697
  Cu  Cu22  1  0.332700  0.998500  0.498600  1.0  0.3621
  Cu  Cu23  1  0.341900  0.748000  0.490400  1.0  0.496
  Cu  Cu24  1  0.348000  0.630600  0.236100  1.0  0.5354
  Cu  Cu25  1  0.322500  0.622400  0.734900  1.0  0.4643
  Cu  Cu26  1  0.323400  0.247900  0.482600  1.0  0.4902
  Cu  Cu27  1  0.444300  0.999800  0.611600  1.0  0.3863
  Cu  Cu28  1  0.434800  0.631700  0.124600  1.0  0.4695
  Cu  Cu29  1  0.008700  0.249900  0.004600  1.0  0.4693
  Cu  Cu30  1  0.113500  0.014700  0.109900  1.0  0.3715
  Cu  Cu31  1  0.220100  0.984300  0.884900  1.0  0.3809
  Cu  Cu32  1  0.991300  0.249900  0.495400  1.0  0.4681
  Cu  Cu33  1  0.886500  0.014700  0.390100  1.0  0.3701
  Cu  Cu34  1  0.779900  0.984300  0.615100  1.0  0.3793
  Cu  Cu35  1  0.991300  0.750100  0.995400  1.0  0.4676
  Cu  Cu36  1  0.886500  0.985300  0.890100  1.0  0.3701
  Cu  Cu37  1  0.779900  0.015700  0.115100  1.0  0.3794
  Cu  Cu38  1  0.008700  0.750100  0.504600  1.0  0.4688
  Cu  Cu39  1  0.113500  0.985300  0.609900  1.0  0.3715
  Cu  Cu40  1  0.220100  0.015700  0.384900  1.0  0.3807
  Cu  Cu41  1  0.000000  0.379100  0.250000  1.0  0.4091
  Cu  Cu42  1  0.000000  0.633000  0.250000  1.0  0.4619
  Cu  Cu43  1  0.000000  0.620900  0.750000  1.0  0.4085
  Cu  Cu44  1  0.000000  0.367000  0.750000  1.0  0.4626
  Cu  Cu45  1  0.000000  0.000000  0.000000  1.0  0.2975
  Cu  Cu46  1  0.000000  0.000000  0.500000  1.0  0.2975
  H  H47  1  0.421600  0.153800  0.142500  1.0  0.0632
  H  H48  1  0.402500  0.219300  0.245100  1.0  0.0967
  H  H49  1  0.390200  0.168600  0.361600  1.0  0.0985
  H  H50  1  0.397800  0.050700  0.371300  1.0  0.1037
  H  H51  1  0.405200  0.940400  0.371500  1.0  0.1052
  H  H52  1  0.408300  0.823100  0.361000  1.0  0.0942
  H  H53  1  0.420800  0.774600  0.242200  1.0  0.1001
  H  H54  1  0.430100  0.844500  0.139000  1.0  0.0711
  H  H55  1  0.485600  0.229300  0.567400  1.0  0.0586
  H  H56  1  0.519100  0.186600  0.457800  1.0  0.1155
  H  H57  1  0.516900  0.257200  0.351100  1.0  0.0807
  H  H58  1  0.481600  0.369100  0.357700  1.0  0.1142
  H  H59  1  0.445700  0.467500  0.370900  1.0  0.1052
  H  H60  1  0.412500  0.575400  0.394700  1.0  0.0854
  H  H61  1  0.383500  0.601000  0.515300  1.0  0.0987
  H  H62  1  0.388500  0.517800  0.607500  1.0  0.0751
  H  H63  1  0.578400  0.153800  0.357500  1.0  0.0634
  H  H64  1  0.597500  0.219300  0.254900  1.0  0.0962
  H  H65  1  0.609800  0.168600  0.138400  1.0  0.0972
  H  H66  1  0.602200  0.050700  0.128700  1.0  0.1042
  H  H67  1  0.594800  0.940400  0.128500  1.0  0.1055
  H  H68  1  0.591700  0.823100  0.139000  1.0  0.0939
  H  H69  1  0.579200  0.774600  0.257800  1.0  0.0996
  H  H70  1  0.569900  0.844500  0.361000  1.0  0.0703
  H  H71  1  0.514400  0.229300  0.932600  1.0  0.0584
  H  H72  1  0.480900  0.186600  0.042200  1.0  0.1145
  H  H73  1  0.483100  0.257200  0.148900  1.0  0.0806
  H  H74  1  0.518400  0.369100  0.142300  1.0  0.1141
  H  H75  1  0.554300  0.467500  0.129100  1.0  0.1055
  H  H76  1  0.587500  0.575400  0.105300  1.0  0.0857
  H  H77  1  0.616500  0.601000  0.984700  1.0  0.099
  H  H78  1  0.611500  0.517800  0.892500  1.0  0.0757
  H  H79  1  0.578400  0.846200  0.857500  1.0  0.0634
  H  H80  1  0.597500  0.780700  0.754900  1.0  0.0957
  H  H81  1  0.609800  0.831400  0.638400  1.0  0.0972
  H  H82  1  0.602200  0.949300  0.628700  1.0  0.1042
  H  H83  1  0.594800  0.059600  0.628500  1.0  0.1057
  H  H84  1  0.591700  0.176900  0.639000  1.0  0.0955
  H  H85  1  0.579200  0.225400  0.757800  1.0  0.0991
  H  H86  1  0.569900  0.155500  0.861000  1.0  0.0701
  H  H87  1  0.514400  0.770700  0.432600  1.0  0.0586
  H  H88  1  0.480900  0.813400  0.542200  1.0  0.1133
  H  H89  1  0.483100  0.742800  0.648900  1.0  0.0809
  H  H90  1  0.518400  0.630900  0.642300  1.0  0.1139
  H  H91  1  0.554300  0.532500  0.629100  1.0  0.1056
  H  H92  1  0.587500  0.424600  0.605300  1.0  0.0872
  H  H93  1  0.616500  0.399000  0.484700  1.0  0.0988
  H  H94  1  0.611500  0.482200  0.392500  1.0  0.0756
  H  H95  1  0.421600  0.846200  0.642500  1.0  0.0633
  H  H96  1  0.402500  0.780700  0.745100  1.0  0.096
  H  H97  1  0.390200  0.831400  0.861600  1.0  0.0986
  H  H98  1  0.397800  0.949300  0.871300  1.0  0.1037
  H  H99  1  0.405200  0.059600  0.871500  1.0  0.1052
  H  H100  1  0.408300  0.176900  0.861000  1.0  0.0953
  H  H101  1  0.420800  0.225400  0.742200  1.0  0.0991
  H  H102  1  0.430100  0.155500  0.639000  1.0  0.0709
  H  H103  1  0.485600  0.770700  0.067400  1.0  0.0588
  H  H104  1  0.519100  0.813400  0.957800  1.0  0.1137
  H  H105  1  0.516900  0.742800  0.851100  1.0  0.0805
  H  H106  1  0.481600  0.630900  0.857700  1.0  0.1142
  H  H107  1  0.445700  0.532500  0.870900  1.0  0.1052
  H  H108  1  0.412500  0.424600  0.894700  1.0  0.0864
  H  H109  1  0.383500  0.399000  0.015300  1.0  0.0985
  H  H110  1  0.388500  0.482200  0.107500  1.0  0.0752
  H  H111  1  0.097000  0.857600  0.134800  1.0  0.0761
  H  H112  1  0.076800  0.787700  0.234000  1.0  0.0942
  H  H113  1  0.062000  0.835000  0.351300  1.0  0.0924
  H  H114  1  0.064600  0.951400  0.365700  1.0  0.1084
  H  H115  1  0.064100  0.062400  0.369100  1.0  0.106
  H  H116  1  0.061900  0.180500  0.362400  1.0  0.0938
  H  H117  1  0.080100  0.233300  0.248300  1.0  0.1018
  H  H118  1  0.098900  0.167100  0.145600  1.0  0.0564
  H  H119  1  0.244000  0.139600  0.862100  1.0  0.0705
  H  H120  1  0.266600  0.209500  0.764400  1.0  0.0958
  H  H121  1  0.278200  0.162100  0.645600  1.0  0.0896
  H  H122  1  0.270400  0.045800  0.628800  1.0  0.1079
  H  H123  1  0.266300  0.935400  0.625000  1.0  0.105
  H  H124  1  0.262700  0.817600  0.629000  1.0  0.0987
  H  H125  1  0.243700  0.764200  0.743000  1.0  0.0989
  H  H126  1  0.228200  0.830800  0.847400  1.0  0.0597
  H  H127  1  0.903000  0.857600  0.365200  1.0  0.076
  H  H128  1  0.923200  0.787700  0.266000  1.0  0.0945
  H  H129  1  0.938000  0.835000  0.148700  1.0  0.0922
  H  H130  1  0.935400  0.951400  0.134300  1.0  0.1083
  H  H131  1  0.935900  0.062400  0.130900  1.0  0.106
  H  H132  1  0.938100  0.180500  0.137600  1.0  0.0941
  H  H133  1  0.919900  0.233300  0.251700  1.0  0.1019
  H  H134  1  0.901100  0.167100  0.354400  1.0  0.0557
  H  H135  1  0.756000  0.139600  0.637900  1.0  0.071
  H  H136  1  0.733400  0.209500  0.735600  1.0  0.0961
  H  H137  1  0.721800  0.162100  0.854400  1.0  0.0901
  H  H138  1  0.729600  0.045800  0.871200  1.0  0.1072
  H  H139  1  0.733700  0.935400  0.875000  1.0  0.1045
  H  H140  1  0.737300  0.817600  0.871000  1.0  0.0987
  H  H141  1  0.756300  0.764200  0.757000  1.0  0.0987
  H  H142  1  0.771800  0.830800  0.652600  1.0  0.0595
  H  H143  1  0.903000  0.142400  0.865200  1.0  0.0757
  H  H144  1  0.923200  0.212300  0.766000  1.0  0.0938
  H  H145  1  0.938000  0.165000  0.648700  1.0  0.0915
  H  H146  1  0.935400  0.048600  0.634300  1.0  0.1084
  H  H147  1  0.935900  0.937600  0.630900  1.0  0.1057
  H  H148  1  0.938100  0.819500  0.637600  1.0  0.0938
  H  H149  1  0.919900  0.766700  0.751700  1.0  0.1019
  H  H150  1  0.901100  0.832900  0.854400  1.0  0.0565
  H  H151  1  0.756000  0.860400  0.137900  1.0  0.0714
  H  H152  1  0.733400  0.790500  0.235600  1.0  0.0958
  H  H153  1  0.721800  0.837900  0.354400  1.0  0.0902
  H  H154  1  0.729600  0.954200  0.371200  1.0  0.1072
  H  H155  1  0.733700  0.064600  0.375000  1.0  0.1043
  H  H156  1  0.737300  0.182400  0.371000  1.0  0.0992
  H  H157  1  0.756300  0.235800  0.257000  1.0  0.0987
  H  H158  1  0.771800  0.169200  0.152600  1.0  0.0591
  H  H159  1  0.097000  0.142400  0.634800  1.0  0.0761
  H  H160  1  0.076800  0.212300  0.734000  1.0  0.0936
  H  H161  1  0.062000  0.165000  0.851300  1.0  0.0916
  H  H162  1  0.064600  0.048600  0.865700  1.0  0.1083
  H  H163  1  0.064100  0.937600  0.869100  1.0  0.106
  H  H164  1  0.061900  0.819500  0.862400  1.0  0.094
  H  H165  1  0.080100  0.766700  0.748300  1.0  0.102
  H  H166  1  0.098900  0.832900  0.645600  1.0  0.0569
  H  H167  1  0.244000  0.860400  0.362100  1.0  0.0715
  H  H168  1  0.266600  0.790500  0.264400  1.0  0.0959
  H  H169  1  0.278200  0.837900  0.145600  1.0  0.09
  H  H170  1  0.270400  0.954200  0.128800  1.0  0.1078
  H  H171  1  0.266300  0.064600  0.125000  1.0  0.105
  H  H172  1  0.262700  0.182400  0.129000  1.0  0.0989
  H  H173  1  0.243700  0.235800  0.243000  1.0  0.0987
  H  H174  1  0.228200  0.169200  0.347400  1.0  0.0592
  C  C175  1  0.326300  0.849200  0.992100  1.0  -0.0379
  C  C176  1  0.336200  0.095100  0.998800  1.0  0.0667
  C  C177  1  0.335000  0.295900  0.087000  1.0  -0.0169
  C  C178  1  0.349200  0.320200  0.833300  1.0  -0.0844
  C  C179  1  0.340400  0.467400  0.742800  1.0  0.0507
  C  C180  1  0.320800  0.703100  0.887900  1.0  0.0181
  C  C181  1  0.326900  0.710200  0.082800  1.0  -0.0152
  C  C182  1  0.485900  0.000200  0.025900  1.0  0.0495
  C  C183  1  0.417000  0.132800  0.188900  1.0  0.1462
  C  C184  1  0.405400  0.172600  0.250500  1.0  -0.1231
  C  C185  1  0.398000  0.142600  0.319700  1.0  -0.1142
  C  C186  1  0.402600  0.072300  0.325300  1.0  -0.1189
  C  C187  1  0.414300  0.034500  0.260900  1.0  0.1056
  C  C188  1  0.417400  0.959500  0.260500  1.0  0.1809
  C  C189  1  0.410700  0.920100  0.325000  1.0  -0.1295
  C  C190  1  0.412200  0.850300  0.318600  1.0  -0.0926
  C  C191  1  0.419700  0.821300  0.247900  1.0  -0.1041
  C  C192  1  0.425700  0.863600  0.186400  1.0  0.1531
  C  C193  1  0.484200  0.257100  0.524300  1.0  0.159
  C  C194  1  0.504900  0.230900  0.459100  1.0  -0.1484
  C  C195  1  0.503500  0.273100  0.396000  1.0  -0.0734
  C  C196  1  0.482000  0.340000  0.399400  1.0  -0.1636
  C  C197  1  0.461300  0.361400  0.467100  1.0  0.1675
  C  C198  1  0.437900  0.430100  0.477200  1.0  0.128
  C  C199  1  0.434500  0.478500  0.418700  1.0  -0.1583
  C  C200  1  0.414500  0.542400  0.432800  1.0  -0.1093
  C  C201  1  0.397100  0.557800  0.504800  1.0  -0.1664
  C  C202  1  0.400400  0.507800  0.559800  1.0  0.1348
  C  C203  1  0.673700  0.849200  0.507900  1.0  -0.0381
  C  C204  1  0.663800  0.095100  0.501200  1.0  0.0681
  C  C205  1  0.665000  0.295900  0.413000  1.0  -0.0162
  C  C206  1  0.650800  0.320200  0.666667  1.0  -0.0822
  C  C207  1  0.659600  0.467400  0.757200  1.0  0.0527
  C  C208  1  0.679200  0.703100  0.612100  1.0  0.0231
  C  C209  1  0.673100  0.710200  0.417200  1.0  -0.0134
  C  C210  1  0.514100  0.000200  0.474100  1.0  0.0459
  C  C211  1  0.583000  0.132800  0.311100  1.0  0.1463
  C  C212  1  0.594600  0.172600  0.249500  1.0  -0.1236
  C  C213  1  0.602000  0.142600  0.180300  1.0  -0.1141
  C  C214  1  0.597400  0.072300  0.174700  1.0  -0.1185
  C  C215  1  0.585700  0.034500  0.239100  1.0  0.105
  C  C216  1  0.582600  0.959500  0.239500  1.0  0.1805
  C  C217  1  0.589300  0.920100  0.175000  1.0  -0.1297
  C  C218  1  0.587800  0.850300  0.181400  1.0  -0.0937
  C  C219  1  0.580300  0.821300  0.252100  1.0  -0.1034
  C  C220  1  0.574300  0.863600  0.313600  1.0  0.152
  C  C221  1  0.515800  0.257100  0.975700  1.0  0.1589
  C  C222  1  0.495100  0.230900  0.040900  1.0  -0.1492
  C  C223  1  0.496500  0.273100  0.104000  1.0  -0.0743
  C  C224  1  0.518000  0.340000  0.100600  1.0  -0.1631
  C  C225  1  0.538700  0.361400  0.032900  1.0  0.1672
  C  C226  1  0.562100  0.430100  0.022800  1.0  0.1272
  C  C227  1  0.565500  0.478500  0.081300  1.0  -0.1569
  C  C228  1  0.585500  0.542400  0.067200  1.0  -0.1088
  C  C229  1  0.602900  0.557800  0.995200  1.0  -0.1645
  C  C230  1  0.599600  0.507800  0.940200  1.0  0.1347
  C  C231  1  0.673700  0.150800  0.007900  1.0  -0.0391
  C  C232  1  0.663800  0.904900  0.001200  1.0  0.0667
  C  C233  1  0.665000  0.704100  0.913000  1.0  -0.0166
  C  C234  1  0.650800  0.679800  0.166700  1.0  -0.0825
  C  C235  1  0.659600  0.532600  0.257200  1.0  0.052
  C  C236  1  0.679200  0.296900  0.112100  1.0  0.0232
  C  C237  1  0.673100  0.289800  0.917200  1.0  -0.0129
  C  C238  1  0.514100  0.999800  0.974100  1.0  0.0445
  C  C239  1  0.583000  0.867200  0.811100  1.0  0.1459
  C  C240  1  0.594600  0.827400  0.749500  1.0  -0.1234
  C  C241  1  0.602000  0.857400  0.680300  1.0  -0.1137
  C  C242  1  0.597400  0.927700  0.674700  1.0  -0.1185
  C  C243  1  0.585700  0.965500  0.739100  1.0  0.1053
  C  C244  1  0.582600  0.040500  0.739500  1.0  0.1806
  C  C245  1  0.589300  0.079900  0.675000  1.0  -0.129
  C  C246  1  0.587800  0.149700  0.681400  1.0  -0.0943
  C  C247  1  0.580300  0.178700  0.752100  1.0  -0.1041
  C  C248  1  0.574300  0.136400  0.813600  1.0  0.1511
  C  C249  1  0.515800  0.742900  0.475700  1.0  0.1579
  C  C250  1  0.495100  0.769100  0.540900  1.0  -0.1473
  C  C251  1  0.496500  0.726900  0.604000  1.0  -0.0741
  C  C252  1  0.518000  0.660000  0.600600  1.0  -0.1628
  C  C253  1  0.538700  0.638600  0.532900  1.0  0.1671
  C  C254  1  0.562100  0.569900  0.522800  1.0  0.1272
  C  C255  1  0.565500  0.521500  0.581300  1.0  -0.1563
  C  C256  1  0.585500  0.457600  0.567200  1.0  -0.1086
  C  C257  1  0.602900  0.442200  0.495200  1.0  -0.1639
  C  C258  1  0.599600  0.492200  0.440200  1.0  0.1349
  C  C259  1  0.326300  0.150800  0.492100  1.0  -0.0384
  C  C260  1  0.336200  0.904900  0.498800  1.0  0.0646
  C  C261  1  0.335000  0.704100  0.587000  1.0  -0.0125
  C  C262  1  0.349200  0.679800  0.333333  1.0  -0.0834
  C  C263  1  0.340400  0.532600  0.242800  1.0  0.0491
  C  C264  1  0.320800  0.296900  0.387900  1.0  0.0186
  C  C265  1  0.326900  0.289800  0.582800  1.0  -0.0136
  C  C266  1  0.485900  0.999800  0.525900  1.0  0.0482
  C  C267  1  0.417000  0.867200  0.688900  1.0  0.1474
  C  C268  1  0.405400  0.827400  0.750500  1.0  -0.1231
  C  C269  1  0.398000  0.857400  0.819700  1.0  -0.1138
  C  C270  1  0.402600  0.927700  0.825300  1.0  -0.1183
  C  C271  1  0.414300  0.965500  0.760900  1.0  0.106
  C  C272  1  0.417400  0.040500  0.760500  1.0  0.1812
  C  C273  1  0.410700  0.079900  0.825000  1.0  -0.1297
  C  C274  1  0.412200  0.149700  0.818600  1.0  -0.0932
  C  C275  1  0.419700  0.178700  0.747900  1.0  -0.1053
  C  C276  1  0.425700  0.136400  0.686400  1.0  0.1524
  C  C277  1  0.484200  0.742900  0.024300  1.0  0.1587
  C  C278  1  0.504900  0.769100  0.959100  1.0  -0.1466
  C  C279  1  0.503500  0.726900  0.896000  1.0  -0.0735
  C  C280  1  0.482000  0.660000  0.899400  1.0  -0.1633
  C  C281  1  0.461300  0.638600  0.967100  1.0  0.1675
  C  C282  1  0.437900  0.569900  0.977200  1.0  0.1281
  C  C283  1  0.434500  0.521500  0.918700  1.0  -0.1585
  C  C284  1  0.414500  0.457600  0.932800  1.0  -0.1089
  C  C285  1  0.397100  0.442200  0.004800  1.0  -0.1653
  C  C286  1  0.400400  0.492200  0.059800  1.0  0.1343
  C  C287  1  0.007400  0.297200  0.099700  1.0  0.0373
  C  C288  1  0.003300  0.093300  0.002500  1.0  0.0189
  C  C289  1  0.006900  0.319600  0.846400  1.0  0.0361
  C  C290  1  0.153200  0.004500  0.023300  1.0  0.0412
  C  C291  1  0.090000  0.876600  0.181400  1.0  0.1334
  C  C292  1  0.078400  0.834300  0.240800  1.0  -0.1023
  C  C293  1  0.069200  0.862600  0.310500  1.0  -0.132
  C  C294  1  0.070800  0.931900  0.319100  1.0  -0.1458
  C  C295  1  0.081800  0.972300  0.257400  1.0  0.1367
  C  C296  1  0.082500  0.047600  0.259700  1.0  0.1449
  C  C297  1  0.070900  0.084500  0.324100  1.0  -0.1236
  C  C298  1  0.069700  0.155000  0.320200  1.0  -0.1059
  C  C299  1  0.080400  0.186500  0.252500  1.0  -0.1181
  C  C300  1  0.091700  0.145900  0.191000  1.0  0.147
  C  C301  1  0.249800  0.120600  0.815000  1.0  0.131
  C  C302  1  0.262800  0.163100  0.756600  1.0  -0.126
  C  C303  1  0.270100  0.134600  0.686100  1.0  -0.099
  C  C304  1  0.265400  0.065300  0.675900  1.0  -0.1515
  C  C305  1  0.249600  0.950100  0.735200  1.0  0.1816
  C  C306  1  0.252900  0.024700  0.738100  1.0  0.098
  C  C307  1  0.258800  0.913300  0.669600  1.0  -0.1321
  C  C308  1  0.256600  0.843000  0.672000  1.0  -0.1034
  C  C309  1  0.245200  0.811100  0.739700  1.0  -0.112
  C  C310  1  0.236000  0.851700  0.802200  1.0  0.1219
  C  C311  1  0.992600  0.297200  0.400300  1.0  0.0333
  C  C312  1  0.996700  0.093300  0.497500  1.0  0.0188
  C  C313  1  0.993100  0.319600  0.653600  1.0  0.0378
  C  C314  1  0.846800  0.004500  0.476700  1.0  0.0409
  C  C315  1  0.910000  0.876600  0.318600  1.0  0.1334
  C  C316  1  0.921600  0.834300  0.259200  1.0  -0.1035
  C  C317  1  0.930800  0.862600  0.189500  1.0  -0.1338
  C  C318  1  0.929200  0.931900  0.180900  1.0  -0.1463
  C  C319  1  0.918200  0.972300  0.242600  1.0  0.1359
  C  C320  1  0.917500  0.047600  0.240300  1.0  0.1445
  C  C321  1  0.929100  0.084500  0.175900  1.0  -0.1233
  C  C322  1  0.930300  0.155000  0.179800  1.0  -0.107
  C  C323  1  0.919600  0.186500  0.247500  1.0  -0.1178
  C  C324  1  0.908300  0.145900  0.309000  1.0  0.1453
  C  C325  1  0.750200  0.120600  0.685000  1.0  0.1327
  C  C326  1  0.737200  0.163100  0.743400  1.0  -0.126
  C  C327  1  0.729900  0.134600  0.813900  1.0  -0.0985
  C  C328  1  0.734600  0.065300  0.824100  1.0  -0.1526
  C  C329  1  0.750400  0.950100  0.764800  1.0  0.1816
  C  C330  1  0.747100  0.024700  0.761900  1.0  0.099
  C  C331  1  0.741200  0.913300  0.830400  1.0  -0.1321
  C  C332  1  0.743400  0.843000  0.828000  1.0  -0.1015
  C  C333  1  0.754800  0.811100  0.760300  1.0  -0.1116
  C  C334  1  0.764000  0.851700  0.697800  1.0  0.1241
  C  C335  1  0.992600  0.702800  0.900300  1.0  0.0345
  C  C336  1  0.996700  0.906700  0.997500  1.0  0.0186
  C  C337  1  0.993100  0.680400  0.153600  1.0  0.0377
  C  C338  1  0.846800  0.995500  0.976700  1.0  0.0412
  C  C339  1  0.910000  0.123400  0.818600  1.0  0.1334
  C  C340  1  0.921600  0.165700  0.759200  1.0  -0.1015
  C  C341  1  0.930800  0.137400  0.689500  1.0  -0.1315
  C  C342  1  0.929200  0.068100  0.680900  1.0  -0.1459
  C  C343  1  0.918200  0.027700  0.742600  1.0  0.1366
  C  C344  1  0.917500  0.952400  0.740300  1.0  0.144
  C  C345  1  0.929100  0.915500  0.675900  1.0  -0.1231
  C  C346  1  0.930300  0.845000  0.679800  1.0  -0.1099
  C  C347  1  0.919600  0.813500  0.747500  1.0  -0.1206
  C  C348  1  0.908300  0.854100  0.809000  1.0  0.146
  C  C349  1  0.750200  0.879400  0.185000  1.0  0.1334
  C  C350  1  0.737200  0.836900  0.243400  1.0  -0.1295
  C  C351  1  0.729900  0.865400  0.313900  1.0  -0.0999
  C  C352  1  0.734600  0.934700  0.324100  1.0  -0.152
  C  C353  1  0.750400  0.049900  0.264800  1.0  0.1819
  C  C354  1  0.747100  0.975300  0.261900  1.0  0.0989
  C  C355  1  0.741200  0.086700  0.330400  1.0  -0.1332
  C  C356  1  0.743400  0.157000  0.328000  1.0  -0.1007
  C  C357  1  0.754800  0.188900  0.260300  1.0  -0.1102
  C  C358  1  0.764000  0.148300  0.197800  1.0  0.1235
  C  C359  1  0.007400  0.702800  0.599700  1.0  0.0389
  C  C360  1  0.003300  0.906700  0.502500  1.0  0.0189
  C  C361  1  0.006900  0.680400  0.346400  1.0  0.0365
  C  C362  1  0.153200  0.995500  0.523300  1.0  0.0417
  C  C363  1  0.090000  0.123400  0.681400  1.0  0.1339
  C  C364  1  0.078400  0.165700  0.740800  1.0  -0.102
  C  C365  1  0.069200  0.137400  0.810500  1.0  -0.1304
  C  C366  1  0.070800  0.068100  0.819100  1.0  -0.1459
  C  C367  1  0.081800  0.027700  0.757400  1.0  0.1372
  C  C368  1  0.082500  0.952400  0.759700  1.0  0.1447
  C  C369  1  0.070900  0.915500  0.824100  1.0  -0.1229
  C  C370  1  0.069700  0.845000  0.820200  1.0  -0.1085
  C  C371  1  0.080400  0.813500  0.752500  1.0  -0.1206
  C  C372  1  0.091700  0.854100  0.691000  1.0  0.1471
  C  C373  1  0.249800  0.879400  0.315000  1.0  0.132
  C  C374  1  0.262800  0.836900  0.256600  1.0  -0.1304
  C  C375  1  0.270100  0.865400  0.186100  1.0  -0.1009
  C  C376  1  0.265400  0.934700  0.175900  1.0  -0.1514
  C  C377  1  0.249600  0.049900  0.235200  1.0  0.1818
  C  C378  1  0.252900  0.975300  0.238100  1.0  0.098
  C  C379  1  0.258800  0.086700  0.169600  1.0  -0.1326
  C  C380  1  0.256600  0.157000  0.172000  1.0  -0.1018
  C  C381  1  0.245200  0.188900  0.239700  1.0  -0.1108
  C  C382  1  0.236000  0.148300  0.302200  1.0  0.1209
  C  C383  1  0.000000  0.477100  0.250000  1.0  -0.0208
  C  C384  1  0.000000  0.522900  0.750000  1.0  -0.0193
  N  N385  1  0.425200  0.931500  0.192600  1.0  -0.3187
  N  N386  1  0.421900  0.065100  0.193500  1.0  -0.3301
  N  N387  1  0.462400  0.320000  0.529100  1.0  -0.2887
  N  N388  1  0.420600  0.444100  0.547200  1.0  -0.351
  N  N389  1  0.328900  0.908400  0.995500  1.0  -0.3332
  N  N390  1  0.338700  0.153400  0.997100  1.0  -0.3927
  N  N391  1  0.347200  0.294500  0.893100  1.0  -0.391
  N  N392  1  0.335700  0.681100  0.139500  1.0  -0.4133
  N  N393  1  0.334100  0.524800  0.742800  1.0  -0.3798
  N  N394  1  0.328500  0.325300  0.142000  1.0  -0.3809
  N  N395  1  0.320900  0.672500  0.830800  1.0  -0.4183
  N  N396  1  0.482400  0.361900  0.721700  1.0  -0.3996
  N  N397  1  0.574800  0.931500  0.307400  1.0  -0.3219
  N  N398  1  0.578100  0.065100  0.306500  1.0  -0.3301
  N  N399  1  0.537600  0.320000  0.970900  1.0  -0.2876
  N  N400  1  0.579400  0.444100  0.952800  1.0  -0.3539
  N  N401  1  0.671100  0.908400  0.504500  1.0  -0.3323
  N  N402  1  0.661300  0.153400  0.502900  1.0  -0.3927
  N  N403  1  0.652800  0.294500  0.606900  1.0  -0.3894
  N  N404  1  0.664300  0.681100  0.360500  1.0  -0.4109
  N  N405  1  0.665900  0.524800  0.757200  1.0  -0.3758
  N  N406  1  0.671500  0.325300  0.358000  1.0  -0.3796
  N  N407  1  0.679100  0.672500  0.669200  1.0  -0.4151
  N  N408  1  0.517600  0.361900  0.778300  1.0  -0.4004
  N  N409  1  0.574800  0.068500  0.807400  1.0  -0.3217
  N  N410  1  0.578100  0.934900  0.806500  1.0  -0.3304
  N  N411  1  0.537600  0.680000  0.470900  1.0  -0.2883
  N  N412  1  0.579400  0.555900  0.452800  1.0  -0.3549
  N  N413  1  0.671100  0.091600  0.004500  1.0  -0.3301
  N  N414  1  0.661300  0.846600  0.002900  1.0  -0.3917
  N  N415  1  0.652800  0.705500  0.106900  1.0  -0.389
  N  N416  1  0.664300  0.318900  0.860500  1.0  -0.412
  N  N417  1  0.665900  0.475200  0.257200  1.0  -0.3756
  N  N418  1  0.671500  0.674700  0.858000  1.0  -0.3774
  N  N419  1  0.679100  0.327500  0.169200  1.0  -0.4143
  N  N420  1  0.517600  0.638100  0.278300  1.0  -0.4
  N  N421  1  0.425200  0.068500  0.692600  1.0  -0.3193
  N  N422  1  0.421900  0.934900  0.693500  1.0  -0.3293
  N  N423  1  0.462400  0.680000  0.029100  1.0  -0.2886
  N  N424  1  0.420600  0.555900  0.047200  1.0  -0.3536
  N  N425  1  0.328900  0.091600  0.495500  1.0  -0.3311
  N  N426  1  0.338700  0.846600  0.497100  1.0  -0.3915
  N  N427  1  0.347200  0.705500  0.393100  1.0  -0.3921
  N  N428  1  0.335700  0.318900  0.639500  1.0  -0.4149
  N  N429  1  0.334100  0.475200  0.242800  1.0  -0.3784
  N  N430  1  0.328500  0.674700  0.642000  1.0  -0.3784
  N  N431  1  0.320900  0.327500  0.330800  1.0  -0.4171
  N  N432  1  0.482400  0.638100  0.221700  1.0  -0.3992
  N  N433  1  0.091400  0.944900  0.188900  1.0  -0.3354
  N  N434  1  0.092700  0.078500  0.193200  1.0  -0.3253
  N  N435  1  0.245000  0.052600  0.807100  1.0  -0.3423
  N  N436  1  0.237900  0.919500  0.800500  1.0  -0.3337
  N  N437  1  0.003400  0.327300  0.156400  1.0  -0.3548
  N  N438  1  0.006500  0.152200  0.004000  1.0  -0.357
  N  N439  1  0.009000  0.291600  0.905700  1.0  -0.3556
  N  N440  1  0.180000  0.995300  0.971200  1.0  -0.4122
  N  N441  1  0.908600  0.944900  0.311100  1.0  -0.3362
  N  N442  1  0.907300  0.078500  0.306800  1.0  -0.3257
  N  N443  1  0.755000  0.052600  0.692900  1.0  -0.3424
  N  N444  1  0.762100  0.919500  0.699500  1.0  -0.333
  N  N445  1  0.996600  0.327300  0.343600  1.0  -0.3556
  N  N446  1  0.993500  0.152200  0.496000  1.0  -0.3574
  N  N447  1  0.991000  0.291600  0.594300  1.0  -0.357
  N  N448  1  0.820000  0.995300  0.528800  1.0  -0.409
  N  N449  1  0.908600  0.055100  0.811100  1.0  -0.3358
  N  N450  1  0.907300  0.921500  0.806800  1.0  -0.3257
  N  N451  1  0.755000  0.947400  0.192900  1.0  -0.3415
  N  N452  1  0.762100  0.080500  0.199500  1.0  -0.3342
  N  N453  1  0.996600  0.672700  0.843600  1.0  -0.3535
  N  N454  1  0.993500  0.847800  0.996000  1.0  -0.3574
  N  N455  1  0.991000  0.708400  0.094300  1.0  -0.3559
  N  N456  1  0.820000  0.004700  0.028800  1.0  -0.4092
  N  N457  1  0.091400  0.055100  0.688900  1.0  -0.3365
  N  N458  1  0.092700  0.921500  0.693200  1.0  -0.3251
  N  N459  1  0.245000  0.947400  0.307100  1.0  -0.3425
  N  N460  1  0.237900  0.080500  0.300500  1.0  -0.3346
  N  N461  1  0.003400  0.672700  0.656400  1.0  -0.3538
  N  N462  1  0.006500  0.847800  0.504000  1.0  -0.3576
  N  N463  1  0.009000  0.708400  0.405700  1.0  -0.355
  N  N464  1  0.180000  0.004700  0.471200  1.0  -0.4122
  N  N465  1  0.000000  0.534900  0.250000  1.0  -0.3776
  N  N466  1  0.000000  0.465100  0.750000  1.0  -0.3767
