# generated using pymatgen
data_Al4P4O17
_symmetry_space_group_name_H-M   'P 1'
_cell_length_a   19.67210000
_cell_length_b   9.22010000
_cell_length_c   9.74780000
_cell_angle_alpha   90.00000000
_cell_angle_beta   95.60000000
_cell_angle_gamma   90.00000000
_symmetry_Int_Tables_number   1
_chemical_formula_structural   Al4P4O17
_chemical_formula_sum   'Al16 P16 O68'
_cell_volume   1759.60541179
_cell_formula_units_Z   4
loop_
 _symmetry_equiv_pos_site_id
 _symmetry_equiv_pos_as_xyz
  1  'x, y, z'
loop_
 _atom_site_type_symbol
 _atom_site_label
 _atom_site_symmetry_multiplicity
 _atom_site_fract_x
 _atom_site_fract_y
 _atom_site_fract_z
 _atom_site_occupancy
 _atom_site_charge
  Al  Al1  1  0.056300  0.081900  0.991300  1.0  1.7725
  Al  Al2  1  0.530400  0.872200  0.218400  1.0  1.9415
  Al  Al3  1  0.919600  0.339100  0.265100  1.0  1.9088
  Al  Al4  1  0.325200  0.869900  0.987700  1.0  2.0221
  Al  Al5  1  0.943700  0.581900  0.508700  1.0  1.7722
  Al  Al6  1  0.469600  0.372200  0.281600  1.0  1.9393
  Al  Al7  1  0.080400  0.839100  0.234900  1.0  1.9109
  Al  Al8  1  0.674800  0.369900  0.512300  1.0  2.0229
  Al  Al9  1  0.943700  0.918100  0.008700  1.0  1.7732
  Al  Al10  1  0.469600  0.127800  0.781600  1.0  1.9394
  Al  Al11  1  0.080400  0.660900  0.734900  1.0  1.9066
  Al  Al12  1  0.674800  0.130100  0.012300  1.0  2.0225
  Al  Al13  1  0.056300  0.418100  0.491300  1.0  1.7727
  Al  Al14  1  0.530400  0.627800  0.718400  1.0  1.9416
  Al  Al15  1  0.919600  0.160900  0.765100  1.0  1.9057
  Al  Al16  1  0.325200  0.630100  0.487700  1.0  2.0217
  P  P17  1  0.420500  0.116800  0.077100  1.0  1.9146
  P  P18  1  0.400500  0.831800  0.714200  1.0  1.9343
  P  P19  1  0.161700  0.844800  0.985800  1.0  1.8802
  P  P20  1  0.047900  0.153600  0.287700  1.0  1.9
  P  P21  1  0.579500  0.616800  0.422900  1.0  1.914
  P  P22  1  0.599500  0.331800  0.785800  1.0  1.936
  P  P23  1  0.838300  0.344800  0.514200  1.0  1.8738
  P  P24  1  0.952100  0.653600  0.212300  1.0  1.9016
  P  P25  1  0.579500  0.883200  0.922900  1.0  1.9141
  P  P26  1  0.599500  0.168200  0.285800  1.0  1.9368
  P  P27  1  0.838300  0.155200  0.014200  1.0  1.8738
  P  P28  1  0.952100  0.846400  0.712300  1.0  1.8996
  P  P29  1  0.420500  0.383200  0.577100  1.0  1.9146
  P  P30  1  0.400500  0.668200  0.214200  1.0  1.9347
  P  P31  1  0.161700  0.655200  0.485800  1.0  1.8801
  P  P32  1  0.047900  0.346400  0.787700  1.0  1.9032
  O  O33  1  0.078300  0.183900  0.149700  1.0  -0.8381
  O  O34  1  0.970300  0.174500  0.268700  1.0  -0.866
  O  O35  1  0.130700  0.989800  0.935600  1.0  -0.8352
  O  O36  1  0.351500  0.847300  0.824600  1.0  -0.9715
  O  O37  1  0.238200  0.856100  0.974400  1.0  -0.9364
  O  O38  1  0.361100  0.775400  0.583100  1.0  -1.021
  O  O39  1  0.476200  0.010200  0.128800  1.0  -0.9629
  O  O40  1  0.132800  0.720000  0.894200  1.0  -0.9281
  O  O41  1  0.433400  0.181800  0.936100  1.0  -0.9241
  O  O42  1  0.427800  0.982100  0.675800  1.0  -0.8403
  O  O43  1  0.065000  0.998200  0.341200  1.0  -0.787
  O  O44  1  0.029300  0.918900  0.086100  1.0  -0.9656
  O  O45  1  0.412600  0.240500  0.180700  1.0  -0.8511
  O  O46  1  0.153100  0.816000  0.138500  1.0  -0.851
  O  O47  1  0.352100  0.035800  0.060300  1.0  -0.8668
  O  O48  1  0.456000  0.722300  0.765700  1.0  -0.9473
  O  O49  1  0.081700  0.258900  0.393600  1.0  -0.8805
  O  O50  1  0.921700  0.683900  0.350300  1.0  -0.8361
  O  O51  1  0.029700  0.674500  0.231300  1.0  -0.8656
  O  O52  1  0.869300  0.489800  0.564400  1.0  -0.836
  O  O53  1  0.648500  0.347300  0.675400  1.0  -0.9705
  O  O54  1  0.761800  0.356100  0.525600  1.0  -0.9373
  O  O55  1  0.638900  0.275400  0.916900  1.0  -1.0194
  O  O56  1  0.523800  0.510200  0.371200  1.0  -0.9632
  O  O57  1  0.867200  0.220000  0.605800  1.0  -0.9279
  O  O58  1  0.566600  0.681800  0.563900  1.0  -0.9224
  O  O59  1  0.572200  0.482100  0.824200  1.0  -0.8393
  O  O60  1  0.935000  0.498200  0.158800  1.0  -0.7882
  O  O61  1  0.970700  0.418900  0.413900  1.0  -0.9671
  O  O62  1  0.587400  0.740500  0.319300  1.0  -0.8495
  O  O63  1  0.846900  0.316000  0.361500  1.0  -0.8533
  O  O64  1  0.647900  0.535800  0.439700  1.0  -0.8664
  O  O65  1  0.544000  0.222300  0.734300  1.0  -0.9455
  O  O66  1  0.918300  0.758900  0.106400  1.0  -0.8816
  O  O67  1  0.921700  0.816100  0.850300  1.0  -0.8363
  O  O68  1  0.029700  0.825500  0.731300  1.0  -0.8652
  O  O69  1  0.869300  0.010200  0.064400  1.0  -0.8366
  O  O70  1  0.648500  0.152700  0.175400  1.0  -0.9708
  O  O71  1  0.761800  0.143900  0.025600  1.0  -0.9375
  O  O72  1  0.638900  0.224600  0.416900  1.0  -1.0175
  O  O73  1  0.523800  0.989800  0.871200  1.0  -0.9637
  O  O74  1  0.867200  0.280000  0.105800  1.0  -0.9287
  O  O75  1  0.566600  0.818200  0.063900  1.0  -0.9212
  O  O76  1  0.572200  0.017900  0.324200  1.0  -0.8393
  O  O77  1  0.935000  0.001800  0.658800  1.0  -0.7879
  O  O78  1  0.970700  0.081100  0.913900  1.0  -0.9674
  O  O79  1  0.587400  0.759500  0.819300  1.0  -0.8499
  O  O80  1  0.846900  0.184000  0.861500  1.0  -0.8523
  O  O81  1  0.647900  0.964200  0.939700  1.0  -0.8677
  O  O82  1  0.544000  0.277700  0.234300  1.0  -0.9454
  O  O83  1  0.918300  0.741100  0.606400  1.0  -0.8819
  O  O84  1  0.078300  0.316100  0.649700  1.0  -0.8383
  O  O85  1  0.970300  0.325500  0.768700  1.0  -0.8659
  O  O86  1  0.130700  0.510200  0.435600  1.0  -0.8367
  O  O87  1  0.351500  0.652700  0.324600  1.0  -0.9718
  O  O88  1  0.238200  0.643900  0.474400  1.0  -0.9364
  O  O89  1  0.361100  0.724600  0.083100  1.0  -1.0196
  O  O90  1  0.476200  0.489800  0.628800  1.0  -0.963
  O  O91  1  0.132800  0.780000  0.394200  1.0  -0.9288
  O  O92  1  0.433400  0.318200  0.436100  1.0  -0.9228
  O  O93  1  0.427800  0.517900  0.175800  1.0  -0.841
  O  O94  1  0.065000  0.501800  0.841200  1.0  -0.7865
  O  O95  1  0.029300  0.581100  0.586100  1.0  -0.9657
  O  O96  1  0.412600  0.259500  0.680700  1.0  -0.8506
  O  O97  1  0.153100  0.684000  0.638500  1.0  -0.8511
  O  O98  1  0.352100  0.464200  0.560300  1.0  -0.8671
  O  O99  1  0.456000  0.777700  0.265700  1.0  -0.9479
  O  O100  1  0.081700  0.241100  0.893600  1.0  -0.8802
