# generated using pymatgen
data_Al6P6O24F
_symmetry_space_group_name_H-M   'P 1'
_cell_length_a   13.86030000
_cell_length_b   23.12850000
_cell_length_c   8.54200000
_cell_angle_alpha   90.00000000
_cell_angle_beta   90.00000000
_cell_angle_gamma   90.00000000
_symmetry_Int_Tables_number   1
_chemical_formula_structural   Al6P6O24F
_chemical_formula_sum   'Al24 P24 O96 F4'
_cell_volume   2738.29141651
_cell_formula_units_Z   4
loop_
 _symmetry_equiv_pos_site_id
 _symmetry_equiv_pos_as_xyz
  1  'x, y, z'
loop_
 _atom_site_type_symbol
 _atom_site_label
 _atom_site_symmetry_multiplicity
 _atom_site_fract_x
 _atom_site_fract_y
 _atom_site_fract_z
 _atom_site_occupancy
 _atom_site_charge
  Al  Al1  1  0.100900  0.059400  0.158000  1.0  1.8735
  Al  Al2  1  0.215600  0.177700  0.669300  1.0  1.9303
  Al  Al3  1  0.106600  0.272300  0.194400  1.0  2.0023
  Al  Al4  1  0.600900  0.559400  0.158000  1.0  1.8735
  Al  Al5  1  0.715600  0.677700  0.669300  1.0  1.9303
  Al  Al6  1  0.606600  0.772300  0.194400  1.0  2.0023
  Al  Al7  1  0.899100  0.940600  0.158000  1.0  1.8735
  Al  Al8  1  0.784400  0.822300  0.669300  1.0  1.9309
  Al  Al9  1  0.893400  0.727700  0.194400  1.0  2.0021
  Al  Al10  1  0.399100  0.440600  0.158000  1.0  1.8735
  Al  Al11  1  0.284400  0.322300  0.669300  1.0  1.9309
  Al  Al12  1  0.393400  0.227700  0.194400  1.0  2.0021
  Al  Al13  1  0.100900  0.940600  0.658000  1.0  1.8736
  Al  Al14  1  0.215600  0.822300  0.169300  1.0  1.9311
  Al  Al15  1  0.106600  0.727700  0.694400  1.0  2.0021
  Al  Al16  1  0.600900  0.440600  0.658000  1.0  1.8736
  Al  Al17  1  0.715600  0.322300  0.169300  1.0  1.9311
  Al  Al18  1  0.606600  0.227700  0.694400  1.0  2.0021
  Al  Al19  1  0.899100  0.059400  0.658000  1.0  1.8733
  Al  Al20  1  0.784400  0.177700  0.169300  1.0  1.9305
  Al  Al21  1  0.893400  0.272300  0.694400  1.0  2.0016
  Al  Al22  1  0.399100  0.559400  0.658000  1.0  1.8733
  Al  Al23  1  0.284400  0.677700  0.169300  1.0  1.9305
  Al  Al24  1  0.393400  0.772300  0.694400  1.0  2.0016
  P  P25  1  0.211000  0.159600  0.305300  1.0  1.9888
  P  P26  1  0.106400  0.066000  0.789300  1.0  2.1068
  P  P27  1  0.399800  0.224100  0.824800  1.0  2.0087
  P  P28  1  0.711000  0.659600  0.305300  1.0  1.9888
  P  P29  1  0.606400  0.566000  0.789300  1.0  2.1068
  P  P30  1  0.899800  0.724100  0.824800  1.0  2.0087
  P  P31  1  0.789000  0.840400  0.305300  1.0  1.988
  P  P32  1  0.893600  0.934000  0.789300  1.0  2.1084
  P  P33  1  0.600200  0.775900  0.824800  1.0  2.0062
  P  P34  1  0.289000  0.340400  0.305300  1.0  1.988
  P  P35  1  0.393600  0.434000  0.789300  1.0  2.1084
  P  P36  1  0.100200  0.275900  0.824800  1.0  2.0062
  P  P37  1  0.211000  0.840400  0.805300  1.0  1.9887
  P  P38  1  0.106400  0.934000  0.289300  1.0  2.1045
  P  P39  1  0.399800  0.775900  0.324800  1.0  2.0089
  P  P40  1  0.711000  0.340400  0.805300  1.0  1.9887
  P  P41  1  0.606400  0.434000  0.289300  1.0  2.1045
  P  P42  1  0.899800  0.275900  0.324800  1.0  2.0089
  P  P43  1  0.789000  0.159600  0.805300  1.0  1.9876
  P  P44  1  0.893600  0.066000  0.289300  1.0  2.1065
  P  P45  1  0.600200  0.224100  0.324800  1.0  2.0056
  P  P46  1  0.289000  0.659600  0.805300  1.0  1.9876
  P  P47  1  0.393600  0.566000  0.289300  1.0  2.1065
  P  P48  1  0.100200  0.724100  0.324800  1.0  2.0056
  O  O49  1  0.189900  0.103200  0.223400  1.0  -0.996
  O  O50  1  0.205000  0.151300  0.482400  1.0  -1.0429
  O  O51  1  0.140100  0.204900  0.249300  1.0  -1.031
  O  O52  1  0.313600  0.176100  0.266500  1.0  -0.9679
  O  O53  1  0.096200  0.058000  0.961800  1.0  -0.9935
  O  O54  1  0.010500  0.082900  0.732500  1.0  -0.904
  O  O55  1  0.184200  0.108700  0.753900  1.0  -0.9116
  O  O56  1  0.135000  0.007200  0.725400  1.0  -0.9888
  O  O57  1  0.330500  0.178800  0.767800  1.0  -0.9033
  O  O58  1  0.378400  0.283600  0.764200  1.0  -0.9717
  O  O59  1  0.497700  0.206600  0.776500  1.0  -0.974
  O  O60  1  0.395900  0.223900  0.995800  1.0  -0.9216
  O  O61  1  0.689900  0.603200  0.223400  1.0  -0.996
  O  O62  1  0.705000  0.651300  0.482400  1.0  -1.0429
  O  O63  1  0.640100  0.704900  0.249300  1.0  -1.031
  O  O64  1  0.813600  0.676100  0.266500  1.0  -0.9679
  O  O65  1  0.596200  0.558000  0.961800  1.0  -0.9935
  O  O66  1  0.510500  0.582900  0.732500  1.0  -0.904
  O  O67  1  0.684200  0.608700  0.753900  1.0  -0.9116
  O  O68  1  0.635000  0.507200  0.725400  1.0  -0.9888
  O  O69  1  0.830500  0.678800  0.767800  1.0  -0.9033
  O  O70  1  0.878400  0.783600  0.764200  1.0  -0.9717
  O  O71  1  0.997700  0.706600  0.776500  1.0  -0.974
  O  O72  1  0.895900  0.723900  0.995800  1.0  -0.9216
  O  O73  1  0.810100  0.896800  0.223400  1.0  -0.9991
  O  O74  1  0.795000  0.848700  0.482400  1.0  -1.0466
  O  O75  1  0.859900  0.795100  0.249300  1.0  -1.031
  O  O76  1  0.686400  0.823900  0.266500  1.0  -0.9709
  O  O77  1  0.903800  0.942000  0.961800  1.0  -0.9932
  O  O78  1  0.989500  0.917100  0.732500  1.0  -0.9042
  O  O79  1  0.815800  0.891300  0.753900  1.0  -0.914
  O  O80  1  0.865000  0.992800  0.725400  1.0  -0.9897
  O  O81  1  0.669500  0.821200  0.767800  1.0  -0.9028
  O  O82  1  0.621600  0.716400  0.764200  1.0  -0.9718
  O  O83  1  0.502300  0.793400  0.776500  1.0  -0.9763
  O  O84  1  0.604100  0.776100  0.995800  1.0  -0.9218
  O  O85  1  0.310100  0.396800  0.223400  1.0  -0.9991
  O  O86  1  0.295000  0.348700  0.482400  1.0  -1.0466
  O  O87  1  0.359900  0.295100  0.249300  1.0  -1.031
  O  O88  1  0.186400  0.323900  0.266500  1.0  -0.9709
  O  O89  1  0.403800  0.442000  0.961800  1.0  -0.9932
  O  O90  1  0.489500  0.417100  0.732500  1.0  -0.9042
  O  O91  1  0.315800  0.391300  0.753900  1.0  -0.914
  O  O92  1  0.365000  0.492800  0.725400  1.0  -0.9897
  O  O93  1  0.169500  0.321200  0.767800  1.0  -0.9028
  O  O94  1  0.121600  0.216400  0.764200  1.0  -0.9718
  O  O95  1  0.002300  0.293400  0.776500  1.0  -0.9763
  O  O96  1  0.104100  0.276100  0.995800  1.0  -0.9218
  O  O97  1  0.189900  0.896800  0.723400  1.0  -0.9956
  O  O98  1  0.205000  0.848700  0.982400  1.0  -1.0452
  O  O99  1  0.140100  0.795100  0.749300  1.0  -1.0309
  O  O100  1  0.313600  0.823900  0.766500  1.0  -0.9679
  O  O101  1  0.096200  0.942000  0.461800  1.0  -0.9931
  O  O102  1  0.010500  0.917100  0.232500  1.0  -0.9043
  O  O103  1  0.184200  0.891300  0.253900  1.0  -0.9128
  O  O104  1  0.135000  0.992800  0.225400  1.0  -0.9875
  O  O105  1  0.330500  0.821200  0.267800  1.0  -0.9021
  O  O106  1  0.378400  0.716400  0.264200  1.0  -0.971
  O  O107  1  0.497700  0.793400  0.276500  1.0  -0.977
  O  O108  1  0.395900  0.776100  0.495800  1.0  -0.9217
  O  O109  1  0.689900  0.396800  0.723400  1.0  -0.9956
  O  O110  1  0.705000  0.348700  0.982400  1.0  -1.0452
  O  O111  1  0.640100  0.295100  0.749300  1.0  -1.0309
  O  O112  1  0.813600  0.323900  0.766500  1.0  -0.9679
  O  O113  1  0.596200  0.442000  0.461800  1.0  -0.9931
  O  O114  1  0.510500  0.417100  0.232500  1.0  -0.9043
  O  O115  1  0.684200  0.391300  0.253900  1.0  -0.9128
  O  O116  1  0.635000  0.492800  0.225400  1.0  -0.9875
  O  O117  1  0.830500  0.321200  0.267800  1.0  -0.9021
  O  O118  1  0.878400  0.216400  0.264200  1.0  -0.971
  O  O119  1  0.997700  0.293400  0.276500  1.0  -0.977
  O  O120  1  0.895900  0.276100  0.495800  1.0  -0.9217
  O  O121  1  0.810100  0.103200  0.723400  1.0  -0.9981
  O  O122  1  0.795000  0.151300  0.982400  1.0  -1.0431
  O  O123  1  0.859900  0.204900  0.749300  1.0  -1.0312
  O  O124  1  0.686400  0.176100  0.766500  1.0  -0.9663
  O  O125  1  0.903800  0.058000  0.461800  1.0  -0.9937
  O  O126  1  0.989500  0.082900  0.232500  1.0  -0.9043
  O  O127  1  0.815800  0.108700  0.253900  1.0  -0.913
  O  O128  1  0.865000  0.007200  0.225400  1.0  -0.9891
  O  O129  1  0.669500  0.178800  0.267800  1.0  -0.9033
  O  O130  1  0.621600  0.283600  0.264200  1.0  -0.9722
  O  O131  1  0.502300  0.206600  0.276500  1.0  -0.9756
  O  O132  1  0.604100  0.223900  0.495800  1.0  -0.9218
  O  O133  1  0.310100  0.603200  0.723400  1.0  -0.9981
  O  O134  1  0.295000  0.651300  0.982400  1.0  -1.0431
  O  O135  1  0.359900  0.704900  0.749300  1.0  -1.0312
  O  O136  1  0.186400  0.676100  0.766500  1.0  -0.9663
  O  O137  1  0.403800  0.558000  0.461800  1.0  -0.9937
  O  O138  1  0.489500  0.582900  0.232500  1.0  -0.9043
  O  O139  1  0.315800  0.608700  0.253900  1.0  -0.913
  O  O140  1  0.365000  0.507200  0.225400  1.0  -0.9891
  O  O141  1  0.169500  0.678800  0.267800  1.0  -0.9033
  O  O142  1  0.121600  0.783600  0.264200  1.0  -0.9722
  O  O143  1  0.002300  0.706600  0.276500  1.0  -0.9756
  O  O144  1  0.104100  0.723900  0.495800  1.0  -0.9218
  F  F145  1  0.250000  0.250000  0.580500  1.0  -0.5924
  F  F146  1  0.750000  0.750000  0.580500  1.0  -0.5924
  F  F147  1  0.250000  0.750000  0.080500  1.0  -0.5924
  F  F148  1  0.750000  0.250000  0.080500  1.0  -0.5924
