# generated using pymatgen
data_Cd3H24C38(N2O7)2
_symmetry_space_group_name_H-M   'P 1'
_cell_length_a   7.41060000
_cell_length_b   16.62200000
_cell_length_c   16.68300000
_cell_angle_alpha   104.24000000
_cell_angle_beta   101.49000000
_cell_angle_gamma   98.67000000
_symmetry_Int_Tables_number   1
_chemical_formula_structural   Cd3H24C38(N2O7)2
_chemical_formula_sum   'Cd6 H48 C76 N8 O28'
_cell_volume   1908.28874560
_cell_formula_units_Z   2
loop_
 _symmetry_equiv_pos_site_id
 _symmetry_equiv_pos_as_xyz
  1  'x, y, z'
loop_
 _atom_site_type_symbol
 _atom_site_label
 _atom_site_symmetry_multiplicity
 _atom_site_fract_x
 _atom_site_fract_y
 _atom_site_fract_z
 _atom_site_occupancy
 _atom_site_charge
  Cd  Cd1  1  0.486690  0.483000  0.627980  1.0  1.0666
  Cd  Cd2  1  0.316490  0.955990  0.541580  1.0  1.0856
  Cd  Cd3  1  0.509720  0.501250  0.881260  1.0  1.0506
  Cd  Cd4  1  0.513310  0.517000  0.372020  1.0  1.0699
  Cd  Cd5  1  0.683510  0.044010  0.458420  1.0  1.087
  Cd  Cd6  1  0.490280  0.498750  0.118740  1.0  1.0508
  H  H7  1  0.396200  0.659300  0.574500  1.0  0.1219
  H  H8  1  0.496500  0.804500  0.667500  1.0  0.1318
  H  H9  1  0.702600  0.649700  0.790500  1.0  0.1102
  H  H10  1  0.639100  0.913100  0.781300  1.0  0.1085
  H  H11  1  0.820300  0.027200  0.888500  1.0  0.1038
  H  H12  1  0.021000  0.870700  0.013700  1.0  0.1059
  H  H13  1  0.848700  0.756100  0.903700  1.0  0.1259
  H  H14  1  0.255600  0.317600  0.731300  1.0  0.1193
  H  H15  1  0.226400  0.176600  0.749700  1.0  0.131
  H  H16  1  0.582400  0.339600  0.955100  1.0  0.1088
  H  H17  1  0.598900  0.240100  0.020800  1.0  0.1261
  H  H18  1  0.636600  0.131000  0.080400  1.0  0.0963
  H  H19  1  0.326700  0.964800  0.865600  1.0  0.0949
  H  H20  1  0.292800  0.072400  0.805300  1.0  0.1053
  H  H21  1  0.999800  0.510400  0.630400  1.0  0.1166
  H  H22  1  0.245700  0.722900  0.819800  1.0  0.1156
  H  H23  1  0.908600  0.736000  0.606200  1.0  0.1196
  H  H24  1  0.903600  0.851200  0.681200  1.0  0.0924
  H  H25  1  0.023200  0.933100  0.751900  1.0  0.1096
  H  H26  1  0.038000  0.252000  0.926400  1.0  0.1129
  H  H27  1  0.689800  0.247300  0.706400  1.0  0.119
  H  H28  1  0.978400  0.470400  0.872600  1.0  0.1229
  H  H29  1  0.633300  0.043100  0.738300  1.0  0.1316
  H  H30  1  0.578700  0.123500  0.715300  1.0  0.0957
  H  H31  1  0.603800  0.340700  0.425500  1.0  0.1204
  H  H32  1  0.503500  0.195500  0.332500  1.0  0.1319
  H  H33  1  0.297400  0.350300  0.209500  1.0  0.1104
  H  H34  1  0.360900  0.086900  0.218700  1.0  0.1088
  H  H35  1  0.179700  0.972800  0.111500  1.0  0.1028
  H  H36  1  0.979000  0.129300  0.986300  1.0  0.1064
  H  H37  1  0.151300  0.243900  0.096300  1.0  0.1259
  H  H38  1  0.744400  0.682400  0.268700  1.0  0.1198
  H  H39  1  0.773600  0.823400  0.250300  1.0  0.1308
  H  H40  1  0.417600  0.660400  0.044900  1.0  0.1093
  H  H41  1  0.401100  0.759900  0.979200  1.0  0.1271
  H  H42  1  0.363400  0.869000  0.919600  1.0  0.0972
  H  H43  1  0.673300  0.035200  0.134400  1.0  0.0971
  H  H44  1  0.707200  0.927600  0.194700  1.0  0.1051
  H  H45  1  0.000200  0.489600  0.369600  1.0  0.1168
  H  H46  1  0.754300  0.277100  0.180200  1.0  0.1147
  H  H47  1  0.091400  0.264000  0.393800  1.0  0.1197
  H  H48  1  0.096400  0.148800  0.318800  1.0  0.0937
  H  H49  1  0.976800  0.066900  0.248100  1.0  0.1097
  H  H50  1  0.962000  0.748000  0.073600  1.0  0.112
  H  H51  1  0.310200  0.752700  0.293600  1.0  0.1196
  H  H52  1  0.021600  0.529600  0.127400  1.0  0.1241
  H  H53  1  0.366700  0.956900  0.261700  1.0  0.13
  H  H54  1  0.421300  0.876500  0.284700  1.0  0.0979
  C  C55  1  0.471000  0.675800  0.630000  1.0  0.0552
  C  C56  1  0.525400  0.756100  0.681000  1.0  -0.159
  C  C57  1  0.638700  0.670000  0.748300  1.0  0.1664
  C  C58  1  0.731600  0.822700  0.829400  1.0  0.1272
  C  C59  1  0.719800  0.904400  0.827400  1.0  -0.1612
  C  C60  1  0.825900  0.972800  0.892500  1.0  -0.0921
  C  C61  1  0.942000  0.963200  0.964700  1.0  0.0136
  C  C62  1  0.946000  0.879800  0.966300  1.0  -0.0972
  C  C63  1  0.843100  0.810800  0.900400  1.0  -0.1522
  C  C64  1  0.317500  0.304100  0.778900  1.0  0.0661
  C  C65  1  0.300300  0.226400  0.788600  1.0  -0.158
  C  C66  1  0.497100  0.317000  0.902100  1.0  0.1653
  C  C67  1  0.439700  0.166900  0.906100  1.0  0.1301
  C  C68  1  0.543900  0.184300  0.989000  1.0  -0.1667
  C  C69  1  0.566100  0.118400  0.024400  1.0  -0.0747
  C  C70  1  0.488400  0.035100  0.980400  1.0  0.016
  C  C71  1  0.383900  0.020300  0.897700  1.0  -0.0772
  C  C72  1  0.362100  0.085000  0.861500  1.0  -0.1654
  C  C73  1  0.258000  0.559700  0.776600  1.0  0.6594
  C  C74  1  0.785500  0.572700  0.525100  1.0  0.6772
  C  C75  1  0.928700  0.616700  0.606700  1.0  -0.0671
  C  C76  1  0.020800  0.569000  0.652500  1.0  -0.054
  C  C77  1  0.143800  0.609500  0.731300  1.0  -0.0911
  C  C78  1  0.168700  0.696300  0.765500  1.0  -0.1571
  C  C79  1  0.078600  0.743600  0.718600  1.0  0.2285
  C  C80  1  0.963500  0.704000  0.638800  1.0  -0.1792
  C  C81  1  0.030900  0.880900  0.712300  1.0  -0.0276
  C  C82  1  0.140300  0.902300  0.649800  1.0  0.676
  C  C83  1  0.708300  0.413300  0.731100  1.0  0.6668
  C  C84  1  0.193600  0.415800  0.986500  1.0  0.6594
  C  C85  1  0.037800  0.368100  0.910300  1.0  -0.0965
  C  C86  1  0.985600  0.280500  0.889200  1.0  -0.1749
  C  C87  1  0.856100  0.234700  0.813400  1.0  0.2357
  C  C88  1  0.772700  0.277400  0.758600  1.0  -0.1816
  C  C89  1  0.815400  0.365600  0.783200  1.0  -0.0798
  C  C90  1  0.948700  0.411400  0.857800  1.0  -0.0553
  C  C91  1  0.682200  0.095000  0.726000  1.0  -0.0917
  C  C92  1  0.752700  0.072100  0.646100  1.0  0.6873
  C  C93  1  0.529000  0.324200  0.370000  1.0  0.0602
  C  C94  1  0.474600  0.243900  0.319000  1.0  -0.1591
  C  C95  1  0.361300  0.330000  0.251700  1.0  0.1663
  C  C96  1  0.268400  0.177300  0.170600  1.0  0.1273
  C  C97  1  0.280200  0.095600  0.172600  1.0  -0.1614
  C  C98  1  0.174100  0.027200  0.107500  1.0  -0.0927
  C  C99  1  0.058000  0.036800  0.035300  1.0  0.0142
  C  C100  1  0.054000  0.120200  0.033700  1.0  -0.0831
  C  C101  1  0.156900  0.189200  0.099600  1.0  -0.1499
  C  C102  1  0.682500  0.695900  0.221100  1.0  0.0666
  C  C103  1  0.699700  0.773600  0.211400  1.0  -0.1574
  C  C104  1  0.502900  0.683000  0.097900  1.0  0.166
  C  C105  1  0.560300  0.833100  0.093900  1.0  0.1297
  C  C106  1  0.456100  0.815700  0.011000  1.0  -0.1661
  C  C107  1  0.433900  0.881600  0.975600  1.0  -0.0748
  C  C108  1  0.511600  0.964900  0.019600  1.0  0.0159
  C  C109  1  0.616100  0.979700  0.102300  1.0  -0.0729
  C  C110  1  0.637900  0.915000  0.138500  1.0  -0.166
  C  C111  1  0.742000  0.440300  0.223400  1.0  0.6586
  C  C112  1  0.214500  0.427300  0.474900  1.0  0.6759
  C  C113  1  0.071300  0.383300  0.393300  1.0  -0.0679
  C  C114  1  0.979200  0.431000  0.347500  1.0  -0.0516
  C  C115  1  0.856200  0.390500  0.268700  1.0  -0.0907
  C  C116  1  0.831300  0.303700  0.234500  1.0  -0.1575
  C  C117  1  0.921400  0.256400  0.281400  1.0  0.2293
  C  C118  1  0.036500  0.296000  0.361200  1.0  -0.1889
  C  C119  1  0.969100  0.119100  0.287700  1.0  -0.0353
  C  C120  1  0.859700  0.097700  0.350200  1.0  0.6799
  C  C121  1  0.291700  0.586700  0.268900  1.0  0.6661
  C  C122  1  0.806400  0.584200  0.013500  1.0  0.6589
  C  C123  1  0.962200  0.631900  0.089700  1.0  -0.0967
  C  C124  1  0.014400  0.719500  0.110800  1.0  -0.1739
  C  C125  1  0.143900  0.765300  0.186600  1.0  0.2361
  C  C126  1  0.227300  0.722600  0.241400  1.0  -0.1805
  C  C127  1  0.184600  0.634400  0.216800  1.0  -0.0855
  C  C128  1  0.051300  0.588600  0.142200  1.0  -0.054
  C  C129  1  0.317800  0.905000  0.274000  1.0  -0.0931
  C  C130  1  0.247300  0.927900  0.353900  1.0  0.688
  N  N131  1  0.542700  0.622000  0.672300  1.0  -0.3963
  N  N132  1  0.633200  0.752300  0.757700  1.0  0.036
  N  N133  1  0.440600  0.361800  0.850100  1.0  -0.4077
  N  N134  1  0.414500  0.234400  0.868200  1.0  0.0342
  N  N135  1  0.457300  0.378000  0.327700  1.0  -0.3926
  N  N136  1  0.366800  0.247700  0.242300  1.0  0.0361
  N  N137  1  0.559400  0.638200  0.149900  1.0  -0.4075
  N  N138  1  0.585500  0.765600  0.131800  1.0  0.0342
  O  O139  1  0.696500  0.499700  0.514700  1.0  -0.6313
  O  O140  1  0.753000  0.612600  0.469300  1.0  -0.5986
  O  O141  1  0.279000  0.488800  0.735600  1.0  -0.6485
  O  O142  1  0.337400  0.594200  0.854700  1.0  -0.5764
  O  O143  1  0.115800  0.829300  0.759200  1.0  -0.2406
  O  O144  1  0.313000  0.926100  0.673100  1.0  -0.5778
  O  O145  1  0.045600  0.897900  0.576000  1.0  -0.6041
  O  O146  1  0.685100  0.485100  0.767100  1.0  -0.6495
  O  O147  1  0.643000  0.379400  0.652000  1.0  -0.5802
  O  O148  1  0.235800  0.383900  0.046300  1.0  -0.5876
  O  O149  1  0.285500  0.486900  0.986900  1.0  -0.6602
  O  O150  1  0.822200  0.148400  0.799500  1.0  -0.2422
  O  O151  1  0.913900  0.100300  0.645100  1.0  -0.5394
  O  O152  1  0.628900  0.022800  0.580500  1.0  -0.7381
  O  O153  1  0.303500  0.500300  0.485300  1.0  -0.6288
  O  O154  1  0.247000  0.387400  0.530700  1.0  -0.6004
  O  O155  1  0.721000  0.511200  0.264400  1.0  -0.6484
  O  O156  1  0.662600  0.405800  0.145300  1.0  -0.5767
  O  O157  1  0.884200  0.170700  0.240800  1.0  -0.2401
  O  O158  1  0.687000  0.073900  0.326900  1.0  -0.5784
  O  O159  1  0.954400  0.102100  0.424000  1.0  -0.6174
  O  O160  1  0.314900  0.514900  0.232900  1.0  -0.6491
  O  O161  1  0.357000  0.620600  0.348000  1.0  -0.582
  O  O162  1  0.764200  0.616100  0.953700  1.0  -0.587
  O  O163  1  0.714500  0.513100  0.013100  1.0  -0.6602
  O  O164  1  0.177800  0.851600  0.200500  1.0  -0.2418
  O  O165  1  0.086100  0.899700  0.354900  1.0  -0.5406
  O  O166  1  0.371100  0.977200  0.419500  1.0  -0.729
