# generated using pymatgen
data_Co3H10C20O11
_symmetry_space_group_name_H-M   'P 1'
_cell_length_a   10.80600000
_cell_length_b   24.32900000
_cell_length_c   28.55400000
_cell_angle_alpha   90.00000000
_cell_angle_beta   90.00000000
_cell_angle_gamma   93.65800000
_symmetry_Int_Tables_number   1
_chemical_formula_structural   Co3H10C20O11
_chemical_formula_sum   'Co24 H80 C160 O88'
_cell_volume   7491.52902462
_cell_formula_units_Z   8
loop_
 _symmetry_equiv_pos_site_id
 _symmetry_equiv_pos_as_xyz
  1  'x, y, z'
loop_
 _atom_site_type_symbol
 _atom_site_label
 _atom_site_symmetry_multiplicity
 _atom_site_fract_x
 _atom_site_fract_y
 _atom_site_fract_z
 _atom_site_occupancy
 _atom_site_charge
  Co  Co1  1  0.437820  0.534380  0.545080  1.0  1.179
  Co  Co2  1  0.428270  0.466510  0.954830  1.0  1.1225
  Co  Co3  1  0.558450  0.419850  0.589350  1.0  1.1111
  Co  Co4  1  0.580700  0.582190  0.911300  1.0  1.1109
  Co  Co5  1  0.290200  0.463270  0.633910  1.0  1.039
  Co  Co6  1  0.302140  0.536560  0.865510  1.0  1.0204
  Co  Co7  1  0.562180  0.965620  0.045080  1.0  1.1782
  Co  Co8  1  0.571730  0.033490  0.454830  1.0  1.1216
  Co  Co9  1  0.441550  0.080150  0.089350  1.0  1.1109
  Co  Co10  1  0.419300  0.917810  0.411300  1.0  1.115
  Co  Co11  1  0.709800  0.036730  0.133910  1.0  1.0404
  Co  Co12  1  0.697860  0.963440  0.365510  1.0  1.0244
  Co  Co13  1  0.562180  0.465620  0.454920  1.0  1.1763
  Co  Co14  1  0.571730  0.533490  0.045170  1.0  1.1224
  Co  Co15  1  0.441550  0.580150  0.410650  1.0  1.1144
  Co  Co16  1  0.419300  0.417810  0.088700  1.0  1.1135
  Co  Co17  1  0.709800  0.536730  0.366090  1.0  1.0413
  Co  Co18  1  0.697860  0.463440  0.134490  1.0  1.024
  Co  Co19  1  0.437820  0.034380  0.954920  1.0  1.1766
  Co  Co20  1  0.428270  0.966510  0.545170  1.0  1.1237
  Co  Co21  1  0.558450  0.919850  0.910650  1.0  1.1065
  Co  Co22  1  0.580700  0.082190  0.588700  1.0  1.1096
  Co  Co23  1  0.290200  0.963270  0.866090  1.0  1.0414
  Co  Co24  1  0.302140  0.036560  0.634490  1.0  1.0208
  H  H25  1  0.631300  0.364800  0.856100  1.0  0.1236
  H  H26  1  0.734400  0.329600  0.794800  1.0  0.1248
  H  H27  1  0.681400  0.348200  0.720100  1.0  0.1324
  H  H28  1  0.658100  0.642600  0.643100  1.0  0.133
  H  H29  1  0.763000  0.682500  0.704400  1.0  0.1239
  H  H30  1  0.718200  0.655800  0.781000  1.0  0.1273
  H  H31  1  0.438700  0.557400  0.734800  1.0  0.1164
  H  H32  1  0.940500  0.510200  0.925300  1.0  0.1217
  H  H33  1  0.085000  0.382900  0.988600  1.0  0.1473
  H  H34  1  0.881300  0.352200  0.012700  1.0  0.1124
  H  H35  1  0.714200  0.398600  0.994000  1.0  0.1325
  H  H36  1  0.484600  0.333000  0.923100  1.0  0.1117
  H  H37  1  0.472400  0.248800  0.882300  1.0  0.1307
  H  H38  1  0.528000  0.171100  0.927900  1.0  0.1197
  H  H39  1  0.429000  0.248800  0.042700  1.0  0.1252
  H  H40  1  0.416500  0.440800  0.765400  1.0  0.1238
  H  H41  1  0.122100  0.615900  0.508900  1.0  0.1454
  H  H42  1  0.927600  0.647500  0.486200  1.0  0.1147
  H  H43  1  0.743600  0.600700  0.502900  1.0  0.15
  H  H44  1  0.932900  0.491800  0.575600  1.0  0.1193
  H  H45  1  0.368700  0.135200  0.356100  1.0  0.1234
  H  H46  1  0.265600  0.170400  0.294800  1.0  0.1245
  H  H47  1  0.318600  0.151800  0.220100  1.0  0.1326
  H  H48  1  0.341900  0.857400  0.143100  1.0  0.1339
  H  H49  1  0.237000  0.817500  0.204400  1.0  0.1237
  H  H50  1  0.281800  0.844200  0.281000  1.0  0.1272
  H  H51  1  0.561300  0.942600  0.234800  1.0  0.1163
  H  H52  1  0.059500  0.989800  0.425300  1.0  0.1222
  H  H53  1  0.915000  0.117100  0.488600  1.0  0.1473
  H  H54  1  0.118700  0.147800  0.512700  1.0  0.1123
  H  H55  1  0.285800  0.101400  0.494000  1.0  0.1322
  H  H56  1  0.515400  0.167000  0.423100  1.0  0.1117
  H  H57  1  0.527600  0.251200  0.382300  1.0  0.13
  H  H58  1  0.472000  0.328900  0.427900  1.0  0.1192
  H  H59  1  0.571000  0.251200  0.542700  1.0  0.1253
  H  H60  1  0.583500  0.059200  0.265400  1.0  0.1242
  H  H61  1  0.877900  0.884100  0.008900  1.0  0.1454
  H  H62  1  0.072400  0.852500  0.986200  1.0  0.1134
  H  H63  1  0.256400  0.899300  0.002900  1.0  0.1503
  H  H64  1  0.067100  0.008200  0.075600  1.0  0.1182
  H  H65  1  0.368700  0.635200  0.143900  1.0  0.1239
  H  H66  1  0.265600  0.670400  0.205200  1.0  0.1248
  H  H67  1  0.318600  0.651800  0.279900  1.0  0.1324
  H  H68  1  0.341900  0.357400  0.356900  1.0  0.1335
  H  H69  1  0.237000  0.317500  0.295600  1.0  0.1238
  H  H70  1  0.281800  0.344200  0.219000  1.0  0.1268
  H  H71  1  0.561300  0.442600  0.265200  1.0  0.1162
  H  H72  1  0.059500  0.489800  0.074700  1.0  0.1225
  H  H73  1  0.915000  0.617100  0.011400  1.0  0.1476
  H  H74  1  0.118700  0.647800  0.987300  1.0  0.1125
  H  H75  1  0.285800  0.601400  0.006000  1.0  0.1324
  H  H76  1  0.515400  0.667000  0.076900  1.0  0.1117
  H  H77  1  0.527600  0.751200  0.117700  1.0  0.1301
  H  H78  1  0.472000  0.828900  0.072100  1.0  0.1197
  H  H79  1  0.571000  0.751200  0.957300  1.0  0.1251
  H  H80  1  0.583500  0.559200  0.234600  1.0  0.1242
  H  H81  1  0.877900  0.384100  0.491100  1.0  0.1457
  H  H82  1  0.072400  0.352500  0.513800  1.0  0.1142
  H  H83  1  0.256400  0.399300  0.497100  1.0  0.1507
  H  H84  1  0.067100  0.508200  0.424400  1.0  0.1186
  H  H85  1  0.631300  0.864800  0.643900  1.0  0.1237
  H  H86  1  0.734400  0.829600  0.705200  1.0  0.1245
  H  H87  1  0.681400  0.848200  0.779900  1.0  0.132
  H  H88  1  0.658100  0.142600  0.856900  1.0  0.1328
  H  H89  1  0.763000  0.182500  0.795600  1.0  0.1238
  H  H90  1  0.718200  0.155800  0.719000  1.0  0.1271
  H  H91  1  0.438700  0.057400  0.765200  1.0  0.1161
  H  H92  1  0.940500  0.010200  0.574700  1.0  0.1222
  H  H93  1  0.085000  0.882900  0.511400  1.0  0.1473
  H  H94  1  0.881300  0.852200  0.487300  1.0  0.1116
  H  H95  1  0.714200  0.898600  0.506000  1.0  0.1322
  H  H96  1  0.484600  0.833000  0.576900  1.0  0.1118
  H  H97  1  0.472400  0.748800  0.617700  1.0  0.1304
  H  H98  1  0.528000  0.671100  0.572100  1.0  0.1202
  H  H99  1  0.429000  0.748800  0.457300  1.0  0.1253
  H  H100  1  0.416500  0.940800  0.734600  1.0  0.1237
  H  H101  1  0.122100  0.115900  0.991100  1.0  0.1453
  H  H102  1  0.927600  0.147500  0.013800  1.0  0.1145
  H  H103  1  0.743600  0.100700  0.997100  1.0  0.1501
  H  H104  1  0.932900  0.991800  0.924400  1.0  0.1193
  C  C105  1  0.451800  0.436100  0.857000  1.0  0.7248
  C  C106  1  0.516700  0.409300  0.817800  1.0  -0.1929
  C  C107  1  0.609900  0.373800  0.825600  1.0  -0.0729
  C  C108  1  0.669900  0.352200  0.789200  1.0  -0.1037
  C  C109  1  0.637800  0.363000  0.744600  1.0  -0.02
  C  C110  1  0.542900  0.395200  0.735000  1.0  -0.1269
  C  C111  1  0.505400  0.407200  0.686500  1.0  0.7737
  C  C112  1  0.471800  0.563500  0.643500  1.0  0.7185
  C  C113  1  0.543000  0.592200  0.681600  1.0  -0.1664
  C  C114  1  0.637400  0.632200  0.673600  1.0  -0.0659
  C  C115  1  0.699200  0.655900  0.710100  1.0  -0.0707
  C  C116  1  0.669700  0.641300  0.756500  1.0  -0.0411
  C  C117  1  0.572900  0.606800  0.765500  1.0  -0.1067
  C  C118  1  0.536400  0.591700  0.813700  1.0  0.7599
  C  C119  1  0.507000  0.581500  0.728600  1.0  -0.0261
  C  C120  1  0.706900  0.495900  0.952500  1.0  0.7209
  C  C121  1  0.809100  0.463700  0.960200  1.0  -0.0985
  C  C122  1  0.928400  0.478500  0.943400  1.0  -0.0138
  C  C123  1  0.027200  0.448300  0.952500  1.0  -0.1251
  C  C124  1  0.016400  0.401800  0.980200  1.0  -0.1106
  C  C125  1  0.892600  0.384300  0.995200  1.0  -0.0555
  C  C126  1  0.793000  0.412300  0.985000  1.0  -0.1109
  C  C127  1  0.434200  0.351300  0.013000  1.0  0.7388
  C  C128  1  0.445900  0.299200  0.986600  1.0  -0.1703
  C  C129  1  0.472000  0.299700  0.938800  1.0  -0.0299
  C  C130  1  0.478400  0.250200  0.914800  1.0  -0.0844
  C  C131  1  0.494700  0.201500  0.941600  1.0  -0.0864
  C  C132  1  0.460900  0.200200  0.987800  1.0  -0.0922
  C  C133  1  0.462000  0.148000  0.014100  1.0  0.7193
  C  C134  1  0.443100  0.249200  0.010600  1.0  0.0269
  C  C135  1  0.481600  0.418700  0.771600  1.0  -0.02
  C  C136  1  0.047800  0.551800  0.546600  1.0  -0.0322
  C  C137  1  0.163300  0.532800  0.558400  1.0  0.6437
  C  C138  1  0.048400  0.597300  0.518200  1.0  -0.1215
  C  C139  1  0.928600  0.615100  0.503400  1.0  -0.0938
  C  C140  1  0.818400  0.587800  0.512800  1.0  -0.1514
  C  C141  1  0.933000  0.522700  0.556400  1.0  -0.0456
  C  C142  1  0.708300  0.505400  0.547100  1.0  0.6856
  C  C143  1  0.157300  0.467700  0.938700  1.0  0.6745
  C  C144  1  0.823700  0.537700  0.539100  1.0  -0.1483
  C  C145  1  0.548200  0.063900  0.357000  1.0  0.725
  C  C146  1  0.483300  0.090700  0.317800  1.0  -0.1951
  C  C147  1  0.390100  0.126200  0.325600  1.0  -0.0733
  C  C148  1  0.330100  0.147800  0.289200  1.0  -0.1073
  C  C149  1  0.362200  0.137000  0.244600  1.0  -0.0221
  C  C150  1  0.457100  0.104800  0.235000  1.0  -0.1274
  C  C151  1  0.494600  0.092800  0.186500  1.0  0.7739
  C  C152  1  0.528200  0.936500  0.143500  1.0  0.7193
  C  C153  1  0.457000  0.907800  0.181600  1.0  -0.1667
  C  C154  1  0.362600  0.867800  0.173600  1.0  -0.0657
  C  C155  1  0.300800  0.844100  0.210100  1.0  -0.0718
  C  C156  1  0.330300  0.858700  0.256500  1.0  -0.0412
  C  C157  1  0.427100  0.893200  0.265500  1.0  -0.1074
  C  C158  1  0.463600  0.908300  0.313700  1.0  0.7602
  C  C159  1  0.493000  0.918500  0.228600  1.0  -0.0252
  C  C160  1  0.293100  0.004100  0.452500  1.0  0.7204
  C  C161  1  0.190900  0.036300  0.460200  1.0  -0.0977
  C  C162  1  0.071600  0.021500  0.443400  1.0  -0.0137
  C  C163  1  0.972800  0.051700  0.452500  1.0  -0.1247
  C  C164  1  0.983600  0.098200  0.480200  1.0  -0.1104
  C  C165  1  0.107400  0.115700  0.495200  1.0  -0.0488
  C  C166  1  0.207000  0.087700  0.485000  1.0  -0.1119
  C  C167  1  0.565800  0.148700  0.513000  1.0  0.7378
  C  C168  1  0.554100  0.200800  0.486600  1.0  -0.1716
  C  C169  1  0.528000  0.200300  0.438800  1.0  -0.0289
  C  C170  1  0.521600  0.249800  0.414800  1.0  -0.0851
  C  C171  1  0.505300  0.298500  0.441600  1.0  -0.087
  C  C172  1  0.539100  0.299800  0.487800  1.0  -0.0927
  C  C173  1  0.538000  0.352000  0.514100  1.0  0.7203
  C  C174  1  0.556900  0.250800  0.510600  1.0  0.028
  C  C175  1  0.518400  0.081300  0.271600  1.0  -0.0212
  C  C176  1  0.952200  0.948200  0.046600  1.0  -0.0316
  C  C177  1  0.836700  0.967200  0.058400  1.0  0.6468
  C  C178  1  0.951600  0.902700  0.018200  1.0  -0.1223
  C  C179  1  0.071400  0.884900  0.003400  1.0  -0.0987
  C  C180  1  0.181600  0.912200  0.012800  1.0  -0.1496
  C  C181  1  0.067000  0.977300  0.056400  1.0  -0.0448
  C  C182  1  0.291700  0.994600  0.047100  1.0  0.6856
  C  C183  1  0.842700  0.032300  0.438700  1.0  0.6718
  C  C184  1  0.176300  0.962300  0.039100  1.0  -0.1493
  C  C185  1  0.548200  0.563900  0.143000  1.0  0.7253
  C  C186  1  0.483300  0.590700  0.182200  1.0  -0.1952
  C  C187  1  0.390100  0.626200  0.174400  1.0  -0.0732
  C  C188  1  0.330100  0.647800  0.210800  1.0  -0.1059
  C  C189  1  0.362200  0.637000  0.255400  1.0  -0.0222
  C  C190  1  0.457100  0.604800  0.265000  1.0  -0.1257
  C  C191  1  0.494600  0.592800  0.313500  1.0  0.7731
  C  C192  1  0.528200  0.436500  0.356500  1.0  0.7206
  C  C193  1  0.457000  0.407800  0.318400  1.0  -0.1673
  C  C194  1  0.362600  0.367800  0.326400  1.0  -0.065
  C  C195  1  0.300800  0.344100  0.289900  1.0  -0.0722
  C  C196  1  0.330300  0.358700  0.243500  1.0  -0.0412
  C  C197  1  0.427100  0.393200  0.234500  1.0  -0.1087
  C  C198  1  0.463600  0.408300  0.186300  1.0  0.7601
  C  C199  1  0.493000  0.418500  0.271400  1.0  -0.0254
  C  C200  1  0.293100  0.504100  0.047500  1.0  0.7218
  C  C201  1  0.190900  0.536300  0.039800  1.0  -0.0974
  C  C202  1  0.071600  0.521500  0.056600  1.0  -0.0142
  C  C203  1  0.972800  0.551700  0.047500  1.0  -0.1197
  C  C204  1  0.983600  0.598200  0.019800  1.0  -0.1103
  C  C205  1  0.107400  0.615700  0.004800  1.0  -0.0482
  C  C206  1  0.207000  0.587700  0.015000  1.0  -0.1115
  C  C207  1  0.565800  0.648700  0.987000  1.0  0.7381
  C  C208  1  0.554100  0.700800  0.013400  1.0  -0.1709
  C  C209  1  0.528000  0.700300  0.061200  1.0  -0.0302
  C  C210  1  0.521600  0.749800  0.085200  1.0  -0.0863
  C  C211  1  0.505300  0.798500  0.058400  1.0  -0.087
  C  C212  1  0.539100  0.799800  0.012200  1.0  -0.0928
  C  C213  1  0.538000  0.852000  0.985900  1.0  0.7211
  C  C214  1  0.556900  0.750800  0.989400  1.0  0.0252
  C  C215  1  0.518400  0.581300  0.228400  1.0  -0.0218
  C  C216  1  0.952200  0.448200  0.453400  1.0  -0.0359
  C  C217  1  0.836700  0.467200  0.441600  1.0  0.6484
  C  C218  1  0.951600  0.402700  0.481800  1.0  -0.1221
  C  C219  1  0.071400  0.384900  0.496600  1.0  -0.0976
  C  C220  1  0.181600  0.412200  0.487200  1.0  -0.1502
  C  C221  1  0.067000  0.477300  0.443600  1.0  -0.0435
  C  C222  1  0.291700  0.494600  0.452900  1.0  0.6853
  C  C223  1  0.842700  0.532300  0.061300  1.0  0.6707
  C  C224  1  0.176300  0.462300  0.460900  1.0  -0.1496
  C  C225  1  0.451800  0.936100  0.643000  1.0  0.7248
  C  C226  1  0.516700  0.909300  0.682200  1.0  -0.1933
  C  C227  1  0.609900  0.873800  0.674400  1.0  -0.0736
  C  C228  1  0.669900  0.852200  0.710800  1.0  -0.1028
  C  C229  1  0.637800  0.863000  0.755400  1.0  -0.0195
  C  C230  1  0.542900  0.895200  0.765000  1.0  -0.1255
  C  C231  1  0.505400  0.907200  0.813500  1.0  0.7731
  C  C232  1  0.471800  0.063500  0.856500  1.0  0.7206
  C  C233  1  0.543000  0.092200  0.818400  1.0  -0.1668
  C  C234  1  0.637400  0.132200  0.826400  1.0  -0.0668
  C  C235  1  0.699200  0.155900  0.789900  1.0  -0.0709
  C  C236  1  0.669700  0.141300  0.743500  1.0  -0.0412
  C  C237  1  0.572900  0.106800  0.734500  1.0  -0.1083
  C  C238  1  0.536400  0.091700  0.686300  1.0  0.7604
  C  C239  1  0.507000  0.081500  0.771400  1.0  -0.0259
  C  C240  1  0.706900  0.995900  0.547500  1.0  0.7214
  C  C241  1  0.809100  0.963700  0.539800  1.0  -0.0981
  C  C242  1  0.928400  0.978500  0.556600  1.0  -0.0143
  C  C243  1  0.027200  0.948300  0.547500  1.0  -0.1216
  C  C244  1  0.016400  0.901800  0.519800  1.0  -0.1103
  C  C245  1  0.892600  0.884300  0.504800  1.0  -0.056
  C  C246  1  0.793000  0.912300  0.515000  1.0  -0.111
  C  C247  1  0.434200  0.851300  0.487000  1.0  0.7392
  C  C248  1  0.445900  0.799200  0.513400  1.0  -0.1695
  C  C249  1  0.472000  0.799700  0.561200  1.0  -0.0296
  C  C250  1  0.478400  0.750200  0.585200  1.0  -0.0864
  C  C251  1  0.494700  0.701500  0.558400  1.0  -0.0874
  C  C252  1  0.460900  0.700200  0.512200  1.0  -0.0931
  C  C253  1  0.462000  0.648000  0.485900  1.0  0.7201
  C  C254  1  0.443100  0.749200  0.489400  1.0  0.0271
  C  C255  1  0.481600  0.918700  0.728400  1.0  -0.0205
  C  C256  1  0.047800  0.051800  0.953400  1.0  -0.0364
  C  C257  1  0.163300  0.032800  0.941600  1.0  0.6438
  C  C258  1  0.048400  0.097300  0.981800  1.0  -0.1208
  C  C259  1  0.928600  0.115100  0.996600  1.0  -0.0938
  C  C260  1  0.818400  0.087800  0.987200  1.0  -0.1516
  C  C261  1  0.933000  0.022700  0.943600  1.0  -0.0453
  C  C262  1  0.708300  0.005400  0.952900  1.0  0.6857
  C  C263  1  0.157300  0.967700  0.561300  1.0  0.6732
  C  C264  1  0.823700  0.037700  0.960900  1.0  -0.149
  O  O265  1  0.452000  0.394000  0.992400  1.0  -0.6297
  O  O266  1  0.247600  0.445700  0.952100  1.0  -0.57
  O  O267  1  0.481600  0.105000  0.993600  1.0  -0.6455
  O  O268  1  0.716100  0.535100  0.923200  1.0  -0.5841
  O  O269  1  0.610600  0.488700  0.978600  1.0  -0.6809
  O  O270  1  0.499000  0.433700  0.897000  1.0  -0.5765
  O  O271  1  0.360500  0.459600  0.846600  1.0  -0.5922
  O  O272  1  0.432800  0.567200  0.818500  1.0  -0.6682
  O  O273  1  0.605900  0.603800  0.845900  1.0  -0.5418
  O  O274  1  0.517000  0.568300  0.602900  1.0  -0.5887
  O  O275  1  0.377900  0.538600  0.653900  1.0  -0.5897
  O  O276  1  0.263400  0.556200  0.547400  1.0  -0.5864
  O  O277  1  0.158200  0.493400  0.592300  1.0  -0.6408
  O  O278  1  0.404200  0.428500  0.681100  1.0  -0.6873
  O  O279  1  0.578100  0.400400  0.655500  1.0  -0.5569
  O  O280  1  0.614600  0.512500  0.521100  1.0  -0.6804
  O  O281  1  0.707700  0.467200  0.578300  1.0  -0.5798
  O  O282  1  0.439200  0.151400  0.056900  1.0  -0.5761
  O  O283  1  0.408400  0.457600  0.576600  1.0  -0.7586
  O  O284  1  0.418600  0.543300  0.923700  1.0  -0.7547
  O  O285  1  0.406600  0.346600  0.055800  1.0  -0.5961
  O  O286  1  0.161200  0.508400  0.907100  1.0  -0.6451
  O  O287  1  0.548000  0.106000  0.492400  1.0  -0.629
  O  O288  1  0.752400  0.054300  0.452100  1.0  -0.5697
  O  O289  1  0.518400  0.395000  0.493600  1.0  -0.6453
  O  O290  1  0.283900  0.964900  0.423200  1.0  -0.5829
  O  O291  1  0.389400  0.011300  0.478600  1.0  -0.6813
  O  O292  1  0.501000  0.066300  0.397000  1.0  -0.5766
  O  O293  1  0.639500  0.040400  0.346600  1.0  -0.5918
  O  O294  1  0.567200  0.932800  0.318500  1.0  -0.6666
  O  O295  1  0.394100  0.896200  0.345900  1.0  -0.5415
  O  O296  1  0.483000  0.931700  0.102900  1.0  -0.5885
  O  O297  1  0.622100  0.961400  0.153900  1.0  -0.5898
  O  O298  1  0.736600  0.943800  0.047400  1.0  -0.5855
  O  O299  1  0.841800  0.006600  0.092300  1.0  -0.6385
  O  O300  1  0.595800  0.071500  0.181100  1.0  -0.6832
  O  O301  1  0.421900  0.099600  0.155500  1.0  -0.5565
  O  O302  1  0.385400  0.987500  0.021100  1.0  -0.6814
  O  O303  1  0.292300  0.032800  0.078300  1.0  -0.5809
  O  O304  1  0.560800  0.348600  0.556900  1.0  -0.576
  O  O305  1  0.591600  0.042400  0.076600  1.0  -0.7595
  O  O306  1  0.581400  0.956700  0.423700  1.0  -0.7545
  O  O307  1  0.593400  0.153400  0.555800  1.0  -0.5923
  O  O308  1  0.838800  0.991600  0.407100  1.0  -0.6433
  O  O309  1  0.548000  0.606000  0.007600  1.0  -0.6292
  O  O310  1  0.752400  0.554300  0.047900  1.0  -0.569
  O  O311  1  0.518400  0.895000  0.006400  1.0  -0.6448
  O  O312  1  0.283900  0.464900  0.076800  1.0  -0.5846
  O  O313  1  0.389400  0.511300  0.021400  1.0  -0.6814
  O  O314  1  0.501000  0.566300  0.103000  1.0  -0.5771
  O  O315  1  0.639500  0.540400  0.153400  1.0  -0.5926
  O  O316  1  0.567200  0.432800  0.181500  1.0  -0.6661
  O  O317  1  0.394100  0.396200  0.154100  1.0  -0.5417
  O  O318  1  0.483000  0.431700  0.397100  1.0  -0.5882
  O  O319  1  0.622100  0.461400  0.346100  1.0  -0.5896
  O  O320  1  0.736600  0.443800  0.452600  1.0  -0.5847
  O  O321  1  0.841800  0.506600  0.407700  1.0  -0.6426
  O  O322  1  0.595800  0.571500  0.318900  1.0  -0.6838
  O  O323  1  0.421900  0.599600  0.344500  1.0  -0.5559
  O  O324  1  0.385400  0.487500  0.478900  1.0  -0.6811
  O  O325  1  0.292300  0.532800  0.421700  1.0  -0.5798
  O  O326  1  0.560800  0.848600  0.943100  1.0  -0.575
  O  O327  1  0.591600  0.542400  0.423400  1.0  -0.7591
  O  O328  1  0.581400  0.456700  0.076300  1.0  -0.7548
  O  O329  1  0.593400  0.653400  0.944200  1.0  -0.5958
  O  O330  1  0.838800  0.491600  0.092900  1.0  -0.6403
  O  O331  1  0.452000  0.894000  0.507600  1.0  -0.6297
  O  O332  1  0.247600  0.945700  0.547900  1.0  -0.5696
  O  O333  1  0.481600  0.605000  0.506400  1.0  -0.6449
  O  O334  1  0.716100  0.035100  0.576800  1.0  -0.5811
  O  O335  1  0.610600  0.988700  0.521400  1.0  -0.681
  O  O336  1  0.499000  0.933700  0.603000  1.0  -0.5773
  O  O337  1  0.360500  0.959600  0.653400  1.0  -0.5924
  O  O338  1  0.432800  0.067200  0.681500  1.0  -0.6678
  O  O339  1  0.605900  0.103800  0.654100  1.0  -0.5425
  O  O340  1  0.517000  0.068300  0.897100  1.0  -0.589
  O  O341  1  0.377900  0.038600  0.846100  1.0  -0.5896
  O  O342  1  0.263400  0.056200  0.952600  1.0  -0.5854
  O  O343  1  0.158200  0.993400  0.907700  1.0  -0.6404
  O  O344  1  0.404200  0.928500  0.818900  1.0  -0.6875
  O  O345  1  0.578100  0.900400  0.844500  1.0  -0.5567
  O  O346  1  0.614600  0.012500  0.978900  1.0  -0.6803
  O  O347  1  0.707700  0.967200  0.921700  1.0  -0.5795
  O  O348  1  0.439200  0.651400  0.443100  1.0  -0.5753
  O  O349  1  0.408400  0.957600  0.923400  1.0  -0.7582
  O  O350  1  0.418600  0.043300  0.576300  1.0  -0.755
  O  O351  1  0.406600  0.846600  0.444200  1.0  -0.5932
  O  O352  1  0.161200  0.008400  0.592900  1.0  -0.6426
