# generated using pymatgen
data_Ag8H20(C6N5)5
_symmetry_space_group_name_H-M   'P 1'
_cell_length_a   12.02160000
_cell_length_b   13.93790000
_cell_length_c   22.76580000
_cell_angle_alpha   95.82500000
_cell_angle_beta   104.72200000
_cell_angle_gamma   104.03600000
_symmetry_Int_Tables_number   1
_chemical_formula_structural   Ag8H20(C6N5)5
_chemical_formula_sum   'Ag16 H40 C60 N50'
_cell_volume   3524.65824607
_cell_formula_units_Z   2
loop_
 _symmetry_equiv_pos_site_id
 _symmetry_equiv_pos_as_xyz
  1  'x, y, z'
loop_
 _atom_site_type_symbol
 _atom_site_label
 _atom_site_symmetry_multiplicity
 _atom_site_fract_x
 _atom_site_fract_y
 _atom_site_fract_z
 _atom_site_occupancy
 _atom_site_charge
  Ag  Ag1  1  0.291400  0.201300  0.847360  1.0  -0.2521
  Ag  Ag2  1  0.186240  0.425350  0.559080  1.0  0.3133
  Ag  Ag3  1  0.022760  0.844390  0.696860  1.0  0.38
  Ag  Ag4  1  0.484990  0.056710  0.914520  1.0  0.2363
  Ag  Ag5  1  0.136130  0.997460  0.857050  1.0  0.1262
  Ag  Ag6  1  0.148480  0.660930  0.998920  1.0  0.2142
  Ag  Ag7  1  0.596780  0.880590  0.823670  1.0  0.369
  Ag  Ag8  1  0.685600  0.172650  0.064930  1.0  0.1458
  Ag  Ag9  1  0.708600  0.798700  0.152640  1.0  -0.2532
  Ag  Ag10  1  0.813760  0.574650  0.440920  1.0  0.3131
  Ag  Ag11  1  0.977240  0.155610  0.303140  1.0  0.3799
  Ag  Ag12  1  0.515010  0.943290  0.085480  1.0  0.2348
  Ag  Ag13  1  0.863870  0.002540  0.142950  1.0  0.125
  Ag  Ag14  1  0.851520  0.339070  0.001080  1.0  0.2156
  Ag  Ag15  1  0.403220  0.119410  0.176330  1.0  0.3675
  Ag  Ag16  1  0.314400  0.827350  0.935070  1.0  0.147
  H  H17  1  0.446500  0.463400  0.086100  1.0  0.144
  H  H18  1  0.270700  0.380300  0.904300  1.0  0.1271
  H  H19  1  0.766700  0.752200  0.914400  1.0  0.1129
  H  H20  1  0.150100  0.637100  0.569000  1.0  0.0927
  H  H21  1  0.998500  0.954500  0.057400  1.0  0.1063
  H  H22  1  0.406000  0.675000  0.761000  1.0  0.1212
  H  H23  1  0.188000  0.781000  0.638300  1.0  0.1078
  H  H24  1  0.430900  0.776100  0.598000  1.0  0.0826
  H  H25  1  0.790400  0.702900  0.657200  1.0  0.1208
  H  H26  1  0.647800  0.624400  0.563700  1.0  0.0855
  H  H27  1  0.131200  0.861900  0.058900  1.0  0.0953
  H  H28  1  0.560800  0.851000  0.691800  1.0  0.1156
  H  H29  1  0.061600  0.030400  0.622800  1.0  0.1171
  H  H30  1  0.182200  0.503600  0.912400  1.0  0.067
  H  H31  1  0.164200  0.905900  0.483200  1.0  0.1321
  H  H32  1  0.346600  0.589600  0.085700  1.0  0.0759
  H  H33  1  0.350600  0.526000  0.689800  1.0  0.0881
  H  H34  1  0.198400  0.179000  0.627000  1.0  0.073
  H  H35  1  0.303100  0.059000  0.495200  1.0  0.0823
  H  H36  1  0.901700  0.664200  0.921000  1.0  0.0667
  H  H37  1  0.553500  0.536600  0.913900  1.0  0.1438
  H  H38  1  0.729300  0.619700  0.095700  1.0  0.1266
  H  H39  1  0.233300  0.247800  0.085600  1.0  0.1127
  H  H40  1  0.849900  0.362900  0.431000  1.0  0.0923
  H  H41  1  0.001500  0.045500  0.942600  1.0  0.1065
  H  H42  1  0.594000  0.325000  0.239000  1.0  0.1215
  H  H43  1  0.812000  0.219000  0.361700  1.0  0.1076
  H  H44  1  0.569100  0.223900  0.402000  1.0  0.0842
  H  H45  1  0.209600  0.297100  0.342800  1.0  0.1251
  H  H46  1  0.352200  0.375600  0.436300  1.0  0.0856
  H  H47  1  0.868800  0.138100  0.941100  1.0  0.0933
  H  H48  1  0.439200  0.149000  0.308200  1.0  0.1157
  H  H49  1  0.938400  0.969600  0.377200  1.0  0.1165
  H  H50  1  0.817800  0.496400  0.087600  1.0  0.0668
  H  H51  1  0.835800  0.094100  0.516800  1.0  0.1336
  H  H52  1  0.653400  0.410400  0.914300  1.0  0.0752
  H  H53  1  0.649400  0.474000  0.310200  1.0  0.0884
  H  H54  1  0.801600  0.821000  0.373000  1.0  0.0731
  H  H55  1  0.696900  0.941000  0.504800  1.0  0.0818
  H  H56  1  0.098300  0.335800  0.079000  1.0  0.0673
  C  C57  1  0.419000  0.323800  0.993400  1.0  0.2402
  C  C58  1  0.392000  0.469900  0.050600  1.0  -0.1886
  C  C59  1  0.287000  0.420700  0.942200  1.0  -0.1563
  C  C60  1  0.691300  0.785000  0.683300  1.0  0.0122
  C  C61  1  0.777300  0.919300  0.988300  1.0  0.2756
  C  C62  1  0.840000  0.775500  0.945000  1.0  -0.1657
  C  C63  1  0.199100  0.643600  0.608800  1.0  0.1111
  C  C64  1  0.976800  0.895200  0.029300  1.0  -0.156
  C  C65  1  0.350200  0.666900  0.722900  1.0  -0.1811
  C  C66  1  0.862800  0.863300  0.986500  1.0  0.0055
  C  C67  1  0.295600  0.742100  0.707300  1.0  0.0035
  C  C68  1  0.309700  0.828500  0.755000  1.0  0.3125
  C  C69  1  0.223000  0.730500  0.650100  1.0  -0.138
  C  C70  1  0.362000  0.404800  0.994200  1.0  0.0214
  C  C71  1  0.503300  0.760600  0.610800  1.0  0.1881
  C  C72  1  0.717400  0.717900  0.646000  1.0  -0.1638
  C  C73  1  0.632000  0.671400  0.590000  1.0  0.2084
  C  C74  1  0.017000  0.852900  0.548500  1.0  0.3224
  C  C75  1  0.100000  0.949200  0.555200  1.0  0.0226
  C  C76  1  0.056200  0.839600  0.030000  1.0  0.1189
  C  C77  1  0.580000  0.806200  0.665700  1.0  -0.1693
  C  C78  1  0.110000  0.034200  0.596800  1.0  -0.1506
  C  C79  1  0.777300  0.839200  0.742000  1.0  0.2829
  C  C80  1  0.237000  0.496000  0.947500  1.0  0.129
  C  C81  1  0.172000  0.959100  0.513600  1.0  -0.1795
  C  C82  1  0.333000  0.546800  0.048900  1.0  0.1333
  C  C83  1  0.318000  0.578300  0.679200  1.0  0.1434
  C  C84  1  0.192000  0.122800  0.599300  1.0  0.2063
  C  C85  1  0.253000  0.051100  0.520700  1.0  0.1683
  C  C86  1  0.922000  0.723700  0.948800  1.0  0.1315
  C  C87  1  0.581000  0.676200  0.006600  1.0  0.2406
  C  C88  1  0.608000  0.530100  0.949400  1.0  -0.1843
  C  C89  1  0.713000  0.579300  0.057800  1.0  -0.1583
  C  C90  1  0.308700  0.215000  0.316700  1.0  0.0148
  C  C91  1  0.222700  0.080700  0.011700  1.0  0.2759
  C  C92  1  0.160000  0.224500  0.055000  1.0  -0.164
  C  C93  1  0.800900  0.356400  0.391200  1.0  0.1108
  C  C94  1  0.023200  0.104800  0.970700  1.0  -0.1556
  C  C95  1  0.649800  0.333100  0.277100  1.0  -0.1771
  C  C96  1  0.137200  0.136700  0.013500  1.0  0.0056
  C  C97  1  0.704400  0.257900  0.292700  1.0  0.0025
  C  C98  1  0.690300  0.171500  0.245000  1.0  0.3125
  C  C99  1  0.777000  0.269500  0.349900  1.0  -0.1402
  C  C100  1  0.638000  0.595200  0.005800  1.0  0.0199
  C  C101  1  0.496700  0.239400  0.389200  1.0  0.1874
  C  C102  1  0.282600  0.282100  0.354000  1.0  -0.1654
  C  C103  1  0.368000  0.328600  0.410000  1.0  0.2093
  C  C104  1  0.983000  0.147100  0.451500  1.0  0.3217
  C  C105  1  0.900000  0.050800  0.444800  1.0  0.0231
  C  C106  1  0.943800  0.160400  0.970000  1.0  0.1163
  C  C107  1  0.420000  0.193800  0.334300  1.0  -0.1683
  C  C108  1  0.890000  0.965800  0.403200  1.0  -0.1518
  C  C109  1  0.222700  0.160800  0.258000  1.0  0.283
  C  C110  1  0.763000  0.504000  0.052500  1.0  0.1314
  C  C111  1  0.828000  0.040900  0.486400  1.0  -0.1806
  C  C112  1  0.667000  0.453200  0.951100  1.0  0.1335
  C  C113  1  0.682000  0.421700  0.320800  1.0  0.1445
  C  C114  1  0.808000  0.877200  0.400700  1.0  0.2044
  C  C115  1  0.747000  0.948900  0.479300  1.0  0.1722
  C  C116  1  0.078000  0.276300  0.051200  1.0  0.1337
  N  N117  1  0.973900  0.786600  0.496300  1.0  -0.3309
  N  N118  1  0.754100  0.878100  0.793000  1.0  -0.2268
  N  N119  1  0.217600  0.868800  0.755500  1.0  -0.3015
  N  N120  1  0.028300  0.752100  0.989300  1.0  -0.2955
  N  N121  1  0.944600  0.914000  0.810900  1.0  0.0214
  N  N122  1  0.371800  0.941600  0.833000  1.0  -0.0049
  N  N123  1  0.976100  0.814300  0.593000  1.0  -0.2588
  N  N124  1  0.262200  0.940700  0.807200  1.0  -0.0047
  N  N125  1  0.898600  0.860500  0.753400  1.0  -0.2935
  N  N126  1  0.784000  0.981700  0.038900  1.0  -0.2336
  N  N127  1  0.245400  0.567500  0.624700  1.0  -0.3046
  N  N128  1  0.683600  0.920800  0.940000  1.0  -0.2729
  N  N129  1  0.471800  0.195600  0.963900  1.0  -0.0297
  N  N130  1  0.404300  0.871900  0.801500  1.0  -0.2647
  N  N131  1  0.634000  0.985100  0.962100  1.0  -0.0658
  N  N132  1  0.529100  0.692600  0.573700  1.0  -0.4517
  N  N133  1  0.693000  0.024400  0.022900  1.0  -0.0554
  N  N134  1  0.859200  0.924400  0.836400  1.0  -0.2258
  N  N135  1  0.536600  0.233600  0.022000  1.0  0.027
  N  N136  1  0.398600  0.249900  0.945400  1.0  -0.1319
  N  N137  1  0.899400  0.721400  0.566500  1.0  -0.2012
  N  N138  1  0.504500  0.312000  0.042300  1.0  -0.3495
  N  N139  1  0.263000  0.130300  0.563000  1.0  -0.4569
  N  N140  1  0.901700  0.708300  0.507900  1.0  0.0535
  N  N141  1  0.259600  0.561900  0.999500  1.0  -0.2782
  N  N142  1  0.026100  0.213400  0.503700  1.0  -0.3329
  N  N143  1  0.245900  0.121900  0.207000  1.0  -0.2256
  N  N144  1  0.782400  0.131200  0.244500  1.0  -0.3023
  N  N145  1  0.971700  0.247900  0.010700  1.0  -0.2965
  N  N146  1  0.055400  0.086000  0.189100  1.0  0.0205
  N  N147  1  0.628200  0.058400  0.167000  1.0  -0.0034
  N  N148  1  0.023900  0.185700  0.407000  1.0  -0.2575
  N  N149  1  0.737800  0.059300  0.192800  1.0  -0.0066
  N  N150  1  0.101400  0.139500  0.246600  1.0  -0.2903
  N  N151  1  0.216000  0.018300  0.961100  1.0  -0.2342
  N  N152  1  0.754600  0.432500  0.375300  1.0  -0.3063
  N  N153  1  0.316400  0.079200  0.060000  1.0  -0.2706
  N  N154  1  0.528200  0.804400  0.036100  1.0  -0.0338
  N  N155  1  0.595700  0.128100  0.198500  1.0  -0.2653
  N  N156  1  0.366000  0.014900  0.037900  1.0  -0.0654
  N  N157  1  0.470900  0.307400  0.426300  1.0  -0.4519
  N  N158  1  0.307000  0.975600  0.977100  1.0  -0.0547
  N  N159  1  0.140800  0.075600  0.163600  1.0  -0.2231
  N  N160  1  0.463400  0.766400  0.978000  1.0  0.0273
  N  N161  1  0.601400  0.750100  0.054600  1.0  -0.1328
  N  N162  1  0.100600  0.278600  0.433500  1.0  -0.2124
  N  N163  1  0.495500  0.688000  0.957700  1.0  -0.3497
  N  N164  1  0.737000  0.869700  0.437000  1.0  -0.4551
  N  N165  1  0.098300  0.291700  0.492100  1.0  0.0555
  N  N166  1  0.740400  0.438100  0.000500  1.0  -0.2765
