# generated using pymatgen
data_La2H7C15O14
_symmetry_space_group_name_H-M   'P 1'
_cell_length_a   10.56720000
_cell_length_b   14.54180000
_cell_length_c   17.05740000
_cell_angle_alpha   69.38190000
_cell_angle_beta   71.95550000
_cell_angle_gamma   68.69460000
_symmetry_Int_Tables_number   1
_chemical_formula_structural   La2H7C15O14
_chemical_formula_sum   'La8 H28 C60 O56'
_cell_volume   2235.35978323
_cell_formula_units_Z   4
loop_
 _symmetry_equiv_pos_site_id
 _symmetry_equiv_pos_as_xyz
  1  'x, y, z'
loop_
 _atom_site_type_symbol
 _atom_site_label
 _atom_site_symmetry_multiplicity
 _atom_site_fract_x
 _atom_site_fract_y
 _atom_site_fract_z
 _atom_site_occupancy
 _atom_site_charge
  La  La1  1  0.238020  0.798080  0.865840  1.0  2.1445
  La  La2  1  0.942260  0.931260  0.714700  1.0  2.1851
  La  La3  1  0.901940  0.701920  0.634160  1.0  2.1441
  La  La4  1  0.588220  0.568740  0.785300  1.0  2.1826
  La  La5  1  0.761980  0.201920  0.134160  1.0  2.1462
  La  La6  1  0.057740  0.068740  0.285300  1.0  2.1844
  La  La7  1  0.098060  0.298080  0.365840  1.0  2.1422
  La  La8  1  0.411780  0.431260  0.214700  1.0  2.1833
  H  H9  1  0.145900  0.881100  0.984100  1.0  0.3942
  H  H10  1  0.052800  0.878200  0.942600  1.0  0.3416
  H  H11  1  0.445100  0.614400  0.969800  1.0  0.4551
  H  H12  1  0.518200  0.671900  0.936500  1.0  0.4563
  H  H13  1  0.331600  0.185500  0.541300  1.0  0.1014
  H  H14  1  0.546500  0.134800  0.573800  1.0  0.1153
  H  H15  1  0.247200  0.162300  0.766100  1.0  0.1099
  H  H16  1  0.011100  0.618900  0.515900  1.0  0.3946
  H  H17  1  0.873600  0.621800  0.557400  1.0  0.339
  H  H18  1  0.029300  0.885600  0.530200  1.0  0.4547
  H  H19  1  0.126600  0.828100  0.563500  1.0  0.4577
  H  H20  1  0.058400  0.314500  0.958700  1.0  0.101
  H  H21  1  0.255100  0.365200  0.926200  1.0  0.1146
  H  H22  1  0.175600  0.337700  0.733900  1.0  0.1093
  H  H23  1  0.854100  0.118900  0.015900  1.0  0.3958
  H  H24  1  0.947200  0.121800  0.057400  1.0  0.3457
  H  H25  1  0.554900  0.385600  0.030200  1.0  0.4547
  H  H26  1  0.481800  0.328100  0.063500  1.0  0.4579
  H  H27  1  0.668400  0.814500  0.458700  1.0  0.1014
  H  H28  1  0.453500  0.865200  0.426200  1.0  0.1138
  H  H29  1  0.752800  0.837700  0.233900  1.0  0.1094
  H  H30  1  0.988900  0.381100  0.484100  1.0  0.392
  H  H31  1  0.126400  0.378200  0.442600  1.0  0.3391
  H  H32  1  0.970700  0.114400  0.469800  1.0  0.4553
  H  H33  1  0.873400  0.171900  0.436500  1.0  0.4581
  H  H34  1  0.941600  0.685500  0.041300  1.0  0.1007
  H  H35  1  0.744900  0.634800  0.073800  1.0  0.1156
  H  H36  1  0.824400  0.662300  0.266100  1.0  0.1087
  C  C37  1  0.299700  0.047000  0.582800  1.0  -0.151
  C  C38  1  0.371200  0.116500  0.566100  1.0  -0.0223
  C  C39  1  0.500700  0.086100  0.585300  1.0  -0.0357
  C  C40  1  0.562500  0.983500  0.621700  1.0  -0.0902
  C  C41  1  0.491800  0.912200  0.640200  1.0  -0.1026
  C  C42  1  0.358900  0.943800  0.621400  1.0  -0.0652
  C  C43  1  0.163300  0.083700  0.556500  1.0  0.7843
  C  C44  1  0.286400  0.864400  0.640800  1.0  0.6933
  C  C45  1  0.543100  0.800300  0.681900  1.0  0.7653
  C  C46  1  0.703800  0.955200  0.640200  1.0  0.6812
  C  C47  1  0.155800  0.197500  0.760900  1.0  -0.0531
  C  C48  1  0.064800  0.143700  0.775100  1.0  -0.1397
  C  C49  1  0.929400  0.196900  0.763900  1.0  -0.0399
  C  C50  1  0.114800  0.027800  0.801400  1.0  0.7115
  C  C51  1  0.822800  0.139900  0.786700  1.0  0.7269
  C  C52  1  0.929500  0.453000  0.917200  1.0  -0.1526
  C  C53  1  0.053800  0.383500  0.933900  1.0  -0.0241
  C  C54  1  0.172100  0.413900  0.914700  1.0  -0.0348
  C  C55  1  0.167700  0.516500  0.878300  1.0  -0.0937
  C  C56  1  0.044200  0.587800  0.859800  1.0  -0.1033
  C  C57  1  0.924100  0.556200  0.878600  1.0  -0.0649
  C  C58  1  0.803500  0.416300  0.943500  1.0  0.7848
  C  C59  1  0.791600  0.635600  0.859200  1.0  0.6924
  C  C60  1  0.025300  0.699700  0.818100  1.0  0.7654
  C  C61  1  0.299200  0.544800  0.859800  1.0  0.6751
  C  C62  1  0.114200  0.302500  0.739100  1.0  -0.0525
  C  C63  1  0.983600  0.356300  0.724900  1.0  -0.1415
  C  C64  1  0.890200  0.303100  0.736100  1.0  -0.0398
  C  C65  1  0.944000  0.472200  0.698600  1.0  0.7111
  C  C66  1  0.749400  0.360100  0.713300  1.0  0.7261
  C  C67  1  0.700300  0.953000  0.417200  1.0  -0.1519
  C  C68  1  0.628800  0.883500  0.433900  1.0  -0.0214
  C  C69  1  0.499300  0.913900  0.414700  1.0  -0.0344
  C  C70  1  0.437500  0.016500  0.378300  1.0  -0.093
  C  C71  1  0.508200  0.087800  0.359800  1.0  -0.103
  C  C72  1  0.641100  0.056200  0.378600  1.0  -0.0652
  C  C73  1  0.836700  0.916300  0.443500  1.0  0.7852
  C  C74  1  0.713600  0.135600  0.359200  1.0  0.6929
  C  C75  1  0.456900  0.199700  0.318100  1.0  0.7656
  C  C76  1  0.296200  0.044800  0.359800  1.0  0.6801
  C  C77  1  0.844200  0.802500  0.239100  1.0  -0.0539
  C  C78  1  0.935200  0.856300  0.224900  1.0  -0.1404
  C  C79  1  0.070600  0.803100  0.236100  1.0  -0.0399
  C  C80  1  0.885200  0.972200  0.198600  1.0  0.7114
  C  C81  1  0.177200  0.860100  0.213300  1.0  0.7221
  C  C82  1  0.070500  0.547000  0.082800  1.0  -0.1506
  C  C83  1  0.946200  0.616500  0.066100  1.0  -0.0244
  C  C84  1  0.827900  0.586100  0.085300  1.0  -0.0354
  C  C85  1  0.832300  0.483500  0.121700  1.0  -0.0943
  C  C86  1  0.955800  0.412200  0.140200  1.0  -0.1034
  C  C87  1  0.075900  0.443800  0.121400  1.0  -0.0652
  C  C88  1  0.196500  0.583700  0.056500  1.0  0.7828
  C  C89  1  0.208400  0.364400  0.140800  1.0  0.6932
  C  C90  1  0.974700  0.300300  0.181900  1.0  0.7657
  C  C91  1  0.700800  0.455200  0.140200  1.0  0.6754
  C  C92  1  0.885800  0.697500  0.260900  1.0  -0.053
  C  C93  1  0.016400  0.643700  0.275100  1.0  -0.1416
  C  C94  1  0.109800  0.696900  0.263900  1.0  -0.0389
  C  C95  1  0.056000  0.527800  0.301400  1.0  0.711
  C  C96  1  0.250600  0.639900  0.286700  1.0  0.723
  O  O97  1  0.077700  0.032800  0.590600  1.0  -0.6517
  O  O98  1  0.141200  0.165400  0.499200  1.0  -0.7233
  O  O99  1  0.198500  0.852000  0.711200  1.0  -0.8179
  O  O100  1  0.315600  0.814300  0.588700  1.0  -0.5513
  O  O101  1  0.469900  0.767100  0.755100  1.0  -0.7651
  O  O102  1  0.643100  0.739800  0.646600  1.0  -0.7274
  O  O103  1  0.758700  0.864700  0.680300  1.0  -0.7776
  O  O104  1  0.763300  0.023100  0.617300  1.0  -0.6081
  O  O105  1  0.238400  0.985700  0.807900  1.0  -0.6557
  O  O106  1  0.031800  0.975600  0.816400  1.0  -0.7551
  O  O107  1  0.817200  0.101600  0.733800  1.0  -0.7333
  O  O108  1  0.746300  0.137500  0.858700  1.0  -0.6025
  O  O109  1  0.065700  0.875900  0.990100  1.0  -0.6878
  O  O110  1  0.472800  0.648000  0.919000  1.0  -0.9125
  O  O111  1  0.701100  0.467200  0.909400  1.0  -0.6535
  O  O112  1  0.805800  0.334600  0.000800  1.0  -0.718
  O  O113  1  0.761700  0.648000  0.788800  1.0  -0.8173
  O  O114  1  0.718600  0.685700  0.911300  1.0  -0.5522
  O  O115  1  0.992100  0.732900  0.744900  1.0  -0.7652
  O  O116  1  0.029500  0.760200  0.853400  1.0  -0.7263
  O  O117  1  0.303700  0.635300  0.819700  1.0  -0.77
  O  O118  1  0.403700  0.476900  0.882700  1.0  -0.6062
  O  O119  1  0.032000  0.514300  0.692100  1.0  -0.655
  O  O120  1  0.823800  0.524400  0.683600  1.0  -0.7552
  O  O121  1  0.652600  0.398400  0.766200  1.0  -0.7316
  O  O122  1  0.742500  0.362500  0.641300  1.0  -0.5977
  O  O123  1  0.931700  0.624100  0.509900  1.0  -0.6852
  O  O124  1  0.039800  0.852000  0.581000  1.0  -0.9158
  O  O125  1  0.922300  0.967200  0.409400  1.0  -0.6504
  O  O126  1  0.858800  0.834600  0.500800  1.0  -0.72
  O  O127  1  0.801500  0.148000  0.288800  1.0  -0.8172
  O  O128  1  0.684400  0.185700  0.411300  1.0  -0.5487
  O  O129  1  0.530100  0.232900  0.244900  1.0  -0.7659
  O  O130  1  0.356900  0.260200  0.353400  1.0  -0.7262
  O  O131  1  0.241300  0.135300  0.319700  1.0  -0.7688
  O  O132  1  0.236700  0.976900  0.382700  1.0  -0.6095
  O  O133  1  0.761600  0.014300  0.192100  1.0  -0.6549
  O  O134  1  0.968200  0.024400  0.183600  1.0  -0.7543
  O  O135  1  0.182800  0.898400  0.266200  1.0  -0.7257
  O  O136  1  0.253700  0.862500  0.141300  1.0  -0.6021
  O  O137  1  0.934300  0.124100  0.009900  1.0  -0.6869
  O  O138  1  0.527200  0.352000  0.081000  1.0  -0.9097
  O  O139  1  0.298900  0.532800  0.090600  1.0  -0.6539
  O  O140  1  0.194200  0.665400  0.999200  1.0  -0.7223
  O  O141  1  0.238300  0.352000  0.211200  1.0  -0.8166
  O  O142  1  0.281400  0.314300  0.088700  1.0  -0.555
  O  O143  1  0.007900  0.267100  0.255100  1.0  -0.7649
  O  O144  1  0.970500  0.239800  0.146600  1.0  -0.7268
  O  O145  1  0.696300  0.364700  0.180300  1.0  -0.7707
  O  O146  1  0.596300  0.523100  0.117300  1.0  -0.6046
  O  O147  1  0.968000  0.485700  0.307900  1.0  -0.6584
  O  O148  1  0.176200  0.475600  0.316400  1.0  -0.751
  O  O149  1  0.347400  0.601600  0.233800  1.0  -0.7325
  O  O150  1  0.257500  0.637500  0.358700  1.0  -0.5996
  O  O151  1  0.068300  0.375900  0.490100  1.0  -0.6852
  O  O152  1  0.960200  0.148000  0.419000  1.0  -0.9143
