# generated using pymatgen
data_Cu2H6C12N2O7
_symmetry_space_group_name_H-M   'P 1'
_cell_length_a   24.42700000
_cell_length_b   24.42700000
_cell_length_c   24.42700000
_cell_angle_alpha   90.00000000
_cell_angle_beta   90.00000000
_cell_angle_gamma   90.00000000
_symmetry_Int_Tables_number   1
_chemical_formula_structural   Cu2H6C12N2O7
_chemical_formula_sum   'Cu48 H144 C288 N48 O168'
_cell_volume   14575.06154248
_cell_formula_units_Z   24
loop_
 _symmetry_equiv_pos_site_id
 _symmetry_equiv_pos_as_xyz
  1  'x, y, z'
loop_
 _atom_site_type_symbol
 _atom_site_label
 _atom_site_symmetry_multiplicity
 _atom_site_fract_x
 _atom_site_fract_y
 _atom_site_fract_z
 _atom_site_occupancy
 _atom_site_charge
  Cu  Cu1  1  0.059120  0.215920  0.385430  1.0  0.8957
  Cu  Cu2  1  0.148490  0.202570  0.486890  1.0  0.9582
  Cu  Cu3  1  0.440880  0.784080  0.885430  1.0  0.8966
  Cu  Cu4  1  0.351510  0.797430  0.986890  1.0  0.957
  Cu  Cu5  1  0.940880  0.715920  0.114570  1.0  0.8973
  Cu  Cu6  1  0.851510  0.702570  0.013110  1.0  0.9579
  Cu  Cu7  1  0.559120  0.284080  0.614570  1.0  0.895
  Cu  Cu8  1  0.648490  0.297430  0.513110  1.0  0.9573
  Cu  Cu9  1  0.385430  0.059120  0.215920  1.0  0.8985
  Cu  Cu10  1  0.486890  0.148490  0.202570  1.0  0.9596
  Cu  Cu11  1  0.885430  0.440880  0.784080  1.0  0.8985
  Cu  Cu12  1  0.986890  0.351510  0.797430  1.0  0.9625
  Cu  Cu13  1  0.114570  0.940880  0.715920  1.0  0.8982
  Cu  Cu14  1  0.013110  0.851510  0.702570  1.0  0.9621
  Cu  Cu15  1  0.614570  0.559120  0.284080  1.0  0.8976
  Cu  Cu16  1  0.513110  0.648490  0.297430  1.0  0.9604
  Cu  Cu17  1  0.215920  0.385430  0.059120  1.0  0.8986
  Cu  Cu18  1  0.202570  0.486890  0.148490  1.0  0.9628
  Cu  Cu19  1  0.784080  0.885430  0.440880  1.0  0.8971
  Cu  Cu20  1  0.797430  0.986890  0.351510  1.0  0.9618
  Cu  Cu21  1  0.715920  0.114570  0.940880  1.0  0.8962
  Cu  Cu22  1  0.702570  0.013110  0.851510  1.0  0.9626
  Cu  Cu23  1  0.284080  0.614570  0.559120  1.0  0.8929
  Cu  Cu24  1  0.297430  0.513110  0.648490  1.0  0.9624
  Cu  Cu25  1  0.940880  0.784080  0.614570  1.0  0.8962
  Cu  Cu26  1  0.851510  0.797430  0.513110  1.0  0.9568
  Cu  Cu27  1  0.559120  0.215920  0.114570  1.0  0.8965
  Cu  Cu28  1  0.648490  0.202570  0.013110  1.0  0.9583
  Cu  Cu29  1  0.059120  0.284080  0.885430  1.0  0.8949
  Cu  Cu30  1  0.148490  0.297430  0.986890  1.0  0.9573
  Cu  Cu31  1  0.440880  0.715920  0.385430  1.0  0.8975
  Cu  Cu32  1  0.351510  0.702570  0.486890  1.0  0.9579
  Cu  Cu33  1  0.614570  0.940880  0.784080  1.0  0.8982
  Cu  Cu34  1  0.513110  0.851510  0.797430  1.0  0.9627
  Cu  Cu35  1  0.114570  0.559120  0.215920  1.0  0.8978
  Cu  Cu36  1  0.013110  0.648490  0.202570  1.0  0.96
  Cu  Cu37  1  0.885430  0.059120  0.284080  1.0  0.8985
  Cu  Cu38  1  0.986890  0.148490  0.297430  1.0  0.9601
  Cu  Cu39  1  0.385430  0.440880  0.715920  1.0  0.8984
  Cu  Cu40  1  0.486890  0.351510  0.702570  1.0  0.9617
  Cu  Cu41  1  0.784080  0.614570  0.940880  1.0  0.8942
  Cu  Cu42  1  0.797430  0.513110  0.851510  1.0  0.9622
  Cu  Cu43  1  0.215920  0.114570  0.559120  1.0  0.8949
  Cu  Cu44  1  0.202570  0.013110  0.648490  1.0  0.9633
  Cu  Cu45  1  0.284080  0.885430  0.059120  1.0  0.8965
  Cu  Cu46  1  0.297430  0.986890  0.148490  1.0  0.9623
  Cu  Cu47  1  0.715920  0.385430  0.440880  1.0  0.8991
  Cu  Cu48  1  0.702570  0.486890  0.351510  1.0  0.962
  H  H49  1  0.152300  0.234900  0.290900  1.0  0.1276
  H  H50  1  0.255900  0.225800  0.414900  1.0  0.1331
  H  H51  1  0.251300  0.233900  0.313800  1.0  0.144
  H  H52  1  0.898100  0.133200  0.392100  1.0  0.1307
  H  H53  1  0.861600  0.285600  0.443400  1.0  0.1321
  H  H54  1  0.744800  0.170600  0.438100  1.0  0.1356
  H  H55  1  0.347700  0.765100  0.790900  1.0  0.1274
  H  H56  1  0.244100  0.774200  0.914900  1.0  0.1308
  H  H57  1  0.248700  0.766100  0.813800  1.0  0.1443
  H  H58  1  0.601900  0.866800  0.892100  1.0  0.1312
  H  H59  1  0.638400  0.714400  0.943400  1.0  0.1325
  H  H60  1  0.755200  0.829400  0.938100  1.0  0.1363
  H  H61  1  0.847700  0.734900  0.209100  1.0  0.1279
  H  H62  1  0.744100  0.725800  0.085100  1.0  0.1329
  H  H63  1  0.748700  0.733900  0.186200  1.0  0.1443
  H  H64  1  0.101900  0.633200  0.107900  1.0  0.1296
  H  H65  1  0.138400  0.785600  0.056600  1.0  0.1321
  H  H66  1  0.255200  0.670600  0.061900  1.0  0.1364
  H  H67  1  0.652300  0.265100  0.709100  1.0  0.128
  H  H68  1  0.755900  0.274200  0.585100  1.0  0.1312
  H  H69  1  0.751300  0.266100  0.686200  1.0  0.1441
  H  H70  1  0.398100  0.366800  0.607900  1.0  0.1321
  H  H71  1  0.361600  0.214400  0.556600  1.0  0.1331
  H  H72  1  0.244800  0.329400  0.561900  1.0  0.1361
  H  H73  1  0.290900  0.152300  0.234900  1.0  0.1293
  H  H74  1  0.414900  0.255900  0.225800  1.0  0.1345
  H  H75  1  0.313800  0.251300  0.233900  1.0  0.147
  H  H76  1  0.392100  0.898100  0.133200  1.0  0.1298
  H  H77  1  0.443400  0.861600  0.285600  1.0  0.1333
  H  H78  1  0.438100  0.744800  0.170600  1.0  0.1375
  H  H79  1  0.790900  0.347700  0.765100  1.0  0.1291
  H  H80  1  0.914900  0.244100  0.774200  1.0  0.1353
  H  H81  1  0.813800  0.248700  0.766100  1.0  0.1467
  H  H82  1  0.892100  0.601900  0.866800  1.0  0.1292
  H  H83  1  0.943400  0.638400  0.714400  1.0  0.1337
  H  H84  1  0.938100  0.755200  0.829400  1.0  0.1362
  H  H85  1  0.209100  0.847700  0.734900  1.0  0.1291
  H  H86  1  0.085100  0.744100  0.725800  1.0  0.1362
  H  H87  1  0.186200  0.748700  0.733900  1.0  0.146
  H  H88  1  0.107900  0.101900  0.633200  1.0  0.1292
  H  H89  1  0.056600  0.138400  0.785600  1.0  0.1329
  H  H90  1  0.061900  0.255200  0.670600  1.0  0.1367
  H  H91  1  0.709100  0.652300  0.265100  1.0  0.1295
  H  H92  1  0.585100  0.755900  0.274200  1.0  0.1349
  H  H93  1  0.686200  0.751300  0.266100  1.0  0.1461
  H  H94  1  0.607900  0.398100  0.366800  1.0  0.131
  H  H95  1  0.556600  0.361600  0.214400  1.0  0.133
  H  H96  1  0.561900  0.244800  0.329400  1.0  0.1366
  H  H97  1  0.234900  0.290900  0.152300  1.0  0.1285
  H  H98  1  0.225800  0.414900  0.255900  1.0  0.1326
  H  H99  1  0.233900  0.313800  0.251300  1.0  0.1458
  H  H100  1  0.133200  0.392100  0.898100  1.0  0.1313
  H  H101  1  0.285600  0.443400  0.861600  1.0  0.1323
  H  H102  1  0.170600  0.438100  0.744800  1.0  0.1353
  H  H103  1  0.765100  0.790900  0.347700  1.0  0.1287
  H  H104  1  0.774200  0.914900  0.244100  1.0  0.1315
  H  H105  1  0.766100  0.813800  0.248700  1.0  0.1455
  H  H106  1  0.866800  0.892100  0.601900  1.0  0.1303
  H  H107  1  0.714400  0.943400  0.638400  1.0  0.1315
  H  H108  1  0.829400  0.938100  0.755200  1.0  0.1353
  H  H109  1  0.734900  0.209100  0.847700  1.0  0.1289
  H  H110  1  0.725800  0.085100  0.744100  1.0  0.1337
  H  H111  1  0.733900  0.186200  0.748700  1.0  0.1453
  H  H112  1  0.633200  0.107900  0.101900  1.0  0.1298
  H  H113  1  0.785600  0.056600  0.138400  1.0  0.1319
  H  H114  1  0.670600  0.061900  0.255200  1.0  0.1348
  H  H115  1  0.265100  0.709100  0.652300  1.0  0.129
  H  H116  1  0.274200  0.585100  0.755900  1.0  0.1318
  H  H117  1  0.266100  0.686200  0.751300  1.0  0.1459
  H  H118  1  0.366800  0.607900  0.398100  1.0  0.1312
  H  H119  1  0.214400  0.556600  0.361600  1.0  0.1318
  H  H120  1  0.329400  0.561900  0.244800  1.0  0.1355
  H  H121  1  0.847700  0.765100  0.709100  1.0  0.1279
  H  H122  1  0.744100  0.774200  0.585100  1.0  0.1308
  H  H123  1  0.748700  0.766100  0.686200  1.0  0.1445
  H  H124  1  0.101900  0.866800  0.607900  1.0  0.1311
  H  H125  1  0.138400  0.714400  0.556600  1.0  0.1323
  H  H126  1  0.255200  0.829400  0.561900  1.0  0.137
  H  H127  1  0.652300  0.234900  0.209100  1.0  0.1281
  H  H128  1  0.755900  0.225800  0.085100  1.0  0.1328
  H  H129  1  0.751300  0.233900  0.186200  1.0  0.1439
  H  H130  1  0.398100  0.133200  0.107900  1.0  0.1303
  H  H131  1  0.361600  0.285600  0.056600  1.0  0.1323
  H  H132  1  0.244800  0.170600  0.061900  1.0  0.1363
  H  H133  1  0.152300  0.265100  0.790900  1.0  0.1274
  H  H134  1  0.255900  0.274200  0.914900  1.0  0.1316
  H  H135  1  0.251300  0.266100  0.813800  1.0  0.1437
  H  H136  1  0.898100  0.366800  0.892100  1.0  0.1323
  H  H137  1  0.861600  0.214400  0.943400  1.0  0.1329
  H  H138  1  0.744800  0.329400  0.938100  1.0  0.1356
  H  H139  1  0.347700  0.734900  0.290900  1.0  0.1275
  H  H140  1  0.244100  0.725800  0.414900  1.0  0.1328
  H  H141  1  0.248700  0.733900  0.313800  1.0  0.1445
  H  H142  1  0.601900  0.633200  0.392100  1.0  0.1306
  H  H143  1  0.638400  0.785600  0.443400  1.0  0.1323
  H  H144  1  0.755200  0.670600  0.438100  1.0  0.1359
  H  H145  1  0.709100  0.847700  0.765100  1.0  0.1292
  H  H146  1  0.585100  0.744100  0.774200  1.0  0.1348
  H  H147  1  0.686200  0.748700  0.766100  1.0  0.1465
  H  H148  1  0.607900  0.101900  0.866800  1.0  0.1299
  H  H149  1  0.556600  0.138400  0.714400  1.0  0.133
  H  H150  1  0.561900  0.255200  0.829400  1.0  0.1361
  H  H151  1  0.209100  0.652300  0.234900  1.0  0.1294
  H  H152  1  0.085100  0.755900  0.225800  1.0  0.1362
  H  H153  1  0.186200  0.751300  0.233900  1.0  0.146
  H  H154  1  0.107900  0.398100  0.133200  1.0  0.1313
  H  H155  1  0.056600  0.361600  0.285600  1.0  0.133
  H  H156  1  0.061900  0.244800  0.170600  1.0  0.1371
  H  H157  1  0.790900  0.152300  0.265100  1.0  0.1293
  H  H158  1  0.914900  0.255900  0.274200  1.0  0.1344
  H  H159  1  0.813800  0.251300  0.266100  1.0  0.1467
  H  H160  1  0.892100  0.898100  0.366800  1.0  0.1309
  H  H161  1  0.943400  0.861600  0.214400  1.0  0.1339
  H  H162  1  0.938100  0.744800  0.329400  1.0  0.1364
  H  H163  1  0.290900  0.347700  0.734900  1.0  0.1291
  H  H164  1  0.414900  0.244100  0.725800  1.0  0.1355
  H  H165  1  0.313800  0.248700  0.733900  1.0  0.1467
  H  H166  1  0.392100  0.601900  0.633200  1.0  0.1292
  H  H167  1  0.443400  0.638400  0.785600  1.0  0.1329
  H  H168  1  0.438100  0.755200  0.670600  1.0  0.1371
  H  H169  1  0.765100  0.709100  0.847700  1.0  0.1289
  H  H170  1  0.774200  0.585100  0.744100  1.0  0.1318
  H  H171  1  0.766100  0.686200  0.748700  1.0  0.1453
  H  H172  1  0.866800  0.607900  0.101900  1.0  0.1298
  H  H173  1  0.714400  0.556600  0.138400  1.0  0.1315
  H  H174  1  0.829400  0.561900  0.255200  1.0  0.1348
  H  H175  1  0.234900  0.209100  0.652300  1.0  0.1289
  H  H176  1  0.225800  0.085100  0.755900  1.0  0.1328
  H  H177  1  0.233900  0.186200  0.751300  1.0  0.1455
  H  H178  1  0.133200  0.107900  0.398100  1.0  0.1304
  H  H179  1  0.285600  0.056600  0.361600  1.0  0.132
  H  H180  1  0.170600  0.061900  0.244800  1.0  0.1352
  H  H181  1  0.265100  0.790900  0.152300  1.0  0.1288
  H  H182  1  0.274200  0.914900  0.255900  1.0  0.1315
  H  H183  1  0.266100  0.813800  0.251300  1.0  0.1465
  H  H184  1  0.366800  0.892100  0.898100  1.0  0.1325
  H  H185  1  0.214400  0.943400  0.861600  1.0  0.1317
  H  H186  1  0.329400  0.938100  0.744800  1.0  0.1357
  H  H187  1  0.734900  0.290900  0.347700  1.0  0.1284
  H  H188  1  0.725800  0.414900  0.244100  1.0  0.1332
  H  H189  1  0.733900  0.313800  0.248700  1.0  0.1451
  H  H190  1  0.633200  0.392100  0.601900  1.0  0.1301
  H  H191  1  0.785600  0.443400  0.638400  1.0  0.1322
  H  H192  1  0.670600  0.438100  0.755200  1.0  0.1352
  C  C193  1  0.167000  0.231600  0.325900  1.0  0.052
  C  C194  1  0.224000  0.226600  0.394100  1.0  0.0295
  C  C195  1  0.889600  0.212100  0.417400  1.0  -0.1439
  C  C196  1  0.222100  0.231400  0.338100  1.0  -0.1139
  C  C197  1  0.755100  0.276100  0.461500  1.0  0.7187
  C  C198  1  0.798100  0.088000  0.398300  1.0  0.7146
  C  C199  1  0.819000  0.143500  0.412600  1.0  -0.1261
  C  C200  1  0.797100  0.234600  0.443500  1.0  -0.1282
  C  C201  1  0.948500  0.229600  0.411700  1.0  0.7409
  C  C202  1  0.872800  0.158500  0.405200  1.0  -0.002
  C  C203  1  0.850900  0.249800  0.436000  1.0  0.0414
  C  C204  1  0.780900  0.181200  0.432300  1.0  0.0153
  C  C205  1  0.333000  0.768400  0.825900  1.0  0.0517
  C  C206  1  0.276000  0.773400  0.894100  1.0  0.0286
  C  C207  1  0.610400  0.787900  0.917400  1.0  -0.1441
  C  C208  1  0.277900  0.768600  0.838100  1.0  -0.1138
  C  C209  1  0.744900  0.723900  0.961500  1.0  0.7184
  C  C210  1  0.701900  0.912000  0.898300  1.0  0.7156
  C  C211  1  0.681000  0.856500  0.912600  1.0  -0.1261
  C  C212  1  0.702900  0.765400  0.943500  1.0  -0.1277
  C  C213  1  0.551500  0.770400  0.911700  1.0  0.7388
  C  C214  1  0.627200  0.841500  0.905200  1.0  -0.0031
  C  C215  1  0.649100  0.750200  0.936000  1.0  0.0411
  C  C216  1  0.719100  0.818800  0.932300  1.0  0.0165
  C  C217  1  0.833000  0.731600  0.174100  1.0  0.053
  C  C218  1  0.776000  0.726600  0.105900  1.0  0.0286
  C  C219  1  0.110400  0.712100  0.082600  1.0  -0.1442
  C  C220  1  0.777900  0.731400  0.161900  1.0  -0.1143
  C  C221  1  0.244900  0.776100  0.038500  1.0  0.7178
  C  C222  1  0.201900  0.588000  0.101700  1.0  0.7149
  C  C223  1  0.181000  0.643500  0.087400  1.0  -0.1281
  C  C224  1  0.202900  0.734600  0.056500  1.0  -0.1277
  C  C225  1  0.051500  0.729600  0.088300  1.0  0.7394
  C  C226  1  0.127200  0.658500  0.094800  1.0  -0.0018
  C  C227  1  0.149100  0.749800  0.064000  1.0  0.0419
  C  C228  1  0.219100  0.681200  0.067700  1.0  0.0172
  C  C229  1  0.667000  0.268400  0.674100  1.0  0.0521
  C  C230  1  0.724000  0.273400  0.605900  1.0  0.0269
  C  C231  1  0.389600  0.287900  0.582600  1.0  -0.1474
  C  C232  1  0.722100  0.268600  0.661900  1.0  -0.1155
  C  C233  1  0.255100  0.223900  0.538500  1.0  0.7176
  C  C234  1  0.298100  0.412000  0.601700  1.0  0.7164
  C  C235  1  0.319000  0.356500  0.587400  1.0  -0.1244
  C  C236  1  0.297100  0.265400  0.556500  1.0  -0.1283
  C  C237  1  0.448500  0.270400  0.588300  1.0  0.7378
  C  C238  1  0.372800  0.341500  0.594800  1.0  -0.0043
  C  C239  1  0.350900  0.250200  0.564000  1.0  0.0412
  C  C240  1  0.280900  0.318800  0.567700  1.0  0.0153
  C  C241  1  0.325900  0.167000  0.231600  1.0  0.053
  C  C242  1  0.394100  0.224000  0.226600  1.0  0.0272
  C  C243  1  0.417400  0.889600  0.212100  1.0  -0.1487
  C  C244  1  0.338100  0.222100  0.231400  1.0  -0.1221
  C  C245  1  0.461500  0.755100  0.276100  1.0  0.7186
  C  C246  1  0.398300  0.798100  0.088000  1.0  0.7174
  C  C247  1  0.412600  0.819000  0.143500  1.0  -0.1286
  C  C248  1  0.443500  0.797100  0.234600  1.0  -0.1322
  C  C249  1  0.411700  0.948500  0.229600  1.0  0.7373
  C  C250  1  0.405200  0.872800  0.158500  1.0  0.0004
  C  C251  1  0.436000  0.850900  0.249800  1.0  0.0451
  C  C252  1  0.432300  0.780900  0.181200  1.0  0.0167
  C  C253  1  0.825900  0.333000  0.768400  1.0  0.0518
  C  C254  1  0.894100  0.276000  0.773400  1.0  0.0262
  C  C255  1  0.917400  0.610400  0.787900  1.0  -0.1489
  C  C256  1  0.838100  0.277900  0.768600  1.0  -0.1181
  C  C257  1  0.961500  0.744900  0.723900  1.0  0.7191
  C  C258  1  0.898300  0.701900  0.912000  1.0  0.7189
  C  C259  1  0.912600  0.681000  0.856500  1.0  -0.1295
  C  C260  1  0.943500  0.702900  0.765400  1.0  -0.1319
  C  C261  1  0.911700  0.551500  0.770400  1.0  0.7392
  C  C262  1  0.905200  0.627200  0.841500  1.0  0.0033
  C  C263  1  0.936000  0.649100  0.750200  1.0  0.0456
  C  C264  1  0.932300  0.719100  0.818800  1.0  0.0152
  C  C265  1  0.174100  0.833000  0.731600  1.0  0.0542
  C  C266  1  0.105900  0.776000  0.726600  1.0  0.0267
  C  C267  1  0.082600  0.110400  0.712100  1.0  -0.1497
  C  C268  1  0.161900  0.777900  0.731400  1.0  -0.1185
  C  C269  1  0.038500  0.244900  0.776100  1.0  0.72
  C  C270  1  0.101700  0.201900  0.588000  1.0  0.7186
  C  C271  1  0.087400  0.181000  0.643500  1.0  -0.1271
  C  C272  1  0.056500  0.202900  0.734600  1.0  -0.132
  C  C273  1  0.088300  0.051500  0.729600  1.0  0.741
  C  C274  1  0.094800  0.127200  0.658500  1.0  0.0008
  C  C275  1  0.064000  0.149100  0.749800  1.0  0.0466
  C  C276  1  0.067700  0.219100  0.681200  1.0  0.0142
  C  C277  1  0.674100  0.667000  0.268400  1.0  0.0525
  C  C278  1  0.605900  0.724000  0.273400  1.0  0.0276
  C  C279  1  0.582600  0.389600  0.287900  1.0  -0.1472
  C  C280  1  0.661900  0.722100  0.268600  1.0  -0.1172
  C  C281  1  0.538500  0.255100  0.223900  1.0  0.7193
  C  C282  1  0.601700  0.298100  0.412000  1.0  0.7179
  C  C283  1  0.587400  0.319000  0.356500  1.0  -0.1267
  C  C284  1  0.556500  0.297100  0.265400  1.0  -0.1326
  C  C285  1  0.588300  0.448500  0.270400  1.0  0.7404
  C  C286  1  0.594800  0.372800  0.341500  1.0  0.0012
  C  C287  1  0.564000  0.350900  0.250200  1.0  0.048
  C  C288  1  0.567700  0.280900  0.318800  1.0  0.015
  C  C289  1  0.231600  0.325900  0.167000  1.0  0.0526
  C  C290  1  0.226600  0.394100  0.224000  1.0  0.0332
  C  C291  1  0.212100  0.417400  0.889600  1.0  -0.1477
  C  C292  1  0.231400  0.338100  0.222100  1.0  -0.1136
  C  C293  1  0.276100  0.461500  0.755100  1.0  0.7162
  C  C294  1  0.088000  0.398300  0.798100  1.0  0.7154
  C  C295  1  0.143500  0.412600  0.819000  1.0  -0.1242
  C  C296  1  0.234600  0.443500  0.797100  1.0  -0.1296
  C  C297  1  0.229600  0.411700  0.948500  1.0  0.7388
  C  C298  1  0.158500  0.405200  0.872800  1.0  -0.0033
  C  C299  1  0.249800  0.436000  0.850900  1.0  0.0418
  C  C300  1  0.181200  0.432300  0.780900  1.0  0.0195
  C  C301  1  0.768400  0.825900  0.333000  1.0  0.0531
  C  C302  1  0.773400  0.894100  0.276000  1.0  0.033
  C  C303  1  0.787900  0.917400  0.610400  1.0  -0.1471
  C  C304  1  0.768600  0.838100  0.277900  1.0  -0.1117
  C  C305  1  0.723900  0.961500  0.744900  1.0  0.717
  C  C306  1  0.912000  0.898300  0.701900  1.0  0.7161
  C  C307  1  0.856500  0.912600  0.681000  1.0  -0.1271
  C  C308  1  0.765400  0.943500  0.702900  1.0  -0.1299
  C  C309  1  0.770400  0.911700  0.551500  1.0  0.7402
  C  C310  1  0.841500  0.905200  0.627200  1.0  -0.0013
  C  C311  1  0.750200  0.936000  0.649100  1.0  0.0413
  C  C312  1  0.818800  0.932300  0.719100  1.0  0.0208
  C  C313  1  0.731600  0.174100  0.833000  1.0  0.0526
  C  C314  1  0.726600  0.105900  0.776000  1.0  0.0337
  C  C315  1  0.712100  0.082600  0.110400  1.0  -0.1496
  C  C316  1  0.731400  0.161900  0.777900  1.0  -0.1137
  C  C317  1  0.776100  0.038500  0.244900  1.0  0.7168
  C  C318  1  0.588000  0.101700  0.201900  1.0  0.7147
  C  C319  1  0.643500  0.087400  0.181000  1.0  -0.1262
  C  C320  1  0.734600  0.056500  0.202900  1.0  -0.1291
  C  C321  1  0.729600  0.088300  0.051500  1.0  0.7376
  C  C322  1  0.658500  0.094800  0.127200  1.0  -0.0025
  C  C323  1  0.749800  0.064000  0.149100  1.0  0.0437
  C  C324  1  0.681200  0.067700  0.219100  1.0  0.0191
  C  C325  1  0.268400  0.674100  0.667000  1.0  0.0522
  C  C326  1  0.273400  0.605900  0.724000  1.0  0.0338
  C  C327  1  0.287900  0.582600  0.389600  1.0  -0.1473
  C  C328  1  0.268600  0.661900  0.722100  1.0  -0.1151
  C  C329  1  0.223900  0.538500  0.255100  1.0  0.7169
  C  C330  1  0.412000  0.601700  0.298100  1.0  0.7148
  C  C331  1  0.356500  0.587400  0.319000  1.0  -0.1279
  C  C332  1  0.265400  0.556500  0.297100  1.0  -0.1299
  C  C333  1  0.270400  0.588300  0.448500  1.0  0.7403
  C  C334  1  0.341500  0.594800  0.372800  1.0  -0.002
  C  C335  1  0.250200  0.564000  0.350900  1.0  0.0397
  C  C336  1  0.318800  0.567700  0.280900  1.0  0.0197
  C  C337  1  0.833000  0.768400  0.674100  1.0  0.0531
  C  C338  1  0.776000  0.773400  0.605900  1.0  0.0276
  C  C339  1  0.110400  0.787900  0.582600  1.0  -0.146
  C  C340  1  0.777900  0.768600  0.661900  1.0  -0.1143
  C  C341  1  0.244900  0.723900  0.538500  1.0  0.7178
  C  C342  1  0.201900  0.912000  0.601700  1.0  0.7155
  C  C343  1  0.181000  0.856500  0.587400  1.0  -0.1253
  C  C344  1  0.202900  0.765400  0.556500  1.0  -0.1277
  C  C345  1  0.051500  0.770400  0.588300  1.0  0.739
  C  C346  1  0.127200  0.841500  0.594800  1.0  -0.0033
  C  C347  1  0.149100  0.750200  0.564000  1.0  0.0412
  C  C348  1  0.219100  0.818800  0.567700  1.0  0.017
  C  C349  1  0.667000  0.231600  0.174100  1.0  0.0525
  C  C350  1  0.724000  0.226600  0.105900  1.0  0.0292
  C  C351  1  0.389600  0.212100  0.082600  1.0  -0.1469
  C  C352  1  0.722100  0.231400  0.161900  1.0  -0.1149
  C  C353  1  0.255100  0.276100  0.038500  1.0  0.7178
  C  C354  1  0.298100  0.088000  0.101700  1.0  0.7164
  C  C355  1  0.319000  0.143500  0.087400  1.0  -0.1268
  C  C356  1  0.297100  0.234600  0.056500  1.0  -0.1281
  C  C357  1  0.448500  0.229600  0.088300  1.0  0.7391
  C  C358  1  0.372800  0.158500  0.094800  1.0  0.0033
  C  C359  1  0.350900  0.249800  0.064000  1.0  0.0408
  C  C360  1  0.280900  0.181200  0.067700  1.0  0.0161
  C  C361  1  0.167000  0.268400  0.825900  1.0  0.0511
  C  C362  1  0.224000  0.273400  0.894100  1.0  0.0285
  C  C363  1  0.889600  0.287900  0.917400  1.0  -0.143
  C  C364  1  0.222100  0.268600  0.838100  1.0  -0.1149
  C  C365  1  0.755100  0.223900  0.961500  1.0  0.7184
  C  C366  1  0.798100  0.412000  0.898300  1.0  0.7138
  C  C367  1  0.819000  0.356500  0.912600  1.0  -0.1264
  C  C368  1  0.797100  0.265400  0.943500  1.0  -0.1279
  C  C369  1  0.948500  0.270400  0.911700  1.0  0.7412
  C  C370  1  0.872800  0.341500  0.905200  1.0  -0.0029
  C  C371  1  0.850900  0.250200  0.936000  1.0  0.0418
  C  C372  1  0.780900  0.318800  0.932300  1.0  0.0151
  C  C373  1  0.333000  0.731600  0.325900  1.0  0.0524
  C  C374  1  0.276000  0.726600  0.394100  1.0  0.0285
  C  C375  1  0.610400  0.712100  0.417400  1.0  -0.1439
  C  C376  1  0.277900  0.731400  0.338100  1.0  -0.1131
  C  C377  1  0.744900  0.776100  0.461500  1.0  0.7186
  C  C378  1  0.701900  0.588000  0.398300  1.0  0.7147
  C  C379  1  0.681000  0.643500  0.412600  1.0  -0.1268
  C  C380  1  0.702900  0.734600  0.443500  1.0  -0.128
  C  C381  1  0.551500  0.729600  0.411700  1.0  0.739
  C  C382  1  0.627200  0.658500  0.405200  1.0  -0.0019
  C  C383  1  0.649100  0.749800  0.436000  1.0  0.042
  C  C384  1  0.719100  0.681200  0.432300  1.0  0.0165
  C  C385  1  0.674100  0.833000  0.768400  1.0  0.053
  C  C386  1  0.605900  0.776000  0.773400  1.0  0.0277
  C  C387  1  0.582600  0.110400  0.787900  1.0  -0.1497
  C  C388  1  0.661900  0.777900  0.768600  1.0  -0.1181
  C  C389  1  0.538500  0.244900  0.723900  1.0  0.7201
  C  C390  1  0.601700  0.201900  0.912000  1.0  0.7191
  C  C391  1  0.587400  0.181000  0.856500  1.0  -0.1268
  C  C392  1  0.556500  0.202900  0.765400  1.0  -0.1324
  C  C393  1  0.588300  0.051500  0.770400  1.0  0.7393
  C  C394  1  0.594800  0.127200  0.841500  1.0  0.0014
  C  C395  1  0.564000  0.149100  0.750200  1.0  0.0488
  C  C396  1  0.567700  0.219100  0.818800  1.0  0.0149
  C  C397  1  0.174100  0.667000  0.231600  1.0  0.054
  C  C398  1  0.105900  0.724000  0.226600  1.0  0.026
  C  C399  1  0.082600  0.389600  0.212100  1.0  -0.1478
  C  C400  1  0.161900  0.722100  0.231400  1.0  -0.1181
  C  C401  1  0.038500  0.255100  0.276100  1.0  0.7193
  C  C402  1  0.101700  0.298100  0.088000  1.0  0.7175
  C  C403  1  0.087400  0.319000  0.143500  1.0  -0.1278
  C  C404  1  0.056500  0.297100  0.234600  1.0  -0.1321
  C  C405  1  0.088300  0.448500  0.229600  1.0  0.7395
  C  C406  1  0.094800  0.372800  0.158500  1.0  0.0006
  C  C407  1  0.064000  0.350900  0.249800  1.0  0.0463
  C  C408  1  0.067700  0.280900  0.181200  1.0  0.0152
  C  C409  1  0.825900  0.167000  0.268400  1.0  0.0517
  C  C410  1  0.894100  0.224000  0.273400  1.0  0.0275
  C  C411  1  0.917400  0.889600  0.287900  1.0  -0.148
  C  C412  1  0.838100  0.222100  0.268600  1.0  -0.1208
  C  C413  1  0.961500  0.755100  0.223900  1.0  0.7183
  C  C414  1  0.898300  0.798100  0.412000  1.0  0.7181
  C  C415  1  0.912600  0.819000  0.356500  1.0  -0.1292
  C  C416  1  0.943500  0.797100  0.265400  1.0  -0.132
  C  C417  1  0.911700  0.948500  0.270400  1.0  0.7371
  C  C418  1  0.905200  0.872800  0.341500  1.0  0.0049
  C  C419  1  0.936000  0.850900  0.250200  1.0  0.0453
  C  C420  1  0.932300  0.780900  0.318800  1.0  0.0162
  C  C421  1  0.325900  0.333000  0.731600  1.0  0.0529
  C  C422  1  0.394100  0.276000  0.726600  1.0  0.0264
  C  C423  1  0.417400  0.610400  0.712100  1.0  -0.1492
  C  C424  1  0.338100  0.277900  0.731400  1.0  -0.1188
  C  C425  1  0.461500  0.744900  0.776100  1.0  0.7194
  C  C426  1  0.398300  0.701900  0.588000  1.0  0.7174
  C  C427  1  0.412600  0.681000  0.643500  1.0  -0.1281
  C  C428  1  0.443500  0.702900  0.734600  1.0  -0.1321
  C  C429  1  0.411700  0.551500  0.729600  1.0  0.7408
  C  C430  1  0.405200  0.627200  0.658500  1.0  0.0005
  C  C431  1  0.436000  0.649100  0.749800  1.0  0.0452
  C  C432  1  0.432300  0.719100  0.681200  1.0  0.0142
  C  C433  1  0.768400  0.674100  0.833000  1.0  0.0523
  C  C434  1  0.773400  0.605900  0.776000  1.0  0.0338
  C  C435  1  0.787900  0.582600  0.110400  1.0  -0.149
  C  C436  1  0.768600  0.661900  0.777900  1.0  -0.1112
  C  C437  1  0.723900  0.538500  0.244900  1.0  0.7171
  C  C438  1  0.912000  0.601700  0.201900  1.0  0.7156
  C  C439  1  0.856500  0.587400  0.181000  1.0  -0.1286
  C  C440  1  0.765400  0.556500  0.202900  1.0  -0.1299
  C  C441  1  0.770400  0.588300  0.051500  1.0  0.7383
  C  C442  1  0.841500  0.594800  0.127200  1.0  -0.0023
  C  C443  1  0.750200  0.564000  0.149100  1.0  0.0405
  C  C444  1  0.818800  0.567700  0.219100  1.0  0.0206
  C  C445  1  0.231600  0.174100  0.667000  1.0  0.0522
  C  C446  1  0.226600  0.105900  0.724000  1.0  0.0332
  C  C447  1  0.212100  0.082600  0.389600  1.0  -0.1477
  C  C448  1  0.231400  0.161900  0.722100  1.0  -0.1138
  C  C449  1  0.276100  0.038500  0.255100  1.0  0.7165
  C  C450  1  0.088000  0.101700  0.298100  1.0  0.7152
  C  C451  1  0.143500  0.087400  0.319000  1.0  -0.126
  C  C452  1  0.234600  0.056500  0.297100  1.0  -0.1292
  C  C453  1  0.229600  0.088300  0.448500  1.0  0.7405
  C  C454  1  0.158500  0.094800  0.372800  1.0  0.0045
  C  C455  1  0.249800  0.064000  0.350900  1.0  0.0422
  C  C456  1  0.181200  0.067700  0.280900  1.0  0.0211
  C  C457  1  0.268400  0.825900  0.167000  1.0  0.0524
  C  C458  1  0.273400  0.894100  0.224000  1.0  0.0328
  C  C459  1  0.287900  0.917400  0.889600  1.0  -0.1471
  C  C460  1  0.268600  0.838100  0.222100  1.0  -0.1151
  C  C461  1  0.223900  0.961500  0.755100  1.0  0.7166
  C  C462  1  0.412000  0.898300  0.798100  1.0  0.7157
  C  C463  1  0.356500  0.912600  0.819000  1.0  -0.1262
  C  C464  1  0.265400  0.943500  0.797100  1.0  -0.1299
  C  C465  1  0.270400  0.911700  0.948500  1.0  0.7391
  C  C466  1  0.341500  0.905200  0.872800  1.0  -0.002
  C  C467  1  0.250200  0.936000  0.850900  1.0  0.0403
  C  C468  1  0.318800  0.932300  0.780900  1.0  0.0182
  C  C469  1  0.731600  0.325900  0.333000  1.0  0.0536
  C  C470  1  0.726600  0.394100  0.276000  1.0  0.034
  C  C471  1  0.712100  0.417400  0.610400  1.0  -0.1476
  C  C472  1  0.731400  0.338100  0.277900  1.0  -0.1138
  C  C473  1  0.776100  0.461500  0.744900  1.0  0.7167
  C  C474  1  0.588000  0.398300  0.701900  1.0  0.7145
  C  C475  1  0.643500  0.412600  0.681000  1.0  -0.1246
  C  C476  1  0.734600  0.443500  0.702900  1.0  -0.1296
  C  C477  1  0.729600  0.411700  0.551500  1.0  0.7402
  C  C478  1  0.658500  0.405200  0.627200  1.0  -0.0025
  C  C479  1  0.749800  0.436000  0.649100  1.0  0.0436
  C  C480  1  0.681200  0.432300  0.719100  1.0  0.0195
  N  N481  1  0.138000  0.226400  0.371990  1.0  -0.1343
  N  N482  1  0.173110  0.223400  0.414360  1.0  -0.2427
  N  N483  1  0.362000  0.773600  0.871990  1.0  -0.1331
  N  N484  1  0.326890  0.776600  0.914360  1.0  -0.243
  N  N485  1  0.862000  0.726400  0.128010  1.0  -0.1345
  N  N486  1  0.826890  0.723400  0.085640  1.0  -0.2443
  N  N487  1  0.638000  0.273600  0.628010  1.0  -0.1352
  N  N488  1  0.673110  0.276600  0.585640  1.0  -0.2472
  N  N489  1  0.371990  0.138000  0.226400  1.0  -0.1332
  N  N490  1  0.414360  0.173110  0.223400  1.0  -0.2414
  N  N491  1  0.871990  0.362000  0.773600  1.0  -0.1321
  N  N492  1  0.914360  0.326890  0.776600  1.0  -0.2421
  N  N493  1  0.128010  0.862000  0.726400  1.0  -0.1348
  N  N494  1  0.085640  0.826890  0.723400  1.0  -0.2435
  N  N495  1  0.628010  0.638000  0.273600  1.0  -0.1322
  N  N496  1  0.585640  0.673110  0.276600  1.0  -0.2448
  N  N497  1  0.226400  0.371990  0.138000  1.0  -0.1329
  N  N498  1  0.223400  0.414360  0.173110  1.0  -0.2432
  N  N499  1  0.773600  0.871990  0.362000  1.0  -0.1346
  N  N500  1  0.776600  0.914360  0.326890  1.0  -0.2439
  N  N501  1  0.726400  0.128010  0.862000  1.0  -0.1338
  N  N502  1  0.723400  0.085640  0.826890  1.0  -0.2443
  N  N503  1  0.273600  0.628010  0.638000  1.0  -0.1352
  N  N504  1  0.276600  0.585640  0.673110  1.0  -0.2447
  N  N505  1  0.862000  0.773600  0.628010  1.0  -0.1341
  N  N506  1  0.826890  0.776600  0.585640  1.0  -0.245
  N  N507  1  0.638000  0.226400  0.128010  1.0  -0.1347
  N  N508  1  0.673110  0.223400  0.085640  1.0  -0.2461
  N  N509  1  0.138000  0.273600  0.871990  1.0  -0.1367
  N  N510  1  0.173110  0.276600  0.914360  1.0  -0.2455
  N  N511  1  0.362000  0.726400  0.371990  1.0  -0.1345
  N  N512  1  0.326890  0.723400  0.414360  1.0  -0.2402
  N  N513  1  0.628010  0.862000  0.773600  1.0  -0.1327
  N  N514  1  0.585640  0.826890  0.776600  1.0  -0.243
  N  N515  1  0.128010  0.638000  0.226400  1.0  -0.1335
  N  N516  1  0.085640  0.673110  0.223400  1.0  -0.2444
  N  N517  1  0.871990  0.138000  0.273600  1.0  -0.1326
  N  N518  1  0.914360  0.173110  0.276600  1.0  -0.2427
  N  N519  1  0.371990  0.362000  0.726400  1.0  -0.1331
  N  N520  1  0.414360  0.326890  0.723400  1.0  -0.2412
  N  N521  1  0.773600  0.628010  0.862000  1.0  -0.1341
  N  N522  1  0.776600  0.585640  0.826890  1.0  -0.2443
  N  N523  1  0.226400  0.128010  0.638000  1.0  -0.1333
  N  N524  1  0.223400  0.085640  0.673110  1.0  -0.2454
  N  N525  1  0.273600  0.871990  0.138000  1.0  -0.1349
  N  N526  1  0.276600  0.914360  0.173110  1.0  -0.2432
  N  N527  1  0.726400  0.371990  0.362000  1.0  -0.1348
  N  N528  1  0.723400  0.414360  0.326890  1.0  -0.2434
  O  O529  1  0.830180  0.056690  0.371020  1.0  -0.6657
  O  O530  1  0.079030  0.186290  0.454790  1.0  -0.6475
  O  O531  1  0.982360  0.194050  0.392900  1.0  -0.6504
  O  O532  1  0.710720  0.257550  0.480150  1.0  -0.5866
  O  O533  1  0.767420  0.325530  0.456560  1.0  -0.5838
  O  O534  1  0.961430  0.276400  0.426400  1.0  -0.4746
  O  O535  1  0.752500  0.073400  0.412200  1.0  -0.4691
  O  O536  1  0.669820  0.943310  0.871020  1.0  -0.6662
  O  O537  1  0.420970  0.813710  0.954790  1.0  -0.6477
  O  O538  1  0.517640  0.805950  0.892900  1.0  -0.65
  O  O539  1  0.789280  0.742450  0.980150  1.0  -0.5875
  O  O540  1  0.732580  0.674470  0.956560  1.0  -0.5862
  O  O541  1  0.538570  0.723600  0.926400  1.0  -0.4756
  O  O542  1  0.747500  0.926600  0.912200  1.0  -0.4678
  O  O543  1  0.169820  0.556690  0.128980  1.0  -0.6662
  O  O544  1  0.920970  0.686290  0.045210  1.0  -0.6476
  O  O545  1  0.017640  0.694050  0.107100  1.0  -0.6512
  O  O546  1  0.289280  0.757550  0.019850  1.0  -0.5877
  O  O547  1  0.232580  0.825530  0.043440  1.0  -0.5866
  O  O548  1  0.038570  0.776400  0.073600  1.0  -0.4757
  O  O549  1  0.247500  0.573400  0.087800  1.0  -0.4686
  O  O550  1  0.330180  0.443310  0.628980  1.0  -0.6653
  O  O551  1  0.579030  0.313710  0.545210  1.0  -0.6464
  O  O552  1  0.482360  0.305950  0.607100  1.0  -0.6504
  O  O553  1  0.210720  0.242450  0.519850  1.0  -0.5877
  O  O554  1  0.267420  0.174470  0.543440  1.0  -0.5852
  O  O555  1  0.461430  0.223600  0.573600  1.0  -0.4751
  O  O556  1  0.252500  0.426600  0.587800  1.0  -0.4695
  O  O557  1  0.371020  0.830180  0.056690  1.0  -0.6649
  O  O558  1  0.454790  0.079030  0.186290  1.0  -0.6503
  O  O559  1  0.392900  0.982360  0.194050  1.0  -0.6515
  O  O560  1  0.480150  0.710720  0.257550  1.0  -0.588
  O  O561  1  0.456560  0.767420  0.325530  1.0  -0.5825
  O  O562  1  0.426400  0.961430  0.276400  1.0  -0.4823
  O  O563  1  0.412200  0.752500  0.073400  1.0  -0.4661
  O  O564  1  0.871020  0.669820  0.943310  1.0  -0.6657
  O  O565  1  0.954790  0.420970  0.813710  1.0  -0.649
  O  O566  1  0.892900  0.517640  0.805950  1.0  -0.6507
  O  O567  1  0.980150  0.789280  0.742450  1.0  -0.5875
  O  O568  1  0.956560  0.732580  0.674470  1.0  -0.5824
  O  O569  1  0.926400  0.538570  0.723600  1.0  -0.4793
  O  O570  1  0.912200  0.747500  0.926600  1.0  -0.4663
  O  O571  1  0.128980  0.169820  0.556690  1.0  -0.6645
  O  O572  1  0.045210  0.920970  0.686290  1.0  -0.6496
  O  O573  1  0.107100  0.017640  0.694050  1.0  -0.6501
  O  O574  1  0.019850  0.289280  0.757550  1.0  -0.5878
  O  O575  1  0.043440  0.232580  0.825530  1.0  -0.5821
  O  O576  1  0.073600  0.038570  0.776400  1.0  -0.4799
  O  O577  1  0.087800  0.247500  0.573400  1.0  -0.4665
  O  O578  1  0.628980  0.330180  0.443310  1.0  -0.6638
  O  O579  1  0.545210  0.579030  0.313710  1.0  -0.65
  O  O580  1  0.607100  0.482360  0.305950  1.0  -0.6494
  O  O581  1  0.519850  0.210720  0.242450  1.0  -0.5882
  O  O582  1  0.543440  0.267420  0.174470  1.0  -0.5836
  O  O583  1  0.573600  0.461430  0.223600  1.0  -0.4821
  O  O584  1  0.587800  0.252500  0.426600  1.0  -0.4659
  O  O585  1  0.056690  0.371020  0.830180  1.0  -0.6644
  O  O586  1  0.186290  0.454790  0.079030  1.0  -0.6497
  O  O587  1  0.194050  0.392900  0.982360  1.0  -0.6504
  O  O588  1  0.257550  0.480150  0.710720  1.0  -0.5863
  O  O589  1  0.325530  0.456560  0.767420  1.0  -0.582
  O  O590  1  0.276400  0.426400  0.961430  1.0  -0.4828
  O  O591  1  0.073400  0.412200  0.752500  1.0  -0.4676
  O  O592  1  0.943310  0.871020  0.669820  1.0  -0.6652
  O  O593  1  0.813710  0.954790  0.420970  1.0  -0.65
  O  O594  1  0.805950  0.892900  0.517640  1.0  -0.6506
  O  O595  1  0.742450  0.980150  0.789280  1.0  -0.5874
  O  O596  1  0.674470  0.956560  0.732580  1.0  -0.5821
  O  O597  1  0.723600  0.926400  0.538570  1.0  -0.4833
  O  O598  1  0.926600  0.912200  0.747500  1.0  -0.4677
  O  O599  1  0.556690  0.128980  0.169820  1.0  -0.6639
  O  O600  1  0.686290  0.045210  0.920970  1.0  -0.6515
  O  O601  1  0.694050  0.107100  0.017640  1.0  -0.6498
  O  O602  1  0.757550  0.019850  0.289280  1.0  -0.5861
  O  O603  1  0.825530  0.043440  0.232580  1.0  -0.5826
  O  O604  1  0.776400  0.073600  0.038570  1.0  -0.4804
  O  O605  1  0.573400  0.087800  0.247500  1.0  -0.4677
  O  O606  1  0.443310  0.628980  0.330180  1.0  -0.6638
  O  O607  1  0.313710  0.545210  0.579030  1.0  -0.6479
  O  O608  1  0.305950  0.607100  0.482360  1.0  -0.6502
  O  O609  1  0.242450  0.519850  0.210720  1.0  -0.5868
  O  O610  1  0.174470  0.543440  0.267420  1.0  -0.5822
  O  O611  1  0.223600  0.573600  0.461430  1.0  -0.4804
  O  O612  1  0.426600  0.587800  0.252500  1.0  -0.465
  O  O613  1  0.169820  0.943310  0.628980  1.0  -0.6653
  O  O614  1  0.920970  0.813710  0.545210  1.0  -0.6471
  O  O615  1  0.017640  0.805950  0.607100  1.0  -0.6494
  O  O616  1  0.289280  0.742450  0.519850  1.0  -0.588
  O  O617  1  0.232580  0.674470  0.543440  1.0  -0.5868
  O  O618  1  0.038570  0.723600  0.573600  1.0  -0.4759
  O  O619  1  0.247500  0.926600  0.587800  1.0  -0.4673
  O  O620  1  0.330180  0.056690  0.128980  1.0  -0.6656
  O  O621  1  0.579030  0.186290  0.045210  1.0  -0.6469
  O  O622  1  0.482360  0.194050  0.107100  1.0  -0.6518
  O  O623  1  0.210720  0.257550  0.019850  1.0  -0.5874
  O  O624  1  0.267420  0.325530  0.043440  1.0  -0.5839
  O  O625  1  0.461430  0.276400  0.073600  1.0  -0.4756
  O  O626  1  0.252500  0.073400  0.087800  1.0  -0.4691
  O  O627  1  0.830180  0.443310  0.871020  1.0  -0.6661
  O  O628  1  0.079030  0.313710  0.954790  1.0  -0.6472
  O  O629  1  0.982360  0.305950  0.892900  1.0  -0.6503
  O  O630  1  0.710720  0.242450  0.980150  1.0  -0.5868
  O  O631  1  0.767420  0.174470  0.956560  1.0  -0.5847
  O  O632  1  0.961430  0.223600  0.926400  1.0  -0.4746
  O  O633  1  0.752500  0.426600  0.912200  1.0  -0.4697
  O  O634  1  0.669820  0.556690  0.371020  1.0  -0.6662
  O  O635  1  0.420970  0.686290  0.454790  1.0  -0.648
  O  O636  1  0.517640  0.694050  0.392900  1.0  -0.6502
  O  O637  1  0.789280  0.757550  0.480150  1.0  -0.5874
  O  O638  1  0.732580  0.825530  0.456560  1.0  -0.5863
  O  O639  1  0.538570  0.776400  0.426400  1.0  -0.4748
  O  O640  1  0.747500  0.573400  0.412200  1.0  -0.4684
  O  O641  1  0.628980  0.169820  0.943310  1.0  -0.6639
  O  O642  1  0.545210  0.920970  0.813710  1.0  -0.6493
  O  O643  1  0.607100  0.017640  0.805950  1.0  -0.6485
  O  O644  1  0.519850  0.289280  0.742450  1.0  -0.5883
  O  O645  1  0.543440  0.232580  0.674470  1.0  -0.5832
  O  O646  1  0.573600  0.038570  0.723600  1.0  -0.4828
  O  O647  1  0.587800  0.247500  0.926600  1.0  -0.4663
  O  O648  1  0.128980  0.330180  0.056690  1.0  -0.6641
  O  O649  1  0.045210  0.579030  0.186290  1.0  -0.6506
  O  O650  1  0.107100  0.482360  0.194050  1.0  -0.65
  O  O651  1  0.019850  0.210720  0.257550  1.0  -0.5882
  O  O652  1  0.043440  0.267420  0.325530  1.0  -0.5836
  O  O653  1  0.073600  0.461430  0.276400  1.0  -0.4817
  O  O654  1  0.087800  0.252500  0.073400  1.0  -0.4669
  O  O655  1  0.871020  0.830180  0.443310  1.0  -0.6655
  O  O656  1  0.954790  0.079030  0.313710  1.0  -0.6502
  O  O657  1  0.892900  0.982360  0.305950  1.0  -0.6513
  O  O658  1  0.980150  0.710720  0.242450  1.0  -0.5879
  O  O659  1  0.956560  0.767420  0.174470  1.0  -0.5828
  O  O660  1  0.926400  0.961430  0.223600  1.0  -0.4789
  O  O661  1  0.912200  0.752500  0.426600  1.0  -0.4662
  O  O662  1  0.371020  0.669820  0.556690  1.0  -0.6654
  O  O663  1  0.454790  0.420970  0.686290  1.0  -0.6488
  O  O664  1  0.392900  0.517640  0.694050  1.0  -0.6519
  O  O665  1  0.480150  0.789280  0.757550  1.0  -0.5879
  O  O666  1  0.456560  0.732580  0.825530  1.0  -0.5814
  O  O667  1  0.426400  0.538570  0.776400  1.0  -0.4803
  O  O668  1  0.412200  0.747500  0.573400  1.0  -0.4653
  O  O669  1  0.943310  0.628980  0.169820  1.0  -0.6642
  O  O670  1  0.813710  0.545210  0.920970  1.0  -0.6507
  O  O671  1  0.805950  0.607100  0.017640  1.0  -0.6501
  O  O672  1  0.742450  0.519850  0.289280  1.0  -0.5875
  O  O673  1  0.674470  0.543440  0.232580  1.0  -0.5824
  O  O674  1  0.723600  0.573600  0.038570  1.0  -0.4822
  O  O675  1  0.926600  0.587800  0.247500  1.0  -0.4674
  O  O676  1  0.056690  0.128980  0.330180  1.0  -0.6635
  O  O677  1  0.186290  0.045210  0.579030  1.0  -0.6489
  O  O678  1  0.194050  0.107100  0.482360  1.0  -0.6499
  O  O679  1  0.257550  0.019850  0.210720  1.0  -0.5867
  O  O680  1  0.325530  0.043440  0.267420  1.0  -0.5819
  O  O681  1  0.276400  0.073600  0.461430  1.0  -0.481
  O  O682  1  0.073400  0.087800  0.252500  1.0  -0.4659
  O  O683  1  0.443310  0.871020  0.830180  1.0  -0.6649
  O  O684  1  0.313710  0.954790  0.079030  1.0  -0.6492
  O  O685  1  0.305950  0.892900  0.982360  1.0  -0.6506
  O  O686  1  0.242450  0.980150  0.710720  1.0  -0.5861
  O  O687  1  0.174470  0.956560  0.767420  1.0  -0.5823
  O  O688  1  0.223600  0.926400  0.961430  1.0  -0.4826
  O  O689  1  0.426600  0.912200  0.752500  1.0  -0.4672
  O  O690  1  0.556690  0.371020  0.669820  1.0  -0.6651
  O  O691  1  0.686290  0.454790  0.420970  1.0  -0.6507
  O  O692  1  0.694050  0.392900  0.517640  1.0  -0.6503
  O  O693  1  0.757550  0.480150  0.789280  1.0  -0.5867
  O  O694  1  0.825530  0.456560  0.732580  1.0  -0.5827
  O  O695  1  0.776400  0.426400  0.538570  1.0  -0.4813
  O  O696  1  0.573400  0.412200  0.747500  1.0  -0.4678
