# generated using pymatgen
data_Ag7H20(C6N5)5
_symmetry_space_group_name_H-M   'P 1'
_cell_length_a   12.01170000
_cell_length_b   13.93600000
_cell_length_c   22.60200000
_cell_angle_alpha   77.08800000
_cell_angle_beta   74.65700000
_cell_angle_gamma   75.52400000
_symmetry_Int_Tables_number   1
_chemical_formula_structural   Ag7H20(C6N5)5
_chemical_formula_sum   'Ag14 H40 C60 N50'
_cell_volume   3482.28477203
_cell_formula_units_Z   2
loop_
 _symmetry_equiv_pos_site_id
 _symmetry_equiv_pos_as_xyz
  1  'x, y, z'
loop_
 _atom_site_type_symbol
 _atom_site_label
 _atom_site_symmetry_multiplicity
 _atom_site_fract_x
 _atom_site_fract_y
 _atom_site_fract_z
 _atom_site_occupancy
 _atom_site_charge
  Ag  Ag1  1  0.843120  0.167680  0.503390  1.0  0.2077
  Ag  Ag2  1  0.327940  0.651010  0.196610  1.0  0.3559
  Ag  Ag3  1  0.224970  0.380410  0.673790  1.0  0.3556
  Ag  Ag4  1  0.707630  0.516790  0.646450  1.0  0.2996
  Ag  Ag5  1  0.384630  0.667860  0.435190  1.0  0.1572
  Ag  Ag6  1  0.369350  0.924060  0.939430  1.0  0.2991
  Ag  Ag7  1  0.434780  0.563190  0.583750  1.0  0.2489
  Ag  Ag8  1  0.156880  0.832320  0.496610  1.0  0.2075
  Ag  Ag9  1  0.672060  0.348990  0.803390  1.0  0.3543
  Ag  Ag10  1  0.775030  0.619590  0.326210  1.0  0.3572
  Ag  Ag11  1  0.292370  0.483210  0.353550  1.0  0.2982
  Ag  Ag12  1  0.615370  0.332140  0.564810  1.0  0.1596
  Ag  Ag13  1  0.630650  0.075940  0.060570  1.0  0.2985
  Ag  Ag14  1  0.565220  0.436810  0.416250  1.0  0.2435
  H  H15  1  0.809200  0.439800  0.990600  1.0  0.0863
  H  H16  1  0.017100  0.163000  0.581700  1.0  0.0782
  H  H17  1  0.135300  0.794200  0.156900  1.0  0.1056
  H  H18  1  0.736200  0.001700  0.589300  1.0  0.0811
  H  H19  1  0.061300  0.455600  0.440500  1.0  0.1081
  H  H20  1  0.325200  0.029300  0.807400  1.0  0.0843
  H  H21  1  0.723300  0.107700  0.413000  1.0  0.0867
  H  H22  1  0.579400  0.319900  0.129500  1.0  0.0794
  H  H23  1  0.923000  0.366500  0.441000  1.0  0.0755
  H  H24  1  0.081200  0.879500  0.064200  1.0  0.1081
  H  H25  1  0.647700  0.871000  0.590700  1.0  0.1211
  H  H26  1  0.429000  0.125800  0.931300  1.0  0.0823
  H  H27  1  0.678400  0.593800  0.980400  1.0  0.1208
  H  H28  1  0.349200  0.174900  0.735500  1.0  0.1211
  H  H29  1  0.636900  0.977000  0.409200  1.0  0.1244
  H  H30  1  0.442800  0.471900  0.126100  1.0  0.114
  H  H31  1  0.157200  0.247300  0.586200  1.0  0.1215
  H  H32  1  0.866000  0.645600  0.193500  1.0  0.1064
  H  H33  1  0.818400  0.731200  0.100000  1.0  0.087
  H  H34  1  0.456700  0.274000  0.863900  1.0  0.1094
  H  H35  1  0.190800  0.560200  0.009400  1.0  0.0852
  H  H36  1  0.982900  0.837000  0.418300  1.0  0.0783
  H  H37  1  0.864700  0.205800  0.843100  1.0  0.1057
  H  H38  1  0.263800  0.998300  0.410700  1.0  0.0797
  H  H39  1  0.938700  0.544400  0.559500  1.0  0.1092
  H  H40  1  0.674800  0.970700  0.192600  1.0  0.0836
  H  H41  1  0.276700  0.892300  0.587000  1.0  0.0875
  H  H42  1  0.420600  0.680100  0.870500  1.0  0.08
  H  H43  1  0.077000  0.633500  0.559000  1.0  0.0759
  H  H44  1  0.918800  0.120500  0.935800  1.0  0.1045
  H  H45  1  0.352300  0.129000  0.409300  1.0  0.1215
  H  H46  1  0.571000  0.874200  0.068700  1.0  0.081
  H  H47  1  0.321600  0.406200  0.019600  1.0  0.1211
  H  H48  1  0.650800  0.825100  0.264500  1.0  0.1203
  H  H49  1  0.363100  0.023000  0.590800  1.0  0.1234
  H  H50  1  0.557200  0.528100  0.873900  1.0  0.1148
  H  H51  1  0.842800  0.752700  0.413800  1.0  0.1223
  H  H52  1  0.134000  0.354400  0.806500  1.0  0.1073
  H  H53  1  0.181600  0.268800  0.900000  1.0  0.0865
  H  H54  1  0.543300  0.726000  0.136100  1.0  0.1096
  C  C55  1  0.735000  0.447600  0.017200  1.0  0.1716
  C  C56  1  0.027400  0.223800  0.552500  1.0  0.1138
  C  C57  1  0.038200  0.658400  0.244100  1.0  0.3081
  C  C58  1  0.467100  0.646900  0.047800  1.0  0.2993
  C  C59  1  0.069300  0.781800  0.145900  1.0  -0.1391
  C  C60  1  0.715500  0.996900  0.552200  1.0  0.1219
  C  C61  1  0.054000  0.395600  0.470100  1.0  -0.1613
  C  C62  1  0.353800  0.080300  0.818500  1.0  0.1163
  C  C63  1  0.547900  0.549800  0.053500  1.0  0.0194
  C  C64  1  0.708500  0.058400  0.449500  1.0  0.109
  C  C65  1  0.599000  0.377700  0.099600  1.0  0.1765
  C  C66  1  0.972600  0.341900  0.470400  1.0  0.1245
  C  C67  1  0.037900  0.831800  0.091200  1.0  0.1797
  C  C68  1  0.663800  0.918900  0.553200  1.0  -0.1714
  C  C69  1  0.213500  0.418800  0.512000  1.0  0.2976
  C  C70  1  0.414100  0.136300  0.890400  1.0  0.1227
  C  C71  1  0.657700  0.539000  0.012000  1.0  -0.13
  C  C72  1  0.634700  0.909600  0.499900  1.0  0.0059
  C  C73  1  0.444800  0.325900  0.745300  1.0  0.3043
  C  C74  1  0.368400  0.166000  0.775300  1.0  -0.1891
  C  C75  1  0.005100  0.712400  0.185800  1.0  0.0018
  C  C76  1  0.577000  0.827700  0.500400  1.0  0.3246
  C  C77  1  0.125900  0.361900  0.513200  1.0  -0.0078
  C  C78  1  0.657000  0.981200  0.446800  1.0  -0.1889
  C  C79  1  0.518500  0.466900  0.097600  1.0  -0.1572
  C  C80  1  0.110500  0.273300  0.555500  1.0  -0.1639
  C  C81  1  0.911100  0.694100  0.167500  1.0  -0.1359
  C  C82  1  0.411600  0.238700  0.791100  1.0  -0.0339
  C  C83  1  0.882900  0.744600  0.112600  1.0  0.1746
  C  C84  1  0.431500  0.224100  0.850700  1.0  -0.1993
  C  C85  1  0.265000  0.552400  0.982800  1.0  0.1783
  C  C86  1  0.972600  0.776200  0.447500  1.0  0.1124
  C  C87  1  0.961800  0.341600  0.755900  1.0  0.3082
  C  C88  1  0.532900  0.353100  0.952200  1.0  0.2985
  C  C89  1  0.930700  0.218200  0.854100  1.0  -0.1398
  C  C90  1  0.284500  0.003100  0.447800  1.0  0.1302
  C  C91  1  0.946000  0.604400  0.529900  1.0  -0.163
  C  C92  1  0.646200  0.919700  0.181500  1.0  0.1159
  C  C93  1  0.452100  0.450200  0.946500  1.0  0.0178
  C  C94  1  0.291500  0.941600  0.550500  1.0  0.1124
  C  C95  1  0.401000  0.622300  0.900400  1.0  0.1776
  C  C96  1  0.027400  0.658100  0.529600  1.0  0.1249
  C  C97  1  0.962100  0.168200  0.908800  1.0  0.1799
  C  C98  1  0.336200  0.081100  0.446800  1.0  -0.1699
  C  C99  1  0.786500  0.581200  0.488000  1.0  0.2982
  C  C100  1  0.585900  0.863700  0.109600  1.0  0.1224
  C  C101  1  0.342300  0.461000  0.988000  1.0  -0.1487
  C  C102  1  0.365300  0.090400  0.500100  1.0  0.0055
  C  C103  1  0.555200  0.674100  0.254700  1.0  0.3038
  C  C104  1  0.631600  0.834000  0.224700  1.0  -0.1884
  C  C105  1  0.994900  0.287600  0.814200  1.0  0.0027
  C  C106  1  0.423000  0.172300  0.499600  1.0  0.3243
  C  C107  1  0.874100  0.638100  0.486800  1.0  -0.0074
  C  C108  1  0.343000  0.018800  0.553200  1.0  -0.189
  C  C109  1  0.481500  0.533100  0.902400  1.0  -0.1551
  C  C110  1  0.889500  0.726700  0.444500  1.0  -0.1636
  C  C111  1  0.088900  0.305900  0.832500  1.0  -0.1434
  C  C112  1  0.588400  0.761300  0.208900  1.0  -0.0343
  C  C113  1  0.117100  0.255400  0.887400  1.0  0.1736
  C  C114  1  0.568500  0.775900  0.149300  1.0  -0.2008
  N  N115  1  0.489600  0.736400  0.473200  1.0  0.0031
  N  N116  1  0.554500  0.757000  0.550000  1.0  -0.3738
  N  N117  1  0.330500  0.776100  0.065500  1.0  -0.1445
  N  N118  1  0.257500  0.421600  0.560400  1.0  -0.2861
  N  N119  1  0.738200  0.066200  0.501200  1.0  -0.2825
  N  N120  1  0.944900  0.812800  0.075800  1.0  -0.4581
  N  N121  1  0.138400  0.584000  0.312600  1.0  -0.029
  N  N122  1  0.704800  0.370600  0.059800  1.0  -0.4542
  N  N123  1  0.958400  0.256500  0.510000  1.0  -0.3069
  N  N124  1  0.389100  0.789900  0.006700  1.0  0.0432
  N  N125  1  0.538800  0.816700  0.451800  1.0  -0.3633
  N  N126  1  0.256400  0.480300  0.460900  1.0  -0.2888
  N  N127  1  0.475400  0.711300  0.994200  1.0  -0.3532
  N  N128  1  0.378300  0.684700  0.092800  1.0  -0.2564
  N  N129  1  0.499200  0.700500  0.532300  1.0  1e-04
  N  N130  1  0.543600  0.436700  0.693200  1.0  -0.0498
  N  N131  1  0.459600  0.440500  0.665100  1.0  -0.0088
  N  N132  1  0.147600  0.636800  0.254300  1.0  -0.2851
  N  N133  1  0.330800  0.486300  0.537600  1.0  -0.0607
  N  N134  1  0.963800  0.619900  0.294700  1.0  -0.2638
  N  N135  1  0.329000  0.521800  0.478500  1.0  -0.0152
  N  N136  1  0.394800  0.370700  0.697000  1.0  -0.2889
  N  N137  1  0.536300  0.365700  0.744400  1.0  -0.2773
  N  N138  1  0.028600  0.573900  0.337100  1.0  -0.0857
  N  N139  1  0.376900  0.063800  0.875000  1.0  -0.3197
  N  N140  1  0.510400  0.263600  0.526800  1.0  -0.005
  N  N141  1  0.445500  0.243000  0.450000  1.0  -0.3731
  N  N142  1  0.669500  0.223900  0.934500  1.0  -0.1421
  N  N143  1  0.742500  0.578400  0.439600  1.0  -0.2856
  N  N144  1  0.261800  0.933800  0.498800  1.0  -0.2875
  N  N145  1  0.055100  0.187200  0.924200  1.0  -0.4529
  N  N146  1  0.861600  0.416000  0.687400  1.0  -0.0297
  N  N147  1  0.295200  0.629400  0.940200  1.0  -0.4565
  N  N148  1  0.041600  0.743500  0.490000  1.0  -0.3073
  N  N149  1  0.610900  0.210100  0.993300  1.0  0.0421
  N  N150  1  0.461200  0.183300  0.548200  1.0  -0.3633
  N  N151  1  0.743600  0.519700  0.539100  1.0  -0.2885
  N  N152  1  0.524600  0.288700  0.005800  1.0  -0.3526
  N  N153  1  0.621700  0.315300  0.907200  1.0  -0.2538
  N  N154  1  0.500800  0.299500  0.467700  1.0  -0.0011
  N  N155  1  0.456400  0.563300  0.306800  1.0  -0.0504
  N  N156  1  0.540400  0.559500  0.334900  1.0  -0.0091
  N  N157  1  0.852400  0.363200  0.745700  1.0  -0.2846
  N  N158  1  0.669200  0.513700  0.462400  1.0  -0.0581
  N  N159  1  0.036200  0.380100  0.705300  1.0  -0.2649
  N  N160  1  0.671000  0.478200  0.521500  1.0  -0.0151
  N  N161  1  0.605200  0.629300  0.303000  1.0  -0.2876
  N  N162  1  0.463700  0.634300  0.255600  1.0  -0.2758
  N  N163  1  0.971400  0.426100  0.662900  1.0  -0.0879
  N  N164  1  0.623100  0.936200  0.125000  1.0  -0.3229
