# generated using pymatgen
data_Ag7H20(C6N5)5
_symmetry_space_group_name_H-M   'P 1'
_cell_length_a   12.04200000
_cell_length_b   13.96700000
_cell_length_c   22.75400000
_cell_angle_alpha   95.80200000
_cell_angle_beta   105.21100000
_cell_angle_gamma   104.11800000
_symmetry_Int_Tables_number   1
_chemical_formula_structural   Ag7H20(C6N5)5
_chemical_formula_sum   'Ag14 H40 C60 N50'
_cell_volume   3525.22215350
_cell_formula_units_Z   2
loop_
 _symmetry_equiv_pos_site_id
 _symmetry_equiv_pos_as_xyz
  1  'x, y, z'
loop_
 _atom_site_type_symbol
 _atom_site_label
 _atom_site_symmetry_multiplicity
 _atom_site_fract_x
 _atom_site_fract_y
 _atom_site_fract_z
 _atom_site_occupancy
 _atom_site_charge
  Ag  Ag1  1  0.685850  0.924800  0.059730  1.0  0.3047
  Ag  Ag2  1  0.526850  0.348100  0.196870  1.0  0.3703
  Ag  Ag3  1  0.186780  0.670530  0.566190  1.0  0.1288
  Ag  Ag4  1  0.102180  0.382110  0.325320  1.0  0.3646
  Ag  Ag5  1  0.652170  0.162400  0.498870  1.0  0.2062
  Ag  Ag6  1  0.644280  0.513870  0.354170  1.0  0.2644
  Ag  Ag7  1  0.985040  0.559290  0.418010  1.0  0.2331
  Ag  Ag8  1  0.314150  0.075200  0.940270  1.0  0.3048
  Ag  Ag9  1  0.473150  0.651900  0.803130  1.0  0.3705
  Ag  Ag10  1  0.813220  0.329470  0.433810  1.0  0.1289
  Ag  Ag11  1  0.897820  0.617890  0.674680  1.0  0.3637
  Ag  Ag12  1  0.347830  0.837600  0.501130  1.0  0.2072
  Ag  Ag13  1  0.355720  0.486130  0.645830  1.0  0.2622
  Ag  Ag14  1  0.014960  0.440710  0.581990  1.0  0.2355
  H  H15  1  0.760300  0.866800  0.412000  1.0  0.1307
  H  H16  1  0.675700  0.996600  0.415100  1.0  0.0744
  H  H17  1  0.953300  0.975000  0.587100  1.0  0.106
  H  H18  1  0.860900  0.100700  0.587400  1.0  0.0927
  H  H19  1  0.060100  0.348900  0.193200  1.0  0.1198
  H  H20  1  0.857600  0.029900  0.192000  1.0  0.0785
  H  H21  1  0.499600  0.452100  0.559300  1.0  0.1084
  H  H22  1  0.642100  0.129000  0.071000  1.0  0.0764
  H  H23  1  0.633000  0.363200  0.559800  1.0  0.0796
  H  H24  1  0.202700  0.441500  0.006500  1.0  0.0702
  H  H25  1  0.332100  0.590900  0.015400  1.0  0.1278
  H  H26  1  0.905100  0.171500  0.264800  1.0  0.1246
  H  H27  1  0.155200  0.130000  0.063600  1.0  0.091
  H  H28  1  0.685900  0.275600  0.138100  1.0  0.1058
  H  H29  1  0.270300  0.258100  0.412000  1.0  0.1144
  H  H30  1  0.292700  0.205100  0.156100  1.0  0.1201
  H  H31  1  0.297000  0.322200  0.871700  1.0  0.0847
  H  H32  1  0.431200  0.473100  0.874000  1.0  0.1196
  H  H33  1  0.925100  0.264700  0.100800  1.0  0.0713
  H  H34  1  0.402900  0.166100  0.419300  1.0  0.0842
  H  H35  1  0.239700  0.133200  0.588000  1.0  0.1305
  H  H36  1  0.324300  0.003400  0.584900  1.0  0.0749
  H  H37  1  0.046700  0.025000  0.412900  1.0  0.1073
  H  H38  1  0.139100  0.899300  0.412600  1.0  0.0914
  H  H39  1  0.939900  0.651100  0.806800  1.0  0.12
  H  H40  1  0.142400  0.970100  0.808000  1.0  0.0775
  H  H41  1  0.500400  0.547900  0.440700  1.0  0.1089
  H  H42  1  0.357900  0.871000  0.929000  1.0  0.0766
  H  H43  1  0.367000  0.636800  0.440200  1.0  0.0784
  H  H44  1  0.797300  0.558500  0.993500  1.0  0.0696
  H  H45  1  0.667900  0.409100  0.984600  1.0  0.1262
  H  H46  1  0.094900  0.828500  0.735200  1.0  0.1245
  H  H47  1  0.844800  0.870000  0.936400  1.0  0.0921
  H  H48  1  0.314100  0.724400  0.861900  1.0  0.1054
  H  H49  1  0.729700  0.741900  0.588000  1.0  0.114
  H  H50  1  0.707300  0.794900  0.843900  1.0  0.121
  H  H51  1  0.703000  0.677800  0.128300  1.0  0.0842
  H  H52  1  0.568800  0.526900  0.126000  1.0  0.1199
  H  H53  1  0.074900  0.735300  0.899200  1.0  0.0707
  H  H54  1  0.597100  0.833900  0.580700  1.0  0.0847
  C  C55  1  0.782300  0.913900  0.448000  1.0  -0.1642
  C  C56  1  0.732700  0.991800  0.450500  1.0  0.1218
  C  C57  1  0.867100  0.907500  0.501400  1.0  0.0013
  C  C58  1  0.895600  0.977600  0.551400  1.0  -0.1242
  C  C59  1  0.841200  0.054200  0.551400  1.0  0.1092
  C  C60  1  0.080100  0.303900  0.167600  1.0  -0.1676
  C  C61  1  0.283700  0.342500  0.242700  1.0  0.318
  C  C62  1  0.821500  0.080100  0.181700  1.0  0.1341
  C  C63  1  0.478700  0.393500  0.530500  1.0  -0.1572
  C  C64  1  0.695500  0.137600  0.110300  1.0  0.1354
  C  C65  1  0.557800  0.340300  0.530600  1.0  0.1298
  C  C66  1  0.249800  0.448600  0.979800  1.0  0.2019
  C  C67  1  0.365600  0.361000  0.487400  1.0  0.0182
  C  C68  1  0.191600  0.286800  0.184600  1.0  -0.0242
  C  C69  1  0.484300  0.648300  0.951700  1.0  0.3021
  C  C70  1  0.281300  0.421900  0.488200  1.0  0.3052
  C  C71  1  0.813000  0.326300  0.256200  1.0  0.2666
  C  C72  1  0.326300  0.537300  0.985800  1.0  -0.1873
  C  C73  1  0.851500  0.164700  0.225800  1.0  -0.1877
  C  C74  1  0.923700  0.824000  0.499000  1.0  0.3185
  C  C75  1  0.399300  0.548500  0.945600  1.0  0.0176
  C  C76  1  0.136200  0.173200  0.090800  1.0  0.1923
  C  C77  1  0.720800  0.225500  0.150500  1.0  -0.178
  C  C78  1  0.342000  0.278200  0.444000  1.0  -0.1471
  C  C79  1  0.218800  0.218700  0.145000  1.0  -0.1806
  C  C80  1  0.797900  0.239600  0.209300  1.0  -0.0288
  C  C81  1  0.304800  0.378000  0.900100  1.0  0.1841
  C  C82  1  0.386200  0.467500  0.901700  1.0  -0.1743
  C  C83  1  0.000300  0.253600  0.112500  1.0  0.1856
  C  C84  1  0.423100  0.225400  0.447400  1.0  0.1055
  C  C85  1  0.217700  0.086100  0.552000  1.0  -0.1657
  C  C86  1  0.267300  0.008200  0.549500  1.0  0.1276
  C  C87  1  0.132900  0.092500  0.498600  1.0  -0.0012
  C  C88  1  0.104400  0.022400  0.448600  1.0  -0.1055
  C  C89  1  0.158800  0.945800  0.448600  1.0  0.1079
  C  C90  1  0.919900  0.696100  0.832400  1.0  -0.167
  C  C91  1  0.716300  0.657500  0.757300  1.0  0.3186
  C  C92  1  0.178500  0.919900  0.818300  1.0  0.1334
  C  C93  1  0.521300  0.606500  0.469500  1.0  -0.1575
  C  C94  1  0.304500  0.862400  0.889700  1.0  0.1354
  C  C95  1  0.442200  0.659700  0.469400  1.0  0.128
  C  C96  1  0.750200  0.551400  0.020200  1.0  0.2007
  C  C97  1  0.634400  0.639000  0.512600  1.0  0.019
  C  C98  1  0.808400  0.713200  0.815400  1.0  -0.0225
  C  C99  1  0.515700  0.351700  0.048300  1.0  0.3019
  C  C100  1  0.718700  0.578100  0.511800  1.0  0.3047
  C  C101  1  0.187000  0.673700  0.743800  1.0  0.2664
  C  C102  1  0.673700  0.462700  0.014200  1.0  -0.1882
  C  C103  1  0.148500  0.835300  0.774200  1.0  -0.1841
  C  C104  1  0.076300  0.176000  0.501000  1.0  0.3185
  C  C105  1  0.600700  0.451500  0.054400  1.0  0.0164
  C  C106  1  0.863800  0.826800  0.909200  1.0  0.1937
  C  C107  1  0.279200  0.774500  0.849500  1.0  -0.1782
  C  C108  1  0.658000  0.721800  0.556000  1.0  -0.1464
  C  C109  1  0.781200  0.781300  0.855000  1.0  -0.1817
  C  C110  1  0.202100  0.760400  0.790700  1.0  -0.0295
  C  C111  1  0.695200  0.622000  0.099900  1.0  0.1859
  C  C112  1  0.613800  0.532500  0.098300  1.0  -0.1729
  C  C113  1  0.999700  0.746400  0.887500  1.0  0.1853
  C  C114  1  0.576900  0.774600  0.552600  1.0  0.1074
  N  N115  1  0.744000  0.064900  0.125000  1.0  -0.3127
  N  N116  1  0.449600  0.418200  0.311100  1.0  -0.0052
  N  N117  1  0.401500  0.363400  0.253100  1.0  -0.2912
  N  N118  1  0.258600  0.379000  0.292400  1.0  -0.2599
  N  N119  1  0.722000  0.369100  0.256700  1.0  -0.2746
  N  N120  1  0.765000  0.440500  0.306700  1.0  -0.0925
  N  N121  1  0.188700  0.423100  0.440600  1.0  -0.3046
  N  N122  1  0.196600  0.523900  0.521300  1.0  -0.0173
  N  N123  1  0.598800  0.777400  0.933500  1.0  -0.1453
  N  N124  1  0.364800  0.428000  0.335100  1.0  -0.1214
  N  N125  1  0.878000  0.441000  0.334900  1.0  0.0012
  N  N126  1  0.285700  0.480700  0.539500  1.0  -0.3046
  N  N127  1  0.971500  0.696400  0.469000  1.0  -0.0014
  N  N128  1  0.011700  0.814100  0.548900  1.0  -0.3739
  N  N129  1  0.026500  0.188300  0.074500  1.0  -0.4586
  N  N130  1  0.761900  0.062100  0.501200  1.0  -0.2732
  N  N131  1  0.235500  0.369300  0.938800  1.0  -0.4607
  N  N132  1  0.525700  0.687000  0.907100  1.0  -0.2297
  N  N133  1  0.532700  0.255400  0.490100  1.0  -0.3049
  N  N134  1  0.909100  0.373300  0.304200  1.0  -0.2267
  N  N135  1  0.137800  0.490400  0.463200  1.0  -0.0556
  N  N136  1  0.897300  0.753300  0.451200  1.0  -0.3798
  N  N137  1  0.526900  0.712800  0.004800  1.0  -0.3533
  N  N138  1  0.598400  0.791000  0.991700  1.0  0.0347
  N  N139  1  0.036500  0.733800  0.525800  1.0  0.0085
  N  N140  1  0.256000  0.935100  0.875000  1.0  -0.3132
  N  N141  1  0.550400  0.581800  0.688900  1.0  -0.0018
  N  N142  1  0.598500  0.636600  0.746900  1.0  -0.2886
  N  N143  1  0.741400  0.621000  0.707600  1.0  -0.26
  N  N144  1  0.278000  0.630900  0.743300  1.0  -0.2765
  N  N145  1  0.235000  0.559500  0.693300  1.0  -0.0928
  N  N146  1  0.811300  0.576900  0.559400  1.0  -0.3031
  N  N147  1  0.803400  0.476100  0.478700  1.0  -0.0152
  N  N148  1  0.401200  0.222600  0.066500  1.0  -0.1449
  N  N149  1  0.635200  0.572000  0.664900  1.0  -0.1104
  N  N150  1  0.122000  0.559000  0.665100  1.0  0.0021
  N  N151  1  0.714300  0.519300  0.460500  1.0  -0.3044
  N  N152  1  0.028500  0.303600  0.531000  1.0  -0.0029
  N  N153  1  0.988300  0.185900  0.451100  1.0  -0.3738
  N  N154  1  0.973500  0.811700  0.925500  1.0  -0.4572
  N  N155  1  0.238100  0.937900  0.498800  1.0  -0.2722
  N  N156  1  0.764500  0.630700  0.061200  1.0  -0.4595
  N  N157  1  0.474300  0.313000  0.092900  1.0  -0.2297
  N  N158  1  0.467300  0.744600  0.509900  1.0  -0.3051
  N  N159  1  0.090900  0.626700  0.695800  1.0  -0.2264
  N  N160  1  0.862200  0.509600  0.536800  1.0  -0.0542
  N  N161  1  0.102700  0.246700  0.548800  1.0  -0.3776
  N  N162  1  0.473100  0.287200  0.995200  1.0  -0.3521
  N  N163  1  0.401600  0.209000  0.008300  1.0  0.0344
  N  N164  1  0.963500  0.266200  0.474200  1.0  0.0085
