# generated using pymatgen
data_CdH4(C2O)4
_symmetry_space_group_name_H-M   'P 1'
_cell_length_a   7.06880000
_cell_length_b   11.46440000
_cell_length_c   16.42100000
_cell_angle_alpha   82.92000000
_cell_angle_beta   77.57060000
_cell_angle_gamma   72.04360000
_symmetry_Int_Tables_number   1
_chemical_formula_structural   CdH4(C2O)4
_chemical_formula_sum   'Cd4 H16 C32 O16'
_cell_volume   1233.93952454
_cell_formula_units_Z   4
loop_
 _symmetry_equiv_pos_site_id
 _symmetry_equiv_pos_as_xyz
  1  'x, y, z'
loop_
 _atom_site_type_symbol
 _atom_site_label
 _atom_site_symmetry_multiplicity
 _atom_site_fract_x
 _atom_site_fract_y
 _atom_site_fract_z
 _atom_site_occupancy
 _atom_site_charge
  Cd  Cd1  1  0.271490  0.750690  0.778510  1.0  1.0835
  Cd  Cd2  1  0.800690  0.749310  0.721490  1.0  1.0842
  Cd  Cd3  1  0.199310  0.250690  0.278510  1.0  1.0834
  Cd  Cd4  1  0.728510  0.249310  0.221490  1.0  1.0829
  H  H5  1  0.568400  0.645400  0.235400  1.0  0.1185
  H  H6  1  0.431600  0.354600  0.764600  1.0  0.1183
  H  H7  1  0.001900  0.355700  0.756300  1.0  0.1172
  H  H8  1  0.886100  0.855700  0.256300  1.0  0.1158
  H  H9  1  0.524000  0.549400  0.628000  1.0  0.0958
  H  H10  1  0.476000  0.450600  0.372000  1.0  0.0964
  H  H11  1  0.449200  0.854600  0.264600  1.0  0.1193
  H  H12  1  0.998100  0.644300  0.243700  1.0  0.117
  H  H13  1  0.190900  0.563900  0.456700  1.0  0.1184
  H  H14  1  0.550800  0.145400  0.735400  1.0  0.1189
  H  H15  1  0.298600  0.049400  0.128000  1.0  0.0955
  H  H16  1  0.788500  0.063900  0.956700  1.0  0.1194
  H  H17  1  0.211500  0.936100  0.043300  1.0  0.1195
  H  H18  1  0.113900  0.144300  0.743700  1.0  0.1169
  H  H19  1  0.701400  0.950600  0.872000  1.0  0.0963
  H  H20  1  0.809100  0.436100  0.543300  1.0  0.1187
  C  C21  1  0.514400  0.528800  0.576400  1.0  -0.0262
  C  C22  1  0.619600  0.971200  0.923600  1.0  -0.0245
  C  C23  1  0.685100  0.462200  0.525600  1.0  -0.0562
  C  C24  1  0.671000  0.434500  0.447500  1.0  -0.1245
  C  C25  1  0.610000  0.139500  0.108500  1.0  0.7021
  C  C26  1  0.088900  0.687500  0.244700  1.0  -0.0213
  C  C27  1  0.359400  0.813000  0.258200  1.0  -0.0139
  C  C28  1  0.569400  0.313000  0.758200  1.0  -0.0146
  C  C29  1  0.082000  0.009800  0.278200  1.0  0.7098
  C  C30  1  0.327100  0.962200  0.025600  1.0  -0.0608
  C  C31  1  0.157300  0.872700  0.264700  1.0  -0.1101
  C  C32  1  0.021100  0.812500  0.255300  1.0  -0.0218
  C  C33  1  0.858000  0.360500  0.391500  1.0  0.7003
  C  C34  1  0.918000  0.990200  0.721800  1.0  0.711
  C  C35  1  0.705300  0.372700  0.764700  1.0  -0.1064
  C  C36  1  0.447000  0.934500  0.947500  1.0  -0.1248
  C  C37  1  0.370000  0.490200  0.221800  1.0  0.7119
  C  C38  1  0.842700  0.127300  0.735300  1.0  -0.1106
  C  C39  1  0.640600  0.187000  0.741800  1.0  -0.0152
  C  C40  1  0.390000  0.860500  0.891500  1.0  0.6998
  C  C41  1  0.553000  0.065500  0.052500  1.0  -0.125
  C  C42  1  0.380400  0.028800  0.076400  1.0  -0.0242
  C  C43  1  0.485600  0.471200  0.423600  1.0  -0.0259
  C  C44  1  0.672900  0.037800  0.974400  1.0  -0.0568
  C  C45  1  0.978900  0.187500  0.744700  1.0  -0.0212
  C  C46  1  0.430600  0.687000  0.241800  1.0  -0.0155
  C  C47  1  0.314900  0.537800  0.474400  1.0  -0.0567
  C  C48  1  0.294700  0.627300  0.235300  1.0  -0.1075
  C  C49  1  0.142000  0.639500  0.608500  1.0  0.7006
  C  C50  1  0.329000  0.565500  0.552500  1.0  -0.1228
  C  C51  1  0.911100  0.312500  0.755300  1.0  -0.0212
  C  C52  1  0.630000  0.509800  0.778200  1.0  0.7109
  O  O53  1  0.759800  0.173200  0.087200  1.0  -0.6018
  O  O54  1  0.162100  0.661300  0.680500  1.0  -0.7433
  O  O55  1  0.760500  0.563300  0.765700  1.0  -0.6421
  O  O56  1  0.020200  0.326800  0.412800  1.0  -0.6001
  O  O57  1  0.910500  0.063300  0.265700  1.0  -0.6442
  O  O58  1  0.195700  0.056700  0.301900  1.0  -0.6049
  O  O59  1  0.445700  0.556700  0.801900  1.0  -0.6063
  O  O60  1  0.496100  0.161300  0.180500  1.0  -0.7424
  O  O61  1  0.804300  0.943300  0.698100  1.0  -0.6058
  O  O62  1  0.240200  0.826800  0.912800  1.0  -0.6032
  O  O63  1  0.503900  0.838700  0.819500  1.0  -0.7432
  O  O64  1  0.554300  0.443300  0.198100  1.0  -0.6068
  O  O65  1  0.979800  0.673200  0.587200  1.0  -0.6005
  O  O66  1  0.089500  0.936700  0.734300  1.0  -0.6431
  O  O67  1  0.239500  0.436700  0.234300  1.0  -0.6428
  O  O68  1  0.837900  0.338700  0.319500  1.0  -0.7439
