# generated using pymatgen
data_ZnH12C24(NO5)2
_symmetry_space_group_name_H-M   'P 1'
_cell_length_a   10.00400000
_cell_length_b   10.29300000
_cell_length_c   17.91400000
_cell_angle_alpha   103.66000000
_cell_angle_beta   99.58000000
_cell_angle_gamma   93.45000000
_symmetry_Int_Tables_number   1
_chemical_formula_structural   ZnH12C24(NO5)2
_chemical_formula_sum   'Zn2 H24 C48 N4 O20'
_cell_volume   1757.89990430
_cell_formula_units_Z   2
loop_
 _symmetry_equiv_pos_site_id
 _symmetry_equiv_pos_as_xyz
  1  'x, y, z'
loop_
 _atom_site_type_symbol
 _atom_site_label
 _atom_site_symmetry_multiplicity
 _atom_site_fract_x
 _atom_site_fract_y
 _atom_site_fract_z
 _atom_site_occupancy
 _atom_site_charge
  Zn  Zn1  1  0.943990  0.457800  0.679470  1.0  1.0136
  Zn  Zn2  1  0.056010  0.542200  0.320530  1.0  1.0119
  H  H3  1  0.415200  0.465700  0.682300  1.0  0.12
  H  H4  1  0.318100  0.582000  0.894600  1.0  0.1262
  H  H5  1  0.710700  0.596600  0.871200  1.0  0.1342
  H  H6  1  0.750700  0.768600  0.112100  1.0  0.1406
  H  H7  1  0.818700  0.831100  0.246600  1.0  0.1177
  H  H8  1  0.429400  0.829800  0.272300  1.0  0.135
  H  H9  1  0.359800  0.767300  0.138400  1.0  0.1312
  H  H10  1  0.842400  0.677300  0.487300  1.0  0.1379
  H  H11  1  0.955500  0.956600  0.690900  1.0  0.123
  H  H12  1  0.821200  0.068000  0.494100  1.0  0.1266
  H  H13  1  0.801700  0.765000  0.367900  1.0  0.3159
  H  H14  1  0.637700  0.624500  0.000100  1.0  0.2659
  H  H15  1  0.584800  0.534300  0.317700  1.0  0.1195
  H  H16  1  0.681900  0.418000  0.105400  1.0  0.1263
  H  H17  1  0.289300  0.403400  0.128800  1.0  0.135
  H  H18  1  0.249300  0.231400  0.887900  1.0  0.1407
  H  H19  1  0.181300  0.168900  0.753400  1.0  0.1184
  H  H20  1  0.570600  0.170200  0.727700  1.0  0.1345
  H  H21  1  0.640200  0.232700  0.861600  1.0  0.1298
  H  H22  1  0.157600  0.322700  0.512700  1.0  0.1376
  H  H23  1  0.044500  0.043400  0.309100  1.0  0.1231
  H  H24  1  0.178800  0.932000  0.505900  1.0  0.1258
  H  H25  1  0.198300  0.235000  0.632100  1.0  0.3156
  H  H26  1  0.362300  0.375500  0.999900  1.0  0.2666
  C  C27  1  0.682900  0.495500  0.716400  1.0  0.7209
  C  C28  1  0.579600  0.524100  0.769270  1.0  -0.1589
  C  C29  1  0.441900  0.497700  0.736200  1.0  0.0315
  C  C30  1  0.344000  0.518900  0.782910  1.0  -0.1355
  C  C31  1  0.195400  0.490300  0.747100  1.0  0.658
  C  C32  1  0.383700  0.568800  0.863100  1.0  -0.1187
  C  C33  1  0.520900  0.599100  0.896770  1.0  0.2365
  C  C34  1  0.618600  0.576400  0.849100  1.0  -0.0838
  C  C35  1  0.495800  0.734400  0.025100  1.0  0.5644
  C  C36  1  0.547700  0.765800  0.111200  1.0  -0.0331
  C  C37  1  0.685900  0.782300  0.144100  1.0  -0.1193
  C  C38  1  0.726400  0.819300  0.224700  1.0  -0.1021
  C  C39  1  0.631200  0.838600  0.272700  1.0  0.0079
  C  C40  1  0.494000  0.818500  0.240100  1.0  -0.0664
  C  C41  1  0.452300  0.781600  0.159900  1.0  -0.0567
  C  C42  1  0.671600  0.891000  0.359600  1.0  0.6098
  C  C43  1  0.820500  0.867600  0.478200  1.0  0.2488
  C  C44  1  0.853900  0.766700  0.515500  1.0  -0.0938
  C  C45  1  0.904600  0.800600  0.595500  1.0  -0.1267
  C  C46  1  0.937600  0.693700  0.639200  1.0  0.7175
  C  C47  1  0.921600  0.934300  0.637400  1.0  0.0398
  C  C48  1  0.888100  0.035500  0.599870  1.0  -0.1362
  C  C49  1  0.907100  0.180000  0.645900  1.0  0.7035
  C  C50  1  0.840300  0.000900  0.520000  1.0  -0.1364
  C  C51  1  0.317100  0.504500  0.283600  1.0  0.7207
  C  C52  1  0.420400  0.475900  0.230730  1.0  -0.162
  C  C53  1  0.558100  0.502300  0.263800  1.0  0.0292
  C  C54  1  0.656000  0.481100  0.217090  1.0  -0.1354
  C  C55  1  0.804600  0.509700  0.252900  1.0  0.6591
  C  C56  1  0.616300  0.431200  0.136900  1.0  -0.1176
  C  C57  1  0.479100  0.400900  0.103230  1.0  0.2399
  C  C58  1  0.381400  0.423600  0.150900  1.0  -0.084
  C  C59  1  0.504200  0.265600  0.974900  1.0  0.5652
  C  C60  1  0.452300  0.234200  0.888800  1.0  -0.0322
  C  C61  1  0.314100  0.217700  0.855900  1.0  -0.1227
  C  C62  1  0.273600  0.180700  0.775300  1.0  -0.1017
  C  C63  1  0.368800  0.161400  0.727300  1.0  0.0081
  C  C64  1  0.506000  0.181500  0.759900  1.0  -0.0636
  C  C65  1  0.547700  0.218400  0.840100  1.0  -0.0544
  C  C66  1  0.328400  0.109000  0.640400  1.0  0.6103
  C  C67  1  0.179500  0.132400  0.521800  1.0  0.2485
  C  C68  1  0.146100  0.233300  0.484500  1.0  -0.0923
  C  C69  1  0.095400  0.199400  0.404500  1.0  -0.125
  C  C70  1  0.062400  0.306300  0.360800  1.0  0.7176
  C  C71  1  0.078400  0.065700  0.362600  1.0  0.0423
  C  C72  1  0.111900  0.964500  0.400130  1.0  -0.1377
  C  C73  1  0.092900  0.820000  0.354100  1.0  0.7036
  C  C74  1  0.159700  0.999100  0.480000  1.0  -0.1369
  N  N75  1  0.768600  0.830500  0.396060  1.0  -0.3978
  N  N76  1  0.563600  0.649500  0.978490  1.0  -0.3374
  N  N77  1  0.231400  0.169500  0.603940  1.0  -0.3979
  N  N78  1  0.436400  0.350500  0.021510  1.0  -0.3362
  O  O79  1  0.806400  0.495600  0.748910  1.0  -0.5836
  O  O80  1  0.643000  0.475900  0.645370  1.0  -0.5066
  O  O81  1  0.161200  0.434100  0.675110  1.0  -0.5812
  O  O82  1  0.107700  0.522200  0.788630  1.0  -0.5208
  O  O83  1  0.394700  0.783700  0.999590  1.0  -0.4817
  O  O84  1  0.615900  0.984100  0.393050  1.0  -0.4801
  O  O85  1  0.912500  0.571200  0.601480  1.0  -0.5846
  O  O86  1  0.986500  0.729600  0.709410  1.0  -0.516
  O  O87  1  0.942600  0.208100  0.717970  1.0  -0.4857
  O  O88  1  0.887100  0.270300  0.608170  1.0  -0.587
  O  O89  1  0.193600  0.504400  0.251090  1.0  -0.5829
  O  O90  1  0.357000  0.524100  0.354630  1.0  -0.5057
  O  O91  1  0.838800  0.565900  0.324890  1.0  -0.5789
  O  O92  1  0.892300  0.477800  0.211370  1.0  -0.5219
  O  O93  1  0.605300  0.216300  0.000410  1.0  -0.4833
  O  O94  1  0.384100  0.015900  0.606950  1.0  -0.4813
  O  O95  1  0.087500  0.428800  0.398520  1.0  -0.584
  O  O96  1  0.013500  0.270400  0.290590  1.0  -0.5169
  O  O97  1  0.057400  0.791900  0.282030  1.0  -0.4847
  O  O98  1  0.112900  0.729700  0.391830  1.0  -0.5866
