# generated using pymatgen
data_CdH12C24(NO5)2
_symmetry_space_group_name_H-M   'P 1'
_cell_length_a   10.18400000
_cell_length_b   10.34800000
_cell_length_c   18.09100000
_cell_angle_alpha   102.34000000
_cell_angle_beta   99.19000000
_cell_angle_gamma   93.95000000
_symmetry_Int_Tables_number   1
_chemical_formula_structural   CdH12C24(NO5)2
_chemical_formula_sum   'Cd2 H24 C48 N4 O20'
_cell_volume   1828.02913890
_cell_formula_units_Z   2
loop_
 _symmetry_equiv_pos_site_id
 _symmetry_equiv_pos_as_xyz
  1  'x, y, z'
loop_
 _atom_site_type_symbol
 _atom_site_label
 _atom_site_symmetry_multiplicity
 _atom_site_fract_x
 _atom_site_fract_y
 _atom_site_fract_z
 _atom_site_occupancy
 _atom_site_charge
  Cd  Cd1  1  0.547260  0.546830  0.815570  1.0  1.118
  Cd  Cd2  1  0.452740  0.453170  0.184430  1.0  1.1192
  H  H3  1  0.857400  0.367000  0.495100  1.0  0.2133
  H  H4  1  0.728000  0.251900  0.128100  1.0  0.2862
  H  H5  1  0.174800  0.415700  0.603100  1.0  0.1298
  H  H6  1  0.784400  0.402200  0.615000  1.0  0.1359
  H  H7  1  0.059400  0.537600  0.806800  1.0  0.1271
  H  H8  1  0.757600  0.228900  0.386500  1.0  0.144
  H  H9  1  0.691300  0.167700  0.253200  1.0  0.1208
  H  H10  1  0.075200  0.164200  0.228000  1.0  0.1397
  H  H11  1  0.142200  0.223800  0.359100  1.0  0.1316
  H  H12  1  0.667100  0.325000  0.019200  1.0  0.1391
  H  H13  1  0.544600  0.055800  0.818700  1.0  0.1258
  H  H14  1  0.684100  0.935900  0.011000  1.0  0.1268
  H  H15  1  0.142600  0.633000  0.504900  1.0  0.2112
  H  H16  1  0.272000  0.748100  0.871900  1.0  0.2852
  H  H17  1  0.825200  0.584300  0.396900  1.0  0.1296
  H  H18  1  0.215600  0.597800  0.385000  1.0  0.1372
  H  H19  1  0.940600  0.462400  0.193200  1.0  0.127
  H  H20  1  0.242400  0.771100  0.613500  1.0  0.1426
  H  H21  1  0.308700  0.832300  0.746800  1.0  0.1206
  H  H22  1  0.924800  0.835800  0.772000  1.0  0.1395
  H  H23  1  0.857800  0.776200  0.640900  1.0  0.1325
  H  H24  1  0.332900  0.675000  0.980800  1.0  0.1391
  H  H25  1  0.455400  0.944200  0.181300  1.0  0.1264
  H  H26  1  0.315900  0.064100  0.989000  1.0  0.1267
  C  C27  1  0.283200  0.512100  0.748890  1.0  0.7066
  C  C28  1  0.138700  0.481800  0.710520  1.0  -0.1266
  C  C29  1  0.106900  0.429900  0.631740  1.0  -0.0997
  C  C30  1  0.974100  0.398900  0.595520  1.0  0.2347
  C  C31  1  0.873500  0.422600  0.638950  1.0  -0.0591
  C  C32  1  0.904400  0.476400  0.717560  1.0  -0.1363
  C  C33  1  0.037800  0.504200  0.753860  1.0  0.0093
  C  C34  1  0.795300  0.506100  0.763690  1.0  0.7181
  C  C35  1  0.008000  0.267000  0.471800  1.0  0.5827
  C  C36  1  0.957300  0.232700  0.386520  1.0  -0.0223
  C  C37  1  0.821300  0.215600  0.354800  1.0  -0.1258
  C  C38  1  0.781700  0.178300  0.274700  1.0  -0.0796
  C  C39  1  0.875300  0.157200  0.227640  1.0  -0.0054
  C  C40  1  0.011600  0.176200  0.259810  1.0  -0.069
  C  C41  1  0.051500  0.212500  0.338080  1.0  -0.029
  C  C42  1  0.835200  0.107200  0.142530  1.0  0.6086
  C  C43  1  0.687000  0.135200  0.027610  1.0  0.2453
  C  C44  1  0.653800  0.237200  0.991250  1.0  -0.1154
  C  C45  1  0.600600  0.207500  0.912860  1.0  -0.1245
  C  C46  1  0.579700  0.075500  0.870990  1.0  0.0331
  C  C47  1  0.611600  0.973200  0.907600  1.0  -0.1244
  C  C48  1  0.664200  0.004000  0.986170  1.0  -0.1081
  C  C49  1  0.587800  0.829600  0.864650  1.0  0.7118
  C  C50  1  0.569100  0.319200  0.873110  1.0  0.7256
  C  C51  1  0.716800  0.487900  0.251110  1.0  0.705
  C  C52  1  0.861300  0.518200  0.289480  1.0  -0.1266
  C  C53  1  0.893100  0.570100  0.368260  1.0  -0.1027
  C  C54  1  0.025900  0.601100  0.404480  1.0  0.2329
  C  C55  1  0.126500  0.577400  0.361050  1.0  -0.0585
  C  C56  1  0.095600  0.523600  0.282440  1.0  -0.1369
  C  C57  1  0.962200  0.495800  0.246140  1.0  0.0105
  C  C58  1  0.204700  0.493900  0.236310  1.0  0.7182
  C  C59  1  0.992000  0.733000  0.528200  1.0  0.5841
  C  C60  1  0.042700  0.767300  0.613480  1.0  -0.0219
  C  C61  1  0.178700  0.784400  0.645200  1.0  -0.1269
  C  C62  1  0.218300  0.821700  0.725300  1.0  -0.0819
  C  C63  1  0.124700  0.842800  0.772360  1.0  -0.0074
  C  C64  1  0.988400  0.823800  0.740190  1.0  -0.0715
  C  C65  1  0.948500  0.787500  0.661920  1.0  -0.0312
  C  C66  1  0.164800  0.892800  0.857470  1.0  0.6081
  C  C67  1  0.313000  0.864800  0.972390  1.0  0.2445
  C  C68  1  0.346200  0.762800  0.008750  1.0  -0.1156
  C  C69  1  0.399400  0.792500  0.087140  1.0  -0.124
  C  C70  1  0.420300  0.924500  0.129010  1.0  0.0332
  C  C71  1  0.388400  0.026800  0.092400  1.0  -0.1239
  C  C72  1  0.335800  0.996000  0.013830  1.0  -0.1075
  C  C73  1  0.412200  0.170400  0.135350  1.0  0.711
  C  C74  1  0.430900  0.680800  0.126890  1.0  0.7261
  N  N75  1  0.938000  0.348000  0.515040  1.0  -0.3442
  N  N76  1  0.739700  0.168100  0.107320  1.0  -0.3508
  N  N77  1  0.062000  0.652000  0.484960  1.0  -0.3442
  N  N78  1  0.260300  0.831900  0.892680  1.0  -0.3504
  O  O79  1  0.312090  0.565200  0.819620  1.0  -0.5794
  O  O80  1  0.371060  0.481600  0.708660  1.0  -0.5883
  O  O81  1  0.823700  0.538800  0.834830  1.0  -0.5515
  O  O82  1  0.676900  0.495600  0.726590  1.0  -0.5614
  O  O83  1  0.110000  0.224000  0.498280  1.0  -0.4814
  O  O84  1  0.888400  0.013900  0.108370  1.0  -0.4918
  O  O85  1  0.607000  0.742430  0.903080  1.0  -0.5666
  O  O86  1  0.547700  0.799700  0.793550  1.0  -0.5782
  O  O87  1  0.521500  0.292700  0.803870  1.0  -0.623
  O  O88  1  0.594500  0.436700  0.912540  1.0  -0.5689
  O  O89  1  0.687910  0.434800  0.180380  1.0  -0.579
  O  O90  1  0.628940  0.518400  0.291340  1.0  -0.5849
  O  O91  1  0.176300  0.461200  0.165170  1.0  -0.5509
  O  O92  1  0.323100  0.504400  0.273410  1.0  -0.5608
  O  O93  1  0.890000  0.776000  0.501720  1.0  -0.4794
  O  O94  1  0.111600  0.986100  0.891630  1.0  -0.492
  O  O95  1  0.393000  0.257570  0.096920  1.0  -0.5671
  O  O96  1  0.452300  0.200300  0.206450  1.0  -0.5792
  O  O97  1  0.478500  0.707300  0.196130  1.0  -0.6223
  O  O98  1  0.405500  0.563300  0.087460  1.0  -0.567
