# generated using pymatgen
data_CdH12C24(NO5)2
_symmetry_space_group_name_H-M   'P 1'
_cell_length_a   10.21700000
_cell_length_b   10.36200000
_cell_length_c   18.11800000
_cell_angle_alpha   102.53000000
_cell_angle_beta   99.35000000
_cell_angle_gamma   93.79000000
_symmetry_Int_Tables_number   1
_chemical_formula_structural   CdH12C24(NO5)2
_chemical_formula_sum   'Cd2 H24 C48 N4 O20'
_cell_volume   1837.30955128
_cell_formula_units_Z   2
loop_
 _symmetry_equiv_pos_site_id
 _symmetry_equiv_pos_as_xyz
  1  'x, y, z'
loop_
 _atom_site_type_symbol
 _atom_site_label
 _atom_site_symmetry_multiplicity
 _atom_site_fract_x
 _atom_site_fract_y
 _atom_site_fract_z
 _atom_site_occupancy
 _atom_site_charge
  Cd  Cd1  1  0.951850  0.952980  0.684180  1.0  1.0588
  Cd  Cd2  1  0.048150  0.047020  0.315820  1.0  1.0577
  H  H3  1  0.440100  0.961000  0.693300  1.0  0.1235
  H  H4  1  0.713900  0.097700  0.884600  1.0  0.1357
  H  H5  1  0.326300  0.083000  0.897400  1.0  0.1295
  H  H6  1  0.741600  0.271500  0.113700  1.0  0.146
  H  H7  1  0.807400  0.333900  0.245800  1.0  0.1173
  H  H8  1  0.426300  0.334900  0.271800  1.0  0.1348
  H  H9  1  0.357400  0.274800  0.140300  1.0  0.1411
  H  H10  1  0.816200  0.563500  0.488600  1.0  0.1297
  H  H11  1  0.956100  0.443900  0.680100  1.0  0.1245
  H  H12  1  0.831100  0.175100  0.480700  1.0  0.1286
  H  H13  1  0.634300  0.129900  0.007800  1.0  0.2818
  H  H14  1  0.789500  0.266000  0.364200  1.0  0.3263
  H  H15  1  0.559900  0.039000  0.306700  1.0  0.1237
  H  H16  1  0.286100  0.902300  0.115400  1.0  0.1347
  H  H17  1  0.673700  0.917000  0.102600  1.0  0.1296
  H  H18  1  0.258400  0.728500  0.886300  1.0  0.1471
  H  H19  1  0.192600  0.666100  0.754200  1.0  0.1169
  H  H20  1  0.573700  0.665100  0.728200  1.0  0.1348
  H  H21  1  0.642600  0.725200  0.859700  1.0  0.1399
  H  H22  1  0.183800  0.436500  0.511400  1.0  0.1299
  H  H23  1  0.043900  0.556100  0.319900  1.0  0.1235
  H  H24  1  0.168900  0.824900  0.519300  1.0  0.1283
  H  H25  1  0.365700  0.870100  0.992200  1.0  0.2827
  H  H26  1  0.210500  0.734000  0.635800  1.0  0.326
  C  C27  1  0.215900  0.987600  0.751200  1.0  0.7121
  C  C28  1  0.360200  0.018400  0.789200  1.0  -0.1266
  C  C29  1  0.461600  0.995400  0.746200  1.0  0.0162
  C  C30  1  0.594500  0.023900  0.782100  1.0  -0.1238
  C  C31  1  0.704300  0.993600  0.735800  1.0  0.7296
  C  C32  1  0.625000  0.077600  0.860500  1.0  -0.0668
  C  C33  1  0.525200  0.101900  0.903800  1.0  0.2368
  C  C34  1  0.393400  0.070000  0.868300  1.0  -0.1136
  C  C35  1  0.492100  0.233100  0.028100  1.0  0.573
  C  C36  1  0.542800  0.267900  0.113300  1.0  -0.0036
  C  C37  1  0.678100  0.284900  0.145200  1.0  -0.133
  C  C38  1  0.717000  0.322100  0.224500  1.0  -0.0985
  C  C39  1  0.624400  0.342000  0.272300  1.0  -0.0085
  C  C40  1  0.665700  0.392000  0.357300  1.0  0.6149
  C  C41  1  0.489400  0.323000  0.239900  1.0  -0.0617
  C  C42  1  0.447900  0.286700  0.161400  1.0  -0.0436
  C  C43  1  0.813200  0.363800  0.472600  1.0  0.2527
  C  C44  1  0.835800  0.495600  0.513500  1.0  -0.1222
  C  C45  1  0.888300  0.525500  0.592200  1.0  -0.1182
  C  C46  1  0.911500  0.670800  0.635200  1.0  0.707
  C  C47  1  0.920100  0.423800  0.627900  1.0  0.0391
  C  C48  1  0.899400  0.291800  0.587100  1.0  -0.1351
  C  C49  1  0.930600  0.180200  0.626900  1.0  0.7493
  C  C50  1  0.845400  0.262900  0.508700  1.0  -0.0683
  C  C51  1  0.784100  0.012400  0.248800  1.0  0.7109
  C  C52  1  0.639800  0.981600  0.210800  1.0  -0.1277
  C  C53  1  0.538400  0.004600  0.253800  1.0  0.0149
  C  C54  1  0.405500  0.976100  0.217900  1.0  -0.1247
  C  C55  1  0.295700  0.006400  0.264200  1.0  0.728
  C  C56  1  0.375000  0.922400  0.139500  1.0  -0.0684
  C  C57  1  0.474800  0.898100  0.096200  1.0  0.2402
  C  C58  1  0.606600  0.930000  0.131700  1.0  -0.1102
  C  C59  1  0.507900  0.766900  0.971900  1.0  0.5773
  C  C60  1  0.457200  0.732100  0.886700  1.0  -0.0041
  C  C61  1  0.321900  0.715100  0.854800  1.0  -0.1327
  C  C62  1  0.283000  0.677900  0.775500  1.0  -0.0991
  C  C63  1  0.375600  0.658000  0.727700  1.0  -0.0082
  C  C64  1  0.334300  0.608000  0.642700  1.0  0.6171
  C  C65  1  0.510600  0.677000  0.760100  1.0  -0.0599
  C  C66  1  0.552100  0.713300  0.838600  1.0  -0.0392
  C  C67  1  0.186800  0.636200  0.527400  1.0  0.2523
  C  C68  1  0.164200  0.504400  0.486500  1.0  -0.1228
  C  C69  1  0.111700  0.474500  0.407800  1.0  -0.1186
  C  C70  1  0.088500  0.329200  0.364800  1.0  0.7092
  C  C71  1  0.079900  0.576200  0.372100  1.0  0.0409
  C  C72  1  0.100600  0.708200  0.412900  1.0  -0.1341
  C  C73  1  0.069400  0.819800  0.373100  1.0  0.7491
  C  C74  1  0.154600  0.737100  0.491300  1.0  -0.0664
  N  N75  1  0.561900  0.152700  0.984900  1.0  -0.382
  N  N76  1  0.759100  0.330900  0.392400  1.0  -0.3793
  N  N77  1  0.438100  0.847300  0.015100  1.0  -0.38
  N  N78  1  0.240900  0.669100  0.607600  1.0  -0.3799
  O  O79  1  0.128100  0.018200  0.791400  1.0  -0.5877
  O  O80  1  0.186900  0.935200  0.680550  1.0  -0.5897
  O  O81  1  0.674400  0.961200  0.664700  1.0  -0.5416
  O  O82  1  0.821500  0.003200  0.772300  1.0  -0.5569
  O  O83  1  0.390800  0.277600  0.001400  1.0  -0.4736
  O  O84  1  0.610600  0.484000  0.391600  1.0  -0.5104
  O  O85  1  0.904300  0.063200  0.587100  1.0  -0.5481
  O  O86  1  0.978000  0.207100  0.695700  1.0  -0.62
  O  O87  1  0.891900  0.757200  0.596300  1.0  -0.5765
  O  O88  1  0.952400  0.701100  0.705800  1.0  -0.6229
  O  O89  1  0.871900  0.981800  0.208600  1.0  -0.5907
  O  O90  1  0.813100  0.064800  0.319450  1.0  -0.5864
  O  O91  1  0.325600  0.038800  0.335300  1.0  -0.5416
  O  O92  1  0.178500  0.996800  0.227700  1.0  -0.5578
  O  O93  1  0.609200  0.722400  0.998600  1.0  -0.4766
  O  O94  1  0.389400  0.516000  0.608400  1.0  -0.5102
  O  O95  1  0.095700  0.936800  0.412900  1.0  -0.5495
  O  O96  1  0.022000  0.792900  0.304300  1.0  -0.6229
  O  O97  1  0.108100  0.242800  0.403700  1.0  -0.5771
  O  O98  1  0.047600  0.298900  0.294200  1.0  -0.6219
