# generated using pymatgen
data_ZnH12C9N4O3
_symmetry_space_group_name_H-M   'P 1'
_cell_length_a   9.12690000
_cell_length_b   9.34270000
_cell_length_c   9.60400000
_cell_angle_alpha   114.45500000
_cell_angle_beta   90.00000000
_cell_angle_gamma   90.00000000
_symmetry_Int_Tables_number   1
_chemical_formula_structural   ZnH12C9N4O3
_chemical_formula_sum   'Zn2 H24 C18 N8 O6'
_cell_volume   745.46290867
_cell_formula_units_Z   2
loop_
 _symmetry_equiv_pos_site_id
 _symmetry_equiv_pos_as_xyz
  1  'x, y, z'
loop_
 _atom_site_type_symbol
 _atom_site_label
 _atom_site_symmetry_multiplicity
 _atom_site_fract_x
 _atom_site_fract_y
 _atom_site_fract_z
 _atom_site_occupancy
 _atom_site_charge
  Zn  Zn1  1  0.564660  0.403590  0.284560  1.0  0.8152
  Zn  Zn2  1  0.064660  0.596410  0.715440  1.0  0.8147
  H  H3  1  0.276900  0.566400  0.454400  1.0  0.0716
  H  H4  1  0.431200  0.357300  0.842800  1.0  0.1131
  H  H5  1  0.262400  0.387700  0.845300  1.0  0.1095
  H  H6  1  0.574400  0.620600  0.912400  1.0  0.2839
  H  H7  1  0.559400  0.338300  0.592100  1.0  0.1062
  H  H8  1  0.678800  0.078900  0.252200  1.0  0.0776
  H  H9  1  0.767200  0.111800  0.128700  1.0  0.0627
  H  H10  1  0.289700  0.651200  0.000000  1.0  0.0821
  H  H11  1  0.661200  0.892400  0.933900  1.0  0.1216
  H  H12  1  0.742300  0.841500  0.050000  1.0  0.1096
  H  H13  1  0.550000  0.161000  0.046000  1.0  0.3291
  H  H14  1  0.476000  0.133000  0.159000  1.0  0.2942
  H  H15  1  0.776900  0.433600  0.545600  1.0  0.0741
  H  H16  1  0.931200  0.642700  0.157200  1.0  0.1127
  H  H17  1  0.762400  0.612300  0.154700  1.0  0.1092
  H  H18  1  0.074400  0.379400  0.087600  1.0  0.2838
  H  H19  1  0.059400  0.661700  0.407900  1.0  0.1055
  H  H20  1  0.178800  0.921100  0.747800  1.0  0.082
  H  H21  1  0.267200  0.888200  0.871300  1.0  0.0637
  H  H22  1  0.789700  0.348800  0.000000  1.0  0.0824
  H  H23  1  0.161200  0.107600  0.066100  1.0  0.1193
  H  H24  1  0.242300  0.158500  0.950000  1.0  0.1096
  H  H25  1  0.050000  0.839000  0.954000  1.0  0.3283
  H  H26  1  0.976000  0.867000  0.841000  1.0  0.298
  C  C27  1  0.323200  0.521500  0.512900  1.0  0.2651
  C  C28  1  0.357800  0.432100  0.842200  1.0  -0.2552
  C  C29  1  0.478300  0.396500  0.587700  1.0  -0.0285
  C  C30  1  0.370600  0.451200  0.696400  1.0  0.1636
  C  C31  1  0.675100  0.071900  0.148700  1.0  0.0917
  C  C32  1  0.384600  0.538400  0.122900  1.0  0.6201
  C  C33  1  0.376300  0.584900  0.987600  1.0  0.0467
  C  C34  1  0.659200  0.900000  0.037700  1.0  -0.2831
  C  C35  1  0.519800  0.825500  0.060700  1.0  0.5649
  C  C36  1  0.823200  0.478500  0.487100  1.0  0.2657
  C  C37  1  0.857800  0.567900  0.157800  1.0  -0.256
  C  C38  1  0.978300  0.603500  0.412300  1.0  -0.0289
  C  C39  1  0.870600  0.548800  0.303600  1.0  0.1603
  C  C40  1  0.175100  0.928100  0.851300  1.0  0.0892
  C  C41  1  0.884600  0.461600  0.877100  1.0  0.6188
  C  C42  1  0.876300  0.415100  0.012400  1.0  0.0471
  C  C43  1  0.159200  0.100000  0.962300  1.0  -0.2958
  C  C44  1  0.019800  0.174500  0.939300  1.0  0.5647
  N  N45  1  0.552800  0.173500  0.137200  1.0  -0.6544
  N  N46  1  0.505900  0.670300  0.975300  1.0  -0.4336
  N  N47  1  0.447500  0.441000  0.470900  1.0  -0.4268
  N  N48  1  0.270500  0.532300  0.646700  1.0  -0.4727
  N  N49  1  0.052800  0.826500  0.862800  1.0  -0.6545
  N  N50  1  0.005900  0.329700  0.024700  1.0  -0.4338
  N  N51  1  0.947500  0.559000  0.529100  1.0  -0.4253
  N  N52  1  0.770500  0.467700  0.353300  1.0  -0.4658
  O  O53  1  0.513560  0.524400  0.167100  1.0  -0.6049
  O  O54  1  0.269100  0.509400  0.174400  1.0  -0.5894
  O  O55  1  0.422700  0.902900  0.150600  1.0  -0.5766
  O  O56  1  0.013560  0.475600  0.832900  1.0  -0.6042
  O  O57  1  0.769100  0.490600  0.825600  1.0  -0.5904
  O  O58  1  0.922700  0.097100  0.849400  1.0  -0.5776
