# generated using pymatgen
data_ZnH12C9N4O3
_symmetry_space_group_name_H-M   'P 1'
_cell_length_a   9.25220000
_cell_length_b   9.25560000
_cell_length_c   9.47810000
_cell_angle_alpha   90.00000000
_cell_angle_beta   118.41900000
_cell_angle_gamma   90.00000000
_symmetry_Int_Tables_number   1
_chemical_formula_structural   ZnH12C9N4O3
_chemical_formula_sum   'Zn2 H24 C18 N8 O6'
_cell_volume   713.84213287
_cell_formula_units_Z   2
loop_
 _symmetry_equiv_pos_site_id
 _symmetry_equiv_pos_as_xyz
  1  'x, y, z'
loop_
 _atom_site_type_symbol
 _atom_site_label
 _atom_site_symmetry_multiplicity
 _atom_site_fract_x
 _atom_site_fract_y
 _atom_site_fract_z
 _atom_site_occupancy
 _atom_site_charge
  Zn  Zn1  1  0.278890  0.626790  0.863360  1.0  0.8071
  Zn  Zn2  1  0.721110  0.126790  0.136640  1.0  0.8067
  H  H3  1  0.097500  0.718200  0.970100  1.0  0.2654
  H  H4  1  0.005300  0.604000  0.850400  1.0  0.3138
  H  H5  1  0.002300  0.901500  0.361300  1.0  0.0879
  H  H6  1  0.457300  0.926700  0.898200  1.0  0.0868
  H  H7  1  0.922000  0.612500  0.325500  1.0  0.281
  H  H8  1  0.563700  0.629600  0.239900  1.0  0.1093
  H  H9  1  0.256400  0.538300  0.152200  1.0  0.086
  H  H10  1  0.132900  0.424200  0.025400  1.0  0.0706
  H  H11  1  0.806100  0.754900  0.479200  1.0  0.1024
  H  H12  1  0.816500  0.926100  0.462600  1.0  0.1008
  H  H13  1  0.911600  0.532000  0.054000  1.0  0.0974
  H  H14  1  0.046500  0.457300  0.215200  1.0  0.0847
  H  H15  1  0.902500  0.218200  0.029900  1.0  0.265
  H  H16  1  0.994700  0.104000  0.149600  1.0  0.3124
  H  H17  1  0.997700  0.401500  0.638700  1.0  0.087
  H  H18  1  0.542700  0.426700  0.101800  1.0  0.087
  H  H19  1  0.078000  0.112500  0.674500  1.0  0.2822
  H  H20  1  0.436300  0.129600  0.760100  1.0  0.1082
  H  H21  1  0.743600  0.038300  0.847800  1.0  0.0873
  H  H22  1  0.867100  0.924200  0.974600  1.0  0.0716
  H  H23  1  0.193900  0.254900  0.520800  1.0  0.1017
  H  H24  1  0.183500  0.426100  0.537400  1.0  0.1003
  H  H25  1  0.088400  0.032000  0.946000  1.0  0.0974
  H  H26  1  0.953500  0.957300  0.784800  1.0  0.0836
  C  C27  1  0.117200  0.805300  0.587100  1.0  0.6612
  C  C28  1  0.982500  0.814400  0.412200  1.0  0.0429
  C  C29  1  0.506100  0.878100  0.998600  1.0  0.2125
  C  C30  1  0.673600  0.826200  0.248400  1.0  0.2005
  C  C31  1  0.564700  0.715300  0.185100  1.0  -0.0085
  C  C32  1  0.141700  0.523700  0.067100  1.0  0.0174
  C  C33  1  0.817100  0.832300  0.412800  1.0  -0.2877
  C  C34  1  0.047900  0.678800  0.230200  1.0  0.6057
  C  C35  1  0.026700  0.538900  0.140600  1.0  -0.2861
  C  C36  1  0.882800  0.305300  0.412900  1.0  0.66
  C  C37  1  0.017500  0.314400  0.587800  1.0  0.0422
  C  C38  1  0.493900  0.378100  0.001400  1.0  0.2132
  C  C39  1  0.326400  0.326200  0.751600  1.0  0.1992
  C  C40  1  0.435300  0.215300  0.814900  1.0  -0.0094
  C  C41  1  0.858300  0.023700  0.932900  1.0  0.0166
  C  C42  1  0.182900  0.332300  0.587200  1.0  -0.2874
  C  C43  1  0.952100  0.178800  0.769800  1.0  0.6036
  C  C44  1  0.973300  0.038900  0.859400  1.0  -0.2842
  N  N45  1  0.105300  0.626800  0.936200  1.0  -0.6382
  N  N46  1  0.635100  0.928600  0.131900  1.0  -0.3883
  N  N47  1  0.976900  0.688100  0.320400  1.0  -0.4267
  N  N48  1  0.454500  0.749100  0.025300  1.0  -0.4378
  N  N49  1  0.894700  0.126800  0.063800  1.0  -0.6388
  N  N50  1  0.364900  0.428600  0.868100  1.0  -0.3883
  N  N51  1  0.023100  0.188100  0.679600  1.0  -0.4274
  N  N52  1  0.545500  0.249100  0.974700  1.0  -0.4385
  O  O53  1  0.167400  0.677700  0.636900  1.0  -0.6112
  O  O54  1  0.162800  0.914200  0.670100  1.0  -0.5957
  O  O55  1  0.126000  0.780100  0.211200  1.0  -0.5482
  O  O56  1  0.832600  0.177700  0.363100  1.0  -0.6113
  O  O57  1  0.837200  0.414200  0.329900  1.0  -0.5976
  O  O58  1  0.874000  0.280100  0.788800  1.0  -0.5475
