# generated using pymatgen
data_ZnH12C9N4O3
_symmetry_space_group_name_H-M   'P 1'
_cell_length_a   8.96870000
_cell_length_b   10.90600000
_cell_length_c   14.58500000
_cell_angle_alpha   96.56700000
_cell_angle_beta   90.00000000
_cell_angle_gamma   90.00000000
_symmetry_Int_Tables_number   1
_chemical_formula_structural   ZnH12C9N4O3
_chemical_formula_sum   'Zn4 H48 C36 N16 O12'
_cell_volume   1417.23719554
_cell_formula_units_Z   4
loop_
 _symmetry_equiv_pos_site_id
 _symmetry_equiv_pos_as_xyz
  1  'x, y, z'
loop_
 _atom_site_type_symbol
 _atom_site_label
 _atom_site_symmetry_multiplicity
 _atom_site_fract_x
 _atom_site_fract_y
 _atom_site_fract_z
 _atom_site_occupancy
 _atom_site_charge
  Zn  Zn1  1  0.253280  0.065200  0.280970  1.0  0.8506
  Zn  Zn2  1  0.747550  0.369130  0.187820  1.0  0.8253
  Zn  Zn3  1  0.753280  0.934800  0.719030  1.0  0.8456
  Zn  Zn4  1  0.247550  0.630870  0.812180  1.0  0.8257
  H  H5  1  0.143500  0.426600  0.758100  1.0  0.3002
  H  H6  1  0.156000  0.496100  0.677100  1.0  0.3292
  H  H7  1  0.550400  0.200000  0.279300  1.0  0.0653
  H  H8  1  0.248200  0.184900  0.081700  1.0  0.1103
  H  H9  1  0.561600  0.514700  0.063700  1.0  0.0842
  H  H10  1  0.363600  0.332800  0.974000  1.0  0.1143
  H  H11  1  0.541500  0.325200  0.976400  1.0  0.1135
  H  H12  1  0.257400  0.603000  0.288000  1.0  0.1408
  H  H13  1  0.156100  0.649700  0.208700  1.0  0.1003
  H  H14  1  0.123400  0.878300  0.210600  1.0  0.3247
  H  H15  1  0.277200  0.874700  0.173200  1.0  0.3389
  H  H16  1  0.196400  0.799300  0.341800  1.0  0.0745
  H  H17  1  0.366300  0.806600  0.310000  1.0  0.0778
  H  H18  1  0.258500  0.732800  0.614100  1.0  0.1132
  H  H19  1  0.258700  0.504600  0.102200  1.0  0.2892
  H  H20  1  0.606400  0.029800  0.544100  1.0  0.075
  H  H21  1  0.328700  0.049800  0.614600  1.0  0.2796
  H  H22  1  0.387100  0.363000  0.744600  1.0  0.0724
  H  H23  1  0.406400  0.442800  0.659800  1.0  0.0775
  H  H24  1  0.550100  0.777100  0.818300  1.0  0.0686
  H  H25  1  0.216800  0.231700  0.659600  1.0  0.1075
  H  H26  1  0.222800  0.314900  0.576200  1.0  0.1253
  H  H27  1  0.381900  0.847200  0.495000  1.0  0.1147
  H  H28  1  0.556900  0.823800  0.498400  1.0  0.1134
  H  H29  1  0.643500  0.573400  0.241900  1.0  0.3032
  H  H30  1  0.656000  0.503900  0.322900  1.0  0.3298
  H  H31  1  0.050400  0.800000  0.720700  1.0  0.0655
  H  H32  1  0.748200  0.815100  0.918300  1.0  0.1098
  H  H33  1  0.061600  0.485300  0.936300  1.0  0.0837
  H  H34  1  0.863600  0.667200  0.026000  1.0  0.1144
  H  H35  1  0.041500  0.674800  0.023600  1.0  0.114
  H  H36  1  0.757400  0.397000  0.712000  1.0  0.1424
  H  H37  1  0.656100  0.350300  0.791300  1.0  0.1002
  H  H38  1  0.623400  0.121700  0.789400  1.0  0.324
  H  H39  1  0.777200  0.125300  0.826800  1.0  0.339
  H  H40  1  0.696400  0.200700  0.658200  1.0  0.0739
  H  H41  1  0.866300  0.193400  0.690000  1.0  0.0775
  H  H42  1  0.758500  0.267200  0.385900  1.0  0.1131
  H  H43  1  0.758700  0.495400  0.897800  1.0  0.2894
  H  H44  1  0.106400  0.970200  0.455900  1.0  0.0748
  H  H45  1  0.828700  0.950200  0.385400  1.0  0.2786
  H  H46  1  0.887100  0.637000  0.255400  1.0  0.0721
  H  H47  1  0.906400  0.557200  0.340200  1.0  0.0767
  H  H48  1  0.050100  0.222900  0.181700  1.0  0.0684
  H  H49  1  0.716800  0.768300  0.340400  1.0  0.1072
  H  H50  1  0.722800  0.685100  0.423800  1.0  0.1247
  H  H51  1  0.881900  0.152800  0.505000  1.0  0.114
  H  H52  1  0.056900  0.176200  0.501600  1.0  0.1134
  C  C53  1  0.500000  0.213200  0.224000  1.0  0.2516
  C  C54  1  0.335500  0.205100  0.117100  1.0  -0.0564
  C  C55  1  0.444100  0.283300  0.094400  1.0  0.1756
  C  C56  1  0.439100  0.552100  0.947600  1.0  0.6193
  C  C57  1  0.460500  0.492500  0.038000  1.0  0.0498
  C  C58  1  0.452400  0.352700  0.013100  1.0  -0.2564
  C  C59  1  0.253300  0.661000  0.240600  1.0  -0.3485
  C  C60  1  0.263200  0.791200  0.287400  1.0  0.0913
  C  C61  1  0.457600  0.828400  0.622800  1.0  0.2013
  C  C62  1  0.343800  0.758400  0.650000  1.0  -0.0463
  C  C63  1  0.481400  0.026500  0.422900  1.0  0.6356
  C  C64  1  0.502100  0.007900  0.524300  1.0  0.0523
  C  C65  1  0.375400  0.630000  0.172200  1.0  0.5584
  C  C66  1  0.334700  0.393500  0.691900  1.0  0.0902
  C  C67  1  0.502900  0.781900  0.760500  1.0  0.2414
  C  C68  1  0.282600  0.284000  0.625800  1.0  -0.3583
  C  C69  1  0.473800  0.870700  0.530300  1.0  -0.2589
  C  C70  1  0.406100  0.207300  0.583400  1.0  0.5791
  C  C71  1  0.000000  0.786800  0.776000  1.0  0.2496
  C  C72  1  0.835500  0.794900  0.882900  1.0  -0.0542
  C  C73  1  0.944100  0.716700  0.905600  1.0  0.174
  C  C74  1  0.939100  0.447900  0.052400  1.0  0.619
  C  C75  1  0.960500  0.507500  0.962000  1.0  0.0489
  C  C76  1  0.952400  0.647300  0.986900  1.0  -0.2562
  C  C77  1  0.753300  0.339000  0.759400  1.0  -0.349
  C  C78  1  0.763200  0.208800  0.712600  1.0  0.0876
  C  C79  1  0.957600  0.171600  0.377200  1.0  0.2016
  C  C80  1  0.843800  0.241600  0.350000  1.0  -0.0454
  C  C81  1  0.981400  0.973500  0.577100  1.0  0.6355
  C  C82  1  0.002100  0.992100  0.475700  1.0  0.0517
  C  C83  1  0.875400  0.370000  0.827800  1.0  0.5575
  C  C84  1  0.834700  0.606500  0.308100  1.0  0.097
  C  C85  1  0.002900  0.218100  0.239500  1.0  0.2408
  C  C86  1  0.782600  0.716000  0.374200  1.0  -0.3582
  C  C87  1  0.973800  0.129300  0.469700  1.0  -0.2578
  C  C88  1  0.906100  0.792700  0.416600  1.0  0.5759
  N  N89  1  0.207000  0.474200  0.727500  1.0  -0.6471
  N  N90  1  0.373000  0.730600  0.738200  1.0  -0.3951
  N  N91  1  0.369900  0.159200  0.199000  1.0  -0.4307
  N  N92  1  0.553600  0.287700  0.164200  1.0  -0.4751
  N  N93  1  0.222300  0.888300  0.226600  1.0  -0.6433
  N  N94  1  0.563300  0.842800  0.692500  1.0  -0.4987
  N  N95  1  0.347900  0.538500  0.105600  1.0  -0.4128
  N  N96  1  0.396500  0.083600  0.581900  1.0  -0.4383
  N  N97  1  0.707000  0.525800  0.272500  1.0  -0.6456
  N  N98  1  0.873000  0.269400  0.261800  1.0  -0.3947
  N  N99  1  0.869900  0.840800  0.801000  1.0  -0.43
  N  N100  1  0.053600  0.712300  0.835800  1.0  -0.4758
  N  N101  1  0.722300  0.111700  0.773400  1.0  -0.6412
  N  N102  1  0.063300  0.157200  0.307500  1.0  -0.4971
  N  N103  1  0.847900  0.461500  0.894400  1.0  -0.4124
  N  N104  1  0.896500  0.916400  0.418100  1.0  -0.4374
  O  O105  1  0.312300  0.602800  0.935000  1.0  -0.5976
  O  O106  1  0.543100  0.544200  0.890200  1.0  -0.5856
  O  O107  1  0.351500  0.060900  0.400000  1.0  -0.6062
  O  O108  1  0.500100  0.680800  0.180400  1.0  -0.5842
  O  O109  1  0.589200  0.000200  0.369400  1.0  -0.6003
  O  O110  1  0.515300  0.255100  0.547300  1.0  -0.5917
  O  O111  1  0.812300  0.397200  0.065000  1.0  -0.5969
  O  O112  1  0.043100  0.455800  0.109800  1.0  -0.5867
  O  O113  1  0.851500  0.939100  0.600000  1.0  -0.6069
  O  O114  1  0.000100  0.319200  0.819600  1.0  -0.5843
  O  O115  1  0.089200  0.999800  0.630600  1.0  -0.5994
  O  O116  1  0.015300  0.744900  0.452700  1.0  -0.5915
