# generated using pymatgen
data_CoH2(CO2)2
_symmetry_space_group_name_H-M   'P 1'
_cell_length_a   9.83350000
_cell_length_b   11.27270000
_cell_length_c   14.42490000
_cell_angle_alpha   91.24200000
_cell_angle_beta   90.00000000
_cell_angle_gamma   90.00000000
_symmetry_Int_Tables_number   1
_chemical_formula_structural   CoH2(CO2)2
_chemical_formula_sum   'Co12 H24 C24 O48'
_cell_volume   1598.62587766
_cell_formula_units_Z   12
loop_
 _symmetry_equiv_pos_site_id
 _symmetry_equiv_pos_as_xyz
  1  'x, y, z'
loop_
 _atom_site_type_symbol
 _atom_site_label
 _atom_site_symmetry_multiplicity
 _atom_site_fract_x
 _atom_site_fract_y
 _atom_site_fract_z
 _atom_site_occupancy
 _atom_site_charge
  Co  Co1  1  0.919330  0.755320  0.632850  1.0  1.1197
  Co  Co2  1  0.609290  0.760080  0.688770  1.0  1.1039
  Co  Co3  1  0.419330  0.744680  0.867150  1.0  1.1197
  Co  Co4  1  0.109290  0.739920  0.811230  1.0  1.1042
  Co  Co5  1  0.080670  0.244680  0.367150  1.0  1.1196
  Co  Co6  1  0.390710  0.239920  0.311230  1.0  1.1036
  Co  Co7  1  0.580670  0.255320  0.132850  1.0  1.1195
  Co  Co8  1  0.890710  0.260080  0.188770  1.0  1.1033
  Co  Co9  1  0.000000  0.500000  0.500000  1.0  1.1288
  Co  Co10  1  0.500000  0.000000  0.000000  1.0  1.1288
  Co  Co11  1  0.000000  0.000000  0.500000  1.0  1.1484
  Co  Co12  1  0.500000  0.500000  0.000000  1.0  1.1484
  H  H13  1  0.164000  0.701000  0.432000  1.0  0.0068
  H  H14  1  0.714000  0.989000  0.504000  1.0  0.03
  H  H15  1  0.758000  0.859000  0.865000  1.0  0.0053
  H  H16  1  0.623000  0.554000  0.541000  1.0  0.0029
  H  H17  1  0.189000  0.982000  0.744000  1.0  0.0247
  H  H18  1  0.039000  0.484000  0.758000  1.0  -0.0134
  H  H19  1  0.664000  0.799000  0.068000  1.0  0.0069
  H  H20  1  0.214000  0.511000  0.996000  1.0  0.0289
  H  H21  1  0.258000  0.641000  0.635000  1.0  0.0066
  H  H22  1  0.123000  0.946000  0.959000  1.0  0.0023
  H  H23  1  0.689000  0.518000  0.756000  1.0  0.0245
  H  H24  1  0.539000  0.016000  0.742000  1.0  -0.0136
  H  H25  1  0.836000  0.299000  0.568000  1.0  0.0065
  H  H26  1  0.286000  0.011000  0.496000  1.0  0.0301
  H  H27  1  0.242000  0.141000  0.135000  1.0  0.005
  H  H28  1  0.377000  0.446000  0.459000  1.0  0.0035
  H  H29  1  0.811000  0.018000  0.256000  1.0  0.0252
  H  H30  1  0.961000  0.516000  0.242000  1.0  -0.0134
  H  H31  1  0.336000  0.201000  0.932000  1.0  0.0061
  H  H32  1  0.786000  0.489000  0.004000  1.0  0.0309
  H  H33  1  0.742000  0.359000  0.365000  1.0  0.0034
  H  H34  1  0.877000  0.054000  0.041000  1.0  0.0041
  H  H35  1  0.311000  0.482000  0.244000  1.0  0.0252
  H  H36  1  0.461000  0.984000  0.258000  1.0  -0.0132
  C  C37  1  0.108600  0.742400  0.471300  1.0  0.7127
  C  C38  1  0.720500  0.926600  0.547800  1.0  0.6831
  C  C39  1  0.827600  0.832200  0.830100  1.0  0.7099
  C  C40  1  0.711300  0.575000  0.547500  1.0  0.7038
  C  C41  1  0.125600  0.955900  0.689100  1.0  0.6421
  C  C42  1  0.013400  0.516700  0.712300  1.0  0.7429
  C  C43  1  0.608600  0.757600  0.028700  1.0  0.7127
  C  C44  1  0.220500  0.573400  0.952200  1.0  0.685
  C  C45  1  0.327600  0.667800  0.669900  1.0  0.7097
  C  C46  1  0.211300  0.925000  0.952500  1.0  0.7048
  C  C47  1  0.625600  0.544100  0.810900  1.0  0.6418
  C  C48  1  0.513400  0.983300  0.787700  1.0  0.7435
  C  C49  1  0.891400  0.257600  0.528700  1.0  0.7127
  C  C50  1  0.279500  0.073400  0.452200  1.0  0.6832
  C  C51  1  0.172400  0.167800  0.169900  1.0  0.7093
  C  C52  1  0.288700  0.425000  0.452500  1.0  0.7028
  C  C53  1  0.874400  0.044100  0.310900  1.0  0.6419
  C  C54  1  0.986600  0.483300  0.287700  1.0  0.7445
  C  C55  1  0.391400  0.242400  0.971300  1.0  0.713
  C  C56  1  0.779500  0.426600  0.047800  1.0  0.6813
  C  C57  1  0.672400  0.332200  0.330100  1.0  0.71
  C  C58  1  0.788700  0.075000  0.047500  1.0  0.7042
  C  C59  1  0.374400  0.455900  0.189100  1.0  0.6416
  C  C60  1  0.486600  0.016700  0.212300  1.0  0.7439
  O  O61  1  0.027500  0.685000  0.523510  1.0  -0.6899
  O  O62  1  0.116900  0.851200  0.467800  1.0  -0.5978
  O  O63  1  0.844300  0.896300  0.558650  1.0  -0.6713
  O  O64  1  0.621300  0.886600  0.589900  1.0  -0.5798
  O  O65  1  0.799000  0.810500  0.745210  1.0  -0.6694
  O  O66  1  0.938300  0.816300  0.867980  1.0  -0.59
  O  O67  1  0.742000  0.652900  0.608800  1.0  -0.6891
  O  O68  1  0.791700  0.517600  0.498300  1.0  -0.5913
  O  O69  1  0.083200  0.850300  0.695280  1.0  -0.667
  O  O70  1  0.099300  0.025300  0.626000  1.0  -0.5766
  O  O71  1  0.003100  0.628700  0.719480  1.0  -0.6835
  O  O72  1  0.998000  0.456900  0.640700  1.0  -0.6054
  O  O73  1  0.527500  0.815000  0.976490  1.0  -0.6895
  O  O74  1  0.616900  0.648800  0.032200  1.0  -0.597
  O  O75  1  0.344300  0.603700  0.941350  1.0  -0.6717
  O  O76  1  0.121300  0.613400  0.910100  1.0  -0.5803
  O  O77  1  0.299000  0.689500  0.754790  1.0  -0.6687
  O  O78  1  0.438300  0.683700  0.632020  1.0  -0.5911
  O  O79  1  0.242000  0.847100  0.891200  1.0  -0.6895
  O  O80  1  0.291700  0.982400  0.001700  1.0  -0.5912
  O  O81  1  0.583200  0.649700  0.804720  1.0  -0.6661
  O  O82  1  0.599300  0.474700  0.874000  1.0  -0.577
  O  O83  1  0.503100  0.871300  0.780520  1.0  -0.6837
  O  O84  1  0.498000  0.043100  0.859300  1.0  -0.6061
  O  O85  1  0.972500  0.315000  0.476490  1.0  -0.6893
  O  O86  1  0.883100  0.148800  0.532200  1.0  -0.5969
  O  O87  1  0.155700  0.103700  0.441350  1.0  -0.672
  O  O88  1  0.378700  0.113400  0.410100  1.0  -0.581
  O  O89  1  0.201000  0.189500  0.254790  1.0  -0.6687
  O  O90  1  0.061700  0.183700  0.132020  1.0  -0.5917
  O  O91  1  0.258000  0.347100  0.391200  1.0  -0.6895
  O  O92  1  0.208300  0.482400  0.501700  1.0  -0.5924
  O  O93  1  0.916800  0.149700  0.304720  1.0  -0.6664
  O  O94  1  0.900700  0.974700  0.374000  1.0  -0.5775
  O  O95  1  0.996900  0.371300  0.280520  1.0  -0.6837
  O  O96  1  0.002000  0.543100  0.359300  1.0  -0.6065
  O  O97  1  0.472500  0.185000  0.023510  1.0  -0.6897
  O  O98  1  0.383100  0.351200  0.967800  1.0  -0.5976
  O  O99  1  0.655700  0.396300  0.058650  1.0  -0.6718
  O  O100  1  0.878700  0.386600  0.089900  1.0  -0.5803
  O  O101  1  0.701000  0.310500  0.245210  1.0  -0.6694
  O  O102  1  0.561700  0.316300  0.367980  1.0  -0.5908
  O  O103  1  0.758000  0.152900  0.108800  1.0  -0.6894
  O  O104  1  0.708300  0.017600  0.998300  1.0  -0.592
  O  O105  1  0.416800  0.350300  0.195280  1.0  -0.6675
  O  O106  1  0.400700  0.525300  0.126000  1.0  -0.5774
  O  O107  1  0.496900  0.128700  0.219480  1.0  -0.6834
  O  O108  1  0.502000  0.956900  0.140700  1.0  -0.6058
