# generated using pymatgen
data_FeH2(CO2)2
_symmetry_space_group_name_H-M   'P 1'
_cell_length_a   9.93040000
_cell_length_b   11.44460000
_cell_length_c   14.61920000
_cell_angle_alpha   91.42300000
_cell_angle_beta   90.00000000
_cell_angle_gamma   90.00000000
_symmetry_Int_Tables_number   1
_chemical_formula_structural   FeH2(CO2)2
_chemical_formula_sum   'Fe12 H24 C24 O48'
_cell_volume   1660.95173182
_cell_formula_units_Z   12
loop_
 _symmetry_equiv_pos_site_id
 _symmetry_equiv_pos_as_xyz
  1  'x, y, z'
loop_
 _atom_site_type_symbol
 _atom_site_label
 _atom_site_symmetry_multiplicity
 _atom_site_fract_x
 _atom_site_fract_y
 _atom_site_fract_z
 _atom_site_occupancy
 _atom_site_charge
  Fe  Fe1  1  0.918800  0.755530  0.632400  1.0  1.0334
  Fe  Fe2  1  0.607310  0.760050  0.687700  1.0  1.0504
  Fe  Fe3  1  0.418800  0.744470  0.867600  1.0  1.0335
  Fe  Fe4  1  0.107310  0.739950  0.812300  1.0  1.0505
  Fe  Fe5  1  0.081200  0.244470  0.367600  1.0  1.0337
  Fe  Fe6  1  0.392690  0.239950  0.312300  1.0  1.0504
  Fe  Fe7  1  0.581200  0.255530  0.132400  1.0  1.0337
  Fe  Fe8  1  0.892690  0.260050  0.187700  1.0  1.0503
  Fe  Fe9  1  0.000000  0.500000  0.500000  1.0  1.0787
  Fe  Fe10  1  0.500000  0.000000  0.000000  1.0  1.0787
  Fe  Fe11  1  0.000000  0.000000  0.500000  1.0  1.0873
  Fe  Fe12  1  0.500000  0.500000  0.000000  1.0  1.0873
  H  H13  1  0.149000  0.713000  0.426000  1.0  0.0066
  H  H14  1  0.695000  0.986000  0.502000  1.0  0.0264
  H  H15  1  0.742000  0.854000  0.868000  1.0  0.029
  H  H16  1  0.613000  0.546000  0.537000  1.0  0.033
  H  H17  1  0.176000  0.973000  0.726000  1.0  -0.0314
  H  H18  1  0.049000  0.479000  0.765000  1.0  0.0123
  H  H19  1  0.649000  0.787000  0.074000  1.0  0.0085
  H  H20  1  0.195000  0.514000  0.998000  1.0  0.0254
  H  H21  1  0.242000  0.646000  0.632000  1.0  0.0294
  H  H22  1  0.113000  0.954000  0.963000  1.0  0.0338
  H  H23  1  0.676000  0.527000  0.774000  1.0  -0.0324
  H  H24  1  0.549000  0.021000  0.735000  1.0  0.0103
  H  H25  1  0.851000  0.287000  0.574000  1.0  0.0086
  H  H26  1  0.305000  0.014000  0.498000  1.0  0.0249
  H  H27  1  0.258000  0.146000  0.132000  1.0  0.0273
  H  H28  1  0.387000  0.454000  0.463000  1.0  0.0352
  H  H29  1  0.824000  0.027000  0.274000  1.0  -0.0376
  H  H30  1  0.951000  0.521000  0.235000  1.0  0.0119
  H  H31  1  0.351000  0.213000  0.926000  1.0  0.006
  H  H32  1  0.805000  0.486000  0.002000  1.0  0.0262
  H  H33  1  0.758000  0.354000  0.368000  1.0  0.0271
  H  H34  1  0.887000  0.046000  0.037000  1.0  0.0358
  H  H35  1  0.324000  0.473000  0.226000  1.0  -0.0352
  H  H36  1  0.451000  0.979000  0.265000  1.0  0.0105
  C  C37  1  0.103700  0.744000  0.468200  1.0  0.7211
  C  C38  1  0.718300  0.928400  0.549600  1.0  0.6512
  C  C39  1  0.824300  0.829100  0.830900  1.0  0.6445
  C  C40  1  0.710500  0.574000  0.548200  1.0  0.6198
  C  C41  1  0.123500  0.955100  0.688900  1.0  0.7545
  C  C42  1  0.014900  0.519600  0.711400  1.0  0.6526
  C  C43  1  0.603700  0.756000  0.031800  1.0  0.7191
  C  C44  1  0.218300  0.571600  0.950400  1.0  0.6522
  C  C45  1  0.324300  0.670900  0.669100  1.0  0.645
  C  C46  1  0.210500  0.926000  0.951800  1.0  0.6194
  C  C47  1  0.623500  0.544900  0.811100  1.0  0.7531
  C  C48  1  0.514900  0.980400  0.788600  1.0  0.6526
  C  C49  1  0.896300  0.256000  0.531800  1.0  0.72
  C  C50  1  0.281700  0.071600  0.450400  1.0  0.6524
  C  C51  1  0.175700  0.170900  0.169100  1.0  0.6448
  C  C52  1  0.289500  0.426000  0.451800  1.0  0.6193
  C  C53  1  0.876500  0.044900  0.311100  1.0  0.7538
  C  C54  1  0.985100  0.480400  0.288600  1.0  0.6514
  C  C55  1  0.396300  0.244000  0.968200  1.0  0.7228
  C  C56  1  0.781700  0.428400  0.049600  1.0  0.651
  C  C57  1  0.675700  0.329100  0.330900  1.0  0.6445
  C  C58  1  0.789500  0.074000  0.048200  1.0  0.6202
  C  C59  1  0.376500  0.455100  0.188900  1.0  0.7549
  C  C60  1  0.485100  0.019600  0.211400  1.0  0.6528
  O  O61  1  0.027100  0.687200  0.521700  1.0  -0.6403
  O  O62  1  0.112300  0.850300  0.463000  1.0  -0.5877
  O  O63  1  0.841600  0.897600  0.559800  1.0  -0.6305
  O  O64  1  0.621200  0.888400  0.591000  1.0  -0.5648
  O  O65  1  0.797800  0.806900  0.747100  1.0  -0.6272
  O  O66  1  0.934800  0.813900  0.868700  1.0  -0.5647
  O  O67  1  0.740600  0.652400  0.606700  1.0  -0.6284
  O  O68  1  0.791200  0.516600  0.499800  1.0  -0.5877
  O  O69  1  0.082000  0.851100  0.696800  1.0  -0.6669
  O  O70  1  0.100400  0.021600  0.626900  1.0  -0.585
  O  O71  1  0.003400  0.628100  0.718500  1.0  -0.6247
  O  O72  1  0.003600  0.458600  0.640500  1.0  -0.5749
  O  O73  1  0.527100  0.812800  0.978300  1.0  -0.6402
  O  O74  1  0.612300  0.649700  0.037000  1.0  -0.5866
  O  O75  1  0.341600  0.602400  0.940200  1.0  -0.6305
  O  O76  1  0.121200  0.611600  0.909000  1.0  -0.5652
  O  O77  1  0.297800  0.693100  0.752900  1.0  -0.6266
  O  O78  1  0.434800  0.686100  0.631300  1.0  -0.5639
  O  O79  1  0.240600  0.847600  0.893300  1.0  -0.6285
  O  O80  1  0.291200  0.983400  0.000200  1.0  -0.5888
  O  O81  1  0.582000  0.648900  0.803200  1.0  -0.6672
  O  O82  1  0.600400  0.478400  0.873100  1.0  -0.5856
  O  O83  1  0.503400  0.871900  0.781500  1.0  -0.6245
  O  O84  1  0.503600  0.041400  0.859500  1.0  -0.5765
  O  O85  1  0.972900  0.312800  0.478300  1.0  -0.6402
  O  O86  1  0.887700  0.149700  0.537000  1.0  -0.5864
  O  O87  1  0.158400  0.102400  0.440200  1.0  -0.6297
  O  O88  1  0.378800  0.111600  0.409000  1.0  -0.5652
  O  O89  1  0.202200  0.193100  0.252900  1.0  -0.6268
  O  O90  1  0.065200  0.186100  0.131300  1.0  -0.5644
  O  O91  1  0.259400  0.347600  0.393300  1.0  -0.628
  O  O92  1  0.208800  0.483400  0.500200  1.0  -0.5891
  O  O93  1  0.918000  0.148900  0.303200  1.0  -0.6669
  O  O94  1  0.899600  0.978400  0.373100  1.0  -0.5857
  O  O95  1  0.996600  0.371900  0.281500  1.0  -0.6246
  O  O96  1  0.996400  0.541400  0.359500  1.0  -0.5768
  O  O97  1  0.472900  0.187200  0.021700  1.0  -0.6401
  O  O98  1  0.387700  0.350300  0.963000  1.0  -0.5874
  O  O99  1  0.658400  0.397600  0.059800  1.0  -0.6297
  O  O100  1  0.878800  0.388400  0.091000  1.0  -0.5649
  O  O101  1  0.702200  0.306900  0.247100  1.0  -0.6275
  O  O102  1  0.565200  0.313900  0.368700  1.0  -0.5651
  O  O103  1  0.759400  0.152400  0.106700  1.0  -0.6281
  O  O104  1  0.708800  0.016600  0.999800  1.0  -0.5878
  O  O105  1  0.418000  0.351100  0.196800  1.0  -0.6665
  O  O106  1  0.399600  0.521600  0.126900  1.0  -0.5856
  O  O107  1  0.496600  0.128100  0.218500  1.0  -0.6245
  O  O108  1  0.496400  0.958600  0.140500  1.0  -0.5751
