# generated using pymatgen
data_ZnH2(CO2)2
_symmetry_space_group_name_H-M   'P 1'
_cell_length_a   11.34070000
_cell_length_b   9.78560000
_cell_length_c   14.43340000
_cell_angle_alpha   90.00000000
_cell_angle_beta   91.44900000
_cell_angle_gamma   90.00000000
_symmetry_Int_Tables_number   1
_chemical_formula_structural   ZnH2(CO2)2
_chemical_formula_sum   'Zn12 H24 C24 O48'
_cell_volume   1601.24236613
_cell_formula_units_Z   12
loop_
 _symmetry_equiv_pos_site_id
 _symmetry_equiv_pos_as_xyz
  1  'x, y, z'
loop_
 _atom_site_type_symbol
 _atom_site_label
 _atom_site_symmetry_multiplicity
 _atom_site_fract_x
 _atom_site_fract_y
 _atom_site_fract_z
 _atom_site_occupancy
 _atom_site_charge
  Zn  Zn1  1  0.243210  0.081350  0.368800  1.0  1.0854
  Zn  Zn2  1  0.240080  0.394820  0.313940  1.0  1.0377
  Zn  Zn3  1  0.256790  0.581350  0.131200  1.0  1.0852
  Zn  Zn4  1  0.259920  0.894820  0.186060  1.0  1.0374
  Zn  Zn5  1  0.756790  0.918650  0.631200  1.0  1.0853
  Zn  Zn6  1  0.759920  0.605180  0.686060  1.0  1.0371
  Zn  Zn7  1  0.743210  0.418650  0.868800  1.0  1.0854
  Zn  Zn8  1  0.740080  0.105180  0.813940  1.0  1.0376
  Zn  Zn9  1  0.500000  0.000000  0.500000  1.0  1.0988
  Zn  Zn10  1  0.000000  0.500000  0.000000  1.0  1.0988
  Zn  Zn11  1  0.000000  0.000000  0.500000  1.0  1.1436
  Zn  Zn12  1  0.500000  0.500000  0.000000  1.0  1.1436
  H  H13  1  0.299000  0.846000  0.570000  1.0  0.069
  H  H14  1  0.000000  0.289000  0.487000  1.0  0.0422
  H  H15  1  0.136000  0.250000  0.129000  1.0  0.042
  H  H16  1  0.431000  0.385000  0.455000  1.0  0.0558
  H  H17  1  0.024000  0.809000  0.267000  1.0  0.01
  H  H18  1  0.517000  0.966000  0.231000  1.0  0.0095
  H  H19  1  0.201000  0.346000  0.930000  1.0  0.0698
  H  H20  1  0.500000  0.789000  0.013000  1.0  0.0431
  H  H21  1  0.364000  0.750000  0.371000  1.0  0.042
  H  H22  1  0.069000  0.885000  0.045000  1.0  0.0571
  H  H23  1  0.476000  0.309000  0.233000  1.0  0.0097
  H  H24  1  0.983000  0.466000  0.269000  1.0  0.0098
  H  H25  1  0.701000  0.154000  0.430000  1.0  0.069
  H  H26  1  0.000000  0.711000  0.513000  1.0  0.044
  H  H27  1  0.864000  0.750000  0.871000  1.0  0.0455
  H  H28  1  0.569000  0.615000  0.545000  1.0  0.0571
  H  H29  1  0.976000  0.191000  0.733000  1.0  0.0089
  H  H30  1  0.483000  0.034000  0.769000  1.0  0.0094
  H  H31  1  0.799000  0.654000  0.070000  1.0  0.0672
  H  H32  1  0.500000  0.211000  0.987000  1.0  0.0434
  H  H33  1  0.636000  0.250000  0.629000  1.0  0.0456
  H  H34  1  0.931000  0.115000  0.955000  1.0  0.0576
  H  H35  1  0.524000  0.691000  0.767000  1.0  0.0103
  H  H36  1  0.017000  0.534000  0.731000  1.0  0.0097
  C  C37  1  0.256800  0.894500  0.529600  1.0  0.6794
  C  C38  1  0.069400  0.280700  0.448900  1.0  0.7032
  C  C39  1  0.169000  0.175500  0.169700  1.0  0.6445
  C  C40  1  0.424100  0.289600  0.452100  1.0  0.6811
  C  C41  1  0.045100  0.874100  0.311300  1.0  0.6932
  C  C42  1  0.480300  0.987300  0.287800  1.0  0.6909
  C  C43  1  0.243200  0.394500  0.970400  1.0  0.6792
  C  C44  1  0.430600  0.780700  0.051100  1.0  0.7031
  C  C45  1  0.331000  0.675500  0.330300  1.0  0.645
  C  C46  1  0.075900  0.789600  0.047900  1.0  0.6813
  C  C47  1  0.454900  0.374100  0.188700  1.0  0.6931
  C  C48  1  0.019700  0.487300  0.212200  1.0  0.6897
  C  C49  1  0.743200  0.105500  0.470400  1.0  0.6781
  C  C50  1  0.930600  0.719300  0.551100  1.0  0.7032
  C  C51  1  0.831000  0.824500  0.830300  1.0  0.6457
  C  C52  1  0.575900  0.710400  0.547900  1.0  0.6817
  C  C53  1  0.954900  0.125900  0.688700  1.0  0.6928
  C  C54  1  0.519700  0.012700  0.712200  1.0  0.6891
  C  C55  1  0.756800  0.605500  0.029600  1.0  0.6791
  C  C56  1  0.569400  0.219300  0.948900  1.0  0.7042
  C  C57  1  0.669000  0.324500  0.669700  1.0  0.6456
  C  C58  1  0.924100  0.210400  0.952100  1.0  0.6817
  C  C59  1  0.545100  0.625900  0.811300  1.0  0.6929
  C  C60  1  0.980300  0.512700  0.787800  1.0  0.6916
  O  O61  1  0.315400  0.973500  0.477090  1.0  -0.6909
  O  O62  1  0.149700  0.887300  0.533430  1.0  -0.6073
  O  O63  1  0.101700  0.157300  0.440560  1.0  -0.6876
  O  O64  1  0.111200  0.380600  0.408870  1.0  -0.5785
  O  O65  1  0.189900  0.202700  0.254500  1.0  -0.6362
  O  O66  1  0.185200  0.064800  0.130540  1.0  -0.5877
  O  O67  1  0.346100  0.259300  0.391180  1.0  -0.6768
  O  O68  1  0.481600  0.210000  0.500730  1.0  -0.5779
  O  O69  1  0.149100  0.918900  0.304780  1.0  -0.6848
  O  O70  1  0.976300  0.899100  0.374300  1.0  -0.591
  O  O71  1  0.370000  0.997300  0.280650  1.0  -0.6624
  O  O72  1  0.540600  0.999700  0.359560  1.0  -0.5876
  O  O73  1  0.184600  0.473500  0.022910  1.0  -0.6918
  O  O74  1  0.350300  0.387300  0.966570  1.0  -0.6086
  O  O75  1  0.398300  0.657300  0.059440  1.0  -0.6872
  O  O76  1  0.388800  0.880600  0.091130  1.0  -0.5779
  O  O77  1  0.310100  0.702700  0.245500  1.0  -0.6355
  O  O78  1  0.314800  0.564800  0.369460  1.0  -0.5874
  O  O79  1  0.153900  0.759300  0.108820  1.0  -0.6784
  O  O80  1  0.018400  0.710000  0.999270  1.0  -0.5774
  O  O81  1  0.350900  0.418900  0.195220  1.0  -0.6842
  O  O82  1  0.523700  0.399100  0.125700  1.0  -0.5915
  O  O83  1  0.130000  0.497300  0.219350  1.0  -0.6601
  O  O84  1  0.959400  0.499700  0.140440  1.0  -0.5857
  O  O85  1  0.684600  0.026500  0.522910  1.0  -0.6914
  O  O86  1  0.850300  0.112700  0.466570  1.0  -0.6082
  O  O87  1  0.898300  0.842700  0.559440  1.0  -0.6887
  O  O88  1  0.888800  0.619400  0.591130  1.0  -0.5785
  O  O89  1  0.810100  0.797300  0.745500  1.0  -0.6356
  O  O90  1  0.814800  0.935200  0.869460  1.0  -0.587
  O  O91  1  0.653900  0.740700  0.608820  1.0  -0.6782
  O  O92  1  0.518400  0.790000  0.499270  1.0  -0.578
  O  O93  1  0.850900  0.081100  0.695220  1.0  -0.6842
  O  O94  1  0.023700  0.100900  0.625700  1.0  -0.5919
  O  O95  1  0.630000  0.002700  0.719350  1.0  -0.6601
  O  O96  1  0.459400  0.000300  0.640440  1.0  -0.5857
  O  O97  1  0.815400  0.526500  0.977090  1.0  -0.6904
  O  O98  1  0.649700  0.612700  0.033430  1.0  -0.6076
  O  O99  1  0.601700  0.342700  0.940560  1.0  -0.689
  O  O100  1  0.611200  0.119400  0.908870  1.0  -0.5797
  O  O101  1  0.689900  0.297300  0.754500  1.0  -0.6361
  O  O102  1  0.685200  0.435200  0.630540  1.0  -0.587
  O  O103  1  0.846100  0.240700  0.891180  1.0  -0.677
  O  O104  1  0.981600  0.290000  0.000730  1.0  -0.5783
  O  O105  1  0.649100  0.581100  0.804780  1.0  -0.6846
  O  O106  1  0.476300  0.600900  0.874300  1.0  -0.5916
  O  O107  1  0.870000  0.502700  0.780650  1.0  -0.6624
  O  O108  1  0.040600  0.500300  0.859560  1.0  -0.5874
