# generated using pymatgen
data_CdH6(C3O)4
_symmetry_space_group_name_H-M   'P 1'
_cell_length_a   6.71800000
_cell_length_b   13.50700000
_cell_length_c   15.22900000
_cell_angle_alpha   90.00000000
_cell_angle_beta   90.00000000
_cell_angle_gamma   90.00000000
_symmetry_Int_Tables_number   1
_chemical_formula_structural   CdH6(C3O)4
_chemical_formula_sum   'Cd4 H24 C48 O16'
_cell_volume   1381.87985595
_cell_formula_units_Z   4
loop_
 _symmetry_equiv_pos_site_id
 _symmetry_equiv_pos_as_xyz
  1  'x, y, z'
loop_
 _atom_site_type_symbol
 _atom_site_label
 _atom_site_symmetry_multiplicity
 _atom_site_fract_x
 _atom_site_fract_y
 _atom_site_fract_z
 _atom_site_occupancy
 _atom_site_charge
  Cd  Cd1  1  0.632230  0.193770  0.468470  1.0  1.1745
  Cd  Cd2  1  0.132230  0.306230  0.531530  1.0  1.1698
  Cd  Cd3  1  0.867770  0.806230  0.968470  1.0  1.1721
  Cd  Cd4  1  0.367770  0.693770  0.031530  1.0  1.1752
  H  H5  1  0.371400  0.186200  0.048700  1.0  0.1151
  H  H6  1  0.843100  0.238200  0.207200  1.0  0.1077
  H  H7  1  0.156900  0.738200  0.292800  1.0  0.1069
  H  H8  1  0.342000  0.839200  0.753100  1.0  0.1165
  H  H9  1  0.658000  0.339200  0.746900  1.0  0.1168
  H  H10  1  0.859500  0.192600  0.062200  1.0  0.1236
  H  H11  1  0.871400  0.313800  0.951300  1.0  0.1157
  H  H12  1  0.343100  0.261800  0.792800  1.0  0.1072
  H  H13  1  0.128600  0.813800  0.548700  1.0  0.1152
  H  H14  1  0.130800  0.979200  0.513100  1.0  0.1054
  H  H15  1  0.640500  0.807400  0.562200  1.0  0.1238
  H  H16  1  0.631700  0.459100  0.857600  1.0  0.1006
  H  H17  1  0.628600  0.686200  0.451300  1.0  0.1158
  H  H18  1  0.368300  0.959100  0.642400  1.0  0.1001
  H  H19  1  0.869200  0.479200  0.986900  1.0  0.1048
  H  H20  1  0.140500  0.692600  0.437800  1.0  0.1238
  H  H21  1  0.158000  0.160800  0.253100  1.0  0.117
  H  H22  1  0.630800  0.520800  0.486900  1.0  0.105
  H  H23  1  0.131700  0.040900  0.142400  1.0  0.1
  H  H24  1  0.842000  0.660800  0.246900  1.0  0.1166
  H  H25  1  0.656900  0.761800  0.707200  1.0  0.1068
  H  H26  1  0.359500  0.307400  0.937800  1.0  0.1238
  H  H27  1  0.369200  0.020800  0.013100  1.0  0.1054
  H  H28  1  0.868300  0.540900  0.357600  1.0  0.1002
  C  C29  1  0.859300  0.260800  0.077500  1.0  -0.0927
  C  C30  1  0.633500  0.568800  0.532500  1.0  -0.0897
  C  C31  1  0.852000  0.288000  0.163400  1.0  -0.1305
  C  C32  1  0.356600  0.935100  0.854900  1.0  -0.1173
  C  C33  1  0.357800  0.078900  0.721600  1.0  -0.1171
  C  C34  1  0.642600  0.610400  0.689600  1.0  0.0632
  C  C35  1  0.866500  0.431200  0.032500  1.0  -0.0902
  C  C36  1  0.144200  0.850900  0.143500  1.0  0.7339
  C  C37  1  0.133500  0.931200  0.467500  1.0  -0.0927
  C  C38  1  0.637400  0.536600  0.621600  1.0  0.0672
  C  C39  1  0.857800  0.421100  0.278400  1.0  -0.1177
  C  C40  1  0.860300  0.520600  0.298000  1.0  -0.03
  C  C41  1  0.644200  0.649100  0.856500  1.0  0.7337
  C  C42  1  0.859600  0.646400  0.077600  1.0  0.6908
  C  C43  1  0.857400  0.389600  0.189600  1.0  0.0633
  C  C44  1  0.148000  0.788000  0.336600  1.0  -0.1301
  C  C45  1  0.133500  0.833300  0.488800  1.0  -0.0956
  C  C46  1  0.640400  0.353600  0.577600  1.0  0.6908
  C  C47  1  0.643400  0.435100  0.645100  1.0  -0.1184
  C  C48  1  0.140400  0.146400  0.422400  1.0  0.6907
  C  C49  1  0.352000  0.212000  0.836600  1.0  -0.1319
  C  C50  1  0.137400  0.963400  0.378400  1.0  0.068
  C  C51  1  0.640700  0.739200  0.577500  1.0  -0.0914
  C  C52  1  0.366500  0.166700  0.988800  1.0  -0.0953
  C  C53  1  0.360300  0.979400  0.702000  1.0  -0.0293
  C  C54  1  0.851500  0.592700  0.231700  1.0  -0.0977
  C  C55  1  0.140700  0.760800  0.422500  1.0  -0.0928
  C  C56  1  0.357400  0.110400  0.810400  1.0  0.0659
  C  C57  1  0.862600  0.463400  0.121600  1.0  0.0675
  C  C58  1  0.855800  0.350900  0.356500  1.0  0.7338
  C  C59  1  0.642200  0.578900  0.778400  1.0  -0.117
  C  C60  1  0.142200  0.921100  0.221600  1.0  -0.1177
  C  C61  1  0.355800  0.149100  0.643500  1.0  0.7334
  C  C62  1  0.142600  0.889600  0.310400  1.0  0.0637
  C  C63  1  0.633500  0.666667  0.511200  1.0  -0.0935
  C  C64  1  0.148500  0.092700  0.268300  1.0  -0.1001
  C  C65  1  0.351500  0.907300  0.768300  1.0  -0.0972
  C  C66  1  0.359300  0.239200  0.922500  1.0  -0.092
  C  C67  1  0.866500  0.333333  0.011200  1.0  -0.0925
  C  C68  1  0.648000  0.712000  0.663400  1.0  -0.1313
  C  C69  1  0.362600  0.036600  0.878400  1.0  0.0671
  C  C70  1  0.856600  0.564900  0.145100  1.0  -0.1181
  C  C71  1  0.639700  0.479400  0.798000  1.0  -0.0295
  C  C72  1  0.359600  0.853600  0.922400  1.0  0.6906
  C  C73  1  0.648500  0.407300  0.731700  1.0  -0.0991
  C  C74  1  0.366500  0.068800  0.967500  1.0  -0.0927
  C  C75  1  0.143400  0.064900  0.354900  1.0  -0.1174
  C  C76  1  0.139700  0.020600  0.202000  1.0  -0.029
  O  O77  1  0.728100  0.713800  0.084600  1.0  -0.6969
  O  O78  1  0.008300  0.147800  0.481100  1.0  -0.6598
  O  O79  1  0.248400  0.773800  0.149200  1.0  -0.6073
  O  O80  1  0.952900  0.378800  0.423200  1.0  -0.6635
  O  O81  1  0.251600  0.226200  0.649200  1.0  -0.6078
  O  O82  1  0.047100  0.878800  0.076800  1.0  -0.6636
  O  O83  1  0.271900  0.213800  0.415400  1.0  -0.695
  O  O84  1  0.491700  0.852200  0.981100  1.0  -0.6581
  O  O85  1  0.748400  0.726200  0.850800  1.0  -0.6073
  O  O86  1  0.228100  0.786200  0.915400  1.0  -0.6961
  O  O87  1  0.771900  0.286200  0.584600  1.0  -0.6955
  O  O88  1  0.751600  0.273800  0.350800  1.0  -0.6064
  O  O89  1  0.991700  0.647800  0.018900  1.0  -0.6595
  O  O90  1  0.452900  0.121200  0.576800  1.0  -0.6632
  O  O91  1  0.508300  0.352200  0.518900  1.0  -0.6598
  O  O92  1  0.547100  0.621200  0.923200  1.0  -0.6623
