# generated using pymatgen
data_NiH12C26N6(OF)4
_symmetry_space_group_name_H-M   'P 1'
_cell_length_a   15.17380000
_cell_length_b   15.17380000
_cell_length_c   18.85900000
_cell_angle_alpha   90.00000000
_cell_angle_beta   90.00000000
_cell_angle_gamma   120.00000000
_symmetry_Int_Tables_number   1
_chemical_formula_structural   NiH12C26N6(OF)4
_chemical_formula_sum   'Ni3 H36 C78 N18 O12 F12'
_cell_volume   3760.43428138
_cell_formula_units_Z   3
loop_
 _symmetry_equiv_pos_site_id
 _symmetry_equiv_pos_as_xyz
  1  'x, y, z'
loop_
 _atom_site_type_symbol
 _atom_site_label
 _atom_site_symmetry_multiplicity
 _atom_site_fract_x
 _atom_site_fract_y
 _atom_site_fract_z
 _atom_site_occupancy
 _atom_site_charge
  Ni  Ni1  1  0.000000  0.835180  0.833330  1.0  0.6365
  Ni  Ni2  1  0.164820  0.164820  0.166670  1.0  0.6312
  Ni  Ni3  1  0.835180  0.000000  0.500000  1.0  0.642
  H  H4  1  0.440000  0.497000  0.264900  1.0  0.1192
  H  H5  1  0.991700  0.914100  0.978630  1.0  0.0694
  H  H6  1  0.503000  0.943000  0.598230  1.0  0.1197
  H  H7  1  0.193600  0.849000  0.777930  1.0  0.0778
  H  H8  1  0.947400  0.657200  0.737100  1.0  0.0819
  H  H9  1  0.008300  0.922400  0.688030  1.0  0.0699
  H  H10  1  0.052600  0.709800  0.929570  1.0  0.0831
  H  H11  1  0.914100  0.991700  0.354700  1.0  0.0691
  H  H12  1  0.922400  0.008300  0.645300  1.0  0.0691
  H  H13  1  0.895000  0.870000  0.078830  1.0  0.1267
  H  H14  1  0.709800  0.052600  0.403770  1.0  0.0827
  H  H15  1  0.102500  0.399200  0.011370  1.0  0.1238
  H  H16  1  0.130000  0.025000  0.412170  1.0  0.1276
  H  H17  1  0.560000  0.057000  0.401770  1.0  0.1196
  H  H18  1  0.151000  0.344600  0.111270  1.0  0.0772
  H  H19  1  0.077600  0.085900  0.021370  1.0  0.0693
  H  H20  1  0.085900  0.077600  0.311970  1.0  0.07
  H  H21  1  0.657200  0.947400  0.596230  1.0  0.0831
  H  H22  1  0.975000  0.105000  0.745500  1.0  0.127
  H  H23  1  0.600800  0.703300  0.344700  1.0  0.123
  H  H24  1  0.849000  0.193600  0.555400  1.0  0.077
  H  H25  1  0.870000  0.895000  0.254500  1.0  0.1265
  H  H26  1  0.057000  0.560000  0.931570  1.0  0.1199
  H  H27  1  0.897500  0.296700  0.655300  1.0  0.1239
  H  H28  1  0.806400  0.655400  0.888730  1.0  0.0768
  H  H29  1  0.290200  0.342800  0.262900  1.0  0.0813
  H  H30  1  0.497000  0.440000  0.068430  1.0  0.1199
  H  H31  1  0.296700  0.897500  0.678030  1.0  0.1234
  H  H32  1  0.703300  0.600800  0.988630  1.0  0.1239
  H  H33  1  0.342800  0.290200  0.070430  1.0  0.0835
  H  H34  1  0.344600  0.151000  0.222070  1.0  0.0779
  H  H35  1  0.025000  0.130000  0.921170  1.0  0.1266
  H  H36  1  0.943000  0.503000  0.735100  1.0  0.1192
  H  H37  1  0.655400  0.806400  0.444600  1.0  0.0772
  H  H38  1  0.105000  0.975000  0.587830  1.0  0.1275
  H  H39  1  0.399200  0.102500  0.321970  1.0  0.1235
  C  C40  1  0.175830  0.874330  0.738890  1.0  0.1484
  C  C41  1  0.363250  0.331980  0.110290  1.0  0.1353
  C  C42  1  0.875730  0.824730  0.041040  1.0  -0.14
  C  C43  1  0.813430  0.788730  0.743450  1.0  0.7318
  C  C44  1  0.210580  0.941300  0.621570  1.0  -0.0665
  C  C45  1  0.277990  0.987800  0.963270  1.0  -0.114
  C  C46  1  0.582810  0.582810  0.166670  1.0  0.3282
  C  C47  1  0.722010  0.709810  0.703390  1.0  -0.116
  C  C48  1  0.175270  0.051000  0.374380  1.0  -0.1368
  C  C49  1  0.301500  0.125670  0.261110  1.0  0.15
  C  C50  1  0.028080  0.303270  0.889870  1.0  0.4266
  C  C51  1  0.031270  0.668020  0.889710  1.0  0.1348
  C  C52  1  0.971920  0.275190  0.776800  1.0  0.427
  C  C53  1  0.562100  0.552200  0.704000  1.0  0.2191
  C  C54  1  0.990100  0.437900  0.370670  1.0  0.2198
  C  C55  1  0.082160  0.149340  0.019480  1.0  0.179
  C  C56  1  0.824170  0.698500  0.927770  1.0  0.146
  C  C57  1  0.788730  0.813430  0.589880  1.0  0.7324
  C  C58  1  0.975300  0.186570  0.410120  1.0  0.7323
  C  C59  1  0.636750  0.968730  0.556370  1.0  0.1352
  C  C60  1  0.331980  0.363250  0.223040  1.0  0.1354
  C  C61  1  0.941300  0.210580  0.711760  1.0  -0.0639
  C  C62  1  0.124270  0.949000  0.625620  1.0  -0.1367
  C  C63  1  0.051000  0.175270  0.958960  1.0  -0.1369
  C  C64  1  0.761390  0.664710  0.987400  1.0  -0.0872
  C  C65  1  0.949000  0.124270  0.707710  1.0  -0.1391
  C  C66  1  0.000000  0.515280  0.833330  1.0  -0.0805
  C  C67  1  0.352900  0.976200  0.929160  1.0  0.2649
  C  C68  1  0.698500  0.824170  0.405560  1.0  0.146
  C  C69  1  0.874330  0.175830  0.594440  1.0  0.1466
  C  C70  1  0.917840  0.067180  0.647190  1.0  0.179
  C  C71  1  0.966620  0.544400  0.775060  1.0  -0.11
  C  C72  1  0.976200  0.352900  0.404170  1.0  0.2641
  C  C73  1  0.664710  0.761390  0.345930  1.0  -0.087
  C  C74  1  0.577780  0.033380  0.441730  1.0  -0.1106
  C  C75  1  0.850660  0.932820  0.352810  1.0  0.1795
  C  C76  1  0.789420  0.730720  0.045090  1.0  -0.0675
  C  C77  1  0.303270  0.028080  0.443470  1.0  0.4274
  C  C78  1  0.903320  0.238610  0.654070  1.0  -0.0876
  C  C79  1  0.552200  0.562100  0.629330  1.0  0.2203
  C  C80  1  0.484720  0.484720  0.166670  1.0  -0.0804
  C  C81  1  0.647100  0.623300  0.737500  1.0  0.2639
  C  C82  1  0.067180  0.917840  0.686140  1.0  0.1783
  C  C83  1  0.024700  0.211270  0.256550  1.0  0.7322
  C  C84  1  0.417190  0.000000  0.500000  1.0  0.3322
  C  C85  1  0.269280  0.058700  0.378430  1.0  -0.0674
  C  C86  1  0.724810  0.696730  0.110130  1.0  0.4263
  C  C87  1  0.058700  0.269280  0.954910  1.0  -0.0681
  C  C88  1  0.023800  0.376700  0.262500  1.0  0.2635
  C  C89  1  0.515280  0.000000  0.500000  1.0  -0.0794
  C  C90  1  0.968730  0.636750  0.776960  1.0  0.1358
  C  C91  1  0.422220  0.455600  0.224940  1.0  -0.1116
  C  C92  1  0.696730  0.724810  0.223200  1.0  0.4272
  C  C93  1  0.149340  0.082160  0.313860  1.0  0.1776
  C  C94  1  0.012200  0.290190  0.296610  1.0  -0.1166
  C  C95  1  0.623300  0.647100  0.595830  1.0  0.2634
  C  C96  1  0.238610  0.903320  0.679260  1.0  -0.0885
  C  C97  1  0.275190  0.971920  0.556530  1.0  0.4272
  C  C98  1  0.987800  0.277990  0.370060  1.0  -0.1163
  C  C99  1  0.000000  0.417190  0.833330  1.0  0.3283
  C  C100  1  0.709810  0.722010  0.629940  1.0  -0.1161
  C  C101  1  0.125670  0.301500  0.072230  1.0  0.1475
  C  C102  1  0.447800  0.009900  0.037340  1.0  0.222
  C  C103  1  0.824730  0.875730  0.292290  1.0  -0.1384
  C  C104  1  0.932820  0.850660  0.980520  1.0  0.1779
  C  C105  1  0.096680  0.335290  0.012600  1.0  -0.0882
  C  C106  1  0.186570  0.975300  0.923210  1.0  0.7281
  C  C107  1  0.376700  0.023800  0.070840  1.0  0.2664
  C  C108  1  0.544400  0.966620  0.558270  1.0  -0.1102
  C  C109  1  0.290190  0.012200  0.036730  1.0  -0.114
  C  C110  1  0.033380  0.577780  0.891610  1.0  -0.1122
  C  C111  1  0.437900  0.990100  0.962660  1.0  0.2229
  C  C112  1  0.211270  0.024700  0.076790  1.0  0.7283
  C  C113  1  0.668020  0.031270  0.443630  1.0  0.1363
  C  C114  1  0.730720  0.789420  0.288240  1.0  -0.0649
  C  C115  1  0.335290  0.096680  0.320740  1.0  -0.089
  C  C116  1  0.455600  0.422220  0.108390  1.0  -0.1134
  C  C117  1  0.009900  0.447800  0.296000  1.0  0.2211
  N  N118  1  0.908890  0.789950  0.923740  1.0  -0.3213
  N  N119  1  0.000000  0.697020  0.833330  1.0  -0.3015
  N  N120  1  0.000000  0.240890  0.833330  1.0  -0.486
  N  N121  1  0.972900  0.363540  0.773540  1.0  -0.4638
  N  N122  1  0.759110  0.759110  0.166670  1.0  -0.485
  N  N123  1  0.240890  0.000000  0.500000  1.0  -0.4866
  N  N124  1  0.363540  0.972900  0.559790  1.0  -0.465
  N  N125  1  0.609360  0.636460  0.226460  1.0  -0.4724
  N  N126  1  0.210050  0.118940  0.257080  1.0  -0.3198
  N  N127  1  0.027100  0.390640  0.893130  1.0  -0.4643
  N  N128  1  0.091110  0.881060  0.742920  1.0  -0.318
  N  N129  1  0.118940  0.210050  0.076260  1.0  -0.319
  N  N130  1  0.302980  0.302980  0.166670  1.0  -0.3008
  N  N131  1  0.390640  0.027100  0.440210  1.0  -0.4716
  N  N132  1  0.881060  0.091110  0.590410  1.0  -0.322
  N  N133  1  0.697020  0.000000  0.500000  1.0  -0.2965
  N  N134  1  0.789950  0.908890  0.409590  1.0  -0.3209
  N  N135  1  0.636460  0.609360  0.106870  1.0  -0.4646
  O  O136  1  0.130800  0.891200  0.895190  1.0  -0.5942
  O  O137  1  0.869200  0.760400  0.771470  1.0  -0.5943
  O  O138  1  0.174630  0.051330  0.921880  1.0  -0.5576
  O  O139  1  0.876700  0.825370  0.588550  1.0  -0.563
  O  O140  1  0.760400  0.869200  0.561860  1.0  -0.5931
  O  O141  1  0.825370  0.876700  0.744780  1.0  -0.5613
  O  O142  1  0.239600  0.108800  0.104810  1.0  -0.5945
  O  O143  1  0.948670  0.123300  0.255220  1.0  -0.5623
  O  O144  1  0.891200  0.130800  0.438140  1.0  -0.5935
  O  O145  1  0.051330  0.174630  0.411450  1.0  -0.5619
  O  O146  1  0.108800  0.239600  0.228530  1.0  -0.5943
  O  O147  1  0.123300  0.948670  0.078120  1.0  -0.5534
  F  F148  1  0.388560  0.042610  0.140970  1.0  -0.1445
  F  F149  1  0.022800  0.531060  0.262840  1.0  -0.1504
  F  F150  1  0.491740  0.468940  0.737160  1.0  -0.1491
  F  F151  1  0.531060  0.022800  0.070500  1.0  -0.1496
  F  F152  1  0.345950  0.957390  0.859030  1.0  -0.1456
  F  F153  1  0.042610  0.388560  0.192370  1.0  -0.1477
  F  F154  1  0.654050  0.611440  0.807630  1.0  -0.1445
  F  F155  1  0.611440  0.654050  0.525700  1.0  -0.1447
  F  F156  1  0.957390  0.345950  0.474300  1.0  -0.1442
  F  F157  1  0.468940  0.491740  0.596170  1.0  -0.1485
  F  F158  1  0.977200  0.508260  0.403830  1.0  -0.1501
  F  F159  1  0.508260  0.977200  0.929500  1.0  -0.1459
