# generated using pymatgen
data_NiH14C26(NO)8
_symmetry_space_group_name_H-M   'P 1'
_cell_length_a   15.63800000
_cell_length_b   15.63800000
_cell_length_c   18.49900000
_cell_angle_alpha   90.00000000
_cell_angle_beta   90.00000000
_cell_angle_gamma   120.00000000
_symmetry_Int_Tables_number   1
_chemical_formula_structural   NiH14C26(NO)8
_chemical_formula_sum   'Ni3 H42 C78 N24 O24'
_cell_volume   3917.79133775
_cell_formula_units_Z   3
loop_
 _symmetry_equiv_pos_site_id
 _symmetry_equiv_pos_as_xyz
  1  'x, y, z'
loop_
 _atom_site_type_symbol
 _atom_site_label
 _atom_site_symmetry_multiplicity
 _atom_site_fract_x
 _atom_site_fract_y
 _atom_site_fract_z
 _atom_site_occupancy
 _atom_site_charge
  Ni  Ni1  1  0.823810  0.000000  0.500000  1.0  0.6695
  Ni  Ni2  1  0.000000  0.823810  0.166670  1.0  0.6646
  Ni  Ni3  1  0.176190  0.176190  0.833330  1.0  0.6587
  H  H4  1  0.989100  0.896900  0.017130  1.0  0.089
  H  H5  1  0.805500  0.654400  0.113730  1.0  0.0959
  H  H6  1  0.602400  0.705300  0.652130  1.0  0.1293
  H  H7  1  0.683300  0.621400  0.213430  1.0  0.1417
  H  H8  1  0.938100  0.316700  0.546770  1.0  0.1419
  H  H9  1  0.378600  0.061900  0.880100  1.0  0.1415
  H  H10  1  0.092200  0.103100  0.982870  1.0  0.089
  H  H11  1  0.345600  0.151100  0.780400  1.0  0.0956
  H  H12  1  0.061900  0.378600  0.786570  1.0  0.1426
  H  H13  1  0.897100  0.294700  0.347870  1.0  0.1295
  H  H14  1  0.956600  0.105300  0.249370  1.0  0.1368
  H  H15  1  0.439900  0.499500  0.734730  1.0  0.1323
  H  H16  1  0.295400  0.356100  0.739130  1.0  0.0948
  H  H17  1  0.851300  0.894700  0.750630  1.0  0.1371
  H  H18  1  0.848900  0.194500  0.447070  1.0  0.0955
  H  H19  1  0.105300  0.956600  0.417300  1.0  0.1367
  H  H20  1  0.896900  0.989100  0.649530  1.0  0.0881
  H  H21  1  0.705300  0.602400  0.014530  1.0  0.1297
  H  H22  1  0.939300  0.643900  0.260870  1.0  0.0954
  H  H23  1  0.151100  0.345600  0.886270  1.0  0.0963
  H  H24  1  0.907800  0.010900  0.350470  1.0  0.0887
  H  H25  1  0.059600  0.560100  0.068070  1.0  0.1332
  H  H26  1  0.621400  0.683300  0.453230  1.0  0.1412
  H  H27  1  0.060700  0.704600  0.072470  1.0  0.0963
  H  H28  1  0.294700  0.897100  0.318800  1.0  0.1292
  H  H29  1  0.148700  0.043400  0.582700  1.0  0.1366
  H  H30  1  0.940400  0.500500  0.265270  1.0  0.1334
  H  H31  1  0.643900  0.939300  0.405800  1.0  0.0967
  H  H32  1  0.102900  0.397600  0.985470  1.0  0.1301
  H  H33  1  0.894700  0.851300  0.916030  1.0  0.136
  H  H34  1  0.010900  0.907800  0.316200  1.0  0.0891
  H  H35  1  0.356100  0.295400  0.927530  1.0  0.0961
  H  H36  1  0.316700  0.938100  0.119900  1.0  0.1409
  H  H37  1  0.500500  0.940400  0.401400  1.0  0.1331
  H  H38  1  0.397600  0.102900  0.681200  1.0  0.1286
  H  H39  1  0.103100  0.092200  0.683800  1.0  0.0889
  H  H40  1  0.704600  0.060700  0.594200  1.0  0.0967
  H  H41  1  0.499500  0.439900  0.931930  1.0  0.1335
  H  H42  1  0.194500  0.848900  0.219600  1.0  0.0961
  H  H43  1  0.043400  0.148700  0.083970  1.0  0.1359
  H  H44  1  0.560100  0.059600  0.598600  1.0  0.1335
  H  H45  1  0.654400  0.805500  0.552930  1.0  0.0957
  C  C46  1  0.263400  0.978700  0.034600  1.0  -0.101
  C  C47  1  0.068700  0.904700  0.317000  1.0  0.1905
  C  C48  1  0.511800  0.000000  0.500000  1.0  -0.0626
  C  C49  1  0.786700  0.721600  0.953930  1.0  -0.0167
  C  C50  1  0.715300  0.736600  0.367930  1.0  -0.1014
  C  C51  1  0.809700  0.874400  0.710630  1.0  -0.1303
  C  C52  1  0.000000  0.417100  0.166670  1.0  0.4072
  C  C53  1  0.671200  0.631000  0.261130  1.0  -0.0485
  C  C54  1  0.631000  0.671200  0.405530  1.0  -0.0531
  C  C55  1  0.836000  0.931300  0.650330  1.0  0.1921
  C  C56  1  0.173900  0.963100  0.076100  1.0  0.7113
  C  C57  1  0.278400  0.065100  0.620600  1.0  -0.0157
  C  C58  1  0.338000  0.372900  0.778330  1.0  0.1847
  C  C59  1  0.328800  0.959800  0.072200  1.0  -0.0487
  C  C60  1  0.826100  0.789200  0.257230  1.0  0.715
  C  C61  1  0.284700  0.021300  0.965400  1.0  -0.1013
  C  C62  1  0.582900  0.582900  0.833330  1.0  0.4071
  C  C63  1  0.417100  0.000000  0.500000  1.0  0.4068
  C  C64  1  0.213300  0.934900  0.379400  1.0  -0.0158
  C  C65  1  0.974700  0.413800  0.630770  1.0  0.0694
  C  C66  1  0.025300  0.439100  0.702570  1.0  0.0678
  C  C67  1  0.439100  0.025300  0.964100  1.0  0.0693
  C  C68  1  0.000000  0.511800  0.166670  1.0  -0.0616
  C  C69  1  0.278000  0.967800  0.443100  1.0  0.4174
  C  C70  1  0.064700  0.190300  0.043970  1.0  -0.1303
  C  C71  1  0.175800  0.870300  0.260400  1.0  0.1684
  C  C72  1  0.964600  0.540600  0.224570  1.0  -0.1238
  C  C73  1  0.689800  0.722000  0.776430  1.0  0.4176
  C  C74  1  0.210800  0.036900  0.923900  1.0  0.7108
  C  C75  1  0.065100  0.278400  0.046070  1.0  -0.0164
  C  C76  1  0.164000  0.095300  0.683000  1.0  0.1903
  C  C77  1  0.789200  0.826100  0.409430  1.0  0.7159
  C  C78  1  0.763100  0.663400  0.013730  1.0  -0.1289
  C  C79  1  0.870300  0.175800  0.406270  1.0  0.1701
  C  C80  1  0.978700  0.263400  0.632070  1.0  -0.1019
  C  C81  1  0.032200  0.310200  0.109770  1.0  0.4173
  C  C82  1  0.459400  0.424000  0.891230  1.0  -0.1251
  C  C83  1  0.129700  0.305500  0.927070  1.0  0.1714
  C  C84  1  0.236900  0.900300  0.319600  1.0  -0.1221
  C  C85  1  0.963100  0.173900  0.590570  1.0  0.7144
  C  C86  1  0.021300  0.284700  0.701270  1.0  -0.1007
  C  C87  1  0.125600  0.935300  0.377300  1.0  -0.1287
  C  C88  1  0.540600  0.964600  0.442100  1.0  -0.1246
  C  C89  1  0.904700  0.068700  0.349670  1.0  0.1918
  C  C90  1  0.935300  0.125600  0.289370  1.0  -0.1297
  C  C91  1  0.035400  0.576000  0.108770  1.0  -0.1261
  C  C92  1  0.965100  0.627100  0.221670  1.0  0.1842
  C  C93  1  0.934900  0.213300  0.287270  1.0  -0.0115
  C  C94  1  0.036900  0.210800  0.742770  1.0  0.716
  C  C95  1  0.372900  0.338000  0.888330  1.0  0.184
  C  C96  1  0.305500  0.129700  0.739600  1.0  0.1688
  C  C97  1  0.694500  0.824200  0.593730  1.0  0.1701
  C  C98  1  0.967800  0.278000  0.223570  1.0  0.4178
  C  C99  1  0.586200  0.560900  0.297430  1.0  0.0671
  C  C100  1  0.560900  0.586200  0.369230  1.0  0.0684
  C  C101  1  0.931300  0.836000  0.016330  1.0  0.1916
  C  C102  1  0.424000  0.459400  0.775430  1.0  -0.1246
  C  C103  1  0.722000  0.689800  0.890230  1.0  0.4175
  C  C104  1  0.576000  0.035400  0.557900  1.0  -0.1259
  C  C105  1  0.336600  0.099700  0.680400  1.0  -0.1234
  C  C106  1  0.413800  0.974700  0.035900  1.0  0.0681
  C  C107  1  0.034900  0.662000  0.111670  1.0  0.1841
  C  C108  1  0.736600  0.715300  0.298730  1.0  -0.1003
  C  C109  1  0.190300  0.064700  0.622700  1.0  -0.1264
  C  C110  1  0.310200  0.032200  0.556900  1.0  0.4175
  C  C111  1  0.721600  0.786700  0.712730  1.0  -0.0117
  C  C112  1  0.627100  0.965100  0.445000  1.0  0.1851
  C  C113  1  0.099700  0.336600  0.986270  1.0  -0.1269
  C  C114  1  0.959800  0.328800  0.594470  1.0  -0.0535
  C  C115  1  0.663400  0.763100  0.652930  1.0  -0.1269
  C  C116  1  0.040200  0.369000  0.738870  1.0  -0.0509
  C  C117  1  0.095300  0.164000  0.983670  1.0  0.1907
  C  C118  1  0.488200  0.488200  0.833330  1.0  -0.0607
  C  C119  1  0.369000  0.040200  0.927800  1.0  -0.0494
  C  C120  1  0.662000  0.034900  0.555000  1.0  0.1843
  C  C121  1  0.900300  0.236900  0.347070  1.0  -0.1269
  C  C122  1  0.874400  0.809700  0.956030  1.0  -0.1295
  C  C123  1  0.824200  0.694500  0.072930  1.0  0.1709
  N  N124  1  0.908200  0.778600  0.074340  1.0  -0.3115
  N  N125  1  0.751600  0.751600  0.833330  1.0  -0.4772
  N  N126  1  0.062600  0.536600  0.737470  1.0  0.6248
  N  N127  1  0.221400  0.129600  0.741010  1.0  -0.311
  N  N128  1  0.248400  0.000000  0.500000  1.0  -0.4753
  N  N129  1  0.637300  0.604400  0.892130  1.0  -0.4464
  N  N130  1  0.604400  0.637300  0.774530  1.0  -0.4539
  N  N131  1  0.778600  0.908200  0.592320  1.0  -0.3131
  N  N132  1  0.536600  0.062600  0.929200  1.0  0.63
  N  N133  1  0.689600  0.000000  0.500000  1.0  -0.3024
  N  N134  1  0.526000  0.463400  0.262530  1.0  0.627
  N  N135  1  0.032900  0.395600  0.107870  1.0  -0.4502
  N  N136  1  0.129600  0.221400  0.925660  1.0  -0.3133
  N  N137  1  0.474000  0.937400  0.070800  1.0  0.6329
  N  N138  1  0.000000  0.689600  0.166670  1.0  -0.3055
  N  N139  1  0.937400  0.474000  0.595870  1.0  0.6305
  N  N140  1  0.091800  0.870400  0.258990  1.0  -0.3117
  N  N141  1  0.000000  0.248400  0.166670  1.0  -0.4751
  N  N142  1  0.362700  0.967100  0.441200  1.0  -0.4444
  N  N143  1  0.967100  0.362700  0.225470  1.0  -0.4478
  N  N144  1  0.870400  0.091800  0.407680  1.0  -0.3119
  N  N145  1  0.395600  0.032900  0.558800  1.0  -0.444
  N  N146  1  0.310400  0.310400  0.833330  1.0  -0.3046
  N  N147  1  0.463400  0.526000  0.404130  1.0  0.6288
  O  O148  1  0.881000  0.124800  0.564040  1.0  -0.5903
  O  O149  1  0.461000  0.403700  0.302330  1.0  -0.5234
  O  O150  1  0.119000  0.243800  0.769300  1.0  -0.5916
  O  O151  1  0.031700  0.157600  0.586170  1.0  -0.502
  O  O152  1  0.926000  0.472000  0.530370  1.0  -0.3916
  O  O153  1  0.057300  0.596300  0.697670  1.0  -0.5254
  O  O154  1  0.528000  0.454000  0.197030  1.0  -0.3891
  O  O155  1  0.125900  0.968300  0.919500  1.0  -0.4952
  O  O156  1  0.472000  0.926000  0.136300  1.0  -0.3924
  O  O157  1  0.596300  0.057300  0.969000  1.0  -0.522
  O  O158  1  0.756200  0.875200  0.435960  1.0  -0.5897
  O  O159  1  0.074000  0.546000  0.802970  1.0  -0.3927
  O  O160  1  0.539000  0.942700  0.031000  1.0  -0.5219
  O  O161  1  0.874100  0.842400  0.413830  1.0  -0.5011
  O  O162  1  0.968300  0.125900  0.747170  1.0  -0.4985
  O  O163  1  0.454000  0.528000  0.469630  1.0  -0.3915
  O  O164  1  0.842400  0.874100  0.252830  1.0  -0.5008
  O  O165  1  0.124800  0.881000  0.102630  1.0  -0.5923
  O  O166  1  0.243800  0.119000  0.897370  1.0  -0.5924
  O  O167  1  0.157600  0.031700  0.080500  1.0  -0.4951
  O  O168  1  0.942700  0.539000  0.635670  1.0  -0.5231
  O  O169  1  0.403700  0.461000  0.364330  1.0  -0.5209
  O  O170  1  0.546000  0.074000  0.863700  1.0  -0.3901
  O  O171  1  0.875200  0.756200  0.230700  1.0  -0.5919
