# generated using pymatgen
data_NiH14C26N6(O2F)2
_symmetry_space_group_name_H-M   'P 1'
_cell_length_a   15.69800000
_cell_length_b   15.69800000
_cell_length_c   18.55700000
_cell_angle_alpha   90.00000000
_cell_angle_beta   90.00000000
_cell_angle_gamma   120.00000000
_symmetry_Int_Tables_number   1
_chemical_formula_structural   NiH14C26N6(O2F)2
_chemical_formula_sum   'Ni3 H42 C78 N18 O12 F6'
_cell_volume   3960.29054515
_cell_formula_units_Z   3
loop_
 _symmetry_equiv_pos_site_id
 _symmetry_equiv_pos_as_xyz
  1  'x, y, z'
loop_
 _atom_site_type_symbol
 _atom_site_label
 _atom_site_symmetry_multiplicity
 _atom_site_fract_x
 _atom_site_fract_y
 _atom_site_fract_z
 _atom_site_occupancy
 _atom_site_charge
  Ni  Ni1  1  0.000000  0.822070  0.833330  1.0  0.648
  Ni  Ni2  1  0.822070  0.000000  0.500000  1.0  0.6539
  Ni  Ni3  1  0.177930  0.177930  0.166670  1.0  0.6428
  H  H4  1  0.495600  0.934100  0.596000  1.0  0.1302
  H  H5  1  0.805000  0.654400  0.886270  1.0  0.0819
  H  H6  1  0.602000  0.702300  0.349070  1.0  0.1291
  H  H7  1  0.100300  0.398000  0.015730  1.0  0.13
  H  H8  1  0.499900  0.540600  0.609730  1.0  0.1267
  H  H9  1  0.045700  0.150300  0.914530  1.0  0.1335
  H  H10  1  0.297700  0.899700  0.682400  1.0  0.1292
  H  H11  1  0.959300  0.459400  0.390270  1.0  0.127
  H  H12  1  0.934100  0.495600  0.737330  1.0  0.1297
  H  H13  1  0.504400  0.438500  0.070670  1.0  0.1304
  H  H14  1  0.702300  0.602000  0.984270  1.0  0.1294
  H  H15  1  0.935100  0.640800  0.739830  1.0  0.0892
  H  H16  1  0.040700  0.500100  0.276400  1.0  0.1275
  H  H17  1  0.103700  0.108900  0.013730  1.0  0.0751
  H  H18  1  0.150600  0.345600  0.113730  1.0  0.0824
  H  H19  1  0.994800  0.891100  0.986270  1.0  0.0748
  H  H20  1  0.359200  0.294300  0.073170  1.0  0.0899
  H  H21  1  0.640800  0.935100  0.593500  1.0  0.0913
  H  H22  1  0.065900  0.561500  0.929330  1.0  0.1297
  H  H23  1  0.104600  0.954300  0.581200  1.0  0.1339
  H  H24  1  0.895400  0.849700  0.085470  1.0  0.1337
  H  H25  1  0.954300  0.104600  0.752130  1.0  0.134
  H  H26  1  0.195000  0.849400  0.780400  1.0  0.0814
  H  H27  1  0.891100  0.994800  0.347070  1.0  0.0743
  H  H28  1  0.459400  0.959300  0.943070  1.0  0.126
  H  H29  1  0.561500  0.065900  0.404000  1.0  0.1304
  H  H30  1  0.294300  0.359200  0.260170  1.0  0.0889
  H  H31  1  0.849400  0.195000  0.552930  1.0  0.0817
  H  H32  1  0.150300  0.045700  0.418800  1.0  0.1339
  H  H33  1  0.849700  0.895400  0.247870  1.0  0.1338
  H  H34  1  0.005200  0.896300  0.680400  1.0  0.0751
  H  H35  1  0.705700  0.064900  0.406500  1.0  0.0902
  H  H36  1  0.500100  0.040700  0.056930  1.0  0.1261
  H  H37  1  0.345600  0.150600  0.219600  1.0  0.0812
  H  H38  1  0.896300  0.005200  0.652930  1.0  0.0743
  H  H39  1  0.899700  0.297700  0.650930  1.0  0.1298
  H  H40  1  0.064900  0.705700  0.926830  1.0  0.0895
  H  H41  1  0.108900  0.103700  0.319600  1.0  0.0752
  H  H42  1  0.438500  0.504400  0.262670  1.0  0.1298
  H  H43  1  0.398000  0.100300  0.317600  1.0  0.1294
  H  H44  1  0.540600  0.499900  0.723600  1.0  0.1292
  H  H45  1  0.654400  0.805000  0.447070  1.0  0.0819
  C  C46  1  0.962000  0.624500  0.778490  1.0  0.1594
  C  C47  1  0.021800  0.440200  0.298700  1.0  -0.1629
  C  C48  1  0.333000  0.964600  0.932070  1.0  0.3
  C  C49  1  0.265100  0.981700  0.965200  1.0  -0.0897
  C  C50  1  0.210300  0.036400  0.077140  1.0  0.6946
  C  C51  1  0.130500  0.306600  0.072550  1.0  0.1703
  C  C52  1  0.102200  0.167400  0.014260  1.0  0.1789
  C  C53  1  0.716600  0.734900  0.631860  1.0  -0.0908
  C  C54  1  0.018300  0.283400  0.298530  1.0  -0.0905
  C  C55  1  0.537500  0.961000  0.556700  1.0  -0.1225
  C  C56  1  0.238700  0.900100  0.680860  1.0  -0.1146
  C  C57  1  0.931600  0.123800  0.712580  1.0  -0.1146
  C  C58  1  0.033300  0.310700  0.888570  1.0  0.4109
  C  C59  1  0.662500  0.038000  0.445160  1.0  0.1612
  C  C60  1  0.823900  0.693400  0.927450  1.0  0.1702
  C  C61  1  0.039000  0.576500  0.890030  1.0  -0.1219
  C  C62  1  0.934800  0.832600  0.985740  1.0  0.1779
  C  C63  1  0.897800  0.065200  0.652400  1.0  0.1793
  C  C64  1  0.511800  0.000000  0.500000  1.0  -0.0745
  C  C65  1  0.961000  0.537500  0.776630  1.0  -0.1193
  C  C66  1  0.038000  0.662500  0.888170  1.0  0.1598
  C  C67  1  0.173900  0.963600  0.922860  1.0  0.6944
  C  C68  1  0.667000  0.631600  0.734600  1.0  0.2966
  C  C69  1  0.966700  0.277400  0.778090  1.0  0.4113
  C  C70  1  0.000000  0.511800  0.833330  1.0  -0.0701
  C  C71  1  0.423500  0.462500  0.223370  1.0  -0.1221
  C  C72  1  0.065200  0.897800  0.680930  1.0  0.1786
  C  C73  1  0.099900  0.338600  0.014190  1.0  -0.1159
  C  C74  1  0.576500  0.039000  0.443300  1.0  -0.1215
  C  C75  1  0.123800  0.931600  0.620750  1.0  -0.1138
  C  C76  1  0.310700  0.033300  0.444760  1.0  0.4114
  C  C77  1  0.375500  0.337500  0.111830  1.0  0.1599
  C  C78  1  0.068400  0.192200  0.954080  1.0  -0.1121
  C  C79  1  0.900100  0.238700  0.652470  1.0  -0.1162
  C  C80  1  0.418400  0.978200  0.965370  1.0  -0.1616
  C  C81  1  0.176100  0.869500  0.739220  1.0  0.1702
  C  C82  1  0.789700  0.826100  0.589520  1.0  0.6972
  C  C83  1  0.306600  0.130500  0.260780  1.0  0.1698
  C  C84  1  0.981700  0.265100  0.368140  1.0  -0.0914
  C  C85  1  0.211400  0.931400  0.619940  1.0  -0.0712
  C  C86  1  0.876200  0.807800  0.045920  1.0  -0.1149
  C  C87  1  0.000000  0.416900  0.833330  1.0  0.3433
  C  C88  1  0.277400  0.966700  0.555240  1.0  0.4109
  C  C89  1  0.337500  0.375500  0.221510  1.0  0.16
  C  C90  1  0.689300  0.722600  0.221910  1.0  0.4111
  C  C91  1  0.488200  0.488200  0.166670  1.0  -0.0697
  C  C92  1  0.368400  0.035400  0.067930  1.0  0.2979
  C  C93  1  0.788600  0.720000  0.046730  1.0  -0.0727
  C  C94  1  0.631600  0.667000  0.598730  1.0  0.2952
  C  C95  1  0.624500  0.962000  0.554840  1.0  0.1615
  C  C96  1  0.978200  0.418400  0.367970  1.0  -0.1629
  C  C97  1  0.280000  0.068600  0.380060  1.0  -0.0719
  C  C98  1  0.661400  0.761300  0.347530  1.0  -0.1147
  C  C99  1  0.963600  0.173900  0.410480  1.0  0.6968
  C  C100  1  0.807800  0.876200  0.287420  1.0  -0.1162
  C  C101  1  0.583100  0.583100  0.166670  1.0  0.3431
  C  C102  1  0.931400  0.211400  0.713390  1.0  -0.0692
  C  C103  1  0.722600  0.689300  0.111430  1.0  0.4112
  C  C104  1  0.283400  0.018300  0.034800  1.0  -0.0902
  C  C105  1  0.734900  0.716600  0.701470  1.0  -0.0904
  C  C106  1  0.832600  0.934800  0.347600  1.0  0.1796
  C  C107  1  0.338600  0.099900  0.319140  1.0  -0.1145
  C  C108  1  0.462500  0.423500  0.109970  1.0  -0.1231
  C  C109  1  0.693400  0.823900  0.405890  1.0  0.1698
  C  C110  1  0.192200  0.068400  0.379250  1.0  -0.115
  C  C111  1  0.035400  0.368400  0.265400  1.0  0.2963
  C  C112  1  0.826100  0.789700  0.743810  1.0  0.6968
  C  C113  1  0.964600  0.333000  0.401270  1.0  0.2941
  C  C114  1  0.416900  0.000000  0.500000  1.0  0.3433
  C  C115  1  0.761300  0.661400  0.985810  1.0  -0.1141
  C  C116  1  0.720000  0.788600  0.286610  1.0  -0.0693
  C  C117  1  0.068600  0.280000  0.953270  1.0  -0.0728
  C  C118  1  0.167400  0.102200  0.319070  1.0  0.1787
  C  C119  1  0.036400  0.210300  0.256190  1.0  0.6976
  C  C120  1  0.559800  0.581600  0.632030  1.0  -0.1631
  C  C121  1  0.869500  0.176100  0.594110  1.0  0.1692
  C  C122  1  0.440200  0.021800  0.034630  1.0  -0.1606
  C  C123  1  0.581600  0.559800  0.701300  1.0  -0.1636
  N  N124  1  0.000000  0.688100  0.833330  1.0  -0.3246
  N  N125  1  0.089940  0.866990  0.740180  1.0  -0.3081
  N  N126  1  0.777050  0.910060  0.406850  1.0  -0.3099
  N  N127  1  0.910060  0.777050  0.926490  1.0  -0.3079
  N  N128  1  0.311900  0.311900  0.166670  1.0  -0.325
  N  N129  1  0.866990  0.089940  0.593150  1.0  -0.3107
  N  N130  1  0.395480  0.035040  0.441800  1.0  -0.4563
  N  N131  1  0.360440  0.964960  0.558200  1.0  -0.4509
  N  N132  1  0.688100  0.000000  0.500000  1.0  -0.3229
  N  N133  1  0.000000  0.247600  0.833330  1.0  -0.5065
  N  N134  1  0.964960  0.360440  0.775130  1.0  -0.4561
  N  N135  1  0.639560  0.604520  0.108470  1.0  -0.4489
  N  N136  1  0.222950  0.133010  0.259820  1.0  -0.3088
  N  N137  1  0.752400  0.752400  0.166670  1.0  -0.5061
  N  N138  1  0.604520  0.639560  0.224870  1.0  -0.4578
  N  N139  1  0.247600  0.000000  0.500000  1.0  -0.5068
  N  N140  1  0.035040  0.395480  0.891530  1.0  -0.4576
  N  N141  1  0.133010  0.222950  0.073510  1.0  -0.3072
  O  O142  1  0.120490  0.244030  0.230390  1.0  -0.6022
  O  O143  1  0.874400  0.844300  0.585130  1.0  -0.515
  O  O144  1  0.125600  0.969900  0.081530  1.0  -0.5056
  O  O145  1  0.030100  0.155700  0.414870  1.0  -0.5131
  O  O146  1  0.879510  0.123540  0.436280  1.0  -0.6016
  O  O147  1  0.969900  0.125600  0.251800  1.0  -0.5137
  O  O148  1  0.155700  0.030100  0.918470  1.0  -0.5068
  O  O149  1  0.876460  0.755970  0.769610  1.0  -0.6025
  O  O150  1  0.755970  0.876460  0.563720  1.0  -0.6008
  O  O151  1  0.244030  0.120490  0.102940  1.0  -0.6012
  O  O152  1  0.844300  0.874400  0.748200  1.0  -0.5119
  O  O153  1  0.123540  0.879510  0.897060  1.0  -0.6023
  F  F154  1  0.392100  0.065800  0.134530  1.0  -0.1721
  F  F155  1  0.607900  0.673700  0.532130  1.0  -0.1731
  F  F156  1  0.673700  0.607900  0.801200  1.0  -0.1739
  F  F157  1  0.065800  0.392100  0.198800  1.0  -0.1728
  F  F158  1  0.326300  0.934200  0.865470  1.0  -0.1727
  F  F159  1  0.934200  0.326300  0.467870  1.0  -0.1741
