# generated using pymatgen
data_NiH14C26N6(O2F)2
_symmetry_space_group_name_H-M   'P 1'
_cell_length_a   15.68800000
_cell_length_b   15.68800000
_cell_length_c   18.67800000
_cell_angle_alpha   90.00000000
_cell_angle_beta   90.00000000
_cell_angle_gamma   120.00000000
_symmetry_Int_Tables_number   1
_chemical_formula_structural   NiH14C26N6(O2F)2
_chemical_formula_sum   'Ni3 H42 C78 N18 O12 F6'
_cell_volume   3981.03654276
_cell_formula_units_Z   3
loop_
 _symmetry_equiv_pos_site_id
 _symmetry_equiv_pos_as_xyz
  1  'x, y, z'
loop_
 _atom_site_type_symbol
 _atom_site_label
 _atom_site_symmetry_multiplicity
 _atom_site_fract_x
 _atom_site_fract_y
 _atom_site_fract_z
 _atom_site_occupancy
 _atom_site_charge
  Ni  Ni1  1  0.823650  0.000000  0.500000  1.0  0.642
  Ni  Ni2  1  0.176350  0.176350  0.833330  1.0  0.6305
  Ni  Ni3  1  0.000000  0.823650  0.166670  1.0  0.6356
  H  H4  1  0.318200  0.933700  0.117900  1.0  0.1269
  H  H5  1  0.681800  0.615500  0.215430  1.0  0.1276
  H  H6  1  0.700900  0.604500  0.015330  1.0  0.1334
  H  H7  1  0.938900  0.644400  0.259270  1.0  0.0818
  H  H8  1  0.384500  0.066300  0.882100  1.0  0.127
  H  H9  1  0.096400  0.395500  0.984670  1.0  0.1341
  H  H10  1  0.615500  0.681800  0.451230  1.0  0.1286
  H  H11  1  0.195000  0.851400  0.219700  1.0  0.0863
  H  H12  1  0.933700  0.318200  0.548770  1.0  0.1274
  H  H13  1  0.149600  0.047000  0.581900  1.0  0.1242
  H  H14  1  0.061100  0.705500  0.074070  1.0  0.0828
  H  H15  1  0.897400  0.004100  0.348470  1.0  0.0787
  H  H16  1  0.343600  0.148600  0.780300  1.0  0.0853
  H  H17  1  0.953000  0.102600  0.248570  1.0  0.1244
  H  H18  1  0.299100  0.903600  0.318000  1.0  0.1336
  H  H19  1  0.604500  0.700900  0.651330  1.0  0.133
  H  H20  1  0.437900  0.504800  0.736830  1.0  0.1274
  H  H21  1  0.995900  0.893300  0.015130  1.0  0.0794
  H  H22  1  0.562100  0.066900  0.596500  1.0  0.1283
  H  H23  1  0.047000  0.149600  0.084770  1.0  0.1241
  H  H24  1  0.102600  0.953000  0.418100  1.0  0.1241
  H  H25  1  0.851400  0.195000  0.446970  1.0  0.0853
  H  H26  1  0.504800  0.437900  0.929830  1.0  0.1284
  H  H27  1  0.004100  0.897400  0.318200  1.0  0.0792
  H  H28  1  0.106700  0.102600  0.681800  1.0  0.0794
  H  H29  1  0.656400  0.805000  0.553030  1.0  0.0857
  H  H30  1  0.933100  0.495200  0.263170  1.0  0.1285
  H  H31  1  0.897400  0.850400  0.915230  1.0  0.124
  H  H32  1  0.066300  0.384500  0.784570  1.0  0.1276
  H  H33  1  0.705500  0.061100  0.592600  1.0  0.0823
  H  H34  1  0.495200  0.933100  0.403500  1.0  0.1277
  H  H35  1  0.644400  0.938900  0.407400  1.0  0.0828
  H  H36  1  0.850400  0.897400  0.751430  1.0  0.1244
  H  H37  1  0.294500  0.355600  0.740730  1.0  0.081
  H  H38  1  0.066900  0.562100  0.070170  1.0  0.1275
  H  H39  1  0.893300  0.995900  0.651530  1.0  0.0785
  H  H40  1  0.148600  0.343600  0.886370  1.0  0.0856
  H  H41  1  0.102600  0.106700  0.984870  1.0  0.079
  H  H42  1  0.355600  0.294500  0.925930  1.0  0.082
  H  H43  1  0.805000  0.656400  0.113630  1.0  0.0854
  H  H44  1  0.395500  0.096400  0.682000  1.0  0.133
  H  H45  1  0.903600  0.299100  0.348670  1.0  0.1329
  C  C46  1  0.463300  0.424000  0.890630  1.0  -0.1216
  C  C47  1  0.576000  0.039300  0.557300  1.0  -0.121
  C  C48  1  0.211200  0.035800  0.923000  1.0  0.6962
  C  C49  1  0.175400  0.964200  0.077000  1.0  0.6969
  C  C50  1  0.662800  0.035900  0.553800  1.0  0.1764
  C  C51  1  0.016200  0.435900  0.704170  1.0  0.2491
  C  C52  1  0.264100  0.978300  0.034700  1.0  -0.1124
  C  C53  1  0.935700  0.835000  0.015370  1.0  0.168
  C  C54  1  0.564100  0.580300  0.370830  1.0  0.2504
  C  C55  1  0.934600  0.211800  0.287710  1.0  -0.0393
  C  C56  1  0.536700  0.960700  0.442700  1.0  -0.1224
  C  C57  1  0.190600  0.067700  0.621800  1.0  -0.0717
  C  C58  1  0.373100  0.337200  0.887130  1.0  0.176
  C  C59  1  0.064300  0.899300  0.317960  1.0  0.1675
  C  C60  1  0.021700  0.285800  0.701370  1.0  -0.1126
  C  C61  1  0.100700  0.165000  0.984630  1.0  0.1692
  C  C62  1  0.723700  0.691000  0.889580  1.0  0.3584
  C  C63  1  0.964100  0.626900  0.220470  1.0  0.1756
  C  C64  1  0.691000  0.723700  0.777080  1.0  0.3585
  C  C65  1  0.788800  0.824600  0.410330  1.0  0.7003
  C  C66  1  0.165000  0.100700  0.682040  1.0  0.1673
  C  C67  1  0.663700  0.760200  0.652550  1.0  -0.124
  C  C68  1  0.277200  0.065400  0.621040  1.0  -0.0432
  C  C69  1  0.510300  0.000000  0.500000  1.0  -0.0704
  C  C70  1  0.626900  0.964100  0.446200  1.0  0.177
  C  C71  1  0.000000  0.416100  0.166670  1.0  0.3181
  C  C72  1  0.309000  0.032700  0.556250  1.0  0.3587
  C  C73  1  0.285800  0.021700  0.965300  1.0  -0.1128
  C  C74  1  0.877100  0.809400  0.955130  1.0  -0.0733
  C  C75  1  0.176200  0.872000  0.260400  1.0  0.1718
  C  C76  1  0.337200  0.373100  0.779530  1.0  0.1764
  C  C77  1  0.336300  0.096500  0.680780  1.0  -0.1242
  C  C78  1  0.964200  0.175400  0.589670  1.0  0.6988
  C  C79  1  0.983800  0.419700  0.629170  1.0  0.2508
  C  C80  1  0.960700  0.536700  0.223970  1.0  -0.1209
  C  C81  1  0.735900  0.714200  0.298630  1.0  -0.1134
  C  C82  1  0.000000  0.510300  0.166670  1.0  -0.0697
  C  C83  1  0.823800  0.695800  0.072930  1.0  0.1714
  C  C84  1  0.978300  0.264100  0.631970  1.0  -0.1132
  C  C85  1  0.035900  0.662800  0.112870  1.0  0.1759
  C  C86  1  0.211800  0.934600  0.378960  1.0  -0.0429
  C  C87  1  0.331800  0.960300  0.072000  1.0  -0.0766
  C  C88  1  0.424000  0.463300  0.776030  1.0  -0.1222
  C  C89  1  0.824600  0.788800  0.256330  1.0  0.6986
  C  C90  1  0.371500  0.039700  0.928000  1.0  -0.0766
  C  C91  1  0.932300  0.122900  0.288470  1.0  -0.0747
  C  C92  1  0.039300  0.576000  0.109370  1.0  -0.1239
  C  C93  1  0.239800  0.903500  0.319220  1.0  -0.1237
  C  C94  1  0.065400  0.277200  0.045630  1.0  -0.043
  C  C95  1  0.809400  0.877100  0.711530  1.0  -0.0761
  C  C96  1  0.122900  0.932300  0.378200  1.0  -0.0722
  C  C97  1  0.835000  0.935700  0.651290  1.0  0.1691
  C  C98  1  0.695800  0.823800  0.593730  1.0  0.1712
  C  C99  1  0.580300  0.564100  0.295830  1.0  0.2496
  C  C100  1  0.788200  0.722800  0.954370  1.0  -0.0436
  C  C101  1  0.276300  0.967300  0.443750  1.0  0.3585
  C  C102  1  0.628500  0.668200  0.405330  1.0  -0.079
  C  C103  1  0.304200  0.128000  0.739600  1.0  0.1718
  C  C104  1  0.668200  0.628500  0.261330  1.0  -0.0781
  C  C105  1  0.903500  0.239800  0.347450  1.0  -0.1225
  C  C106  1  0.583900  0.583900  0.833330  1.0  0.318
  C  C107  1  0.039700  0.371500  0.738670  1.0  -0.0784
  C  C108  1  0.760200  0.663700  0.014110  1.0  -0.1227
  C  C109  1  0.035800  0.211200  0.743670  1.0  0.6995
  C  C110  1  0.872000  0.176200  0.406270  1.0  0.1707
  C  C111  1  0.067700  0.190600  0.044870  1.0  -0.0721
  C  C112  1  0.032700  0.309000  0.110420  1.0  0.3583
  C  C113  1  0.899300  0.064300  0.348710  1.0  0.1684
  C  C114  1  0.714200  0.735900  0.368030  1.0  -0.114
  C  C115  1  0.722800  0.788200  0.712290  1.0  -0.0398
  C  C116  1  0.128000  0.304200  0.927070  1.0  0.1725
  C  C117  1  0.419700  0.983800  0.037500  1.0  0.2503
  C  C118  1  0.489700  0.489700  0.833330  1.0  -0.0686
  C  C119  1  0.967300  0.276300  0.222920  1.0  0.3587
  C  C120  1  0.960300  0.331800  0.594670  1.0  -0.0799
  C  C121  1  0.096500  0.336300  0.985890  1.0  -0.1242
  C  C122  1  0.435900  0.016200  0.962500  1.0  0.2493
  C  C123  1  0.416100  0.000000  0.500000  1.0  0.3177
  N  N124  1  0.246300  0.000000  0.500000  1.0  -0.4797
  N  N125  1  0.966600  0.361200  0.225840  1.0  -0.4704
  N  N126  1  0.221200  0.130200  0.740590  1.0  -0.3138
  N  N127  1  0.869800  0.091000  0.407260  1.0  -0.316
  N  N128  1  0.394600  0.033400  0.559170  1.0  -0.4604
  N  N129  1  0.361200  0.966600  0.440830  1.0  -0.4604
  N  N130  1  0.778800  0.909000  0.592740  1.0  -0.3161
  N  N131  1  0.310200  0.310200  0.833330  1.0  -0.3206
  N  N132  1  0.753700  0.753700  0.833330  1.0  -0.4848
  N  N133  1  0.000000  0.246300  0.166670  1.0  -0.4788
  N  N134  1  0.033400  0.394600  0.107500  1.0  -0.4627
  N  N135  1  0.689800  0.000000  0.500000  1.0  -0.3178
  N  N136  1  0.091000  0.869800  0.259410  1.0  -0.3129
  N  N137  1  0.909000  0.778800  0.073920  1.0  -0.3137
  N  N138  1  0.638800  0.605400  0.892500  1.0  -0.4703
  N  N139  1  0.605400  0.638800  0.774160  1.0  -0.4698
  N  N140  1  0.130200  0.221200  0.926080  1.0  -0.3146
  N  N141  1  0.000000  0.689800  0.166670  1.0  -0.3206
  O  O142  1  0.874620  0.755440  0.229800  1.0  -0.5968
  O  O143  1  0.244560  0.119180  0.896470  1.0  -0.5973
  O  O144  1  0.125380  0.880820  0.103530  1.0  -0.597
  O  O145  1  0.032800  0.158800  0.584970  1.0  -0.5256
  O  O146  1  0.880820  0.125380  0.563140  1.0  -0.5963
  O  O147  1  0.158800  0.032800  0.081700  1.0  -0.512
  O  O148  1  0.841200  0.874000  0.251630  1.0  -0.5208
  O  O149  1  0.874000  0.841200  0.415030  1.0  -0.5214
  O  O150  1  0.119180  0.244560  0.770200  1.0  -0.5965
  O  O151  1  0.755440  0.874620  0.436860  1.0  -0.5957
  O  O152  1  0.126000  0.967200  0.918300  1.0  -0.5149
  O  O153  1  0.967200  0.126000  0.748370  1.0  -0.517
  F  F154  1  0.039200  0.522500  0.732170  1.0  -0.1783
  F  F155  1  0.483300  0.960800  0.065500  1.0  -0.1746
  F  F156  1  0.960800  0.483300  0.601170  1.0  -0.1776
  F  F157  1  0.522500  0.039200  0.934500  1.0  -0.1749
  F  F158  1  0.516700  0.477500  0.267830  1.0  -0.1801
  F  F159  1  0.477500  0.516700  0.398830  1.0  -0.1768
