# generated using pymatgen
data_NiH14C26N6(O2F)2
_symmetry_space_group_name_H-M   'P 1'
_cell_length_a   15.54000000
_cell_length_b   15.54000000
_cell_length_c   18.67900000
_cell_angle_alpha   90.00000000
_cell_angle_beta   90.00000000
_cell_angle_gamma   120.00000000
_symmetry_Int_Tables_number   1
_chemical_formula_structural   NiH14C26N6(O2F)2
_chemical_formula_sum   'Ni3 H42 C78 N18 O12 F6'
_cell_volume   3906.48609442
_cell_formula_units_Z   3
loop_
 _symmetry_equiv_pos_site_id
 _symmetry_equiv_pos_as_xyz
  1  'x, y, z'
loop_
 _atom_site_type_symbol
 _atom_site_label
 _atom_site_symmetry_multiplicity
 _atom_site_fract_x
 _atom_site_fract_y
 _atom_site_fract_z
 _atom_site_occupancy
 _atom_site_charge
  Ni  Ni1  1  0.174680  0.174680  0.166670  1.0  0.6499
  Ni  Ni2  1  0.000000  0.825320  0.833330  1.0  0.6544
  Ni  Ni3  1  0.825320  0.000000  0.500000  1.0  0.6611
  H  H4  1  0.494600  0.935500  0.594800  1.0  0.1327
  H  H5  1  0.188700  0.840200  0.776000  1.0  0.089
  H  H6  1  0.495400  0.540900  0.613330  1.0  0.1287
  H  H7  1  0.140100  0.031800  0.414000  1.0  0.1366
  H  H8  1  0.348500  0.159800  0.224000  1.0  0.0888
  H  H9  1  0.362200  0.289500  0.076770  1.0  0.0942
  H  H10  1  0.707800  0.598600  0.989570  1.0  0.1433
  H  H11  1  0.540900  0.495400  0.720000  1.0  0.129
  H  H12  1  0.108300  0.968200  0.586000  1.0  0.1362
  H  H13  1  0.907300  0.006300  0.649730  1.0  0.0861
  H  H14  1  0.072700  0.710500  0.923230  1.0  0.0932
  H  H15  1  0.092700  0.099000  0.016930  1.0  0.0864
  H  H16  1  0.006300  0.907300  0.683600  1.0  0.0867
  H  H17  1  0.289500  0.362200  0.256570  1.0  0.0932
  H  H18  1  0.109200  0.401400  0.010430  1.0  0.1437
  H  H19  1  0.891700  0.859900  0.080670  1.0  0.1362
  H  H20  1  0.927300  0.637800  0.743430  1.0  0.0931
  H  H21  1  0.459100  0.954500  0.946670  1.0  0.1284
  H  H22  1  0.968200  0.108300  0.747330  1.0  0.1364
  H  H23  1  0.710500  0.072700  0.410100  1.0  0.094
  H  H24  1  0.045500  0.504600  0.280000  1.0  0.1299
  H  H25  1  0.099000  0.092700  0.316400  1.0  0.087
  H  H26  1  0.811300  0.651500  0.890670  1.0  0.0887
  H  H27  1  0.292200  0.890800  0.677100  1.0  0.1438
  H  H28  1  0.159800  0.348500  0.109330  1.0  0.089
  H  H29  1  0.859900  0.891700  0.252670  1.0  0.1361
  H  H30  1  0.505400  0.440900  0.071870  1.0  0.1328
  H  H31  1  0.598600  0.707800  0.343770  1.0  0.1427
  H  H32  1  0.993700  0.901000  0.983070  1.0  0.0866
  H  H33  1  0.440900  0.505400  0.261470  1.0  0.132
  H  H34  1  0.901000  0.993700  0.350270  1.0  0.0857
  H  H35  1  0.031800  0.140100  0.919330  1.0  0.1361
  H  H36  1  0.559100  0.064500  0.405200  1.0  0.1325
  H  H37  1  0.890800  0.292200  0.656230  1.0  0.1433
  H  H38  1  0.637800  0.927300  0.589900  1.0  0.0947
  H  H39  1  0.504600  0.045500  0.053330  1.0  0.1291
  H  H40  1  0.651500  0.811300  0.442670  1.0  0.0889
  H  H41  1  0.954500  0.459100  0.386670  1.0  0.1292
  H  H42  1  0.064500  0.559100  0.928130  1.0  0.1325
  H  H43  1  0.935500  0.494600  0.738530  1.0  0.132
  H  H44  1  0.401400  0.109200  0.322900  1.0  0.1436
  H  H45  1  0.840200  0.188700  0.557330  1.0  0.0888
  C  C46  1  0.575300  0.039000  0.444800  1.0  -0.0662
  C  C47  1  0.979100  0.419900  0.368470  1.0  -0.0843
  C  C48  1  0.820900  0.789900  0.743100  1.0  0.7359
  C  C49  1  0.440800  0.020900  0.035130  1.0  -0.0795
  C  C50  1  0.159700  0.094500  0.316950  1.0  0.1866
  C  C51  1  0.958900  0.624400  0.780530  1.0  0.17
  C  C52  1  0.415500  0.000000  0.500000  1.0  0.3282
  C  C53  1  0.730700  0.715600  0.701500  1.0  -0.0596
  C  C54  1  0.905500  0.065200  0.650280  1.0  0.1869
  C  C55  1  0.274100  0.967300  0.554600  1.0  0.3823
  C  C56  1  0.032700  0.306800  0.887930  1.0  0.3822
  C  C57  1  0.967300  0.274100  0.778730  1.0  0.3824
  C  C58  1  0.041100  0.665500  0.886130  1.0  0.1692
  C  C59  1  0.375600  0.334500  0.113870  1.0  0.1692
  C  C60  1  0.125200  0.940700  0.623800  1.0  -0.0769
  C  C61  1  0.065200  0.905500  0.683050  1.0  0.1864
  C  C62  1  0.209200  0.934600  0.620900  1.0  -0.0636
  C  C63  1  0.368000  0.026900  0.078930  1.0  0.0579
  C  C64  1  0.665500  0.041100  0.447200  1.0  0.1708
  C  C65  1  0.184500  0.059300  0.376200  1.0  -0.0775
  C  C66  1  0.559200  0.580100  0.631530  1.0  -0.083
  C  C67  1  0.632000  0.658900  0.587730  1.0  0.0592
  C  C68  1  0.341100  0.973100  0.921070  1.0  0.0587
  C  C69  1  0.488900  0.488900  0.166670  1.0  -0.0686
  C  C70  1  0.334500  0.375600  0.219470  1.0  0.1693
  C  C71  1  0.306800  0.032700  0.445400  1.0  0.3824
  C  C72  1  0.020900  0.440800  0.298200  1.0  -0.0844
  C  C73  1  0.580100  0.559200  0.701800  1.0  -0.0822
  C  C74  1  0.973100  0.341100  0.412270  1.0  0.0565
  C  C75  1  0.624400  0.958900  0.552800  1.0  0.1701
  C  C76  1  0.000000  0.511100  0.833330  1.0  -0.0688
  C  C77  1  0.015100  0.284400  0.298500  1.0  -0.0599
  C  C78  1  0.339100  0.104000  0.322090  1.0  -0.1091
  C  C79  1  0.715600  0.730700  0.631830  1.0  -0.0596
  C  C80  1  0.094500  0.159700  0.016380  1.0  0.1864
  C  C81  1  0.984900  0.269300  0.368170  1.0  -0.0602
  C  C82  1  0.536300  0.961000  0.555200  1.0  -0.0663
  C  C83  1  0.693200  0.725900  0.221270  1.0  0.3828
  C  C84  1  0.940700  0.125200  0.709530  1.0  -0.0802
  C  C85  1  0.419900  0.979100  0.964870  1.0  -0.0813
  C  C86  1  0.764900  0.660900  0.988760  1.0  -0.1081
  C  C87  1  0.840300  0.934800  0.349720  1.0  0.1869
  C  C88  1  0.179100  0.969000  0.923570  1.0  0.7331
  C  C89  1  0.896000  0.235100  0.655420  1.0  -0.1086
  C  C90  1  0.828300  0.693500  0.930070  1.0  0.1791
  C  C91  1  0.039000  0.575300  0.888530  1.0  -0.066
  C  C92  1  0.693500  0.828300  0.403270  1.0  0.1814
  C  C93  1  0.789900  0.820900  0.590230  1.0  0.7367
  C  C94  1  0.790800  0.725400  0.045770  1.0  -0.0649
  C  C95  1  0.463700  0.424700  0.111470  1.0  -0.067
  C  C96  1  0.284400  0.015100  0.034830  1.0  -0.0591
  C  C97  1  0.134800  0.306500  0.069930  1.0  0.1803
  C  C98  1  0.725900  0.693200  0.112070  1.0  0.3819
  C  C99  1  0.874800  0.815500  0.042870  1.0  -0.0798
  C  C100  1  0.961000  0.536300  0.778130  1.0  -0.0642
  C  C101  1  0.658900  0.632000  0.745600  1.0  0.0578
  C  C102  1  0.274600  0.065400  0.379100  1.0  -0.0637
  C  C103  1  0.235100  0.896000  0.677910  1.0  -0.1103
  C  C104  1  0.934800  0.840300  0.983620  1.0  0.1864
  C  C105  1  0.065400  0.274600  0.954230  1.0  -0.0651
  C  C106  1  0.210100  0.031000  0.076430  1.0  0.7328
  C  C107  1  0.584500  0.584500  0.166670  1.0  0.3291
  C  C108  1  0.511100  0.000000  0.500000  1.0  -0.0691
  C  C109  1  0.969000  0.179100  0.409770  1.0  0.7366
  C  C110  1  0.660900  0.764900  0.344580  1.0  -0.1068
  C  C111  1  0.934600  0.209200  0.712430  1.0  -0.0622
  C  C112  1  0.865200  0.171700  0.596730  1.0  0.1804
  C  C113  1  0.815500  0.874800  0.290470  1.0  -0.0797
  C  C114  1  0.031000  0.210100  0.256900  1.0  0.7362
  C  C115  1  0.725400  0.790800  0.287570  1.0  -0.0622
  C  C116  1  0.424700  0.463700  0.221870  1.0  -0.0657
  C  C117  1  0.059300  0.184500  0.957130  1.0  -0.0787
  C  C118  1  0.104000  0.339100  0.011240  1.0  -0.1097
  C  C119  1  0.306500  0.134800  0.263400  1.0  0.1823
  C  C120  1  0.026900  0.368000  0.254400  1.0  0.0588
  C  C121  1  0.171700  0.865200  0.736600  1.0  0.1833
  C  C122  1  0.000000  0.415500  0.833330  1.0  0.3293
  C  C123  1  0.269300  0.984900  0.965170  1.0  -0.0587
  N  N124  1  0.000000  0.691300  0.833330  1.0  -0.3053
  N  N125  1  0.691300  0.000000  0.500000  1.0  -0.3023
  N  N126  1  0.869100  0.088200  0.593250  1.0  -0.3121
  N  N127  1  0.088200  0.869100  0.740080  1.0  -0.3076
  N  N128  1  0.756100  0.756100  0.166670  1.0  -0.4362
  N  N129  1  0.606100  0.640600  0.225300  1.0  -0.5672
  N  N130  1  0.359400  0.965500  0.558630  1.0  -0.5662
  N  N131  1  0.965500  0.359400  0.774700  1.0  -0.5672
  N  N132  1  0.034500  0.393900  0.891960  1.0  -0.5671
  N  N133  1  0.219100  0.130900  0.259920  1.0  -0.3099
  N  N134  1  0.130900  0.219100  0.073410  1.0  -0.3092
  N  N135  1  0.911800  0.780900  0.926590  1.0  -0.3086
  N  N136  1  0.308700  0.308700  0.166670  1.0  -0.3051
  N  N137  1  0.000000  0.243900  0.833330  1.0  -0.4422
  N  N138  1  0.780900  0.911800  0.406750  1.0  -0.3094
  N  N139  1  0.393900  0.034500  0.441370  1.0  -0.5658
  N  N140  1  0.640600  0.606100  0.108040  1.0  -0.5566
  N  N141  1  0.243900  0.000000  0.500000  1.0  -0.444
  O  O142  1  0.884920  0.128510  0.438360  1.0  -0.5991
  O  O143  1  0.871490  0.756410  0.771690  1.0  -0.6002
  O  O144  1  0.160100  0.037900  0.920370  1.0  -0.5238
  O  O145  1  0.128510  0.884920  0.894980  1.0  -0.6003
  O  O146  1  0.962100  0.122200  0.253700  1.0  -0.528
  O  O147  1  0.122200  0.962100  0.079630  1.0  -0.521
  O  O148  1  0.756410  0.871490  0.561640  1.0  -0.5988
  O  O149  1  0.115080  0.243590  0.228310  1.0  -0.6002
  O  O150  1  0.877800  0.839900  0.587030  1.0  -0.5296
  O  O151  1  0.037900  0.160100  0.412970  1.0  -0.5277
  O  O152  1  0.243590  0.115080  0.105020  1.0  -0.6001
  O  O153  1  0.839900  0.877800  0.746300  1.0  -0.5274
  F  F154  1  0.660200  0.605500  0.815700  1.0  -0.1477
  F  F155  1  0.394500  0.054700  0.149030  1.0  -0.1467
  F  F156  1  0.605500  0.660200  0.517630  1.0  -0.1498
  F  F157  1  0.054700  0.394500  0.184300  1.0  -0.1528
  F  F158  1  0.339800  0.945300  0.850970  1.0  -0.1485
  F  F159  1  0.945300  0.339800  0.482370  1.0  -0.1468
