# generated using pymatgen
data_NiH18C26(N2O)4
_symmetry_space_group_name_H-M   'P 1'
_cell_length_a   15.67300000
_cell_length_b   15.67300000
_cell_length_c   18.53200000
_cell_angle_alpha   90.00000000
_cell_angle_beta   90.00000000
_cell_angle_gamma   120.00000000
_symmetry_Int_Tables_number   1
_chemical_formula_structural   NiH18C26(N2O)4
_chemical_formula_sum   'Ni3 H54 C78 N24 O12'
_cell_volume   3942.36826686
_cell_formula_units_Z   3
loop_
 _symmetry_equiv_pos_site_id
 _symmetry_equiv_pos_as_xyz
  1  'x, y, z'
loop_
 _atom_site_type_symbol
 _atom_site_label
 _atom_site_symmetry_multiplicity
 _atom_site_fract_x
 _atom_site_fract_y
 _atom_site_fract_z
 _atom_site_occupancy
 _atom_site_charge
  Ni  Ni1  1  0.000000  0.177630  0.166670  1.0  0.6377
  Ni  Ni2  1  0.822370  0.822370  0.833330  1.0  0.6429
  Ni  Ni3  1  0.177630  0.000000  0.500000  1.0  0.6491
  H  H4  1  0.885200  0.887800  0.680030  1.0  0.0663
  H  H5  1  0.560800  0.495600  0.734600  1.0  0.1165
  H  H6  1  0.934800  0.439200  0.067930  1.0  0.1168
  H  H7  1  0.395400  0.297100  0.652100  1.0  0.1068
  H  H8  1  0.112200  0.997400  0.346700  1.0  0.0632
  H  H9  1  0.957900  0.852100  0.081530  1.0  0.1167
  H  H10  1  0.061000  0.527700  0.549300  1.0  0.3459
  H  H11  1  0.345300  0.199500  0.551900  1.0  0.0924
  H  H12  1  0.373800  0.312400  0.453200  1.0  0.1044
  H  H13  1  0.854200  0.654700  0.885230  1.0  0.0926
  H  H14  1  0.098300  0.702900  0.347900  1.0  0.1063
  H  H15  1  0.042100  0.894200  0.251800  1.0  0.1171
  H  H16  1  0.114800  0.002600  0.653300  1.0  0.0625
  H  H17  1  0.887800  0.885200  0.986630  1.0  0.0626
  H  H18  1  0.894200  0.042100  0.414870  1.0  0.117
  H  H19  1  0.474800  0.043900  0.053270  1.0  0.3249
  H  H20  1  0.642200  0.708700  0.921870  1.0  0.0791
  H  H21  1  0.147900  0.105800  0.748200  1.0  0.1172
  H  H22  1  0.043900  0.474800  0.613400  1.0  0.3238
  H  H23  1  0.002600  0.114800  0.013370  1.0  0.0626
  H  H24  1  0.439200  0.934800  0.598730  1.0  0.1173
  H  H25  1  0.291300  0.933500  0.588530  1.0  0.0794
  H  H26  1  0.199500  0.345300  0.114770  1.0  0.093
  H  H27  1  0.702900  0.098300  0.318770  1.0  0.1075
  H  H28  1  0.312400  0.373800  0.213470  1.0  0.1045
  H  H29  1  0.297100  0.395400  0.014570  1.0  0.1063
  H  H30  1  0.569100  0.525200  0.386600  1.0  0.3212
  H  H31  1  0.525200  0.569100  0.280070  1.0  0.3216
  H  H32  1  0.357800  0.066500  0.411470  1.0  0.0825
  H  H33  1  0.066500  0.357800  0.255200  1.0  0.0792
  H  H34  1  0.145800  0.800500  0.448100  1.0  0.0923
  H  H35  1  0.708700  0.642200  0.744800  1.0  0.0805
  H  H36  1  0.626200  0.938600  0.880130  1.0  0.105
  H  H37  1  0.472300  0.533300  0.215970  1.0  0.346
  H  H38  1  0.061400  0.687600  0.546800  1.0  0.1046
  H  H39  1  0.105800  0.147900  0.918470  1.0  0.1165
  H  H40  1  0.852100  0.957900  0.585130  1.0  0.1168
  H  H41  1  0.933500  0.291300  0.078130  1.0  0.0813
  H  H42  1  0.939000  0.466700  0.784030  1.0  0.3476
  H  H43  1  0.065200  0.504400  0.265400  1.0  0.1166
  H  H44  1  0.956100  0.430900  0.719930  1.0  0.325
  H  H45  1  0.604600  0.901700  0.681230  1.0  0.1074
  H  H46  1  0.901700  0.604600  0.985430  1.0  0.1068
  H  H47  1  0.504400  0.065200  0.401270  1.0  0.117
  H  H48  1  0.938600  0.626200  0.786530  1.0  0.1044
  H  H49  1  0.654700  0.854200  0.781430  1.0  0.0927
  H  H50  1  0.533300  0.472300  0.450700  1.0  0.3463
  H  H51  1  0.997400  0.112200  0.319970  1.0  0.0657
  H  H52  1  0.687600  0.061400  0.119870  1.0  0.1048
  H  H53  1  0.527700  0.061000  0.117370  1.0  0.3463
  H  H54  1  0.495600  0.560800  0.932070  1.0  0.1172
  H  H55  1  0.466700  0.939000  0.882630  1.0  0.3466
  H  H56  1  0.430900  0.956100  0.946730  1.0  0.3238
  H  H57  1  0.800500  0.145800  0.218570  1.0  0.0925
  C  C58  1  0.663700  0.626600  0.782200  1.0  0.1661
  C  C59  1  0.672900  0.037000  0.073070  1.0  -0.0897
  C  C60  1  0.192300  0.124100  0.710100  1.0  -0.173
  C  C61  1  0.211500  0.281000  0.953870  1.0  -0.0824
  C  C62  1  0.069500  0.788500  0.287200  1.0  -0.081
  C  C63  1  0.807700  0.931800  0.623230  1.0  -0.1716
  C  C64  1  0.587100  0.017500  0.040870  1.0  0.0788
  C  C65  1  0.170500  0.065000  0.651300  1.0  0.1838
  C  C66  1  0.464300  0.039400  0.441770  1.0  -0.1413
  C  C67  1  0.020100  0.736100  0.631400  1.0  -0.0414
  C  C68  1  0.962800  0.787200  0.742430  1.0  0.7151
  C  C69  1  0.000000  0.586200  0.166670  1.0  0.4268
  C  C70  1  0.930500  0.719000  0.046130  1.0  -0.0842
  C  C71  1  0.901600  0.663800  0.986330  1.0  -0.076
  C  C72  1  0.098400  0.762200  0.347000  1.0  -0.0708
  C  C73  1  0.178500  0.306600  0.073370  1.0  0.1091
  C  C74  1  0.212800  0.175600  0.409100  1.0  0.7136
  C  C75  1  0.017500  0.587100  0.625800  1.0  0.0797
  C  C76  1  0.412900  0.430400  0.292470  1.0  0.0798
  C  C77  1  0.894500  0.829500  0.984630  1.0  0.1814
  C  C78  1  0.962900  0.336300  0.115530  1.0  0.1656
  C  C79  1  0.693400  0.871900  0.740030  1.0  0.1101
  C  C80  1  0.719000  0.930500  0.620530  1.0  -0.0826
  C  C81  1  0.663800  0.901600  0.680330  1.0  -0.0688
  C  C82  1  0.037100  0.373400  0.217800  1.0  0.1655
  C  C83  1  0.175600  0.212800  0.257570  1.0  0.714
  C  C84  1  0.281000  0.211500  0.712800  1.0  -0.0817
  C  C85  1  0.284000  0.263900  0.368600  1.0  -0.0414
  C  C86  1  0.821500  0.128100  0.259970  1.0  0.1093
  C  C87  1  0.037000  0.672900  0.593600  1.0  -0.0946
  C  C88  1  0.065000  0.170500  0.015370  1.0  0.1815
  C  C89  1  0.263900  0.284000  0.298070  1.0  -0.0408
  C  C90  1  0.982500  0.569600  0.707530  1.0  0.0784
  C  C91  1  0.336300  0.962900  0.551130  1.0  0.1648
  C  C92  1  0.788500  0.069500  0.379470  1.0  -0.0842
  C  C93  1  0.364100  0.327100  0.406400  1.0  -0.0918
  C  C94  1  0.430400  0.412900  0.374200  1.0  0.0793
  C  C95  1  0.979900  0.716000  0.701930  1.0  -0.0414
  C  C96  1  0.037200  0.824400  0.590900  1.0  0.7128
  C  C97  1  0.762200  0.098400  0.319670  1.0  -0.0723
  C  C98  1  0.626600  0.663700  0.884470  1.0  0.1648
  C  C99  1  0.575100  0.535700  0.775100  1.0  -0.1384
  C  C100  1  0.413800  0.413800  0.833330  1.0  0.4273
  C  C101  1  0.586200  0.000000  0.500000  1.0  0.4254
  C  C102  1  0.033800  0.722100  0.223600  1.0  0.3177
  C  C103  1  0.963000  0.635900  0.739730  1.0  -0.0921
  C  C104  1  0.688300  0.966200  0.556930  1.0  0.32
  C  C105  1  0.068200  0.875900  0.289900  1.0  -0.1731
  C  C106  1  0.306600  0.178500  0.593300  1.0  0.1069
  C  C107  1  0.875900  0.068200  0.376770  1.0  -0.1718
  C  C108  1  0.128100  0.821500  0.406700  1.0  0.1087
  C  C109  1  0.960600  0.424900  0.108430  1.0  -0.1389
  C  C110  1  0.511000  0.511000  0.833330  1.0  -0.0926
  C  C111  1  0.871900  0.693400  0.926630  1.0  0.108
  C  C112  1  0.039400  0.464300  0.224900  1.0  -0.1392
  C  C113  1  0.277900  0.311700  0.890270  1.0  0.319
  C  C114  1  0.787200  0.962800  0.924230  1.0  0.7121
  C  C115  1  0.535700  0.575100  0.891570  1.0  -0.14
  C  C116  1  0.736100  0.020100  0.035270  1.0  -0.0431
  C  C117  1  0.722100  0.033800  0.443070  1.0  0.3166
  C  C118  1  0.569600  0.982500  0.959130  1.0  0.08
  C  C119  1  0.373400  0.037100  0.448870  1.0  0.1655
  C  C120  1  0.935000  0.105500  0.317970  1.0  0.1833
  C  C121  1  0.124100  0.192300  0.956570  1.0  -0.1735
  C  C122  1  0.824400  0.037200  0.075770  1.0  0.7132
  C  C123  1  0.336200  0.237800  0.653000  1.0  -0.0692
  C  C124  1  0.424900  0.960600  0.558230  1.0  -0.1393
  C  C125  1  0.931800  0.807700  0.043430  1.0  -0.1753
  C  C126  1  0.966200  0.688300  0.109730  1.0  0.3177
  C  C127  1  0.829500  0.894500  0.682030  1.0  0.1838
  C  C128  1  0.716000  0.979900  0.964730  1.0  -0.0425
  C  C129  1  0.327100  0.364100  0.260270  1.0  -0.0931
  C  C130  1  0.237800  0.336200  0.013670  1.0  -0.0716
  C  C131  1  0.105500  0.935000  0.348700  1.0  0.184
  C  C132  1  0.000000  0.489000  0.166670  1.0  -0.0917
  C  C133  1  0.489000  0.000000  0.500000  1.0  -0.0939
  C  C134  1  0.635900  0.963000  0.926930  1.0  -0.0904
  C  C135  1  0.311700  0.277900  0.776400  1.0  0.3207
  N  N136  1  0.964900  0.603900  0.108230  1.0  -0.417
  N  N137  1  0.910300  0.132100  0.259870  1.0  -0.3168
  N  N138  1  0.361000  0.396100  0.891770  1.0  -0.4125
  N  N139  1  0.778200  0.867900  0.740130  1.0  -0.318
  N  N140  1  0.691100  0.691100  0.833330  1.0  -0.266
  N  N141  1  0.000000  0.752400  0.166670  1.0  -0.4473
  N  N142  1  0.221800  0.089700  0.593200  1.0  -0.3162
  N  N143  1  0.519700  0.037000  0.072670  1.0  -0.5601
  N  N144  1  0.132100  0.910300  0.406800  1.0  -0.3171
  N  N145  1  0.482700  0.963000  0.927330  1.0  -0.559
  N  N146  1  0.603900  0.964900  0.558430  1.0  -0.4184
  N  N147  1  0.037000  0.519700  0.594000  1.0  -0.5607
  N  N148  1  0.752400  0.000000  0.500000  1.0  -0.4495
  N  N149  1  0.517300  0.480300  0.406000  1.0  -0.5578
  N  N150  1  0.308900  0.000000  0.500000  1.0  -0.2646
  N  N151  1  0.867900  0.778200  0.926530  1.0  -0.3155
  N  N152  1  0.035100  0.639000  0.225100  1.0  -0.4147
  N  N153  1  0.396100  0.361000  0.774900  1.0  -0.4132
  N  N154  1  0.639000  0.035100  0.441570  1.0  -0.4121
  N  N155  1  0.247600  0.247600  0.833330  1.0  -0.4483
  N  N156  1  0.000000  0.308900  0.166670  1.0  -0.2664
  N  N157  1  0.089700  0.221800  0.073470  1.0  -0.3168
  N  N158  1  0.963000  0.482700  0.739330  1.0  -0.5637
  N  N159  1  0.480300  0.517300  0.260670  1.0  -0.5596
  O  O160  1  0.874500  0.119700  0.103470  1.0  -0.6149
  O  O161  1  0.155400  0.125200  0.250170  1.0  -0.5468
  O  O162  1  0.125500  0.245200  0.229870  1.0  -0.6152
  O  O163  1  0.969800  0.844600  0.583500  1.0  -0.5464
  O  O164  1  0.754800  0.880300  0.896530  1.0  -0.6154
  O  O165  1  0.125200  0.155400  0.416500  1.0  -0.5448
  O  O166  1  0.880300  0.754800  0.770130  1.0  -0.6151
  O  O167  1  0.245200  0.125500  0.436800  1.0  -0.6139
  O  O168  1  0.844600  0.969800  0.083170  1.0  -0.5414
  O  O169  1  0.119700  0.874500  0.563200  1.0  -0.6146
  O  O170  1  0.030200  0.874800  0.749830  1.0  -0.5456
  O  O171  1  0.874800  0.030200  0.916830  1.0  -0.5442
