# generated using pymatgen
data_NiH16C26(N3O2)2
_symmetry_space_group_name_H-M   'P 1'
_cell_length_a   15.69500000
_cell_length_b   15.69500000
_cell_length_c   18.54600000
_cell_angle_alpha   90.00000000
_cell_angle_beta   90.00000000
_cell_angle_gamma   120.00000000
_symmetry_Int_Tables_number   1
_chemical_formula_structural   NiH16C26(N3O2)2
_chemical_formula_sum   'Ni3 H48 C78 N18 O12'
_cell_volume   3956.43037290
_cell_formula_units_Z   3
loop_
 _symmetry_equiv_pos_site_id
 _symmetry_equiv_pos_as_xyz
  1  'x, y, z'
loop_
 _atom_site_type_symbol
 _atom_site_label
 _atom_site_symmetry_multiplicity
 _atom_site_fract_x
 _atom_site_fract_y
 _atom_site_fract_z
 _atom_site_occupancy
 _atom_site_charge
  Ni  Ni1  1  0.822430  0.000000  0.000000  1.0  0.6469
  Ni  Ni2  1  0.177570  0.177570  0.333333  1.0  0.6357
  Ni  Ni3  1  0.000000  0.822430  0.666667  1.0  0.6411
  H  H4  1  0.931300  0.312100  0.048100  1.0  0.1229
  H  H5  1  0.703500  0.601600  0.514770  1.0  0.1308
  H  H6  1  0.460200  0.966700  0.564170  1.0  0.1172
  H  H7  1  0.991800  0.894600  0.516670  1.0  0.0811
  H  H8  1  0.066100  0.561000  0.571230  1.0  0.1308
  H  H9  1  0.506500  0.539800  0.897500  1.0  0.1199
  H  H10  1  0.966700  0.460200  0.102500  1.0  0.119
  H  H11  1  0.933900  0.494900  0.762100  1.0  0.1304
  H  H12  1  0.097200  0.105400  0.483330  1.0  0.0805
  H  H13  1  0.619200  0.687900  0.951900  1.0  0.1225
  H  H14  1  0.654500  0.807100  0.052500  1.0  0.0911
  H  H15  1  0.345500  0.152600  0.280830  1.0  0.0909
  H  H16  1  0.493500  0.033300  0.435830  1.0  0.1166
  H  H17  1  0.902800  0.008200  0.850000  1.0  0.0805
  H  H18  1  0.687900  0.619200  0.714770  1.0  0.1227
  H  H19  1  0.961500  0.108500  0.750700  1.0  0.1291
  H  H20  1  0.938000  0.642400  0.760300  1.0  0.0886
  H  H21  1  0.192900  0.847400  0.719170  1.0  0.0911
  H  H22  1  0.147000  0.038500  0.084030  1.0  0.1291
  H  H23  1  0.008200  0.902800  0.816670  1.0  0.0818
  H  H24  1  0.105400  0.097200  0.183330  1.0  0.0817
  H  H25  1  0.068700  0.380800  0.285230  1.0  0.1219
  H  H26  1  0.152600  0.345500  0.385830  1.0  0.0913
  H  H27  1  0.295600  0.357600  0.239700  1.0  0.0883
  H  H28  1  0.312100  0.931300  0.618570  1.0  0.1228
  H  H29  1  0.439000  0.505100  0.237900  1.0  0.1306
  H  H30  1  0.561000  0.066100  0.095430  1.0  0.1303
  H  H31  1  0.539800  0.506500  0.769170  1.0  0.1204
  H  H32  1  0.807100  0.654500  0.614170  1.0  0.0915
  H  H33  1  0.108500  0.961500  0.915970  1.0  0.1292
  H  H34  1  0.357600  0.295600  0.426970  1.0  0.089
  H  H35  1  0.894600  0.991800  0.150000  1.0  0.0799
  H  H36  1  0.853000  0.891500  0.249300  1.0  0.1292
  H  H37  1  0.380800  0.068700  0.381430  1.0  0.1228
  H  H38  1  0.601600  0.703500  0.151900  1.0  0.1304
  H  H39  1  0.505100  0.439000  0.428770  1.0  0.1302
  H  H40  1  0.296500  0.898100  0.818570  1.0  0.1307
  H  H41  1  0.101900  0.398400  0.485230  1.0  0.1316
  H  H42  1  0.847400  0.192900  0.947500  1.0  0.0909
  H  H43  1  0.062000  0.704400  0.573030  1.0  0.0897
  H  H44  1  0.642400  0.938000  0.906370  1.0  0.0909
  H  H45  1  0.494900  0.933900  0.904570  1.0  0.1306
  H  H46  1  0.038500  0.147000  0.582630  1.0  0.1291
  H  H47  1  0.891500  0.853000  0.417370  1.0  0.1288
  H  H48  1  0.704400  0.062000  0.093630  1.0  0.0901
  H  H49  1  0.898100  0.296500  0.848100  1.0  0.1307
  H  H50  1  0.033300  0.493500  0.230830  1.0  0.1189
  H  H51  1  0.398400  0.101900  0.181430  1.0  0.1303
  C  C52  1  0.030000  0.307700  0.609730  1.0  0.3913
  C  C53  1  0.869200  0.174900  0.906700  1.0  0.1653
  C  C54  1  0.174900  0.869200  0.759970  1.0  0.1648
  C  C55  1  0.714400  0.737200  0.867900  1.0  -0.107
  C  C56  1  0.625700  0.963600  0.945570  1.0  0.173
  C  C57  1  0.190000  0.063600  0.122930  1.0  -0.1075
  C  C58  1  0.720000  0.787600  0.212500  1.0  -0.0619
  C  C59  1  0.488300  0.488300  0.333333  1.0  -0.0209
  C  C60  1  0.067600  0.280000  0.545830  1.0  -0.0667
  C  C61  1  0.000000  0.511700  0.666667  1.0  -0.0206
  C  C62  1  0.810000  0.873600  0.210400  1.0  -0.1096
  C  C63  1  0.825100  0.694300  0.573370  1.0  0.164
  C  C64  1  0.022800  0.285600  0.201230  1.0  -0.1075
  C  C65  1  0.563100  0.584900  0.873300  1.0  -0.1003
  C  C66  1  0.307700  0.030000  0.056930  1.0  0.3917
  C  C67  1  0.097400  0.164700  0.483430  1.0  0.1788
  C  C68  1  0.978200  0.415100  0.126700  1.0  -0.0989
  C  C69  1  0.337900  0.374300  0.278900  1.0  0.1712
  C  C70  1  0.963600  0.625700  0.721100  1.0  0.1708
  C  C71  1  0.932400  0.212400  0.787500  1.0  -0.0613
  C  C72  1  0.787600  0.720000  0.454170  1.0  -0.0661
  C  C73  1  0.374300  0.337900  0.387770  1.0  0.1704
  C  C74  1  0.277700  0.970000  0.943070  1.0  0.3911
  C  C75  1  0.902600  0.067300  0.849900  1.0  0.1799
  C  C76  1  0.305700  0.130800  0.240030  1.0  0.1674
  C  C77  1  0.038700  0.575700  0.610430  1.0  -0.1344
  C  C78  1  0.000000  0.414800  0.666667  1.0  0.407
  C  C79  1  0.414800  0.000000  0.000000  1.0  0.4067
  C  C80  1  0.369800  0.042300  0.427630  1.0  -0.0847
  C  C81  1  0.961300  0.537000  0.722900  1.0  -0.1318
  C  C82  1  0.761800  0.661700  0.513670  1.0  -0.1142
  C  C83  1  0.035100  0.210600  0.242630  1.0  0.686
  C  C84  1  0.957700  0.327500  0.094300  1.0  -0.0881
  C  C85  1  0.970000  0.277700  0.723600  1.0  0.3918
  C  C86  1  0.063600  0.190000  0.543730  1.0  -0.1081
  C  C87  1  0.327500  0.957700  0.572370  1.0  -0.0854
  C  C88  1  0.126400  0.936400  0.877070  1.0  -0.1093
  C  C89  1  0.280000  0.067600  0.120830  1.0  -0.064
  C  C90  1  0.661700  0.761800  0.153000  1.0  -0.1139
  C  C91  1  0.722300  0.692300  0.390270  1.0  0.3919
  C  C92  1  0.575700  0.038700  0.056230  1.0  -0.136
  C  C93  1  0.164700  0.097400  0.183230  1.0  0.1789
  C  C94  1  0.415100  0.978200  0.539970  1.0  -0.0972
  C  C95  1  0.824500  0.789400  0.757370  1.0  0.6848
  C  C96  1  0.238200  0.899900  0.819670  1.0  -0.115
  C  C97  1  0.042300  0.369800  0.239030  1.0  -0.087
  C  C98  1  0.424300  0.463000  0.277100  1.0  -0.1347
  C  C99  1  0.175500  0.964900  0.575970  1.0  0.6821
  C  C100  1  0.873600  0.810000  0.456270  1.0  -0.1086
  C  C101  1  0.932700  0.835300  0.516570  1.0  0.1797
  C  C102  1  0.964900  0.175500  0.090700  1.0  0.683
  C  C103  1  0.630200  0.672500  0.905700  1.0  -0.0889
  C  C104  1  0.463000  0.424300  0.389570  1.0  -0.1349
  C  C105  1  0.021800  0.436900  0.206630  1.0  -0.099
  C  C106  1  0.338300  0.100100  0.180330  1.0  -0.1142
  C  C107  1  0.936400  0.126400  0.789600  1.0  -0.109
  C  C108  1  0.067300  0.902600  0.816770  1.0  0.1791
  C  C109  1  0.694300  0.825100  0.093300  1.0  0.1634
  C  C110  1  0.210600  0.035100  0.424030  1.0  0.6814
  C  C111  1  0.977200  0.262800  0.132100  1.0  -0.1076
  C  C112  1  0.436900  0.021800  0.460030  1.0  -0.0972
  C  C113  1  0.100100  0.338300  0.486330  1.0  -0.1149
  C  C114  1  0.672500  0.630200  0.760970  1.0  -0.0861
  C  C115  1  0.511700  0.000000  0.000000  1.0  -0.023
  C  C116  1  0.835300  0.932700  0.150100  1.0  0.1799
  C  C117  1  0.899900  0.238200  0.847000  1.0  -0.1134
  C  C118  1  0.692300  0.722300  0.276400  1.0  0.3913
  C  C119  1  0.036400  0.662100  0.612230  1.0  0.1704
  C  C120  1  0.789400  0.824500  0.909300  1.0  0.684
  C  C121  1  0.537000  0.961300  0.943770  1.0  -0.1341
  C  C122  1  0.585200  0.585200  0.333333  1.0  0.4068
  C  C123  1  0.584900  0.563100  0.793370  1.0  -0.1017
  C  C124  1  0.262800  0.977200  0.534570  1.0  -0.1062
  C  C125  1  0.737200  0.714400  0.798770  1.0  -0.1072
  C  C126  1  0.212400  0.932400  0.879170  1.0  -0.0658
  C  C127  1  0.130800  0.305700  0.426630  1.0  0.1661
  C  C128  1  0.662100  0.036400  0.054430  1.0  0.1722
  C  C129  1  0.285600  0.022800  0.465430  1.0  -0.1067
  N  N130  1  0.908700  0.778500  0.574550  1.0  -0.3128
  N  N131  1  0.246600  0.000000  0.000000  1.0  -0.5018
  N  N132  1  0.091300  0.869800  0.758790  1.0  -0.3136
  N  N133  1  0.221500  0.130200  0.241210  1.0  -0.3132
  N  N134  1  0.130200  0.221500  0.425450  1.0  -0.314
  N  N135  1  0.869800  0.091300  0.907880  1.0  -0.3142
  N  N136  1  0.000000  0.688800  0.666667  1.0  -0.3104
  N  N137  1  0.778500  0.908700  0.092120  1.0  -0.3151
  N  N138  1  0.753400  0.753400  0.333333  1.0  -0.4925
  N  N139  1  0.360800  0.965500  0.941070  1.0  -0.4558
  N  N140  1  0.604700  0.639200  0.274400  1.0  -0.4495
  N  N141  1  0.688800  0.000000  0.000000  1.0  -0.3063
  N  N142  1  0.395300  0.034500  0.058930  1.0  -0.4562
  N  N143  1  0.311200  0.311200  0.333333  1.0  -0.3105
  N  N144  1  0.965500  0.360800  0.725600  1.0  -0.4502
  N  N145  1  0.639200  0.604700  0.392270  1.0  -0.45
  N  N146  1  0.000000  0.246600  0.666667  1.0  -0.5014
  N  N147  1  0.034500  0.395300  0.607730  1.0  -0.4562
  O  O148  1  0.842200  0.872700  0.753370  1.0  -0.494
  O  O149  1  0.157800  0.030500  0.579970  1.0  -0.4881
  O  O150  1  0.125200  0.880300  0.602930  1.0  -0.6212
  O  O151  1  0.127300  0.969500  0.420030  1.0  -0.489
  O  O152  1  0.244900  0.119700  0.397070  1.0  -0.6215
  O  O153  1  0.874800  0.755100  0.730410  1.0  -0.6201
  O  O154  1  0.969500  0.127300  0.246630  1.0  -0.4914
  O  O155  1  0.030500  0.157800  0.086700  1.0  -0.4942
  O  O156  1  0.755100  0.874800  0.936260  1.0  -0.6194
  O  O157  1  0.872700  0.842200  0.913300  1.0  -0.4945
  O  O158  1  0.119700  0.244900  0.269590  1.0  -0.6203
  O  O159  1  0.880300  0.125200  0.063740  1.0  -0.6199
