# generated using pymatgen
data_Ce2Cu3H27C24O31
_symmetry_space_group_name_H-M   'P 1'
_cell_length_a   13.84880000
_cell_length_b   15.52150000
_cell_length_c   15.52150000
_cell_angle_alpha   120.00000000
_cell_angle_beta   90.00000000
_cell_angle_gamma   90.00000000
_symmetry_Int_Tables_number   1
_chemical_formula_structural   Ce2Cu3H27C24O31
_chemical_formula_sum   'Ce4 Cu6 H54 C48 O62'
_cell_volume   2889.41653348
_cell_formula_units_Z   2
loop_
 _symmetry_equiv_pos_site_id
 _symmetry_equiv_pos_as_xyz
  1  'x, y, z'
loop_
 _atom_site_type_symbol
 _atom_site_label
 _atom_site_symmetry_multiplicity
 _atom_site_fract_x
 _atom_site_fract_y
 _atom_site_fract_z
 _atom_site_occupancy
 _atom_site_charge
  Ce  Ce1  1  0.466180  0.333333  0.666667  1.0  2.1628
  Ce  Ce2  1  0.966180  0.666667  0.333333  1.0  2.1628
  Ce  Ce3  1  0.033820  0.333333  0.666667  1.0  2.1619
  Ce  Ce4  1  0.533820  0.666667  0.333333  1.0  2.1619
  Cu  Cu5  1  0.750000  0.501770  0.975690  1.0  1.0352
  Cu  Cu6  1  0.750000  0.473920  0.498230  1.0  1.0371
  Cu  Cu7  1  0.750000  0.024310  0.526080  1.0  1.0355
  Cu  Cu8  1  0.250000  0.526080  0.024310  1.0  1.0358
  Cu  Cu9  1  0.250000  0.498230  0.473920  1.0  1.0352
  Cu  Cu10  1  0.250000  0.975690  0.501770  1.0  1.0372
  H  H11  1  0.510100  0.393200  0.088000  1.0  0.0772
  H  H12  1  0.750000  0.726300  0.348600  1.0  0.3506
  H  H13  1  0.588500  0.781900  0.138600  1.0  0.0779
  H  H14  1  0.750000  0.651400  0.377700  1.0  0.3462
  H  H15  1  0.588500  0.861400  0.643300  1.0  0.0777
  H  H16  1  0.010100  0.305200  0.912000  1.0  0.0778
  H  H17  1  0.010100  0.606800  0.694800  1.0  0.077
  H  H18  1  0.489900  0.088000  0.393200  1.0  0.0777
  H  H19  1  0.496000  0.384600  0.285700  1.0  0.0768
  H  H20  1  0.510100  0.912000  0.305200  1.0  0.0769
  H  H21  1  0.572000  0.144900  0.372200  1.0  0.0833
  H  H22  1  0.928000  0.627800  0.772700  1.0  0.0831
  H  H23  1  0.496000  0.714300  0.098900  1.0  0.0776
  H  H24  1  0.572000  0.227300  0.855100  1.0  0.083
  H  H25  1  0.911500  0.861400  0.643300  1.0  0.0783
  H  H26  1  0.504000  0.615400  0.901100  1.0  0.076
  H  H27  1  0.504000  0.285700  0.384600  1.0  0.0762
  H  H28  1  0.004000  0.384600  0.285700  1.0  0.0776
  H  H29  1  0.996000  0.615400  0.901100  1.0  0.076
  H  H30  1  0.911500  0.356700  0.218100  1.0  0.0767
  H  H31  1  0.504000  0.098900  0.714300  1.0  0.0773
  H  H32  1  0.010100  0.088000  0.393200  1.0  0.0769
  H  H33  1  0.489900  0.305200  0.912000  1.0  0.0779
  H  H34  1  0.989900  0.912000  0.305200  1.0  0.078
  H  H35  1  0.989900  0.694800  0.606800  1.0  0.0777
  H  H36  1  0.588500  0.356700  0.218100  1.0  0.0768
  H  H37  1  0.072000  0.855100  0.227300  1.0  0.0833
  H  H38  1  0.088500  0.138600  0.781900  1.0  0.0781
  H  H39  1  0.088500  0.643300  0.861400  1.0  0.0767
  H  H40  1  0.250000  0.348600  0.726300  1.0  0.3466
  H  H41  1  0.072000  0.772700  0.627800  1.0  0.0826
  H  H42  1  0.004000  0.714300  0.098900  1.0  0.0763
  H  H43  1  0.572000  0.627800  0.772700  1.0  0.0825
  H  H44  1  0.428000  0.372200  0.144900  1.0  0.083
  H  H45  1  0.750000  0.622300  0.273700  1.0  0.3472
  H  H46  1  0.996000  0.098900  0.714300  1.0  0.0779
  H  H47  1  0.411500  0.218100  0.356700  1.0  0.0778
  H  H48  1  0.928000  0.144900  0.372200  1.0  0.083
  H  H49  1  0.496000  0.901100  0.615400  1.0  0.0777
  H  H50  1  0.004000  0.901100  0.615400  1.0  0.0776
  H  H51  1  0.911500  0.781900  0.138600  1.0  0.0783
  H  H52  1  0.989900  0.393200  0.088000  1.0  0.0782
  H  H53  1  0.088500  0.218100  0.356700  1.0  0.0778
  H  H54  1  0.996000  0.285700  0.384600  1.0  0.0776
  H  H55  1  0.510100  0.694800  0.606800  1.0  0.0769
  H  H56  1  0.072000  0.372200  0.144900  1.0  0.0827
  H  H57  1  0.489900  0.606800  0.694800  1.0  0.0785
  H  H58  1  0.428000  0.772700  0.627800  1.0  0.0837
  H  H59  1  0.928000  0.227300  0.855100  1.0  0.0836
  H  H60  1  0.250000  0.273700  0.622300  1.0  0.3461
  H  H61  1  0.411500  0.643300  0.861400  1.0  0.0774
  H  H62  1  0.411500  0.138600  0.781900  1.0  0.0787
  H  H63  1  0.428000  0.855100  0.227300  1.0  0.083
  H  H64  1  0.250000  0.377700  0.651400  1.0  0.3495
  C  C65  1  0.113700  0.528100  0.889300  1.0  0.7088
  C  C66  1  0.598200  0.361800  0.864800  1.0  0.6972
  C  C67  1  0.901800  0.503000  0.638200  1.0  0.696
  C  C68  1  0.533400  0.279600  0.855500  1.0  -0.059
  C  C69  1  0.948600  0.857400  0.588400  1.0  -0.059
  C  C70  1  0.051400  0.142600  0.731000  1.0  -0.0603
  C  C71  1  0.466600  0.424100  0.144500  1.0  -0.0561
  C  C72  1  0.401800  0.497000  0.135200  1.0  0.697
  C  C73  1  0.051400  0.588400  0.857400  1.0  -0.0567
  C  C74  1  0.113700  0.110700  0.638800  1.0  0.7203
  C  C75  1  0.886300  0.638800  0.110700  1.0  0.7075
  C  C76  1  0.533400  0.144500  0.424100  1.0  -0.0545
  C  C77  1  0.533400  0.575900  0.720400  1.0  -0.0586
  C  C78  1  0.551400  0.731000  0.142600  1.0  -0.0599
  C  C79  1  0.386300  0.110700  0.638800  1.0  0.7202
  C  C80  1  0.448600  0.588400  0.857400  1.0  -0.0558
  C  C81  1  0.098200  0.497000  0.135200  1.0  0.697
  C  C82  1  0.901800  0.361800  0.864800  1.0  0.6971
  C  C83  1  0.033400  0.424100  0.144500  1.0  -0.0556
  C  C84  1  0.948600  0.411600  0.269000  1.0  -0.0565
  C  C85  1  0.386300  0.361200  0.471900  1.0  0.7082
  C  C86  1  0.613700  0.638800  0.110700  1.0  0.7191
  C  C87  1  0.113700  0.361200  0.471900  1.0  0.7197
  C  C88  1  0.966600  0.575900  0.720400  1.0  -0.0564
  C  C89  1  0.448600  0.142600  0.731000  1.0  -0.0597
  C  C90  1  0.966600  0.279600  0.855500  1.0  -0.0594
  C  C91  1  0.098200  0.864800  0.361800  1.0  0.698
  C  C92  1  0.033400  0.855500  0.279600  1.0  -0.055
  C  C93  1  0.051400  0.269000  0.411600  1.0  -0.06
  C  C94  1  0.033400  0.720400  0.575900  1.0  -0.0592
  C  C95  1  0.098200  0.638200  0.503000  1.0  0.6961
  C  C96  1  0.551400  0.857400  0.588400  1.0  -0.0603
  C  C97  1  0.901800  0.135200  0.497000  1.0  0.6978
  C  C98  1  0.966600  0.144500  0.424100  1.0  -0.0546
  C  C99  1  0.551400  0.411600  0.269000  1.0  -0.057
  C  C100  1  0.948600  0.731000  0.142600  1.0  -0.0591
  C  C101  1  0.598200  0.503000  0.638200  1.0  0.6956
  C  C102  1  0.401800  0.638200  0.503000  1.0  0.6964
  C  C103  1  0.466600  0.720400  0.575900  1.0  -0.0593
  C  C104  1  0.448600  0.269000  0.411600  1.0  -0.0591
  C  C105  1  0.886300  0.889300  0.528100  1.0  0.7085
  C  C106  1  0.613700  0.889300  0.528100  1.0  0.7157
  C  C107  1  0.466600  0.855500  0.279600  1.0  -0.0557
  C  C108  1  0.886300  0.471900  0.361200  1.0  0.7107
  C  C109  1  0.613700  0.471900  0.361200  1.0  0.7095
  C  C110  1  0.401800  0.864800  0.361800  1.0  0.6977
  C  C111  1  0.598200  0.135200  0.497000  1.0  0.6981
  C  C112  1  0.386300  0.528100  0.889300  1.0  0.709
  O  O113  1  0.652150  0.604700  0.027500  1.0  -0.606
  O  O114  1  0.379140  0.395110  0.563920  1.0  -0.6857
  O  O115  1  0.595340  0.384280  0.798260  1.0  -0.6694
  O  O116  1  0.848700  0.398910  0.939940  1.0  -0.607
  O  O117  1  0.847850  0.422800  0.395300  1.0  -0.6043
  O  O118  1  0.620860  0.563920  0.395110  1.0  -0.6845
  O  O119  1  0.651300  0.398910  0.939940  1.0  -0.6066
  O  O120  1  0.347850  0.395300  0.422800  1.0  -0.6056
  O  O121  1  0.651300  0.541030  0.601090  1.0  -0.6084
  O  O122  1  0.904660  0.201740  0.586020  1.0  -0.6701
  O  O123  1  0.979370  0.759490  0.525990  1.0  -0.3489
  O  O124  1  0.879140  0.831190  0.436080  1.0  -0.6836
  O  O125  1  0.020630  0.525990  0.759490  1.0  -0.3496
  O  O126  1  0.848700  0.060060  0.458970  1.0  -0.6066
  O  O127  1  0.347850  0.027500  0.604700  1.0  -0.6035
  O  O128  1  0.520630  0.766500  0.240510  1.0  -0.3487
  O  O129  1  0.652150  0.972500  0.577200  1.0  -0.6046
  O  O130  1  0.904660  0.413980  0.615720  1.0  -0.669
  O  O131  1  0.152150  0.027500  0.604700  1.0  -0.6035
  O  O132  1  0.479370  0.525990  0.759490  1.0  -0.3502
  O  O133  1  0.879140  0.563920  0.395110  1.0  -0.6849
  O  O134  1  0.520630  0.474010  0.233500  1.0  -0.3498
  O  O135  1  0.595340  0.201740  0.586020  1.0  -0.671
  O  O136  1  0.652150  0.422800  0.395300  1.0  -0.6046
  O  O137  1  0.250000  0.333333  0.666667  1.0  -0.6405
  O  O138  1  0.848700  0.541030  0.601090  1.0  -0.6079
  O  O139  1  0.979370  0.766500  0.240510  1.0  -0.3492
  O  O140  1  0.348700  0.601090  0.541030  1.0  -0.6072
  O  O141  1  0.095340  0.586020  0.201740  1.0  -0.6697
  O  O142  1  0.379140  0.168810  0.604890  1.0  -0.6841
  O  O143  1  0.348700  0.939940  0.398910  1.0  -0.6066
  O  O144  1  0.348700  0.458970  0.060060  1.0  -0.6088
  O  O145  1  0.847850  0.972500  0.577200  1.0  -0.6045
  O  O146  1  0.520630  0.759490  0.525990  1.0  -0.3485
  O  O147  1  0.750000  0.666667  0.333333  1.0  -0.6405
  O  O148  1  0.479370  0.233500  0.474010  1.0  -0.349
  O  O149  1  0.404660  0.615720  0.413980  1.0  -0.6698
  O  O150  1  0.904660  0.384280  0.798260  1.0  -0.6695
  O  O151  1  0.152150  0.395300  0.422800  1.0  -0.6059
  O  O152  1  0.379140  0.436080  0.831190  1.0  -0.6845
  O  O153  1  0.404660  0.798260  0.384280  1.0  -0.6697
  O  O154  1  0.020630  0.240510  0.766500  1.0  -0.3482
  O  O155  1  0.620860  0.831190  0.436080  1.0  -0.6835
  O  O156  1  0.879140  0.604890  0.168810  1.0  -0.6859
  O  O157  1  0.651300  0.060060  0.458970  1.0  -0.6072
  O  O158  1  0.479370  0.240510  0.766500  1.0  -0.3486
  O  O159  1  0.095340  0.798260  0.384280  1.0  -0.6705
  O  O160  1  0.120860  0.436080  0.831190  1.0  -0.6842
  O  O161  1  0.120860  0.395110  0.563920  1.0  -0.6854
  O  O162  1  0.347850  0.577200  0.972500  1.0  -0.6048
  O  O163  1  0.595340  0.413980  0.615720  1.0  -0.6702
  O  O164  1  0.152150  0.577200  0.972500  1.0  -0.6042
  O  O165  1  0.095340  0.615720  0.413980  1.0  -0.6698
  O  O166  1  0.020630  0.233500  0.474010  1.0  -0.3484
  O  O167  1  0.979370  0.474010  0.233500  1.0  -0.3503
  O  O168  1  0.151300  0.458970  0.060060  1.0  -0.6075
  O  O169  1  0.620860  0.604890  0.168810  1.0  -0.6857
  O  O170  1  0.151300  0.939940  0.398910  1.0  -0.6063
  O  O171  1  0.120860  0.168810  0.604890  1.0  -0.6839
  O  O172  1  0.404660  0.586020  0.201740  1.0  -0.6705
  O  O173  1  0.151300  0.601090  0.541030  1.0  -0.6077
  O  O174  1  0.847850  0.604700  0.027500  1.0  -0.6055
