# generated using pymatgen
data_ScH16C20N4O5
_symmetry_space_group_name_H-M   'P 1'
_cell_length_a   23.99500000
_cell_length_b   23.99500000
_cell_length_c   3.94980000
_cell_angle_alpha   90.00000000
_cell_angle_beta   90.00000000
_cell_angle_gamma   90.00000000
_symmetry_Int_Tables_number   1
_chemical_formula_structural   ScH16C20N4O5
_chemical_formula_sum   'Sc4 H64 C80 N16 O20'
_cell_volume   2274.13694675
_cell_formula_units_Z   4
loop_
 _symmetry_equiv_pos_site_id
 _symmetry_equiv_pos_as_xyz
  1  'x, y, z'
loop_
 _atom_site_type_symbol
 _atom_site_label
 _atom_site_symmetry_multiplicity
 _atom_site_fract_x
 _atom_site_fract_y
 _atom_site_fract_z
 _atom_site_occupancy
 _atom_site_charge
  Sc  Sc1  1  0.500000  0.500000  0.500000  1.0  2.0011
  Sc  Sc2  1  0.000000  0.000000  0.000000  1.0  2.0011
  Sc  Sc3  1  0.000000  0.500000  0.250000  1.0  2.0011
  Sc  Sc4  1  0.500000  0.000000  0.750000  1.0  2.0011
  H  H5  1  0.364200  0.371500  0.713300  1.0  0.099
  H  H6  1  0.362500  0.284700  0.968300  1.0  0.0892
  H  H7  1  0.529100  0.377100  0.790600  1.0  0.0828
  H  H8  1  0.529400  0.290600  0.053700  1.0  0.0983
  H  H9  1  0.864200  0.871500  0.213300  1.0  0.099
  H  H10  1  0.862500  0.784700  0.468300  1.0  0.0892
  H  H11  1  0.029100  0.877100  0.290600  1.0  0.0828
  H  H12  1  0.029400  0.790600  0.553700  1.0  0.0983
  H  H13  1  0.635800  0.628500  0.713300  1.0  0.0987
  H  H14  1  0.637500  0.715300  0.968300  1.0  0.089
  H  H15  1  0.470900  0.622900  0.790600  1.0  0.0827
  H  H16  1  0.470600  0.709400  0.053700  1.0  0.0982
  H  H17  1  0.135800  0.128500  0.213300  1.0  0.0987
  H  H18  1  0.137500  0.215300  0.468300  1.0  0.089
  H  H19  1  0.970900  0.122900  0.290600  1.0  0.0827
  H  H20  1  0.970600  0.209400  0.553700  1.0  0.0982
  H  H21  1  0.371500  0.635800  0.286700  1.0  0.0974
  H  H22  1  0.284700  0.637500  0.031700  1.0  0.0923
  H  H23  1  0.377100  0.470900  0.209400  1.0  0.0836
  H  H24  1  0.290600  0.470600  0.946300  1.0  0.1007
  H  H25  1  0.871500  0.135800  0.786700  1.0  0.0974
  H  H26  1  0.784700  0.137500  0.531700  1.0  0.0923
  H  H27  1  0.877100  0.970900  0.709400  1.0  0.0836
  H  H28  1  0.790600  0.970600  0.446300  1.0  0.1007
  H  H29  1  0.628500  0.364200  0.286700  1.0  0.0979
  H  H30  1  0.715300  0.362500  0.031700  1.0  0.0916
  H  H31  1  0.622900  0.529100  0.209400  1.0  0.0834
  H  H32  1  0.709400  0.529400  0.946300  1.0  0.1021
  H  H33  1  0.128500  0.864200  0.786700  1.0  0.0979
  H  H34  1  0.215300  0.862500  0.531700  1.0  0.0916
  H  H35  1  0.122900  0.029100  0.709400  1.0  0.0834
  H  H36  1  0.209400  0.029400  0.446300  1.0  0.1021
  H  H37  1  0.135800  0.371500  0.036700  1.0  0.0983
  H  H38  1  0.137500  0.284700  0.781700  1.0  0.0894
  H  H39  1  0.970900  0.377100  0.959400  1.0  0.0826
  H  H40  1  0.970600  0.290600  0.696300  1.0  0.0989
  H  H41  1  0.635800  0.871500  0.536700  1.0  0.0983
  H  H42  1  0.637500  0.784700  0.281700  1.0  0.0894
  H  H43  1  0.470900  0.877100  0.459400  1.0  0.0826
  H  H44  1  0.470600  0.790600  0.196300  1.0  0.0989
  H  H45  1  0.864200  0.628500  0.036700  1.0  0.0988
  H  H46  1  0.862500  0.715300  0.781700  1.0  0.0891
  H  H47  1  0.029100  0.622900  0.959400  1.0  0.0828
  H  H48  1  0.029400  0.709400  0.696300  1.0  0.099
  H  H49  1  0.364200  0.128500  0.536700  1.0  0.0988
  H  H50  1  0.362500  0.215300  0.281700  1.0  0.0891
  H  H51  1  0.529100  0.122900  0.459400  1.0  0.0828
  H  H52  1  0.529400  0.209400  0.196300  1.0  0.099
  H  H53  1  0.128500  0.635800  0.463300  1.0  0.0972
  H  H54  1  0.215300  0.637500  0.718300  1.0  0.0917
  H  H55  1  0.122900  0.470900  0.540600  1.0  0.0832
  H  H56  1  0.209400  0.470600  0.803700  1.0  0.1019
  H  H57  1  0.628500  0.135800  0.963300  1.0  0.0972
  H  H58  1  0.715300  0.137500  0.218300  1.0  0.0917
  H  H59  1  0.622900  0.970900  0.040600  1.0  0.0832
  H  H60  1  0.709400  0.970600  0.303700  1.0  0.1019
  H  H61  1  0.871500  0.364200  0.463300  1.0  0.0978
  H  H62  1  0.784700  0.362500  0.718300  1.0  0.0918
  H  H63  1  0.877100  0.529100  0.540600  1.0  0.0836
  H  H64  1  0.790600  0.529400  0.803700  1.0  0.1019
  H  H65  1  0.371500  0.864200  0.963300  1.0  0.0978
  H  H66  1  0.284700  0.862500  0.218300  1.0  0.0918
  H  H67  1  0.377100  0.029100  0.040600  1.0  0.0836
  H  H68  1  0.290600  0.029400  0.303700  1.0  0.1019
  C  C69  1  0.398120  0.354380  0.780100  1.0  -0.0311
  C  C70  1  0.397140  0.303050  0.934700  1.0  -0.1528
  C  C71  1  0.494960  0.357830  0.825900  1.0  0.0125
  C  C72  1  0.495050  0.306510  0.983700  1.0  -0.1604
  C  C73  1  0.445810  0.277640  0.042100  1.0  0.0273
  C  C74  1  0.898120  0.854380  0.280100  1.0  -0.0311
  C  C75  1  0.897140  0.803050  0.434700  1.0  -0.1528
  C  C76  1  0.994960  0.857830  0.325900  1.0  0.0125
  C  C77  1  0.995050  0.806510  0.483700  1.0  -0.1604
  C  C78  1  0.945810  0.777640  0.542100  1.0  0.0273
  C  C79  1  0.601880  0.645620  0.780100  1.0  -0.0317
  C  C80  1  0.602860  0.696950  0.934700  1.0  -0.1534
  C  C81  1  0.505040  0.642170  0.825900  1.0  0.0111
  C  C82  1  0.504950  0.693490  0.983700  1.0  -0.1585
  C  C83  1  0.554190  0.722360  0.042100  1.0  0.0282
  C  C84  1  0.101880  0.145620  0.280100  1.0  -0.0317
  C  C85  1  0.102860  0.196950  0.434700  1.0  -0.1534
  C  C86  1  0.005040  0.142170  0.325900  1.0  0.0111
  C  C87  1  0.004950  0.193490  0.483700  1.0  -0.1585
  C  C88  1  0.054190  0.222360  0.542100  1.0  0.0282
  C  C89  1  0.354380  0.601880  0.219900  1.0  -0.0297
  C  C90  1  0.303050  0.602860  0.065300  1.0  -0.1585
  C  C91  1  0.357830  0.505040  0.174100  1.0  0.0114
  C  C92  1  0.306510  0.504950  0.016300  1.0  -0.1613
  C  C93  1  0.277640  0.554190  0.957900  1.0  0.0311
  C  C94  1  0.854380  0.101880  0.719900  1.0  -0.0297
  C  C95  1  0.803050  0.102860  0.565300  1.0  -0.1585
  C  C96  1  0.857830  0.005040  0.674100  1.0  0.0114
  C  C97  1  0.806510  0.004950  0.516300  1.0  -0.1613
  C  C98  1  0.777640  0.054190  0.457900  1.0  0.0311
  C  C99  1  0.645620  0.398120  0.219900  1.0  -0.0308
  C  C100  1  0.696950  0.397140  0.065300  1.0  -0.1581
  C  C101  1  0.642170  0.494960  0.174100  1.0  0.0117
  C  C102  1  0.693490  0.495050  0.016300  1.0  -0.162
  C  C103  1  0.722360  0.445810  0.957900  1.0  0.0311
  C  C104  1  0.145620  0.898120  0.719900  1.0  -0.0308
  C  C105  1  0.196950  0.897140  0.565300  1.0  -0.1581
  C  C106  1  0.142170  0.994960  0.674100  1.0  0.0117
  C  C107  1  0.193490  0.995050  0.516300  1.0  -0.162
  C  C108  1  0.222360  0.945810  0.457900  1.0  0.0311
  C  C109  1  0.101880  0.354380  0.969900  1.0  -0.0315
  C  C110  1  0.102860  0.303050  0.815300  1.0  -0.153
  C  C111  1  0.005040  0.357830  0.924100  1.0  0.0115
  C  C112  1  0.004950  0.306510  0.766300  1.0  -0.1583
  C  C113  1  0.054190  0.277640  0.707900  1.0  0.0284
  C  C114  1  0.601880  0.854380  0.469900  1.0  -0.0315
  C  C115  1  0.602860  0.803050  0.315300  1.0  -0.153
  C  C116  1  0.505040  0.857830  0.424100  1.0  0.0115
  C  C117  1  0.504950  0.806510  0.266300  1.0  -0.1583
  C  C118  1  0.554190  0.777640  0.207900  1.0  0.0284
  C  C119  1  0.898120  0.645620  0.969900  1.0  -0.0315
  C  C120  1  0.897140  0.696950  0.815300  1.0  -0.1535
  C  C121  1  0.994960  0.642170  0.924100  1.0  0.0114
  C  C122  1  0.995050  0.693490  0.766300  1.0  -0.1601
  C  C123  1  0.945810  0.722360  0.707900  1.0  0.0272
  C  C124  1  0.398120  0.145620  0.469900  1.0  -0.0315
  C  C125  1  0.397140  0.196950  0.315300  1.0  -0.1535
  C  C126  1  0.494960  0.142170  0.424100  1.0  0.0114
  C  C127  1  0.495050  0.193490  0.266300  1.0  -0.1601
  C  C128  1  0.445810  0.222360  0.207900  1.0  0.0272
  C  C129  1  0.145620  0.601880  0.530100  1.0  -0.0315
  C  C130  1  0.196950  0.602860  0.684700  1.0  -0.1581
  C  C131  1  0.142170  0.505040  0.575900  1.0  0.0125
  C  C132  1  0.193490  0.504950  0.733700  1.0  -0.1623
  C  C133  1  0.222360  0.554190  0.792100  1.0  0.0307
  C  C134  1  0.645620  0.101880  0.030100  1.0  -0.0315
  C  C135  1  0.696950  0.102860  0.184700  1.0  -0.1581
  C  C136  1  0.642170  0.005040  0.075900  1.0  0.0125
  C  C137  1  0.693490  0.004950  0.233700  1.0  -0.1623
  C  C138  1  0.722360  0.054190  0.292100  1.0  0.0307
  C  C139  1  0.854380  0.398120  0.530100  1.0  -0.0301
  C  C140  1  0.803050  0.397140  0.684700  1.0  -0.1576
  C  C141  1  0.857830  0.494960  0.575900  1.0  0.0116
  C  C142  1  0.806510  0.495050  0.733700  1.0  -0.1624
  C  C143  1  0.777640  0.445810  0.792100  1.0  0.0314
  C  C144  1  0.354380  0.898120  0.030100  1.0  -0.0301
  C  C145  1  0.303050  0.897140  0.184700  1.0  -0.1576
  C  C146  1  0.357830  0.994960  0.075900  1.0  0.0116
  C  C147  1  0.306510  0.995050  0.233700  1.0  -0.1624
  C  C148  1  0.277640  0.945810  0.292100  1.0  0.0314
  N  N149  1  0.447060  0.380550  0.722700  1.0  0.2742
  N  N150  1  0.947060  0.880550  0.222700  1.0  0.2742
  N  N151  1  0.552940  0.619450  0.722700  1.0  0.2745
  N  N152  1  0.052940  0.119450  0.222700  1.0  0.2745
  N  N153  1  0.380550  0.552940  0.277300  1.0  0.276
  N  N154  1  0.880550  0.052940  0.777300  1.0  0.276
  N  N155  1  0.619450  0.447060  0.277300  1.0  0.2742
  N  N156  1  0.119450  0.947060  0.777300  1.0  0.2742
  N  N157  1  0.052940  0.380550  0.027300  1.0  0.2737
  N  N158  1  0.552940  0.880550  0.527300  1.0  0.2737
  N  N159  1  0.947060  0.619450  0.027300  1.0  0.274
  N  N160  1  0.447060  0.119450  0.527300  1.0  0.274
  N  N161  1  0.119450  0.552940  0.472700  1.0  0.2748
  N  N162  1  0.619450  0.052940  0.972700  1.0  0.2748
  N  N163  1  0.880550  0.447060  0.472700  1.0  0.2762
  N  N164  1  0.380550  0.947060  0.972700  1.0  0.2762
  O  O165  1  0.446640  0.428930  0.561400  1.0  -0.6564
  O  O166  1  0.946640  0.928930  0.061400  1.0  -0.6564
  O  O167  1  0.553360  0.571070  0.561400  1.0  -0.6563
  O  O168  1  0.053360  0.071070  0.061400  1.0  -0.6563
  O  O169  1  0.428930  0.553360  0.438600  1.0  -0.6544
  O  O170  1  0.928930  0.053360  0.938600  1.0  -0.6544
  O  O171  1  0.571070  0.446640  0.438600  1.0  -0.6562
  O  O172  1  0.071070  0.946640  0.938600  1.0  -0.6562
  O  O173  1  0.053360  0.428930  0.188600  1.0  -0.6566
  O  O174  1  0.553360  0.928930  0.688600  1.0  -0.6566
  O  O175  1  0.946640  0.571070  0.188600  1.0  -0.6563
  O  O176  1  0.446640  0.071070  0.688600  1.0  -0.6563
  O  O177  1  0.071070  0.553360  0.311400  1.0  -0.6561
  O  O178  1  0.571070  0.053360  0.811400  1.0  -0.6561
  O  O179  1  0.928930  0.446640  0.311400  1.0  -0.654
  O  O180  1  0.428930  0.946640  0.811400  1.0  -0.654
  O  O181  1  0.500000  0.500000  0.000000  1.0  -0.7396
  O  O182  1  0.000000  0.000000  0.500000  1.0  -0.7396
  O  O183  1  0.000000  0.500000  0.750000  1.0  -0.7396
  O  O184  1  0.500000  0.000000  0.250000  1.0  -0.7396
