# generated using pymatgen
data_ScH24C33S3N6(O5F3)3
_symmetry_space_group_name_H-M   'P 1'
_cell_length_a   12.80610000
_cell_length_b   20.78720000
_cell_length_c   21.62470000
_cell_angle_alpha   103.24600000
_cell_angle_beta   90.00000000
_cell_angle_gamma   90.00000000
_symmetry_Int_Tables_number   1
_chemical_formula_structural   ScH24C33S3N6(O5F3)3
_chemical_formula_sum   'Sc4 H96 C132 S12 N24 O60 F36'
_cell_volume   5603.40741449
_cell_formula_units_Z   4
loop_
 _symmetry_equiv_pos_site_id
 _symmetry_equiv_pos_as_xyz
  1  'x, y, z'
loop_
 _atom_site_type_symbol
 _atom_site_label
 _atom_site_symmetry_multiplicity
 _atom_site_fract_x
 _atom_site_fract_y
 _atom_site_fract_z
 _atom_site_occupancy
 _atom_site_charge
  Sc  Sc1  1  0.785950  0.999240  0.242250  1.0  1.9681
  Sc  Sc2  1  0.285950  0.500760  0.257750  1.0  1.9687
  Sc  Sc3  1  0.214050  0.000760  0.757750  1.0  1.9684
  Sc  Sc4  1  0.714050  0.499240  0.742250  1.0  1.9677
  H  H5  1  0.848500  0.815300  0.304000  1.0  0.1093
  H  H6  1  0.751800  0.727900  0.323100  1.0  0.1279
  H  H7  1  0.489400  0.828200  0.301800  1.0  0.1253
  H  H8  1  0.592900  0.914900  0.285900  1.0  0.1027
  H  H9  1  0.968800  0.076300  0.183900  1.0  0.1195
  H  H10  1  0.075200  0.161500  0.168700  1.0  0.1256
  H  H11  1  0.817200  0.275400  0.173900  1.0  0.1202
  H  H12  1  0.716200  0.187500  0.187200  1.0  0.1109
  H  H13  1  0.996300  0.922100  0.320000  1.0  0.1159
  H  H14  1  0.027600  0.910100  0.422300  1.0  0.1148
  H  H15  1  0.950100  0.100300  0.489400  1.0  0.1207
  H  H16  1  0.920300  0.110600  0.385000  1.0  0.1165
  H  H17  1  0.019400  0.446200  0.181400  1.0  0.1073
  H  H18  1  0.910000  0.356400  0.177100  1.0  0.1174
  H  H19  1  0.165100  0.239500  0.158300  1.0  0.1253
  H  H20  1  0.267900  0.331400  0.160800  1.0  0.1134
  H  H21  1  0.562000  0.552000  0.309000  1.0  0.1345
  H  H22  1  0.657900  0.641800  0.297100  1.0  0.106
  H  H23  1  0.409000  0.759100  0.351700  1.0  0.1147
  H  H24  1  0.313100  0.668800  0.360600  1.0  0.1217
  H  H25  1  0.471100  0.016700  0.181400  1.0  0.1188
  H  H26  1  0.400400  0.032200  0.087900  1.0  0.1227
  H  H27  1  0.658200  0.956200  0.996700  1.0  0.1153
  H  H28  1  0.727900  0.947200  0.091700  1.0  0.111
  H  H29  1  0.348500  0.684700  0.196000  1.0  0.1093
  H  H30  1  0.251800  0.772100  0.176900  1.0  0.1266
  H  H31  1  0.989400  0.671800  0.198200  1.0  0.1248
  H  H32  1  0.092900  0.585100  0.214100  1.0  0.1026
  H  H33  1  0.468800  0.423700  0.316100  1.0  0.1202
  H  H34  1  0.575200  0.338500  0.331300  1.0  0.1267
  H  H35  1  0.317200  0.224600  0.326100  1.0  0.1196
  H  H36  1  0.216200  0.312500  0.312800  1.0  0.1109
  H  H37  1  0.496300  0.577900  0.180000  1.0  0.116
  H  H38  1  0.527600  0.589900  0.077700  1.0  0.1144
  H  H39  1  0.450100  0.399700  0.010600  1.0  0.1209
  H  H40  1  0.420300  0.389400  0.115000  1.0  0.116
  H  H41  1  0.519400  0.053800  0.318600  1.0  0.1074
  H  H42  1  0.410000  0.143600  0.322900  1.0  0.1173
  H  H43  1  0.665100  0.260500  0.341700  1.0  0.125
  H  H44  1  0.767900  0.168600  0.339200  1.0  0.1135
  H  H45  1  0.062000  0.948000  0.191000  1.0  0.1357
  H  H46  1  0.157900  0.858200  0.202900  1.0  0.1064
  H  H47  1  0.909000  0.740900  0.148300  1.0  0.114
  H  H48  1  0.813100  0.831200  0.139400  1.0  0.1208
  H  H49  1  0.971100  0.483300  0.318600  1.0  0.1187
  H  H50  1  0.900400  0.467800  0.412100  1.0  0.1229
  H  H51  1  0.158200  0.543800  0.503300  1.0  0.1159
  H  H52  1  0.227900  0.552800  0.408300  1.0  0.1111
  H  H53  1  0.151500  0.184700  0.696000  1.0  0.1093
  H  H54  1  0.248200  0.272100  0.676900  1.0  0.1271
  H  H55  1  0.510600  0.171800  0.698200  1.0  0.1255
  H  H56  1  0.407100  0.085100  0.714100  1.0  0.1024
  H  H57  1  0.031200  0.923700  0.816100  1.0  0.1206
  H  H58  1  0.924800  0.838500  0.831300  1.0  0.1266
  H  H59  1  0.182800  0.724600  0.826100  1.0  0.1198
  H  H60  1  0.283800  0.812500  0.812800  1.0  0.1112
  H  H61  1  0.003700  0.077900  0.680000  1.0  0.1157
  H  H62  1  0.972400  0.089900  0.577700  1.0  0.1145
  H  H63  1  0.049900  0.899700  0.510600  1.0  0.121
  H  H64  1  0.079700  0.889400  0.615000  1.0  0.1162
  H  H65  1  0.980600  0.553800  0.818600  1.0  0.1073
  H  H66  1  0.090000  0.643600  0.822900  1.0  0.1178
  H  H67  1  0.834900  0.760500  0.841700  1.0  0.125
  H  H68  1  0.732100  0.668600  0.839200  1.0  0.1126
  H  H69  1  0.438000  0.448000  0.691000  1.0  0.1357
  H  H70  1  0.342100  0.358200  0.702900  1.0  0.1061
  H  H71  1  0.591000  0.240900  0.648300  1.0  0.1145
  H  H72  1  0.686900  0.331200  0.639400  1.0  0.1208
  H  H73  1  0.528900  0.983300  0.818600  1.0  0.1188
  H  H74  1  0.599600  0.967800  0.912100  1.0  0.1231
  H  H75  1  0.341800  0.043800  0.003300  1.0  0.1157
  H  H76  1  0.272100  0.052800  0.908300  1.0  0.111
  H  H77  1  0.651500  0.315300  0.804000  1.0  0.1089
  H  H78  1  0.748200  0.227900  0.823100  1.0  0.1279
  H  H79  1  0.010600  0.328200  0.801800  1.0  0.1255
  H  H80  1  0.907100  0.414900  0.785900  1.0  0.1025
  H  H81  1  0.531200  0.576300  0.683900  1.0  0.1196
  H  H82  1  0.424800  0.661500  0.668700  1.0  0.1263
  H  H83  1  0.682800  0.775400  0.673900  1.0  0.1198
  H  H84  1  0.783800  0.687500  0.687200  1.0  0.1114
  H  H85  1  0.503700  0.422100  0.820000  1.0  0.1156
  H  H86  1  0.472400  0.410100  0.922300  1.0  0.1149
  H  H87  1  0.549900  0.600300  0.989400  1.0  0.1211
  H  H88  1  0.579700  0.610600  0.885000  1.0  0.1167
  H  H89  1  0.480600  0.946200  0.681400  1.0  0.1071
  H  H90  1  0.590000  0.856400  0.677100  1.0  0.1185
  H  H91  1  0.334900  0.739500  0.658300  1.0  0.1248
  H  H92  1  0.232100  0.831400  0.660800  1.0  0.1123
  H  H93  1  0.938000  0.052000  0.809000  1.0  0.1345
  H  H94  1  0.842100  0.141800  0.797100  1.0  0.1061
  H  H95  1  0.091000  0.259100  0.851700  1.0  0.1146
  H  H96  1  0.186900  0.168800  0.860600  1.0  0.1217
  H  H97  1  0.028900  0.516700  0.681400  1.0  0.1187
  H  H98  1  0.099600  0.532200  0.587900  1.0  0.123
  H  H99  1  0.841800  0.456200  0.496700  1.0  0.1148
  H  H100  1  0.772100  0.447200  0.591700  1.0  0.1106
  C  C101  1  0.774400  0.817500  0.303900  1.0  0.0375
  C  C102  1  0.717200  0.765700  0.315400  1.0  -0.1558
  C  C103  1  0.609500  0.768300  0.315800  1.0  0.0974
  C  C104  1  0.563300  0.824900  0.303200  1.0  -0.1454
  C  C105  1  0.624600  0.875900  0.292900  1.0  0.0304
  C  C106  1  0.938900  0.117600  0.182000  1.0  0.0497
  C  C107  1  0.001900  0.168100  0.173000  1.0  -0.1418
  C  C108  1  0.958900  0.229200  0.170100  1.0  0.0558
  C  C109  1  0.849800  0.234900  0.175800  1.0  -0.1306
  C  C110  1  0.790000  0.183300  0.184200  1.0  0.0176
  C  C111  1  0.986300  0.958600  0.355000  1.0  -0.015
  C  C112  1  0.005000  0.951600  0.415800  1.0  -0.1175
  C  C113  1  0.991700  0.003100  0.466300  1.0  0.0427
  C  C114  1  0.959600  0.063200  0.454800  1.0  -0.1323
  C  C115  1  0.941400  0.069400  0.392900  1.0  0.0495
  C  C116  1  0.048300  0.403300  0.176400  1.0  -0.0039
  C  C117  1  0.983500  0.349900  0.174300  1.0  -0.1366
  C  C118  1  0.023800  0.286600  0.168200  1.0  0.1009
  C  C119  1  0.133000  0.281600  0.163000  1.0  -0.1461
  C  C120  1  0.194200  0.336000  0.164700  1.0  0.025
  C  C121  1  0.531100  0.594700  0.316800  1.0  -0.0158
  C  C122  1  0.587300  0.647800  0.310800  1.0  -0.1324
  C  C123  1  0.545000  0.711000  0.323900  1.0  0.0639
  C  C124  1  0.440900  0.716700  0.342400  1.0  -0.1353
  C  C125  1  0.384200  0.663800  0.347700  1.0  0.0043
  C  C126  1  0.510600  0.005000  0.143200  1.0  0.0676
  C  C127  1  0.468300  0.013800  0.087500  1.0  -0.1715
  C  C128  1  0.522400  0.996300  0.030700  1.0  0.0699
  C  C129  1  0.618300  0.970400  0.034400  1.0  -0.164
  C  C130  1  0.659100  0.964000  0.090700  1.0  0.0201
  C  C131  1  0.274400  0.682500  0.196100  1.0  0.0362
  C  C132  1  0.217200  0.734300  0.184600  1.0  -0.1574
  C  C133  1  0.109500  0.731700  0.184200  1.0  0.0946
  C  C134  1  0.063300  0.675100  0.196800  1.0  -0.1447
  C  C135  1  0.124600  0.624100  0.207100  1.0  0.0307
  C  C136  1  0.438900  0.382400  0.318000  1.0  0.0494
  C  C137  1  0.501900  0.331900  0.327000  1.0  -0.1424
  C  C138  1  0.458900  0.270800  0.329900  1.0  0.0555
  C  C139  1  0.349800  0.265100  0.324200  1.0  -0.1326
  C  C140  1  0.290000  0.316700  0.315800  1.0  0.0158
  C  C141  1  0.486300  0.541400  0.145000  1.0  -0.0146
  C  C142  1  0.505000  0.548400  0.084200  1.0  -0.1175
  C  C143  1  0.491700  0.496900  0.033700  1.0  0.0423
  C  C144  1  0.459600  0.436800  0.045200  1.0  -0.1311
  C  C145  1  0.441400  0.430600  0.107100  1.0  0.0492
  C  C146  1  0.548300  0.096700  0.323600  1.0  -0.0051
  C  C147  1  0.483500  0.150100  0.325700  1.0  -0.1372
  C  C148  1  0.523800  0.213400  0.331800  1.0  0.1032
  C  C149  1  0.633000  0.218400  0.337000  1.0  -0.146
  C  C150  1  0.694200  0.164000  0.335300  1.0  0.0265
  C  C151  1  0.031100  0.905300  0.183200  1.0  -0.0174
  C  C152  1  0.087300  0.852200  0.189200  1.0  -0.1333
  C  C153  1  0.045000  0.789000  0.176100  1.0  0.0613
  C  C154  1  0.940900  0.783300  0.157600  1.0  -0.1366
  C  C155  1  0.884200  0.836200  0.152300  1.0  0.0052
  C  C156  1  0.010600  0.495000  0.356800  1.0  0.0661
  C  C157  1  0.968300  0.486200  0.412500  1.0  -0.1716
  C  C158  1  0.022400  0.503700  0.469300  1.0  0.0701
  C  C159  1  0.118300  0.529600  0.465600  1.0  -0.1647
  C  C160  1  0.159100  0.536000  0.409300  1.0  0.0195
  C  C161  1  0.225600  0.182500  0.696100  1.0  0.0349
  C  C162  1  0.282800  0.234300  0.684600  1.0  -0.1572
  C  C163  1  0.390500  0.231700  0.684200  1.0  0.0946
  C  C164  1  0.436700  0.175100  0.696800  1.0  -0.145
  C  C165  1  0.375400  0.124100  0.707100  1.0  0.0301
  C  C166  1  0.061100  0.882400  0.818000  1.0  0.0495
  C  C167  1  0.998100  0.831900  0.827000  1.0  -0.1423
  C  C168  1  0.041100  0.770800  0.829900  1.0  0.0568
  C  C169  1  0.150200  0.765100  0.824200  1.0  -0.1334
  C  C170  1  0.210000  0.816700  0.815800  1.0  0.0177
  C  C171  1  0.013700  0.041400  0.645000  1.0  -0.0152
  C  C172  1  0.995000  0.048400  0.584200  1.0  -0.1196
  C  C173  1  0.008300  0.996900  0.533700  1.0  0.0422
  C  C174  1  0.040400  0.936800  0.545200  1.0  -0.1295
  C  C175  1  0.058600  0.930600  0.607100  1.0  0.0494
  C  C176  1  0.951700  0.596700  0.823600  1.0  -0.0051
  C  C177  1  0.016500  0.650100  0.825700  1.0  -0.1384
  C  C178  1  0.976200  0.713400  0.831800  1.0  0.1029
  C  C179  1  0.867000  0.718400  0.837000  1.0  -0.1461
  C  C180  1  0.805800  0.664000  0.835300  1.0  0.0263
  C  C181  1  0.468900  0.405300  0.683200  1.0  -0.0159
  C  C182  1  0.412700  0.352200  0.689200  1.0  -0.1324
  C  C183  1  0.455000  0.289000  0.676100  1.0  0.0616
  C  C184  1  0.559100  0.283300  0.657600  1.0  -0.1362
  C  C185  1  0.615800  0.336200  0.652300  1.0  0.0074
  C  C186  1  0.489400  0.995000  0.856800  1.0  0.0663
  C  C187  1  0.531700  0.986200  0.912500  1.0  -0.1706
  C  C188  1  0.477600  0.003700  0.969300  1.0  0.0711
  C  C189  1  0.381700  0.029600  0.965600  1.0  -0.1659
  C  C190  1  0.340900  0.036000  0.909300  1.0  0.0192
  C  C191  1  0.725600  0.317500  0.803900  1.0  0.037
  C  C192  1  0.782800  0.265700  0.815400  1.0  -0.1561
  C  C193  1  0.890500  0.268300  0.815800  1.0  0.0969
  C  C194  1  0.936700  0.324900  0.803200  1.0  -0.1471
  C  C195  1  0.875400  0.375900  0.792900  1.0  0.0305
  C  C196  1  0.561100  0.617600  0.682000  1.0  0.0495
  C  C197  1  0.498100  0.668100  0.673000  1.0  -0.1416
  C  C198  1  0.541100  0.729200  0.670100  1.0  0.0563
  C  C199  1  0.650200  0.734900  0.675800  1.0  -0.1322
  C  C200  1  0.710000  0.683300  0.684200  1.0  0.0193
  C  C201  1  0.513700  0.458600  0.855000  1.0  -0.0158
  C  C202  1  0.495000  0.451600  0.915800  1.0  -0.1195
  C  C203  1  0.508300  0.503100  0.966300  1.0  0.0427
  C  C204  1  0.540400  0.563200  0.954800  1.0  -0.1302
  C  C205  1  0.558600  0.569400  0.892900  1.0  0.0499
  C  C206  1  0.451700  0.903300  0.676400  1.0  -0.0043
  C  C207  1  0.516500  0.849900  0.674300  1.0  -0.137
  C  C208  1  0.476200  0.786600  0.668200  1.0  0.1012
  C  C209  1  0.367000  0.781600  0.663000  1.0  -0.1461
  C  C210  1  0.305800  0.836000  0.664700  1.0  0.026
  C  C211  1  0.968900  0.094700  0.816800  1.0  -0.0152
  C  C212  1  0.912700  0.147800  0.810800  1.0  -0.1312
  C  C213  1  0.955000  0.211000  0.823900  1.0  0.0632
  C  C214  1  0.059100  0.216700  0.842400  1.0  -0.1351
  C  C215  1  0.115800  0.163800  0.847700  1.0  0.0066
  C  C216  1  0.989400  0.505000  0.643200  1.0  0.0676
  C  C217  1  0.031700  0.513800  0.587500  1.0  -0.1708
  C  C218  1  0.977600  0.496300  0.530700  1.0  0.0709
  C  C219  1  0.881700  0.470400  0.534400  1.0  -0.1653
  C  C220  1  0.840900  0.464000  0.590700  1.0  0.0195
  C  C221  1  0.503600  0.218800  0.073200  1.0  0.4913
  C  C222  1  0.495500  0.796400  0.117300  1.0  0.4768
  C  C223  1  0.327500  0.965300  0.377400  1.0  0.4221
  C  C224  1  0.003600  0.281200  0.426800  1.0  0.492
  C  C225  1  0.995500  0.703600  0.382700  1.0  0.4784
  C  C226  1  0.827500  0.534700  0.122600  1.0  0.424
  C  C227  1  0.496400  0.781200  0.926800  1.0  0.4915
  C  C228  1  0.504500  0.203600  0.882700  1.0  0.4779
  C  C229  1  0.672500  0.034700  0.622600  1.0  0.4244
  C  C230  1  0.996400  0.718800  0.573200  1.0  0.491
  C  C231  1  0.004500  0.296400  0.617300  1.0  0.4763
  C  C232  1  0.172500  0.465300  0.877400  1.0  0.4223
  S  S233  1  0.504900  0.247490  0.158120  1.0  1.3937
  S  S234  1  0.584700  0.733600  0.133070  1.0  1.2014
  S  S235  1  0.313200  0.948900  0.295590  1.0  1.1924
  S  S236  1  0.004900  0.252510  0.341880  1.0  1.3926
  S  S237  1  0.084700  0.766400  0.366930  1.0  1.2003
  S  S238  1  0.813200  0.551100  0.204410  1.0  1.1924
  S  S239  1  0.495100  0.752510  0.841880  1.0  1.3932
  S  S240  1  0.415300  0.266400  0.866930  1.0  1.2006
  S  S241  1  0.686800  0.051100  0.704410  1.0  1.1922
  S  S242  1  0.995100  0.747490  0.658120  1.0  1.3942
  S  S243  1  0.915300  0.233600  0.633070  1.0  1.2013
  S  S244  1  0.186800  0.448900  0.795590  1.0  1.1917
  N  N245  1  0.728000  0.870400  0.292600  1.0  0.3143
  N  N246  1  0.836400  0.126400  0.188200  1.0  0.3207
  N  N247  1  0.954000  0.016600  0.344800  1.0  0.3516
  N  N248  1  0.150700  0.394900  0.171600  1.0  0.3172
  N  N249  1  0.429500  0.603500  0.334400  1.0  0.2599
  N  N250  1  0.604800  0.980700  0.144500  1.0  0.3437
  N  N251  1  0.228000  0.629600  0.207400  1.0  0.3139
  N  N252  1  0.336400  0.373600  0.311800  1.0  0.3207
  N  N253  1  0.454000  0.483400  0.155200  1.0  0.3526
  N  N254  1  0.650700  0.105100  0.328400  1.0  0.3167
  N  N255  1  0.929500  0.896500  0.165600  1.0  0.2601
  N  N256  1  0.104800  0.519300  0.355500  1.0  0.3436
  N  N257  1  0.272000  0.129600  0.707400  1.0  0.3147
  N  N258  1  0.163600  0.873600  0.811800  1.0  0.3205
  N  N259  1  0.046000  0.983400  0.655200  1.0  0.3528
  N  N260  1  0.849300  0.605100  0.828400  1.0  0.3153
  N  N261  1  0.570500  0.396500  0.665600  1.0  0.2603
  N  N262  1  0.395200  0.019300  0.855500  1.0  0.343
  N  N263  1  0.772000  0.370400  0.792600  1.0  0.3147
  N  N264  1  0.663600  0.626400  0.688200  1.0  0.3203
  N  N265  1  0.546000  0.516600  0.844800  1.0  0.3518
  N  N266  1  0.349300  0.894900  0.671600  1.0  0.316
  N  N267  1  0.070500  0.103500  0.834400  1.0  0.26
  N  N268  1  0.895200  0.480700  0.644500  1.0  0.3433
  O  O269  1  0.787800  0.918100  0.280900  1.0  -0.669
  O  O270  1  0.774400  0.078200  0.199400  1.0  -0.6351
  O  O271  1  0.932500  0.021800  0.285400  1.0  -0.5738
  O  O272  1  0.212700  0.448700  0.174500  1.0  -0.5824
  O  O273  1  0.370900  0.550100  0.338100  1.0  -0.5764
  O  O274  1  0.641500  0.972700  0.199700  1.0  -0.5772
  O  O275  1  0.287800  0.581900  0.219100  1.0  -0.6691
  O  O276  1  0.274400  0.421800  0.300600  1.0  -0.6348
  O  O277  1  0.432500  0.478200  0.214600  1.0  -0.5738
  O  O278  1  0.712700  0.051300  0.325500  1.0  -0.5836
  O  O279  1  0.870900  0.949900  0.161900  1.0  -0.5752
  O  O280  1  0.141500  0.527300  0.300300  1.0  -0.5777
  O  O281  1  0.212200  0.081900  0.719100  1.0  -0.6688
  O  O282  1  0.225600  0.921800  0.800600  1.0  -0.6356
  O  O283  1  0.067500  0.978200  0.714600  1.0  -0.5733
  O  O284  1  0.787300  0.551300  0.825500  1.0  -0.5827
  O  O285  1  0.629100  0.449900  0.661900  1.0  -0.5749
  O  O286  1  0.358500  0.027300  0.800300  1.0  -0.5767
  O  O287  1  0.712200  0.418100  0.780900  1.0  -0.669
  O  O288  1  0.725600  0.578200  0.699400  1.0  -0.6356
  O  O289  1  0.567500  0.521800  0.785400  1.0  -0.5736
  O  O290  1  0.287300  0.948700  0.674500  1.0  -0.5827
  O  O291  1  0.129100  0.050100  0.838100  1.0  -0.5775
  O  O292  1  0.858500  0.472700  0.699700  1.0  -0.5767
  O  O293  1  0.607600  0.277000  0.172000  1.0  -0.623
  O  O294  1  0.499400  0.190400  0.181300  1.0  -0.5671
  O  O295  1  0.423500  0.295400  0.171000  1.0  -0.598
  O  O296  1  0.673300  0.772200  0.161400  1.0  -0.6806
  O  O297  1  0.603500  0.693600  0.070500  1.0  -0.608
  O  O298  1  0.526200  0.701200  0.174300  1.0  -0.6756
  O  O299  1  0.308300  0.875200  0.282200  1.0  -0.6707
  O  O300  1  0.403500  0.972900  0.275400  1.0  -0.5751
  O  O301  1  0.213500  0.977400  0.284400  1.0  -0.6255
  O  O302  1  0.107600  0.223000  0.328000  1.0  -0.6225
  O  O303  1  0.999400  0.309600  0.318700  1.0  -0.5676
  O  O304  1  0.923500  0.204600  0.329000  1.0  -0.5976
  O  O305  1  0.173300  0.727800  0.338600  1.0  -0.6798
  O  O306  1  0.103500  0.806400  0.429500  1.0  -0.6065
  O  O307  1  0.026200  0.798800  0.325700  1.0  -0.6756
  O  O308  1  0.808300  0.624800  0.217800  1.0  -0.6704
  O  O309  1  0.903500  0.527100  0.224600  1.0  -0.5759
  O  O310  1  0.713500  0.522600  0.215600  1.0  -0.6252
  O  O311  1  0.392400  0.723000  0.828000  1.0  -0.6226
  O  O312  1  0.500600  0.809600  0.818700  1.0  -0.5674
  O  O313  1  0.576500  0.704600  0.829000  1.0  -0.5985
  O  O314  1  0.326700  0.227800  0.838600  1.0  -0.6801
  O  O315  1  0.396500  0.306400  0.929500  1.0  -0.6069
  O  O316  1  0.473800  0.298800  0.825700  1.0  -0.6753
  O  O317  1  0.691700  0.124800  0.717800  1.0  -0.6703
  O  O318  1  0.596500  0.027100  0.724600  1.0  -0.5746
  O  O319  1  0.786500  0.022600  0.715600  1.0  -0.6291
  O  O320  1  0.892400  0.777000  0.672000  1.0  -0.6233
  O  O321  1  0.000600  0.690400  0.681300  1.0  -0.5676
  O  O322  1  0.076500  0.795400  0.671000  1.0  -0.5986
  O  O323  1  0.826700  0.272200  0.661400  1.0  -0.6804
  O  O324  1  0.896500  0.193600  0.570500  1.0  -0.608
  O  O325  1  0.973800  0.201200  0.674300  1.0  -0.6754
  O  O326  1  0.191700  0.375200  0.782200  1.0  -0.6709
  O  O327  1  0.096500  0.472900  0.775400  1.0  -0.5743
  O  O328  1  0.286500  0.477400  0.784400  1.0  -0.6288
  F  F329  1  0.413800  0.186900  0.056200  1.0  -0.1645
  F  F330  1  0.511100  0.268200  0.045200  1.0  -0.1847
  F  F331  1  0.575600  0.174600  0.052100  1.0  -0.1734
  F  F332  1  0.466300  0.837200  0.171100  1.0  -0.1937
  F  F333  1  0.408600  0.768500  0.088400  1.0  -0.1743
  F  F334  1  0.538300  0.831400  0.080400  1.0  -0.1905
  F  F335  1  0.415100  0.938300  0.396000  1.0  -0.1659
  F  F336  1  0.329600  0.034800  0.400600  1.0  -0.2033
  F  F337  1  0.248000  0.946400  0.409200  1.0  -0.1636
  F  F338  1  0.913800  0.313100  0.443800  1.0  -0.1646
  F  F339  1  0.011100  0.231800  0.454800  1.0  -0.1863
  F  F340  1  0.075600  0.325400  0.447900  1.0  -0.1727
  F  F341  1  0.966300  0.662800  0.328900  1.0  -0.194
  F  F342  1  0.908600  0.731500  0.411600  1.0  -0.1733
  F  F343  1  0.038300  0.668600  0.419600  1.0  -0.1913
  F  F344  1  0.915100  0.561700  0.104000  1.0  -0.1641
  F  F345  1  0.829600  0.465200  0.099400  1.0  -0.2064
  F  F346  1  0.748000  0.553600  0.090800  1.0  -0.1646
  F  F347  1  0.586200  0.813100  0.943800  1.0  -0.1657
  F  F348  1  0.488900  0.731800  0.954800  1.0  -0.1846
  F  F349  1  0.424400  0.825400  0.947900  1.0  -0.1729
  F  F350  1  0.533700  0.162800  0.828900  1.0  -0.1933
  F  F351  1  0.591400  0.231500  0.911600  1.0  -0.1743
  F  F352  1  0.461700  0.168600  0.919600  1.0  -0.1913
  F  F353  1  0.584900  0.061700  0.604000  1.0  -0.1657
  F  F354  1  0.670400  0.965200  0.599400  1.0  -0.2063
  F  F355  1  0.752000  0.053600  0.590800  1.0  -0.1605
  F  F356  1  0.086200  0.686900  0.556200  1.0  -0.1654
  F  F357  1  0.988900  0.768200  0.545200  1.0  -0.1842
  F  F358  1  0.924400  0.674600  0.552100  1.0  -0.1746
  F  F359  1  0.033700  0.337200  0.671100  1.0  -0.1927
  F  F360  1  0.091400  0.268500  0.588400  1.0  -0.1749
  F  F361  1  0.961700  0.331400  0.580400  1.0  -0.1908
  F  F362  1  0.084900  0.438300  0.896000  1.0  -0.1667
  F  F363  1  0.170400  0.534800  0.900600  1.0  -0.2036
  F  F364  1  0.252000  0.446400  0.909200  1.0  -0.1624
