# generated using pymatgen
data_Gd3PH9C11NO19
_symmetry_space_group_name_H-M   'P 1'
_cell_length_a   10.24810000
_cell_length_b   15.06970000
_cell_length_c   22.39100000
_cell_angle_alpha   90.00000000
_cell_angle_beta   90.00000000
_cell_angle_gamma   108.02000000
_symmetry_Int_Tables_number   1
_chemical_formula_structural   Gd3PH9C11NO19
_chemical_formula_sum   'Gd12 P4 H36 C44 N4 O76'
_cell_volume   3288.35344108
_cell_formula_units_Z   4
loop_
 _symmetry_equiv_pos_site_id
 _symmetry_equiv_pos_as_xyz
  1  'x, y, z'
loop_
 _atom_site_type_symbol
 _atom_site_label
 _atom_site_symmetry_multiplicity
 _atom_site_fract_x
 _atom_site_fract_y
 _atom_site_fract_z
 _atom_site_occupancy
 _atom_site_charge
  Gd  Gd1  1  0.033920  0.501130  0.141530  1.0  2.0614
  Gd  Gd2  1  0.422250  0.250610  0.155030  1.0  2.1431
  Gd  Gd3  1  0.242780  0.909980  0.013410  1.0  2.0614
  Gd  Gd4  1  0.466080  0.998870  0.641530  1.0  2.0605
  Gd  Gd5  1  0.077750  0.249390  0.655030  1.0  2.1433
  Gd  Gd6  1  0.257220  0.590020  0.513410  1.0  2.0622
  Gd  Gd7  1  0.966080  0.498870  0.858470  1.0  2.0615
  Gd  Gd8  1  0.577750  0.749390  0.844970  1.0  2.1438
  Gd  Gd9  1  0.757220  0.090020  0.986590  1.0  2.0625
  Gd  Gd10  1  0.533920  0.001130  0.358470  1.0  2.0623
  Gd  Gd11  1  0.922250  0.750610  0.344970  1.0  2.1435
  Gd  Gd12  1  0.742780  0.409980  0.486590  1.0  2.0615
  P  P13  1  0.454600  0.157920  0.006940  1.0  1.752
  P  P14  1  0.045400  0.342080  0.506940  1.0  1.753
  P  P15  1  0.545400  0.842080  0.993060  1.0  1.752
  P  P16  1  0.954600  0.657920  0.493060  1.0  1.749
  H  H17  1  0.358700  0.312900  0.009500  1.0  0.231
  H  H18  1  0.268100  0.176500  0.955800  1.0  0.1602
  H  H19  1  0.399900  0.212500  0.916500  1.0  0.1781
  H  H20  1  0.582800  0.339400  0.973500  1.0  0.1311
  H  H21  1  0.533000  0.362700  0.911000  1.0  0.1305
  H  H22  1  0.537200  0.428800  0.965500  1.0  0.1228
  H  H23  1  0.187800  0.316400  0.947800  1.0  0.124
  H  H24  1  0.301800  0.413700  0.950900  1.0  0.1249
  H  H25  1  0.296000  0.347500  0.896300  1.0  0.1356
  H  H26  1  0.141300  0.187100  0.509500  1.0  0.2302
  H  H27  1  0.231900  0.323500  0.455800  1.0  0.1591
  H  H28  1  0.100100  0.287500  0.416500  1.0  0.1788
  H  H29  1  0.917200  0.160600  0.473500  1.0  0.1325
  H  H30  1  0.967000  0.137300  0.411000  1.0  0.1296
  H  H31  1  0.962800  0.071200  0.465500  1.0  0.1233
  H  H32  1  0.312200  0.183600  0.447800  1.0  0.1282
  H  H33  1  0.198200  0.086300  0.450900  1.0  0.1321
  H  H34  1  0.204000  0.152500  0.396300  1.0  0.1355
  H  H35  1  0.641300  0.687100  0.990500  1.0  0.2303
  H  H36  1  0.731900  0.823500  0.044200  1.0  0.1589
  H  H37  1  0.600100  0.787500  0.083500  1.0  0.1784
  H  H38  1  0.417200  0.660600  0.026500  1.0  0.1329
  H  H39  1  0.467000  0.637300  0.089000  1.0  0.1311
  H  H40  1  0.462800  0.571200  0.034500  1.0  0.1232
  H  H41  1  0.812200  0.683600  0.052200  1.0  0.1285
  H  H42  1  0.698200  0.586300  0.049100  1.0  0.1313
  H  H43  1  0.704000  0.652500  0.103700  1.0  0.1353
  H  H44  1  0.858700  0.812900  0.490500  1.0  0.2309
  H  H45  1  0.768100  0.676500  0.544200  1.0  0.1598
  H  H46  1  0.899900  0.712500  0.583500  1.0  0.1776
  H  H47  1  0.082800  0.839400  0.526500  1.0  0.1295
  H  H48  1  0.033000  0.862700  0.589000  1.0  0.1309
  H  H49  1  0.037200  0.928800  0.534500  1.0  0.1227
  H  H50  1  0.687800  0.816400  0.552200  1.0  0.1253
  H  H51  1  0.801800  0.913700  0.549100  1.0  0.1239
  H  H52  1  0.796000  0.847500  0.603700  1.0  0.1345
  C  C53  1  0.225300  0.374400  0.180200  1.0  0.553
  C  C54  1  0.247800  0.386000  0.112300  1.0  0.5905
  C  C55  1  0.981800  0.667600  0.220100  1.0  0.5525
  C  C56  1  0.958400  0.584400  0.264300  1.0  0.5629
  C  C57  1  0.751700  0.333500  0.162600  1.0  0.5208
  C  C58  1  0.706900  0.421500  0.150600  1.0  0.5848
  C  C59  1  0.957300  0.447400  0.000300  1.0  0.5633
  C  C60  1  0.993300  0.001600  0.034700  1.0  0.5688
  C  C61  1  0.363900  0.213900  0.956400  1.0  -0.5294
  C  C62  1  0.520000  0.365100  0.953300  1.0  -0.264
  C  C63  1  0.282000  0.349900  0.938600  1.0  -0.278
  C  C64  1  0.274700  0.125600  0.680200  1.0  0.5541
  C  C65  1  0.252200  0.114000  0.612300  1.0  0.5917
  C  C66  1  0.518200  0.832400  0.720100  1.0  0.5537
  C  C67  1  0.541600  0.915600  0.764300  1.0  0.5609
  C  C68  1  0.748300  0.166500  0.662600  1.0  0.5212
  C  C69  1  0.793100  0.078500  0.650600  1.0  0.5844
  C  C70  1  0.542700  0.052600  0.500300  1.0  0.5635
  C  C71  1  0.506700  0.498400  0.534700  1.0  0.5688
  C  C72  1  0.136100  0.286100  0.456400  1.0  -0.5225
  C  C73  1  0.980000  0.134900  0.453300  1.0  -0.2639
  C  C74  1  0.218000  0.150100  0.438600  1.0  -0.2739
  C  C75  1  0.774700  0.625600  0.819800  1.0  0.5552
  C  C76  1  0.752200  0.614000  0.887700  1.0  0.5928
  C  C77  1  0.018200  0.332400  0.779900  1.0  0.5541
  C  C78  1  0.041600  0.415600  0.735700  1.0  0.5621
  C  C79  1  0.248300  0.666500  0.837400  1.0  0.5203
  C  C80  1  0.293100  0.578500  0.849400  1.0  0.5842
  C  C81  1  0.042700  0.552600  0.999700  1.0  0.563
  C  C82  1  0.006700  0.998400  0.965300  1.0  0.5669
  C  C83  1  0.636100  0.786100  0.043600  1.0  -0.5331
  C  C84  1  0.480000  0.634900  0.046700  1.0  -0.264
  C  C85  1  0.718000  0.650100  0.061400  1.0  -0.2715
  C  C86  1  0.725300  0.874400  0.319800  1.0  0.5554
  C  C87  1  0.747800  0.886000  0.387700  1.0  0.592
  C  C88  1  0.481800  0.167600  0.279900  1.0  0.5523
  C  C89  1  0.458400  0.084400  0.235700  1.0  0.5621
  C  C90  1  0.251700  0.833500  0.337400  1.0  0.5196
  C  C91  1  0.206900  0.921500  0.349400  1.0  0.5849
  C  C92  1  0.457300  0.947400  0.499700  1.0  0.5628
  C  C93  1  0.493300  0.501600  0.465300  1.0  0.5673
  C  C94  1  0.863900  0.713900  0.543600  1.0  -0.5216
  C  C95  1  0.020000  0.865100  0.546700  1.0  -0.2638
  C  C96  1  0.782000  0.849900  0.561400  1.0  -0.2768
  N  N97  1  0.370600  0.307900  0.969500  1.0  0.2183
  N  N98  1  0.129400  0.192100  0.469500  1.0  0.2181
  N  N99  1  0.629400  0.692100  0.030500  1.0  0.219
  N  N100  1  0.870600  0.807900  0.530500  1.0  0.2189
  O  O101  1  0.283000  0.324900  0.207000  1.0  -0.6597
  O  O102  1  0.148900  0.416400  0.203000  1.0  -0.6112
  O  O103  1  0.192900  0.438600  0.086200  1.0  -0.6784
  O  O104  1  0.320500  0.341500  0.089400  1.0  -0.6876
  O  O105  1  0.957600  0.738700  0.238600  1.0  -0.593
  O  O106  1  0.021300  0.655500  0.168700  1.0  -0.6274
  O  O107  1  0.922600  0.597900  0.316200  1.0  -0.6671
  O  O108  1  0.981300  0.513300  0.245800  1.0  -0.5446
  O  O109  1  0.576600  0.405500  0.152600  1.0  -0.6221
  O  O110  1  0.795400  0.495900  0.141500  1.0  -0.6018
  O  O111  1  0.660500  0.256000  0.166400  1.0  -0.5976
  O  O112  1  0.879800  0.347400  0.167700  1.0  -0.5586
  O  O113  1  0.923900  0.410400  0.049200  1.0  -0.5642
  O  O114  1  0.929400  0.408600  0.949500  1.0  -0.6534
  O  O115  1  0.072100  0.967600  0.064600  1.0  -0.6715
  O  O116  1  0.910200  0.038400  0.054800  1.0  -0.6401
  O  O117  1  0.357700  0.062800  0.015300  1.0  -1.0345
  O  O118  1  0.589700  0.160100  0.980400  1.0  -1.005
  O  O119  1  0.471900  0.214700  0.063500  1.0  -0.988
  O  O120  1  0.217000  0.175100  0.707000  1.0  -0.6597
  O  O121  1  0.351100  0.083600  0.703000  1.0  -0.6153
  O  O122  1  0.307100  0.061400  0.586200  1.0  -0.6766
  O  O123  1  0.179500  0.158500  0.589400  1.0  -0.6868
  O  O124  1  0.542400  0.761300  0.738600  1.0  -0.5938
  O  O125  1  0.478700  0.844500  0.668700  1.0  -0.6274
  O  O126  1  0.577400  0.902100  0.816200  1.0  -0.6669
  O  O127  1  0.518700  0.986700  0.745800  1.0  -0.5442
  O  O128  1  0.923400  0.094500  0.652600  1.0  -0.6216
  O  O129  1  0.704600  0.004100  0.641500  1.0  -0.6027
  O  O130  1  0.839500  0.244000  0.666400  1.0  -0.5962
  O  O131  1  0.620200  0.152600  0.667700  1.0  -0.5574
  O  O132  1  0.576100  0.089600  0.549200  1.0  -0.5656
  O  O133  1  0.570600  0.091400  0.449500  1.0  -0.654
  O  O134  1  0.427900  0.532400  0.564600  1.0  -0.6703
  O  O135  1  0.589800  0.461600  0.554800  1.0  -0.6414
  O  O136  1  0.142300  0.437200  0.515300  1.0  -1.0373
  O  O137  1  0.910300  0.339900  0.480400  1.0  -1.0121
  O  O138  1  0.028100  0.285300  0.563500  1.0  -0.9836
  O  O139  1  0.717000  0.675100  0.793000  1.0  -0.6566
  O  O140  1  0.851100  0.583600  0.797000  1.0  -0.6157
  O  O141  1  0.807100  0.561400  0.913800  1.0  -0.6778
  O  O142  1  0.679500  0.658500  0.910600  1.0  -0.6867
  O  O143  1  0.042400  0.261300  0.761400  1.0  -0.594
  O  O144  1  0.978700  0.344500  0.831300  1.0  -0.628
  O  O145  1  0.077400  0.402100  0.683800  1.0  -0.6671
  O  O146  1  0.018700  0.486700  0.754200  1.0  -0.5448
  O  O147  1  0.423400  0.594500  0.847400  1.0  -0.6248
  O  O148  1  0.204600  0.504100  0.858500  1.0  -0.6018
  O  O149  1  0.339500  0.744000  0.833600  1.0  -0.5984
  O  O150  1  0.120200  0.652600  0.832300  1.0  -0.5574
  O  O151  1  0.076100  0.589600  0.950800  1.0  -0.5652
  O  O152  1  0.070600  0.591400  0.050500  1.0  -0.6561
  O  O153  1  0.927900  0.032400  0.935400  1.0  -0.669
  O  O154  1  0.089800  0.961600  0.945200  1.0  -0.639
  O  O155  1  0.642300  0.937200  0.984700  1.0  -1.0396
  O  O156  1  0.410300  0.839900  0.019600  1.0  -1.0121
  O  O157  1  0.528100  0.785300  0.936500  1.0  -0.988
  O  O158  1  0.783000  0.824900  0.293000  1.0  -0.657
  O  O159  1  0.648900  0.916400  0.297000  1.0  -0.6107
  O  O160  1  0.692900  0.938600  0.413800  1.0  -0.6788
  O  O161  1  0.820500  0.841500  0.410600  1.0  -0.6867
  O  O162  1  0.457600  0.238700  0.261400  1.0  -0.5931
  O  O163  1  0.521300  0.155500  0.331300  1.0  -0.6281
  O  O164  1  0.422600  0.097900  0.183800  1.0  -0.6686
  O  O165  1  0.481300  0.013300  0.254200  1.0  -0.5444
  O  O166  1  0.076600  0.905500  0.347400  1.0  -0.6242
  O  O167  1  0.295400  0.995900  0.358500  1.0  -0.6006
  O  O168  1  0.160500  0.756000  0.333600  1.0  -0.5993
  O  O169  1  0.379800  0.847400  0.332300  1.0  -0.5596
  O  O170  1  0.423900  0.910400  0.450800  1.0  -0.5643
  O  O171  1  0.429400  0.908600  0.550500  1.0  -0.6544
  O  O172  1  0.572100  0.467600  0.435400  1.0  -0.6687
  O  O173  1  0.410200  0.538400  0.445200  1.0  -0.6372
  O  O174  1  0.857700  0.562800  0.484700  1.0  -1.035
  O  O175  1  0.089700  0.660100  0.519600  1.0  -1.0035
  O  O176  1  0.971900  0.714700  0.436500  1.0  -0.9917
