# generated using pymatgen
data_Er3PH9C11NO19
_symmetry_space_group_name_H-M   'P 1'
_cell_length_a   10.04760000
_cell_length_b   14.98690000
_cell_length_c   22.24260000
_cell_angle_alpha   90.00000000
_cell_angle_beta   90.00000000
_cell_angle_gamma   107.58600000
_symmetry_Int_Tables_number   1
_chemical_formula_structural   Er3PH9C11NO19
_chemical_formula_sum   'Er12 P4 H36 C44 N4 O76'
_cell_volume   3192.81039445
_cell_formula_units_Z   4
loop_
 _symmetry_equiv_pos_site_id
 _symmetry_equiv_pos_as_xyz
  1  'x, y, z'
loop_
 _atom_site_type_symbol
 _atom_site_label
 _atom_site_symmetry_multiplicity
 _atom_site_fract_x
 _atom_site_fract_y
 _atom_site_fract_z
 _atom_site_occupancy
 _atom_site_charge
  Er  Er1  1  0.026200  0.497390  0.141400  1.0  1.3601
  Er  Er2  1  0.417160  0.246840  0.156210  1.0  1.4426
  Er  Er3  1  0.241570  0.907420  0.013840  1.0  1.6602
  Er  Er4  1  0.473800  0.002610  0.641400  1.0  1.3605
  Er  Er5  1  0.082840  0.253160  0.656210  1.0  1.4434
  Er  Er6  1  0.258430  0.592580  0.513840  1.0  1.6602
  Er  Er7  1  0.973800  0.502610  0.858600  1.0  1.3611
  Er  Er8  1  0.582840  0.753160  0.843790  1.0  1.4429
  Er  Er9  1  0.758430  0.092580  0.986160  1.0  1.6603
  Er  Er10  1  0.526200  0.997390  0.358600  1.0  1.3605
  Er  Er11  1  0.917160  0.746840  0.343790  1.0  1.4424
  Er  Er12  1  0.741570  0.407420  0.486160  1.0  1.6602
  P  P13  1  0.450600  0.154440  0.008610  1.0  1.6293
  P  P14  1  0.049400  0.345560  0.508610  1.0  1.6282
  P  P15  1  0.549400  0.845560  0.991390  1.0  1.6259
  P  P16  1  0.950600  0.654440  0.491390  1.0  1.627
  H  H17  1  0.370100  0.317300  0.010500  1.0  0.2277
  H  H18  1  0.254200  0.177900  0.962800  1.0  0.1653
  H  H19  1  0.378700  0.201800  0.917100  1.0  0.1781
  H  H20  1  0.588100  0.342100  0.973200  1.0  0.1407
  H  H21  1  0.533200  0.363700  0.910600  1.0  0.1366
  H  H22  1  0.537200  0.430500  0.965300  1.0  0.1282
  H  H23  1  0.179900  0.310100  0.951400  1.0  0.1375
  H  H24  1  0.286100  0.411200  0.951800  1.0  0.1337
  H  H25  1  0.281600  0.344500  0.897000  1.0  0.1373
  H  H26  1  0.129900  0.182700  0.510500  1.0  0.2278
  H  H27  1  0.245800  0.322100  0.462800  1.0  0.1609
  H  H28  1  0.121300  0.298200  0.417100  1.0  0.1784
  H  H29  1  0.911900  0.157900  0.473200  1.0  0.14
  H  H30  1  0.966800  0.136300  0.410600  1.0  0.1353
  H  H31  1  0.962800  0.069500  0.465300  1.0  0.1273
  H  H32  1  0.320100  0.189900  0.451400  1.0  0.1401
  H  H33  1  0.213900  0.088800  0.451800  1.0  0.1354
  H  H34  1  0.218400  0.155500  0.397000  1.0  0.1368
  H  H35  1  0.629900  0.682700  0.989500  1.0  0.2273
  H  H36  1  0.745800  0.822100  0.037200  1.0  0.1597
  H  H37  1  0.621300  0.798200  0.082900  1.0  0.1775
  H  H38  1  0.411900  0.657900  0.026800  1.0  0.1407
  H  H39  1  0.466800  0.636300  0.089400  1.0  0.1358
  H  H40  1  0.462800  0.569500  0.034700  1.0  0.1275
  H  H41  1  0.820100  0.689900  0.048600  1.0  0.1401
  H  H42  1  0.713900  0.588800  0.048200  1.0  0.1355
  H  H43  1  0.718400  0.655500  0.103000  1.0  0.139
  H  H44  1  0.870100  0.817300  0.489500  1.0  0.2265
  H  H45  1  0.754200  0.677900  0.537200  1.0  0.1655
  H  H46  1  0.878700  0.701800  0.582900  1.0  0.1771
  H  H47  1  0.088100  0.842100  0.526800  1.0  0.1402
  H  H48  1  0.033200  0.863700  0.589400  1.0  0.1357
  H  H49  1  0.037200  0.930500  0.534700  1.0  0.1285
  H  H50  1  0.679900  0.810100  0.548600  1.0  0.1383
  H  H51  1  0.786100  0.911200  0.548200  1.0  0.1342
  H  H52  1  0.781600  0.844500  0.603000  1.0  0.1386
  C  C53  1  0.218400  0.370700  0.181200  1.0  0.5283
  C  C54  1  0.239900  0.381900  0.112500  1.0  0.5685
  C  C55  1  0.974300  0.664000  0.219100  1.0  0.536
  C  C56  1  0.952600  0.580700  0.263600  1.0  0.5522
  C  C57  1  0.748100  0.330400  0.161900  1.0  0.5322
  C  C58  1  0.698100  0.416100  0.150200  1.0  0.5775
  C  C59  1  0.955700  0.448000  0.998900  1.0  0.5457
  C  C60  1  0.990400  0.999100  0.035100  1.0  0.576
  C  C61  1  0.353200  0.209800  0.958400  1.0  -0.5273
  C  C62  1  0.521800  0.366600  0.953400  1.0  -0.2472
  C  C63  1  0.271900  0.347400  0.939800  1.0  -0.2513
  C  C64  1  0.281600  0.129300  0.681200  1.0  0.5295
  C  C65  1  0.260100  0.118100  0.612500  1.0  0.5703
  C  C66  1  0.525700  0.836000  0.719100  1.0  0.5362
  C  C67  1  0.547400  0.919300  0.763600  1.0  0.5506
  C  C68  1  0.751900  0.169600  0.661900  1.0  0.5303
  C  C69  1  0.801900  0.083900  0.650200  1.0  0.577
  C  C70  1  0.544300  0.052000  0.498900  1.0  0.5455
  C  C71  1  0.509600  0.500900  0.535100  1.0  0.5757
  C  C72  1  0.146800  0.290200  0.458400  1.0  -0.5263
  C  C73  1  0.978200  0.133400  0.453400  1.0  -0.2471
  C  C74  1  0.228100  0.152600  0.439800  1.0  -0.2512
  C  C75  1  0.781600  0.629300  0.818800  1.0  0.5309
  C  C76  1  0.760100  0.618100  0.887500  1.0  0.5708
  C  C77  1  0.025700  0.336000  0.780900  1.0  0.5363
  C  C78  1  0.047400  0.419300  0.736400  1.0  0.5521
  C  C79  1  0.251900  0.669600  0.838100  1.0  0.5297
  C  C80  1  0.301900  0.583900  0.849800  1.0  0.5767
  C  C81  1  0.044300  0.552000  0.001100  1.0  0.5454
  C  C82  1  0.009600  0.000900  0.964900  1.0  0.5751
  C  C83  1  0.646800  0.790200  0.041600  1.0  -0.5292
  C  C84  1  0.478200  0.633400  0.046600  1.0  -0.2477
  C  C85  1  0.728100  0.652600  0.060200  1.0  -0.2511
  C  C86  1  0.718400  0.870700  0.318800  1.0  0.5308
  C  C87  1  0.739900  0.881900  0.387500  1.0  0.5697
  C  C88  1  0.474300  0.164000  0.280900  1.0  0.5354
  C  C89  1  0.452600  0.080700  0.236400  1.0  0.5525
  C  C90  1  0.248100  0.830400  0.338100  1.0  0.5312
  C  C91  1  0.198100  0.916100  0.349800  1.0  0.5773
  C  C92  1  0.455700  0.948000  0.501100  1.0  0.5455
  C  C93  1  0.490400  0.499100  0.464900  1.0  0.5753
  C  C94  1  0.853200  0.709800  0.541600  1.0  -0.5256
  C  C95  1  0.021800  0.866600  0.546600  1.0  -0.2473
  C  C96  1  0.771900  0.847400  0.560200  1.0  -0.2509
  N  N97  1  0.378900  0.310500  0.970200  1.0  0.2148
  N  N98  1  0.121100  0.189500  0.470200  1.0  0.215
  N  N99  1  0.621100  0.689500  0.029800  1.0  0.215
  N  N100  1  0.878900  0.810500  0.529800  1.0  0.2146
  O  O101  1  0.278700  0.320500  0.208400  1.0  -0.5056
  O  O102  1  0.141900  0.414400  0.203900  1.0  -0.4736
  O  O103  1  0.186000  0.435300  0.086600  1.0  -0.5473
  O  O104  1  0.313400  0.335100  0.090300  1.0  -0.5774
  O  O105  1  0.951800  0.736600  0.238500  1.0  -0.4896
  O  O106  1  0.010800  0.650700  0.167100  1.0  -0.5072
  O  O107  1  0.920000  0.595900  0.317000  1.0  -0.5136
  O  O108  1  0.970100  0.507600  0.244400  1.0  -0.4537
  O  O109  1  0.567300  0.400800  0.152400  1.0  -0.5303
  O  O110  1  0.786900  0.491100  0.139600  1.0  -0.5189
  O  O111  1  0.656800  0.252800  0.167300  1.0  -0.4858
  O  O112  1  0.877900  0.345000  0.165900  1.0  -0.4755
  O  O113  1  0.917900  0.409100  0.048000  1.0  -0.4924
  O  O114  1  0.929500  0.411900  0.947200  1.0  -0.5438
  O  O115  1  0.066900  0.963000  0.064400  1.0  -0.5919
  O  O116  1  0.904400  0.035600  0.054900  1.0  -0.5857
  O  O117  1  0.356600  0.056200  0.016000  1.0  -0.958
  O  O118  1  0.588700  0.160900  0.979900  1.0  -0.9591
  O  O119  1  0.468400  0.210400  0.065700  1.0  -0.8761
  O  O120  1  0.221300  0.179500  0.708400  1.0  -0.5102
  O  O121  1  0.358100  0.085600  0.703900  1.0  -0.476
  O  O122  1  0.314000  0.064700  0.586600  1.0  -0.551
  O  O123  1  0.186600  0.164900  0.590300  1.0  -0.5777
  O  O124  1  0.548200  0.763400  0.738500  1.0  -0.4926
  O  O125  1  0.489200  0.849300  0.667100  1.0  -0.5029
  O  O126  1  0.580000  0.904100  0.817000  1.0  -0.5126
  O  O127  1  0.529900  0.992400  0.744400  1.0  -0.4521
  O  O128  1  0.932700  0.099200  0.652400  1.0  -0.5303
  O  O129  1  0.713100  0.008900  0.639600  1.0  -0.5199
  O  O130  1  0.843200  0.247200  0.667300  1.0  -0.4855
  O  O131  1  0.622100  0.155000  0.665900  1.0  -0.4653
  O  O132  1  0.582100  0.090900  0.548000  1.0  -0.4939
  O  O133  1  0.570500  0.088100  0.447200  1.0  -0.5435
  O  O134  1  0.433100  0.537000  0.564400  1.0  -0.5924
  O  O135  1  0.595600  0.464400  0.554900  1.0  -0.5856
  O  O136  1  0.143400  0.443800  0.516000  1.0  -0.9583
  O  O137  1  0.911300  0.339100  0.479900  1.0  -0.9612
  O  O138  1  0.031600  0.289600  0.565700  1.0  -0.8745
  O  O139  1  0.721300  0.679500  0.791600  1.0  -0.5054
  O  O140  1  0.858100  0.585600  0.796100  1.0  -0.4767
  O  O141  1  0.814000  0.564700  0.913400  1.0  -0.5512
  O  O142  1  0.686600  0.664900  0.909700  1.0  -0.5781
  O  O143  1  0.048200  0.263400  0.761500  1.0  -0.4911
  O  O144  1  0.989200  0.349300  0.832900  1.0  -0.5036
  O  O145  1  0.080000  0.404100  0.683000  1.0  -0.5083
  O  O146  1  0.029900  0.492400  0.755600  1.0  -0.4522
  O  O147  1  0.432700  0.599200  0.847600  1.0  -0.5309
  O  O148  1  0.213100  0.508900  0.860400  1.0  -0.519
  O  O149  1  0.343200  0.747200  0.832700  1.0  -0.4881
  O  O150  1  0.122100  0.655000  0.834100  1.0  -0.4665
  O  O151  1  0.082100  0.590900  0.952000  1.0  -0.4948
  O  O152  1  0.070500  0.588100  0.052800  1.0  -0.5424
  O  O153  1  0.933100  0.037000  0.935600  1.0  -0.5902
  O  O154  1  0.095600  0.964400  0.945100  1.0  -0.5843
  O  O155  1  0.643400  0.943800  0.984000  1.0  -0.96
  O  O156  1  0.411300  0.839100  0.020100  1.0  -0.9605
  O  O157  1  0.531600  0.789600  0.934300  1.0  -0.875
  O  O158  1  0.778700  0.820500  0.291600  1.0  -0.5017
  O  O159  1  0.641900  0.914400  0.296100  1.0  -0.4738
  O  O160  1  0.686000  0.935300  0.413400  1.0  -0.5476
  O  O161  1  0.813400  0.835100  0.409700  1.0  -0.5779
  O  O162  1  0.451800  0.236600  0.261500  1.0  -0.4886
  O  O163  1  0.510800  0.150700  0.332900  1.0  -0.5063
  O  O164  1  0.420000  0.095900  0.183000  1.0  -0.5102
  O  O165  1  0.470100  0.007600  0.255600  1.0  -0.452
  O  O166  1  0.067300  0.900800  0.347600  1.0  -0.5295
  O  O167  1  0.286900  0.991100  0.360400  1.0  -0.5186
  O  O168  1  0.156800  0.752800  0.332700  1.0  -0.4879
  O  O169  1  0.377900  0.845000  0.334100  1.0  -0.4788
  O  O170  1  0.417900  0.909100  0.452000  1.0  -0.4938
  O  O171  1  0.429500  0.911900  0.552800  1.0  -0.5411
  O  O172  1  0.566900  0.463000  0.435600  1.0  -0.5888
  O  O173  1  0.404400  0.535600  0.445100  1.0  -0.5835
  O  O174  1  0.856600  0.556200  0.484000  1.0  -0.9594
  O  O175  1  0.088700  0.660900  0.520100  1.0  -0.9587
  O  O176  1  0.968400  0.710400  0.434300  1.0  -0.8761
