# generated using pymatgen
data_HoC2O4F
_symmetry_space_group_name_H-M   'P 1'
_cell_length_a   8.16500000
_cell_length_b   8.21500000
_cell_length_c   8.21500000
_cell_angle_alpha   94.18310000
_cell_angle_beta   117.65300000
_cell_angle_gamma   62.34720000
_symmetry_Int_Tables_number   1
_chemical_formula_structural   HoC2O4F
_chemical_formula_sum   'Ho2 C4 O8 F2'
_cell_volume   425.14715147
_cell_formula_units_Z   2
loop_
 _symmetry_equiv_pos_site_id
 _symmetry_equiv_pos_as_xyz
  1  'x, y, z'
loop_
 _atom_site_type_symbol
 _atom_site_label
 _atom_site_symmetry_multiplicity
 _atom_site_fract_x
 _atom_site_fract_y
 _atom_site_fract_z
 _atom_site_occupancy
 _atom_site_charge
  Ho  Ho1  1  0.750000  0.066490  0.066490  1.0  2.1956
  Ho  Ho2  1  0.250000  0.933510  0.933510  1.0  2.1971
  C  C3  1  0.943580  0.949030  0.506950  1.0  0.5633
  C  C4  1  0.556420  0.506950  0.949030  1.0  0.5626
  C  C5  1  0.056420  0.050970  0.493050  1.0  0.5632
  C  C6  1  0.443580  0.493050  0.050970  1.0  0.5626
  O  O7  1  0.802700  0.945580  0.356300  1.0  -0.6439
  O  O8  1  0.996930  0.121410  0.332730  1.0  -0.623
  O  O9  1  0.697300  0.356300  0.945580  1.0  -0.6443
  O  O10  1  0.503070  0.332730  0.121410  1.0  -0.6228
  O  O11  1  0.197300  0.054420  0.643700  1.0  -0.6489
  O  O12  1  0.003070  0.878590  0.667270  1.0  -0.6229
  O  O13  1  0.302700  0.643700  0.054420  1.0  -0.6481
  O  O14  1  0.496930  0.667270  0.878590  1.0  -0.6213
  F  F15  1  0.000000  0.000000  0.000000  1.0  -0.7846
  F  F16  1  0.500000  0.000000  0.000000  1.0  -0.7846
