# generated using pymatgen
data_Sc2P2O8F
_symmetry_space_group_name_H-M   'P 1'
_cell_length_a   10.28260000
_cell_length_b   12.69770000
_cell_length_c   17.86400000
_cell_angle_alpha   90.00000000
_cell_angle_beta   102.76100000
_cell_angle_gamma   90.00000000
_symmetry_Int_Tables_number   1
_chemical_formula_structural   Sc2P2O8F
_chemical_formula_sum   'Sc16 P16 O64 F8'
_cell_volume   2274.80884234
_cell_formula_units_Z   8
loop_
 _symmetry_equiv_pos_site_id
 _symmetry_equiv_pos_as_xyz
  1  'x, y, z'
loop_
 _atom_site_type_symbol
 _atom_site_label
 _atom_site_symmetry_multiplicity
 _atom_site_fract_x
 _atom_site_fract_y
 _atom_site_fract_z
 _atom_site_occupancy
 _atom_site_charge
  Sc  Sc1  1  0.439630  0.021450  0.127480  1.0  1.9907
  Sc  Sc2  1  0.246020  0.069200  0.279050  1.0  1.9755
  Sc  Sc3  1  0.968950  0.886390  0.208110  1.0  2.0137
  Sc  Sc4  1  0.865510  0.146710  0.423160  1.0  1.9344
  Sc  Sc5  1  0.060370  0.521450  0.372520  1.0  1.9917
  Sc  Sc6  1  0.253980  0.569200  0.220950  1.0  1.9737
  Sc  Sc7  1  0.531050  0.386390  0.291890  1.0  2.0123
  Sc  Sc8  1  0.634490  0.646710  0.076840  1.0  1.932
  Sc  Sc9  1  0.560370  0.978550  0.872520  1.0  1.991
  Sc  Sc10  1  0.753980  0.930800  0.720950  1.0  1.9736
  Sc  Sc11  1  0.031050  0.113610  0.791890  1.0  2.0141
  Sc  Sc12  1  0.134490  0.853290  0.576840  1.0  1.9313
  Sc  Sc13  1  0.939630  0.478550  0.627480  1.0  1.9897
  Sc  Sc14  1  0.746020  0.430800  0.779050  1.0  1.9756
  Sc  Sc15  1  0.468950  0.613610  0.708110  1.0  2.0147
  Sc  Sc16  1  0.365510  0.353290  0.923160  1.0  1.9339
  P  P17  1  0.700510  0.911300  0.057890  1.0  1.6998
  P  P18  1  0.564650  0.117910  0.307340  1.0  1.6443
  P  P19  1  0.222800  0.338510  0.299170  1.0  1.7022
  P  P20  1  0.080210  0.953500  0.392620  1.0  1.6706
  P  P21  1  0.799490  0.411300  0.442110  1.0  1.7003
  P  P22  1  0.935350  0.617910  0.192660  1.0  1.643
  P  P23  1  0.277200  0.838510  0.200830  1.0  1.7029
  P  P24  1  0.419790  0.453500  0.107380  1.0  1.6715
  P  P25  1  0.299490  0.088700  0.942110  1.0  1.7006
  P  P26  1  0.435350  0.882090  0.692660  1.0  1.6434
  P  P27  1  0.777200  0.661490  0.700830  1.0  1.7033
  P  P28  1  0.919790  0.046500  0.607380  1.0  1.6717
  P  P29  1  0.200510  0.588700  0.557890  1.0  1.7003
  P  P30  1  0.064650  0.382090  0.807340  1.0  1.6444
  P  P31  1  0.722800  0.161490  0.799170  1.0  1.7026
  P  P32  1  0.580210  0.546500  0.892620  1.0  1.6709
  O  O33  1  0.679900  0.972000  0.982160  1.0  -0.8563
  O  O34  1  0.844400  0.923900  0.104140  1.0  -0.8459
  O  O35  1  0.603500  0.950900  0.105430  1.0  -0.8815
  O  O36  1  0.673900  0.793990  0.039450  1.0  -0.8893
  O  O37  1  0.586200  0.232480  0.284530  1.0  -0.8807
  O  O38  1  0.559400  0.046180  0.237860  1.0  -0.8905
  O  O39  1  0.683800  0.087440  0.372120  1.0  -0.812
  O  O40  1  0.435600  0.107400  0.336700  1.0  -0.7961
  O  O41  1  0.371100  0.343100  0.337950  1.0  -0.8024
  O  O42  1  0.137300  0.372530  0.356100  1.0  -0.7981
  O  O43  1  0.181700  0.225450  0.273460  1.0  -0.8502
  O  O44  1  0.193800  0.412970  0.229710  1.0  -0.8081
  O  O45  1  0.054100  0.873070  0.327170  1.0  -0.8213
  O  O46  1  0.183300  0.037070  0.379740  1.0  -0.7994
  O  O47  1  0.948600  0.010140  0.393750  1.0  -0.8585
  O  O48  1  0.133300  0.898700  0.468870  1.0  -0.8389
  O  O49  1  0.820100  0.472000  0.517840  1.0  -0.8576
  O  O50  1  0.655600  0.423900  0.395860  1.0  -0.8466
  O  O51  1  0.896500  0.450900  0.394570  1.0  -0.8808
  O  O52  1  0.826100  0.293990  0.460550  1.0  -0.8885
  O  O53  1  0.913800  0.732480  0.215470  1.0  -0.8814
  O  O54  1  0.940600  0.546180  0.262140  1.0  -0.889
  O  O55  1  0.816200  0.587440  0.127880  1.0  -0.8113
  O  O56  1  0.064400  0.607400  0.163300  1.0  -0.7981
  O  O57  1  0.128900  0.843100  0.162050  1.0  -0.8033
  O  O58  1  0.362700  0.872530  0.143900  1.0  -0.7974
  O  O59  1  0.318300  0.725450  0.226540  1.0  -0.8515
  O  O60  1  0.306200  0.912970  0.270290  1.0  -0.8078
  O  O61  1  0.445900  0.373070  0.172830  1.0  -0.8208
  O  O62  1  0.316700  0.537070  0.120260  1.0  -0.7999
  O  O63  1  0.551400  0.510140  0.106250  1.0  -0.8579
  O  O64  1  0.366700  0.398700  0.031130  1.0  -0.8393
  O  O65  1  0.320100  0.028000  0.017840  1.0  -0.858
  O  O66  1  0.155600  0.076100  0.895860  1.0  -0.845
  O  O67  1  0.396500  0.049100  0.894570  1.0  -0.8811
  O  O68  1  0.326100  0.206010  0.960550  1.0  -0.8886
  O  O69  1  0.413800  0.767520  0.715470  1.0  -0.8828
  O  O70  1  0.440600  0.953820  0.762140  1.0  -0.889
  O  O71  1  0.316200  0.912560  0.627880  1.0  -0.8128
  O  O72  1  0.564400  0.892600  0.663300  1.0  -0.7984
  O  O73  1  0.628900  0.656900  0.662050  1.0  -0.8032
  O  O74  1  0.862700  0.627470  0.643900  1.0  -0.797
  O  O75  1  0.818300  0.774550  0.726540  1.0  -0.8519
  O  O76  1  0.806200  0.587030  0.770290  1.0  -0.8089
  O  O77  1  0.945900  0.126930  0.672830  1.0  -0.8201
  O  O78  1  0.816700  0.962930  0.620260  1.0  -0.8002
  O  O79  1  0.051400  0.989860  0.606250  1.0  -0.8581
  O  O80  1  0.866700  0.101300  0.531130  1.0  -0.8393
  O  O81  1  0.179900  0.528000  0.482160  1.0  -0.8549
  O  O82  1  0.344400  0.576100  0.604140  1.0  -0.8468
  O  O83  1  0.103500  0.549100  0.605430  1.0  -0.8815
  O  O84  1  0.173900  0.706010  0.539450  1.0  -0.8889
  O  O85  1  0.086200  0.267520  0.784530  1.0  -0.8797
  O  O86  1  0.059400  0.453820  0.737860  1.0  -0.8901
  O  O87  1  0.183800  0.412560  0.872120  1.0  -0.8127
  O  O88  1  0.935600  0.392600  0.836700  1.0  -0.7962
  O  O89  1  0.871100  0.156900  0.837950  1.0  -0.8021
  O  O90  1  0.637300  0.127470  0.856100  1.0  -0.7967
  O  O91  1  0.681700  0.274550  0.773460  1.0  -0.8508
  O  O92  1  0.693800  0.087030  0.729710  1.0  -0.8089
  O  O93  1  0.554100  0.626930  0.827170  1.0  -0.8205
  O  O94  1  0.683300  0.462930  0.879740  1.0  -0.8003
  O  O95  1  0.448600  0.489860  0.893750  1.0  -0.8583
  O  O96  1  0.633300  0.601300  0.968870  1.0  -0.8391
  F  F97  1  0.289600  0.085790  0.173190  1.0  -0.6187
  F  F98  1  0.053300  0.033850  0.220520  1.0  -0.5815
  F  F99  1  0.210400  0.585790  0.326810  1.0  -0.6178
  F  F100  1  0.446700  0.533850  0.279480  1.0  -0.5801
  F  F101  1  0.710400  0.914210  0.826810  1.0  -0.619
  F  F102  1  0.946700  0.966150  0.779480  1.0  -0.5796
  F  F103  1  0.789600  0.414210  0.673190  1.0  -0.6206
  F  F104  1  0.553300  0.466150  0.720520  1.0  -0.5796
