# generated using pymatgen
data_Ga5P4C2(O10F)2
_symmetry_space_group_name_H-M   'P 1'
_cell_length_a   8.12170000
_cell_length_b   8.96010000
_cell_length_c   10.46110000
_cell_angle_alpha   111.93000000
_cell_angle_beta   103.65500000
_cell_angle_gamma   101.90300000
_symmetry_Int_Tables_number   1
_chemical_formula_structural   Ga5P4C2(O10F)2
_chemical_formula_sum   'Ga5 P4 C2 O20 F2'
_cell_volume   648.58658843
_cell_formula_units_Z   1
loop_
 _symmetry_equiv_pos_site_id
 _symmetry_equiv_pos_as_xyz
  1  'x, y, z'
loop_
 _atom_site_type_symbol
 _atom_site_label
 _atom_site_symmetry_multiplicity
 _atom_site_fract_x
 _atom_site_fract_y
 _atom_site_fract_z
 _atom_site_occupancy
 _atom_site_charge
  Ga  Ga1  1  0.198590  0.351670  0.362960  1.0  1.619
  Ga  Ga2  1  0.723450  0.000930  0.446910  1.0  1.7289
  Ga  Ga3  1  0.801410  0.648330  0.637040  1.0  1.6199
  Ga  Ga4  1  0.276550  0.999070  0.553090  1.0  1.7317
  Ga  Ga5  1  0.000000  0.000000  0.000000  1.0  1.4457
  P  P6  1  0.450800  0.725700  0.483560  1.0  1.8767
  P  P7  1  0.990900  0.970200  0.291190  1.0  1.9273
  P  P8  1  0.549200  0.274300  0.516440  1.0  1.8565
  P  P9  1  0.009100  0.029800  0.708810  1.0  1.9301
  C  C10  1  0.930700  0.477800  0.425500  1.0  0.6195
  C  C11  1  0.069300  0.522200  0.574500  1.0  0.6184
  O  O12  1  0.968100  0.408600  0.313900  1.0  -0.5454
  O  O13  1  0.321600  0.557100  0.358300  1.0  -0.7664
  O  O14  1  0.790600  0.516500  0.429700  1.0  -0.5498
  O  O15  1  0.589800  0.705500  0.593500  1.0  -0.873
  O  O16  1  0.053100  0.161500  0.374400  1.0  -0.8688
  O  O17  1  0.806100  0.901100  0.300100  1.0  -0.8347
  O  O18  1  0.349700  0.825900  0.572000  1.0  -0.8734
  O  O19  1  0.528700  0.826700  0.408800  1.0  -0.9689
  O  O20  1  0.978200  0.899600  0.132100  1.0  -0.7917
  O  O21  1  0.120300  0.898900  0.366600  1.0  -0.8936
  O  O22  1  0.031900  0.591400  0.686100  1.0  -0.5455
  O  O23  1  0.678400  0.442900  0.641700  1.0  -0.7666
  O  O24  1  0.209400  0.483500  0.570300  1.0  -0.5519
  O  O25  1  0.410200  0.294500  0.406500  1.0  -0.8735
  O  O26  1  0.946900  0.838500  0.625600  1.0  -0.8687
  O  O27  1  0.193900  0.098900  0.699900  1.0  -0.8343
  O  O28  1  0.650300  0.174100  0.428000  1.0  -0.875
  O  O29  1  0.471300  0.173300  0.591200  1.0  -0.9707
  O  O30  1  0.021800  0.100400  0.867900  1.0  -0.7905
  O  O31  1  0.879700  0.101100  0.633400  1.0  -0.8931
  F  F32  1  0.144900  0.227000  0.158000  1.0  -0.522
  F  F33  1  0.855100  0.773000  0.842000  1.0  -0.5161
