# generated using pymatgen
data_SnH21C15NO4
_symmetry_space_group_name_H-M   'P 1'
_cell_length_a   9.57920000
_cell_length_b   14.13330000
_cell_length_c   22.71910000
_cell_angle_alpha   78.29650000
_cell_angle_beta   77.82970000
_cell_angle_gamma   70.19090000
_symmetry_Int_Tables_number   1
_chemical_formula_structural   SnH21C15NO4
_chemical_formula_sum   'Sn6 H126 C90 N6 O24'
_cell_volume   2799.77337975
_cell_formula_units_Z   6
loop_
 _symmetry_equiv_pos_site_id
 _symmetry_equiv_pos_as_xyz
  1  'x, y, z'
loop_
 _atom_site_type_symbol
 _atom_site_label
 _atom_site_symmetry_multiplicity
 _atom_site_fract_x
 _atom_site_fract_y
 _atom_site_fract_z
 _atom_site_occupancy
 _atom_site_charge
  Sn  Sn1  1  0.615140  0.865010  0.234170  1.0  1.3195
  Sn  Sn2  1  0.405010  0.247980  0.495180  1.0  1.3635
  Sn  Sn3  1  0.684050  0.187220  0.034400  1.0  1.3168
  Sn  Sn4  1  0.285680  0.365010  0.734170  1.0  1.3158
  Sn  Sn5  1  0.851830  0.747980  0.995180  1.0  1.3623
  Sn  Sn6  1  0.094330  0.687220  0.534400  1.0  1.3156
  H  H7  1  0.569200  0.015800  0.345200  1.0  0.0999
  H  H8  1  0.401600  0.311100  0.274100  1.0  0.1163
  H  H9  1  0.447800  0.258400  0.178400  1.0  0.116
  H  H10  1  0.834000  0.946300  0.200700  1.0  0.1442
  H  H11  1  0.816500  0.905000  0.143200  1.0  0.1504
  H  H12  1  0.979700  0.783500  0.238100  1.0  0.0707
  H  H13  1  0.955600  0.737800  0.183200  1.0  0.0711
  H  H14  1  0.104400  0.892200  0.164200  1.0  0.069
  H  H15  1  0.085500  0.841600  0.110600  1.0  0.0714
  H  H16  1  0.239300  0.680400  0.157800  1.0  0.0947
  H  H17  1  0.327400  0.761100  0.128700  1.0  0.092
  H  H18  1  0.275000  0.743600  0.200600  1.0  0.0997
  H  H19  1  0.417600  0.842600  0.329200  1.0  0.1422
  H  H20  1  0.403400  0.783000  0.279600  1.0  0.1614
  H  H21  1  0.264800  0.994800  0.281000  1.0  0.0616
  H  H22  1  0.248200  0.933200  0.232400  1.0  0.0699
  H  H23  1  0.142800  0.901500  0.359700  1.0  0.0646
  H  H24  1  0.130700  0.835900  0.312500  1.0  0.0592
  H  H25  1  0.974200  0.998200  0.263800  1.0  0.0896
  H  H26  1  0.899700  0.946200  0.326200  1.0  0.1046
  H  H27  1  0.960100  0.038900  0.326300  1.0  0.0917
  H  H28  1  0.782800  0.522200  0.992400  1.0  0.1032
  H  H29  1  0.533700  0.452000  0.153600  1.0  0.1172
  H  H30  1  0.546700  0.594300  0.185900  1.0  0.1235
  H  H31  1  0.515600  0.389400  0.434000  1.0  0.1521
  H  H32  1  0.652300  0.291100  0.449700  1.0  0.1608
  H  H33  1  0.485000  0.424500  0.537700  1.0  0.0877
  H  H34  1  0.638200  0.333900  0.545500  1.0  0.0685
  H  H35  1  0.621200  0.511300  0.454100  1.0  0.0722
  H  H36  1  0.773900  0.422700  0.465900  1.0  0.0668
  H  H37  1  0.727700  0.465500  0.568100  1.0  0.0932
  H  H38  1  0.765200  0.551900  0.515700  1.0  0.0849
  H  H39  1  0.595200  0.563600  0.547000  1.0  0.1077
  H  H40  1  0.172900  0.195700  0.552500  1.0  0.1701
  H  H41  1  0.302600  0.095400  0.534400  1.0  0.1519
  H  H42  1  0.245800  0.132300  0.434500  1.0  0.0548
  H  H43  1  0.124200  0.237800  0.448800  1.0  0.0582
  H  H44  1  0.092400  0.047200  0.503000  1.0  0.0626
  H  H45  1  0.968500  0.154900  0.511700  1.0  0.0661
  H  H46  1  0.065400  0.068400  0.402000  1.0  0.0987
  H  H47  1  0.901900  0.087700  0.441900  1.0  0.0915
  H  H48  1  0.955600  0.182000  0.405600  1.0  0.1006
  H  H49  1  0.870400  0.779700  0.421100  1.0  0.0969
  H  H50  1  0.890100  0.546800  0.338400  1.0  0.1094
  H  H51  1  0.051200  0.436500  0.401700  1.0  0.1203
  H  H52  1  0.908800  0.070900  0.090700  1.0  0.1507
  H  H53  1  0.775000  0.121500  0.140700  1.0  0.1461
  H  H54  1  0.847400  0.275600  0.113600  1.0  0.0654
  H  H55  1  0.988600  0.217500  0.068100  1.0  0.0696
  H  H56  1  0.082100  0.095200  0.153200  1.0  0.0745
  H  H57  1  0.942100  0.155000  0.198400  1.0  0.0743
  H  H58  1  0.027300  0.297300  0.178500  1.0  0.0949
  H  H59  1  0.168800  0.201200  0.193400  1.0  0.0962
  H  H60  1  0.153500  0.251500  0.124300  1.0  0.0999
  H  H61  1  0.499700  0.160900  0.973900  1.0  0.1563
  H  H62  1  0.565700  0.247800  0.934400  1.0  0.1585
  H  H63  1  0.391800  0.371500  0.986100  1.0  0.0615
  H  H64  1  0.345000  0.289900  0.039500  1.0  0.069
  H  H65  1  0.282000  0.321300  0.919300  1.0  0.0636
  H  H66  1  0.232700  0.241900  0.973500  1.0  0.0681
  H  H67  1  0.119500  0.457500  0.972100  1.0  0.102
  H  H68  1  0.027400  0.390900  0.958300  1.0  0.0994
  H  H69  1  0.067700  0.377000  0.025000  1.0  0.0921
  H  H70  1  0.069800  0.515800  0.845200  1.0  0.101
  H  H71  1  0.013200  0.811100  0.774100  1.0  0.1163
  H  H72  1  0.115400  0.758400  0.678400  1.0  0.1165
  H  H73  1  0.019000  0.446300  0.700700  1.0  0.1436
  H  H74  1  0.135300  0.405000  0.643200  1.0  0.149
  H  H75  1  0.998700  0.283500  0.738100  1.0  0.0728
  H  H76  1  0.123400  0.237800  0.683200  1.0  0.0694
  H  H77  1  0.839200  0.392200  0.664200  1.0  0.0699
  H  H78  1  0.962300  0.341600  0.610600  1.0  0.0691
  H  H79  1  0.922500  0.180400  0.657800  1.0  0.0953
  H  H80  1  0.782800  0.261100  0.628700  1.0  0.094
  H  H81  1  0.780800  0.243600  0.700600  1.0  0.1004
  H  H82  1  0.410600  0.342600  0.829200  1.0  0.1408
  H  H83  1  0.534000  0.283000  0.779600  1.0  0.1618
  H  H84  1  0.459400  0.494800  0.781000  1.0  0.0622
  H  H85  1  0.586200  0.433200  0.732400  1.0  0.0721
  H  H86  1  0.596000  0.401500  0.859700  1.0  0.0642
  H  H87  1  0.720900  0.335900  0.812500  1.0  0.0592
  H  H88  1  0.763800  0.498200  0.763800  1.0  0.0889
  H  H89  1  0.827900  0.446200  0.826200  1.0  0.1082
  H  H90  1  0.674700  0.538900  0.826300  1.0  0.0915
  H  H91  1  0.702600  0.022200  0.492400  1.0  0.1052
  H  H92  1  0.860700  0.952000  0.653600  1.0  0.1174
  H  H93  1  0.673100  0.094300  0.685900  1.0  0.1238
  H  H94  1  0.661000  0.889400  0.934000  1.0  0.1502
  H  H95  1  0.606900  0.791100  0.949700  1.0  0.1611
  H  H96  1  0.552800  0.924500  0.037700  1.0  0.0862
  H  H97  1  0.482400  0.833900  0.045500  1.0  0.0684
  H  H98  1  0.413400  0.011300  0.954100  1.0  0.0725
  H  H99  1  0.337500  0.922700  0.965900  1.0  0.0701
  H  H100  1  0.238700  0.965500  0.068100  1.0  0.0929
  H  H101  1  0.167200  0.051900  0.015700  1.0  0.0884
  H  H102  1  0.294200  0.063600  0.047000  1.0  0.108
  H  H103  1  0.078900  0.695700  0.052500  1.0  0.1699
  H  H104  1  0.067600  0.595400  0.034400  1.0  0.1539
  H  H105  1  0.187400  0.632300  0.934500  1.0  0.0536
  H  H106  1  0.189200  0.737800  0.948800  1.0  0.0579
  H  H107  1  0.357400  0.547200  0.003000  1.0  0.0662
  H  H108  1  0.364900  0.654900  0.011700  1.0  0.0635
  H  H109  1  0.464200  0.568400  0.902000  1.0  0.0982
  H  H110  1  0.568500  0.587700  0.941900  1.0  0.0915
  H  H111  1  0.456800  0.682000  0.905600  1.0  0.1017
  H  H112  1  0.928800  0.279700  0.921100  1.0  0.0962
  H  H113  1  0.224700  0.046800  0.838400  1.0  0.1088
  H  H114  1  0.110600  0.936500  0.901700  1.0  0.1203
  H  H115  1  0.929600  0.570900  0.590700  1.0  0.15
  H  H116  1  0.962800  0.621500  0.640700  1.0  0.1463
  H  H117  1  0.763400  0.775600  0.613600  1.0  0.0644
  H  H118  1  0.725800  0.717500  0.568100  1.0  0.0732
  H  H119  1  0.669500  0.595200  0.653200  1.0  0.0716
  H  H120  1  0.704500  0.655000  0.698400  1.0  0.0715
  H  H121  1  0.496900  0.797300  0.678500  1.0  0.0963
  H  H122  1  0.436600  0.701200  0.693400  1.0  0.0942
  H  H123  1  0.470700  0.751500  0.624300  1.0  0.1008
  H  H124  1  0.365500  0.660900  0.473900  1.0  0.1572
  H  H125  1  0.252100  0.747800  0.434400  1.0  0.1541
  H  H126  1  0.250600  0.871500  0.486100  1.0  0.0616
  H  H127  1  0.325600  0.789900  0.539500  1.0  0.0701
  H  H128  1  0.477400  0.821300  0.419300  1.0  0.0631
  H  H129  1  0.551900  0.741900  0.473500  1.0  0.0659
  H  H130  1  0.450900  0.957500  0.472100  1.0  0.1025
  H  H131  1  0.623400  0.890900  0.458300  1.0  0.1013
  H  H132  1  0.530300  0.877000  0.525000  1.0  0.0923
  C  C133  1  0.537200  0.065700  0.311700  1.0  0.1691
  C  C134  1  0.487400  0.167400  0.318200  1.0  -0.1309
  C  C135  1  0.443200  0.241200  0.269400  1.0  -0.0061
  C  C136  1  0.461500  0.209800  0.214000  1.0  -0.1045
  C  C137  1  0.499800  0.107600  0.210200  1.0  0.1046
  C  C138  1  0.504400  0.068600  0.154000  1.0  0.6107
  C  C139  1  0.470300  0.198300  0.380300  1.0  0.6428
  C  C140  1  0.823300  0.887100  0.187100  1.0  -0.6055
  C  C141  1  0.964400  0.799000  0.195000  1.0  -0.0313
  C  C142  1  0.100600  0.828600  0.153600  1.0  -0.0821
  C  C143  1  0.248600  0.746200  0.160800  1.0  -0.3192
  C  C144  1  0.409800  0.848600  0.285800  1.0  -0.6006
  C  C145  1  0.261900  0.928100  0.275100  1.0  -0.031
  C  C146  1  0.129500  0.904400  0.317200  1.0  -0.0727
  C  C147  1  0.977600  0.978400  0.307600  1.0  -0.3181
  C  C148  1  0.735100  0.536000  0.032200  1.0  0.1703
  C  C149  1  0.660100  0.471300  0.069100  1.0  -0.1697
  C  C150  1  0.587200  0.494100  0.127700  1.0  0.0092
  C  C151  1  0.594900  0.577800  0.146600  1.0  -0.0955
  C  C152  1  0.673000  0.638200  0.108400  1.0  0.1394
  C  C153  1  0.687100  0.730200  0.126600  1.0  0.5902
  C  C154  1  0.652400  0.378500  0.048700  1.0  0.6241
  C  C155  1  0.554200  0.335600  0.467200  1.0  -0.6067
  C  C156  1  0.582400  0.386800  0.515600  1.0  -0.0308
  C  C157  1  0.673800  0.460900  0.485700  1.0  -0.07
  C  C158  1  0.692100  0.515300  0.533300  1.0  -0.3275
  C  C159  1  0.249700  0.166800  0.518800  1.0  -0.5868
  C  C160  1  0.169100  0.166400  0.466600  1.0  -0.0241
  C  C161  1  0.050800  0.117200  0.482600  1.0  -0.0807
  C  C162  1  0.988000  0.113500  0.428300  1.0  -0.3177
  C  C163  1  0.910900  0.710000  0.416000  1.0  0.1729
  C  C164  1  0.868300  0.675900  0.371300  1.0  -0.1773
  C  C165  1  0.920800  0.572000  0.367600  1.0  0.0196
  C  C166  1  0.013800  0.507100  0.404700  1.0  -0.137
  C  C167  1  0.054400  0.546600  0.448400  1.0  0.1143
  C  C168  1  0.162700  0.480000  0.489800  1.0  0.6137
  C  C169  1  0.768700  0.747900  0.328100  1.0  0.6219
  C  C170  1  0.833600  0.136200  0.100400  1.0  -0.6112
  C  C171  1  0.919700  0.208200  0.106400  1.0  -0.045
  C  C172  1  0.010900  0.163100  0.159900  1.0  -0.0818
  C  C173  1  0.098200  0.234800  0.164400  1.0  -0.3138
  C  C174  1  0.522000  0.223500  0.975900  1.0  -0.576
  C  C175  1  0.375100  0.304200  0.995000  1.0  -0.0218
  C  C176  1  0.250500  0.308800  0.963800  1.0  -0.0756
  C  C177  1  0.103100  0.390800  0.981400  1.0  -0.3149
  C  C178  1  0.085400  0.565700  0.811700  1.0  0.1729
  C  C179  1  0.027000  0.667400  0.818200  1.0  -0.1315
  C  C180  1  0.046200  0.741200  0.769400  1.0  -0.0065
  C  C181  1  0.114700  0.709800  0.714000  1.0  -0.1068
  C  C182  1  0.182400  0.607600  0.710200  1.0  0.1039
  C  C183  1  0.273000  0.568600  0.654000  1.0  0.6077
  C  C184  1  0.951100  0.698300  0.880300  1.0  0.6422
  C  C185  1  0.102500  0.387100  0.687100  1.0  -0.614
  C  C186  1  0.041600  0.299000  0.695000  1.0  -0.03
  C  C187  1  0.917200  0.328600  0.653600  1.0  -0.0816
  C  C188  1  0.844400  0.246200  0.660800  1.0  -0.3182
  C  C189  1  0.455800  0.348600  0.785800  1.0  -0.6083
  C  C190  1  0.534900  0.428100  0.775100  1.0  -0.0276
  C  C191  1  0.648900  0.404400  0.817200  1.0  -0.0728
  C  C192  1  0.736400  0.478400  0.807600  1.0  -0.3167
  C  C193  1  0.696700  0.036000  0.532200  1.0  0.1693
  C  C194  1  0.799500  0.971300  0.569100  1.0  -0.1684
  C  C195  1  0.791000  0.994100  0.627700  1.0  0.0094
  C  C196  1  0.680700  0.077800  0.646600  1.0  -0.0925
  C  C197  1  0.580400  0.138200  0.608400  1.0  0.1391
  C  C198  1  0.456100  0.230200  0.626600  1.0  0.5889
  C  C199  1  0.920400  0.878500  0.548700  1.0  0.6252
  C  C200  1  0.643000  0.835600  0.967200  1.0  -0.6095
  C  C201  1  0.515200  0.886800  0.015600  1.0  -0.0313
  C  C202  1  0.379600  0.960900  0.985700  1.0  -0.0705
  C  C203  1  0.259300  0.015300  0.033300  1.0  -0.3292
  C  C204  1  0.064700  0.666800  0.018800  1.0  -0.5981
  C  C205  1  0.197900  0.666400  0.966600  1.0  -0.0212
  C  C206  1  0.349400  0.617200  0.982600  1.0  -0.0805
  C  C207  1  0.470200  0.613500  0.928300  1.0  -0.3192
  C  C208  1  0.963100  0.210000  0.916000  1.0  0.1781
  C  C209  1  0.084500  0.175900  0.871300  1.0  -0.1738
  C  C210  1  0.139600  0.072000  0.867600  1.0  0.0211
  C  C211  1  0.074400  0.007100  0.904700  1.0  -0.1342
  C  C212  1  0.950600  0.046600  0.948400  1.0  0.1146
  C  C213  1  0.867500  0.980000  0.989800  1.0  0.6087
  C  C214  1  0.155300  0.247900  0.828100  1.0  0.621
  C  C215  1  0.929800  0.636200  0.600400  1.0  -0.6015
  C  C216  1  0.765700  0.708200  0.606400  1.0  -0.0395
  C  C217  1  0.666100  0.663100  0.659900  1.0  -0.0832
  C  C218  1  0.502600  0.734800  0.664400  1.0  -0.3168
  C  C219  1  0.278600  0.723500  0.475900  1.0  -0.5784
  C  C220  1  0.325700  0.804200  0.495000  1.0  -0.0212
  C  C221  1  0.476900  0.808800  0.463800  1.0  -0.0747
  C  C222  1  0.524700  0.890800  0.481400  1.0  -0.3158
  N  N223  1  0.540800  0.036400  0.258400  1.0  -0.3343
  N  N224  1  0.741200  0.619100  0.052300  1.0  -0.3364
  N  N225  1  0.008100  0.646400  0.452000  1.0  -0.3375
  N  N226  1  0.164400  0.536400  0.758400  1.0  -0.3336
  N  N227  1  0.587400  0.119100  0.552300  1.0  -0.3364
  N  N228  1  0.893500  0.146400  0.952000  1.0  -0.3372
  O  O229  1  0.512400  0.976900  0.157900  1.0  -0.5246
  O  O230  1  0.502100  0.131900  0.104300  1.0  -0.5903
  O  O231  1  0.380500  0.282700  0.390900  1.0  -0.5845
  O  O232  1  0.541000  0.137400  0.421000  1.0  -0.5953
  O  O233  1  0.770400  0.776200  0.091600  1.0  -0.5182
  O  O234  1  0.617200  0.751100  0.179700  1.0  -0.5658
  O  O235  1  0.570100  0.331000  0.082400  1.0  -0.5772
  O  O236  1  0.736900  0.345900  0.001500  1.0  -0.5791
  O  O237  1  0.206800  0.521200  0.523600  1.0  -0.5366
  O  O238  1  0.202300  0.385700  0.487900  1.0  -0.5755
  O  O239  1  0.733900  0.711600  0.288800  1.0  -0.5812
  O  O240  1  0.721000  0.842500  0.330700  1.0  -0.6022
  O  O241  1  0.352800  0.476900  0.657900  1.0  -0.5251
  O  O242  1  0.261700  0.631900  0.604300  1.0  -0.5893
  O  O243  1  0.945900  0.782700  0.890900  1.0  -0.584
  O  O244  1  0.900600  0.637400  0.921000  1.0  -0.5948
  O  O245  1  0.361800  0.276200  0.591600  1.0  -0.5176
  O  O246  1  0.452000  0.251100  0.679700  1.0  -0.5616
  O  O247  1  0.016500  0.831000  0.582400  1.0  -0.5771
  O  O248  1  0.915700  0.845900  0.501500  1.0  -0.5785
  O  O249  1  0.748400  0.021200  0.023600  1.0  -0.5359
  O  O250  1  0.924100  0.885700  0.987900  1.0  -0.5748
  O  O251  1  0.265700  0.211600  0.788800  1.0  -0.5814
  O  O252  1  0.105800  0.342500  0.830700  1.0  -0.6028
