# generated using pymatgen
data_KU(CO2)7
_symmetry_space_group_name_H-M   'P 1'
_cell_length_a   12.06820000
_cell_length_b   12.06820000
_cell_length_c   14.61400000
_cell_angle_alpha   86.17390000
_cell_angle_beta   86.17390000
_cell_angle_gamma   64.28400000
_symmetry_Int_Tables_number   1
_chemical_formula_structural   KU(CO2)7
_chemical_formula_sum   'K4 U4 C28 O56'
_cell_volume   1911.63432472
_cell_formula_units_Z   4
loop_
 _symmetry_equiv_pos_site_id
 _symmetry_equiv_pos_as_xyz
  1  'x, y, z'
loop_
 _atom_site_type_symbol
 _atom_site_label
 _atom_site_symmetry_multiplicity
 _atom_site_fract_x
 _atom_site_fract_y
 _atom_site_fract_z
 _atom_site_occupancy
 _atom_site_charge
  K  K1  1  0.061280  0.061280  0.591000  1.0  0.9303
  K  K2  1  0.212280  0.212280  0.435000  1.0  0.9363
  K  K3  1  0.938720  0.938720  0.409000  1.0  0.9291
  K  K4  1  0.787720  0.787720  0.565000  1.0  0.9363
  U  U5  1  0.054180  0.556400  0.789040  1.0  2.5595
  U  U6  1  0.443600  0.945820  0.210960  1.0  2.5593
  U  U7  1  0.945820  0.443600  0.210960  1.0  2.5594
  U  U8  1  0.556400  0.054180  0.789040  1.0  2.5595
  C  C9  1  0.052300  0.515700  0.013900  1.0  0.5504
  C  C10  1  0.047600  0.385600  0.628400  1.0  0.5822
  C  C11  1  0.140700  0.435100  0.590600  1.0  0.5591
  C  C12  1  0.773500  0.054500  0.647100  1.0  0.6191
  C  C13  1  0.777400  0.133000  0.723900  1.0  0.5655
  C  C14  1  0.484300  0.947700  0.986100  1.0  0.5491
  C  C15  1  0.614400  0.952400  0.371600  1.0  0.5816
  C  C16  1  0.564900  0.859300  0.409400  1.0  0.5586
  C  C17  1  0.945500  0.226500  0.352900  1.0  0.6178
  C  C18  1  0.867000  0.222600  0.276100  1.0  0.5696
  C  C19  1  0.947700  0.484300  0.986100  1.0  0.5504
  C  C20  1  0.952400  0.614400  0.371600  1.0  0.5813
  C  C21  1  0.859300  0.564900  0.409400  1.0  0.5598
  C  C22  1  0.226500  0.945500  0.352900  1.0  0.6185
  C  C23  1  0.222600  0.867000  0.276100  1.0  0.5652
  C  C24  1  0.515700  0.052300  0.013900  1.0  0.549
  C  C25  1  0.385600  0.047600  0.628400  1.0  0.5823
  C  C26  1  0.435100  0.140700  0.590600  1.0  0.5584
  C  C27  1  0.054500  0.773500  0.647100  1.0  0.6191
  C  C28  1  0.133000  0.777400  0.723900  1.0  0.5707
  C  C29  1  0.346000  0.346000  0.813800  1.0  0.5439
  C  C30  1  0.270800  0.270800  0.826200  1.0  0.5593
  C  C31  1  0.654000  0.654000  0.186200  1.0  0.5399
  C  C32  1  0.729200  0.729200  0.173800  1.0  0.5608
  C  C33  1  0.811900  0.811900  0.851300  1.0  0.5781
  C  C34  1  0.758100  0.758100  0.784100  1.0  0.5609
  C  C35  1  0.188100  0.188100  0.148700  1.0  0.5781
  C  C36  1  0.241900  0.241900  0.215900  1.0  0.5622
  O  O37  1  0.853200  0.176600  0.717300  1.0  -0.4954
  O  O38  1  0.824800  0.057400  0.571700  1.0  -0.4965
  O  O39  1  0.175400  0.427000  0.508900  1.0  -0.5027
  O  O40  1  0.036900  0.303300  0.589100  1.0  -0.5146
  O  O41  1  0.286000  0.461000  0.809800  1.0  -0.5191
  O  O42  1  0.111300  0.543500  0.950200  1.0  -0.5472
  O  O43  1  0.069700  0.510100  0.097900  1.0  -0.5438
  O  O44  1  0.825600  0.652000  0.758800  1.0  -0.5264
  O  O45  1  0.156600  0.330200  0.830500  1.0  -0.5282
  O  O46  1  0.987800  0.437600  0.700100  1.0  -0.4989
  O  O47  1  0.698800  0.146600  0.789600  1.0  -0.485
  O  O48  1  0.174200  0.483000  0.652100  1.0  -0.5855
  O  O49  1  0.919200  0.745000  0.875300  1.0  -0.5769
  O  O50  1  0.713900  0.991300  0.669900  1.0  -0.666
  O  O51  1  0.823400  0.146800  0.282700  1.0  -0.4971
  O  O52  1  0.942600  0.175200  0.428300  1.0  -0.4985
  O  O53  1  0.573000  0.824600  0.491100  1.0  -0.504
  O  O54  1  0.696700  0.963100  0.410900  1.0  -0.5136
  O  O55  1  0.539000  0.714000  0.190200  1.0  -0.5265
  O  O56  1  0.456500  0.888700  0.049800  1.0  -0.5487
  O  O57  1  0.489900  0.930300  0.902100  1.0  -0.5467
  O  O58  1  0.348000  0.174400  0.241200  1.0  -0.5219
  O  O59  1  0.669800  0.843400  0.169500  1.0  -0.5363
  O  O60  1  0.562400  0.012200  0.299900  1.0  -0.4992
  O  O61  1  0.853400  0.301200  0.210400  1.0  -0.481
  O  O62  1  0.517000  0.825800  0.347900  1.0  -0.5822
  O  O63  1  0.255000  0.080800  0.124700  1.0  -0.5767
  O  O64  1  0.008700  0.286100  0.330100  1.0  -0.6705
  O  O65  1  0.146800  0.823400  0.282700  1.0  -0.496
  O  O66  1  0.175200  0.942600  0.428300  1.0  -0.4941
  O  O67  1  0.824600  0.573000  0.491100  1.0  -0.5039
  O  O68  1  0.963100  0.696700  0.410900  1.0  -0.5139
  O  O69  1  0.714000  0.539000  0.190200  1.0  -0.5198
  O  O70  1  0.888700  0.456500  0.049800  1.0  -0.5468
  O  O71  1  0.930300  0.489900  0.902100  1.0  -0.5442
  O  O72  1  0.174400  0.348000  0.241200  1.0  -0.5234
  O  O73  1  0.843400  0.669800  0.169500  1.0  -0.5296
  O  O74  1  0.012200  0.562400  0.299900  1.0  -0.4959
  O  O75  1  0.301200  0.853400  0.210400  1.0  -0.4859
  O  O76  1  0.825800  0.517000  0.347900  1.0  -0.5835
  O  O77  1  0.080800  0.255000  0.124700  1.0  -0.5742
  O  O78  1  0.286100  0.008700  0.330100  1.0  -0.6664
  O  O79  1  0.176600  0.853200  0.717300  1.0  -0.4978
  O  O80  1  0.057400  0.824800  0.571700  1.0  -0.5019
  O  O81  1  0.427000  0.175400  0.508900  1.0  -0.5037
  O  O82  1  0.303300  0.036900  0.589100  1.0  -0.5143
  O  O83  1  0.461000  0.286000  0.809800  1.0  -0.5189
  O  O84  1  0.543500  0.111300  0.950200  1.0  -0.5493
  O  O85  1  0.510100  0.069700  0.097900  1.0  -0.5456
  O  O86  1  0.652000  0.825600  0.758800  1.0  -0.5135
  O  O87  1  0.330200  0.156600  0.830500  1.0  -0.5343
  O  O88  1  0.437600  0.987800  0.700100  1.0  -0.5036
  O  O89  1  0.146600  0.698800  0.789600  1.0  -0.483
  O  O90  1  0.483000  0.174200  0.652100  1.0  -0.5849
  O  O91  1  0.745000  0.919200  0.875300  1.0  -0.5778
  O  O92  1  0.991300  0.713900  0.669900  1.0  -0.6654
