# generated using pymatgen
data_KU(CO2)7
_symmetry_space_group_name_H-M   'P 1'
_cell_length_a   12.06820000
_cell_length_b   12.06820000
_cell_length_c   14.61400000
_cell_angle_alpha   86.17390000
_cell_angle_beta   86.17390000
_cell_angle_gamma   64.28400000
_symmetry_Int_Tables_number   1
_chemical_formula_structural   KU(CO2)7
_chemical_formula_sum   'K4 U4 C28 O56'
_cell_volume   1911.63432472
_cell_formula_units_Z   4
loop_
 _symmetry_equiv_pos_site_id
 _symmetry_equiv_pos_as_xyz
  1  'x, y, z'
loop_
 _atom_site_type_symbol
 _atom_site_label
 _atom_site_symmetry_multiplicity
 _atom_site_fract_x
 _atom_site_fract_y
 _atom_site_fract_z
 _atom_site_occupancy
 _atom_site_charge
  K  K1  1  0.212320  0.212320  0.435040  1.0  0.9398
  K  K2  1  0.061320  0.061320  0.591040  1.0  0.9324
  K  K3  1  0.787680  0.787680  0.564960  1.0  0.9397
  K  K4  1  0.938680  0.938680  0.408960  1.0  0.9311
  U  U5  1  0.443620  0.945800  0.210960  1.0  2.5651
  U  U6  1  0.054200  0.556380  0.789040  1.0  2.5654
  U  U7  1  0.556380  0.054200  0.789040  1.0  2.5653
  U  U8  1  0.945800  0.443620  0.210960  1.0  2.5651
  C  C9  1  0.222700  0.866900  0.276100  1.0  0.5735
  C  C10  1  0.226200  0.945600  0.352500  1.0  0.6013
  C  C11  1  0.435300  0.140700  0.590500  1.0  0.5623
  C  C12  1  0.385600  0.047600  0.628300  1.0  0.5683
  C  C13  1  0.515900  0.052100  0.013900  1.0  0.5529
  C  C14  1  0.133100  0.777300  0.723900  1.0  0.5791
  C  C15  1  0.054400  0.773800  0.647500  1.0  0.6025
  C  C16  1  0.859300  0.564700  0.409500  1.0  0.5633
  C  C17  1  0.952400  0.614400  0.371700  1.0  0.5674
  C  C18  1  0.947900  0.484100  0.986100  1.0  0.5534
  C  C19  1  0.777300  0.133100  0.723900  1.0  0.5737
  C  C20  1  0.773800  0.054400  0.647500  1.0  0.6032
  C  C21  1  0.564700  0.859300  0.409500  1.0  0.5628
  C  C22  1  0.614400  0.952400  0.371700  1.0  0.5675
  C  C23  1  0.484100  0.947900  0.986100  1.0  0.5522
  C  C24  1  0.866900  0.222700  0.276100  1.0  0.578
  C  C25  1  0.945600  0.226200  0.352500  1.0  0.6005
  C  C26  1  0.140700  0.435300  0.590500  1.0  0.5629
  C  C27  1  0.047600  0.385600  0.628300  1.0  0.5681
  C  C28  1  0.052100  0.515900  0.013900  1.0  0.5543
  C  C29  1  0.188000  0.188000  0.148800  1.0  0.5804
  C  C30  1  0.242000  0.242000  0.215700  1.0  0.5574
  C  C31  1  0.812000  0.812000  0.851200  1.0  0.5813
  C  C32  1  0.758000  0.758000  0.784300  1.0  0.5556
  C  C33  1  0.654200  0.654200  0.186300  1.0  0.5437
  C  C34  1  0.729200  0.729200  0.174000  1.0  0.5638
  C  C35  1  0.345800  0.345800  0.813700  1.0  0.5479
  C  C36  1  0.270800  0.270800  0.826000  1.0  0.5621
  O  O37  1  0.301250  0.853250  0.210400  1.0  -0.4812
  O  O38  1  0.286200  0.008800  0.330000  1.0  -0.6638
  O  O39  1  0.175500  0.942500  0.428800  1.0  -0.499
  O  O40  1  0.146900  0.823500  0.282600  1.0  -0.5009
  O  O41  1  0.437950  0.987550  0.700200  1.0  -0.5006
  O  O42  1  0.483200  0.174400  0.652100  1.0  -0.5896
  O  O43  1  0.303200  0.036800  0.589200  1.0  -0.5114
  O  O44  1  0.426800  0.175600  0.508800  1.0  -0.5071
  O  O45  1  0.255000  0.081000  0.124700  1.0  -0.5728
  O  O46  1  0.347880  0.174280  0.241200  1.0  -0.5135
  O  O47  1  0.539120  0.713920  0.190100  1.0  -0.5227
  O  O48  1  0.669910  0.843510  0.169500  1.0  -0.5347
  O  O49  1  0.510310  0.069510  0.097900  1.0  -0.546
  O  O50  1  0.543880  0.110880  0.950300  1.0  -0.5486
  O  O51  1  0.146750  0.698750  0.789600  1.0  -0.4783
  O  O52  1  0.991200  0.713800  0.670000  1.0  -0.6638
  O  O53  1  0.057500  0.824500  0.571200  1.0  -0.507
  O  O54  1  0.176500  0.853100  0.717400  1.0  -0.5021
  O  O55  1  0.012450  0.562050  0.299800  1.0  -0.4918
  O  O56  1  0.825600  0.516800  0.347900  1.0  -0.5887
  O  O57  1  0.963200  0.696800  0.410800  1.0  -0.5106
  O  O58  1  0.824400  0.573200  0.491200  1.0  -0.5064
  O  O59  1  0.919000  0.745000  0.875300  1.0  -0.5736
  O  O60  1  0.825720  0.652120  0.758800  1.0  -0.5213
  O  O61  1  0.286080  0.460880  0.809900  1.0  -0.5238
  O  O62  1  0.156490  0.330090  0.830500  1.0  -0.5271
  O  O63  1  0.930490  0.489690  0.902100  1.0  -0.545
  O  O64  1  0.889120  0.456120  0.049700  1.0  -0.5458
  O  O65  1  0.698750  0.146750  0.789600  1.0  -0.4803
  O  O66  1  0.713800  0.991200  0.670000  1.0  -0.663
  O  O67  1  0.824500  0.057500  0.571200  1.0  -0.5014
  O  O68  1  0.853100  0.176500  0.717400  1.0  -0.4996
  O  O69  1  0.562050  0.012450  0.299800  1.0  -0.4942
  O  O70  1  0.516800  0.825600  0.347900  1.0  -0.5873
  O  O71  1  0.696800  0.963200  0.410800  1.0  -0.5106
  O  O72  1  0.573200  0.824400  0.491200  1.0  -0.5068
  O  O73  1  0.745000  0.919000  0.875300  1.0  -0.574
  O  O74  1  0.652120  0.825720  0.758800  1.0  -0.5119
  O  O75  1  0.460880  0.286080  0.809900  1.0  -0.5227
  O  O76  1  0.330090  0.156490  0.830500  1.0  -0.5331
  O  O77  1  0.489690  0.930490  0.902100  1.0  -0.5479
  O  O78  1  0.456120  0.889120  0.049700  1.0  -0.5478
  O  O79  1  0.853250  0.301250  0.210400  1.0  -0.4764
  O  O80  1  0.008800  0.286200  0.330000  1.0  -0.6649
  O  O81  1  0.942500  0.175500  0.428800  1.0  -0.5023
  O  O82  1  0.823500  0.146900  0.282600  1.0  -0.5019
  O  O83  1  0.987550  0.437950  0.700200  1.0  -0.4951
  O  O84  1  0.174400  0.483200  0.652100  1.0  -0.5901
  O  O85  1  0.036800  0.303200  0.589200  1.0  -0.5116
  O  O86  1  0.175600  0.426800  0.508800  1.0  -0.5063
  O  O87  1  0.081000  0.255000  0.124700  1.0  -0.5702
  O  O88  1  0.174280  0.347880  0.241200  1.0  -0.523
  O  O89  1  0.713920  0.539120  0.190100  1.0  -0.5246
  O  O90  1  0.843510  0.669910  0.169500  1.0  -0.5284
  O  O91  1  0.069510  0.510310  0.097900  1.0  -0.5446
  O  O92  1  0.110880  0.543880  0.950300  1.0  -0.5465
