# generated using pymatgen
data_V2CoH12C15N3O4
_symmetry_space_group_name_H-M   'P 1'
_cell_length_a   11.35400000
_cell_length_b   11.58360000
_cell_length_c   16.24700000
_cell_angle_alpha   105.46900000
_cell_angle_beta   110.45200000
_cell_angle_gamma   90.00000000
_symmetry_Int_Tables_number   1
_chemical_formula_structural   V2CoH12C15N3O4
_chemical_formula_sum   'V8 Co4 H48 C60 N12 O16'
_cell_volume   1919.28469555
_cell_formula_units_Z   4
loop_
 _symmetry_equiv_pos_site_id
 _symmetry_equiv_pos_as_xyz
  1  'x, y, z'
loop_
 _atom_site_type_symbol
 _atom_site_label
 _atom_site_symmetry_multiplicity
 _atom_site_fract_x
 _atom_site_fract_y
 _atom_site_fract_z
 _atom_site_occupancy
 _atom_site_charge
  V  V1  1  0.735120  0.939380  0.289620  1.0  1.1965
  V  V2  1  0.518460  0.681400  0.215220  1.0  1.1755
  V  V3  1  0.445500  0.560620  0.710380  1.0  1.1969
  V  V4  1  0.303240  0.818600  0.784780  1.0  1.1826
  V  V5  1  0.264880  0.060620  0.710380  1.0  1.1966
  V  V6  1  0.481540  0.318600  0.784780  1.0  1.1801
  V  V7  1  0.554500  0.439380  0.289620  1.0  1.2016
  V  V8  1  0.696760  0.181400  0.215220  1.0  1.1822
  Co  Co9  1  0.000000  0.000000  0.500000  1.0  0.7338
  Co  Co10  1  0.500000  0.500000  0.500000  1.0  0.7338
  Co  Co11  1  0.500000  0.000000  0.000000  1.0  0.9222
  Co  Co12  1  0.500000  0.500000  0.000000  1.0  0.9222
  H  H13  1  0.186500  0.864800  0.416200  1.0  0.0561
  H  H14  1  0.280400  0.861300  0.311200  1.0  0.1044
  H  H15  1  0.098600  0.145800  0.257200  1.0  0.1077
  H  H16  1  0.006200  0.136700  0.360600  1.0  0.0526
  H  H17  1  0.186200  0.806500  0.554200  1.0  0.0643
  H  H18  1  0.187700  0.614800  0.568400  1.0  0.1016
  H  H19  1  0.820600  0.555100  0.409800  1.0  0.0893
  H  H20  1  0.829800  0.748000  0.399000  1.0  0.0686
  H  H21  1  0.390500  0.180600  0.126600  1.0  0.065
  H  H22  1  0.287100  0.187700  0.226600  1.0  0.11
  H  H23  1  0.264500  0.826900  0.158800  1.0  0.1086
  H  H24  1  0.374400  0.831600  0.065200  1.0  0.0611
  H  H25  1  0.770300  0.635200  0.583800  1.0  0.0557
  H  H26  1  0.969200  0.638700  0.688800  1.0  0.1055
  H  H27  1  0.841400  0.354200  0.742800  1.0  0.1084
  H  H28  1  0.645600  0.363300  0.639400  1.0  0.0533
  H  H29  1  0.632000  0.693500  0.445800  1.0  0.0625
  H  H30  1  0.619300  0.885200  0.431600  1.0  0.1028
  H  H31  1  0.410800  0.944900  0.590200  1.0  0.0895
  H  H32  1  0.430800  0.752000  0.601000  1.0  0.0688
  H  H33  1  0.263900  0.319400  0.873400  1.0  0.0665
  H  H34  1  0.060500  0.312300  0.773400  1.0  0.1106
  H  H35  1  0.105700  0.673100  0.841200  1.0  0.1097
  H  H36  1  0.309200  0.668400  0.934800  1.0  0.0613
  H  H37  1  0.813500  0.135200  0.583800  1.0  0.0561
  H  H38  1  0.719600  0.138700  0.688800  1.0  0.1055
  H  H39  1  0.901400  0.854200  0.742800  1.0  0.1091
  H  H40  1  0.993800  0.863300  0.639400  1.0  0.0529
  H  H41  1  0.813800  0.193500  0.445800  1.0  0.064
  H  H42  1  0.812300  0.385200  0.431600  1.0  0.1013
  H  H43  1  0.179400  0.444900  0.590200  1.0  0.0882
  H  H44  1  0.170200  0.252000  0.601000  1.0  0.0689
  H  H45  1  0.609500  0.819400  0.873400  1.0  0.0654
  H  H46  1  0.712900  0.812300  0.773400  1.0  0.1103
  H  H47  1  0.735500  0.173100  0.841200  1.0  0.1094
  H  H48  1  0.625600  0.168400  0.934800  1.0  0.0617
  H  H49  1  0.229700  0.364800  0.416200  1.0  0.0559
  H  H50  1  0.030800  0.361300  0.311200  1.0  0.1056
  H  H51  1  0.158600  0.645800  0.257200  1.0  0.1098
  H  H52  1  0.354400  0.636700  0.360600  1.0  0.0523
  H  H53  1  0.368000  0.306500  0.554200  1.0  0.0629
  H  H54  1  0.380700  0.114800  0.568400  1.0  0.1027
  H  H55  1  0.589200  0.055100  0.409800  1.0  0.0894
  H  H56  1  0.569200  0.248000  0.399000  1.0  0.0696
  H  H57  1  0.736100  0.680600  0.126600  1.0  0.066
  H  H58  1  0.939500  0.687700  0.226600  1.0  0.1108
  H  H59  1  0.894300  0.326900  0.158800  1.0  0.1097
  H  H60  1  0.690800  0.331600  0.065200  1.0  0.0614
  C  C61  1  0.168520  0.921600  0.383640  1.0  0.1708
  C  C62  1  0.226320  0.919400  0.320840  1.0  -0.2079
  C  C63  1  0.202580  0.005200  0.272160  1.0  0.0996
  C  C64  1  0.118100  0.087500  0.288400  1.0  -0.2001
  C  C65  1  0.063320  0.081800  0.351440  1.0  0.1712
  C  C66  1  0.111030  0.755900  0.525660  1.0  0.144
  C  C67  1  0.112870  0.640000  0.534940  1.0  -0.2099
  C  C68  1  0.001810  0.561600  0.493820  1.0  0.0633
  C  C69  1  0.896090  0.604900  0.441180  1.0  -0.1986
  C  C70  1  0.902250  0.722000  0.434900  1.0  0.1576
  C  C71  1  0.365540  0.108600  0.133880  1.0  0.1563
  C  C72  1  0.303130  0.113900  0.194460  1.0  -0.2201
  C  C73  1  0.264900  0.007100  0.206200  1.0  0.0776
  C  C74  1  0.290710  0.900500  0.154620  1.0  -0.2209
  C  C75  1  0.355260  0.903900  0.097120  1.0  0.1614
  C  C76  1  0.784880  0.578400  0.616360  1.0  0.1679
  C  C77  1  0.905480  0.580600  0.679160  1.0  -0.2089
  C  C78  1  0.930420  0.494800  0.727840  1.0  0.1012
  C  C79  1  0.829700  0.412500  0.711600  1.0  -0.1988
  C  C80  1  0.711880  0.418200  0.648560  1.0  0.173
  C  C81  1  0.585370  0.744100  0.474340  1.0  0.1434
  C  C82  1  0.577930  0.860000  0.465060  1.0  -0.2082
  C  C83  1  0.507990  0.938400  0.506180  1.0  0.0634
  C  C84  1  0.454910  0.895100  0.558820  1.0  -0.1968
  C  C85  1  0.467350  0.778000  0.565100  1.0  0.1563
  C  C86  1  0.231660  0.391400  0.866120  1.0  0.1555
  C  C87  1  0.108670  0.386100  0.805540  1.0  -0.2208
  C  C88  1  0.058700  0.492900  0.793800  1.0  0.0821
  C  C89  1  0.136090  0.599500  0.845380  1.0  -0.2247
  C  C90  1  0.258140  0.596100  0.902880  1.0  0.1603
  C  C91  1  0.831480  0.078400  0.616360  1.0  0.1689
  C  C92  1  0.773680  0.080600  0.679160  1.0  -0.2065
  C  C93  1  0.797420  0.994800  0.727840  1.0  0.1
  C  C94  1  0.881900  0.912500  0.711600  1.0  -0.2
  C  C95  1  0.936680  0.918200  0.648560  1.0  0.1713
  C  C96  1  0.888970  0.244100  0.474340  1.0  0.1447
  C  C97  1  0.887130  0.360000  0.465060  1.0  -0.2082
  C  C98  1  0.998190  0.438400  0.506180  1.0  0.0634
  C  C99  1  0.103910  0.395100  0.558820  1.0  -0.1985
  C  C100  1  0.097750  0.278000  0.565100  1.0  0.1582
  C  C101  1  0.634460  0.891400  0.866120  1.0  0.1566
  C  C102  1  0.696870  0.886100  0.805540  1.0  -0.2203
  C  C103  1  0.735100  0.992900  0.793800  1.0  0.0785
  C  C104  1  0.709290  0.099500  0.845380  1.0  -0.2229
  C  C105  1  0.644740  0.096100  0.902880  1.0  0.1592
  C  C106  1  0.215120  0.421600  0.383640  1.0  0.1702
  C  C107  1  0.094520  0.419400  0.320840  1.0  -0.2081
  C  C108  1  0.069580  0.505200  0.272160  1.0  0.0999
  C  C109  1  0.170300  0.587500  0.288400  1.0  -0.1969
  C  C110  1  0.288120  0.581800  0.351440  1.0  0.1716
  C  C111  1  0.414630  0.255900  0.525660  1.0  0.1438
  C  C112  1  0.422070  0.140000  0.534940  1.0  -0.2085
  C  C113  1  0.492010  0.061600  0.493820  1.0  0.0633
  C  C114  1  0.545090  0.104900  0.441180  1.0  -0.1974
  C  C115  1  0.532650  0.222000  0.434900  1.0  0.1576
  C  C116  1  0.768340  0.608600  0.133880  1.0  0.1549
  C  C117  1  0.891330  0.613900  0.194460  1.0  -0.2214
  C  C118  1  0.941300  0.507100  0.206200  1.0  0.0791
  C  C119  1  0.863910  0.400500  0.154620  1.0  -0.2236
  C  C120  1  0.741860  0.403900  0.097120  1.0  0.1608
  N  N121  1  0.087760  0.002000  0.399920  1.0  -0.3515
  N  N122  1  0.007650  0.799400  0.478100  1.0  -0.3402
  N  N123  1  0.391730  0.005900  0.085260  1.0  -0.3322
  N  N124  1  0.687840  0.498000  0.600080  1.0  -0.3532
  N  N125  1  0.529550  0.700600  0.521900  1.0  -0.3391
  N  N126  1  0.306470  0.494100  0.914740  1.0  -0.3255
  N  N127  1  0.912240  0.998000  0.600080  1.0  -0.3531
  N  N128  1  0.992350  0.200600  0.521900  1.0  -0.339
  N  N129  1  0.608270  0.994100  0.914740  1.0  -0.3295
  N  N130  1  0.312160  0.502000  0.399920  1.0  -0.3522
  N  N131  1  0.470450  0.299400  0.478100  1.0  -0.3402
  N  N132  1  0.693530  0.505900  0.085260  1.0  -0.3257
  O  O133  1  0.826910  0.972870  0.400620  1.0  -0.7869
  O  O134  1  0.614630  0.823500  0.266060  1.0  -0.7639
  O  O135  1  0.663970  0.071600  0.266740  1.0  -0.8058
  O  O136  1  0.621820  0.137100  0.101840  1.0  -0.7679
  O  O137  1  0.426290  0.527130  0.599380  1.0  -0.7881
  O  O138  1  0.348570  0.676500  0.733940  1.0  -0.7644
  O  O139  1  0.397230  0.428400  0.733260  1.0  -0.801
  O  O140  1  0.519980  0.362900  0.898160  1.0  -0.7691
  O  O141  1  0.173090  0.027130  0.599380  1.0  -0.7884
  O  O142  1  0.385370  0.176500  0.733940  1.0  -0.7639
  O  O143  1  0.336030  0.928400  0.733260  1.0  -0.8054
  O  O144  1  0.378180  0.862900  0.898160  1.0  -0.7689
  O  O145  1  0.573710  0.472870  0.400620  1.0  -0.7859
  O  O146  1  0.651430  0.323500  0.266060  1.0  -0.7649
  O  O147  1  0.602770  0.571600  0.266740  1.0  -0.8017
  O  O148  1  0.480020  0.637100  0.101840  1.0  -0.7681
