# generated using pymatgen
data_Zn2H9(C3O)8
_symmetry_space_group_name_H-M   'P 1'
_cell_length_a   11.07800000
_cell_length_b   16.01200000
_cell_length_c   23.80400000
_cell_angle_alpha   90.00000000
_cell_angle_beta   95.33300000
_cell_angle_gamma   90.00000000
_symmetry_Int_Tables_number   1
_chemical_formula_structural   Zn2H9(C3O)8
_chemical_formula_sum   'Zn8 H36 C96 O32'
_cell_volume   4204.09853497
_cell_formula_units_Z   4
loop_
 _symmetry_equiv_pos_site_id
 _symmetry_equiv_pos_as_xyz
  1  'x, y, z'
loop_
 _atom_site_type_symbol
 _atom_site_label
 _atom_site_symmetry_multiplicity
 _atom_site_fract_x
 _atom_site_fract_y
 _atom_site_fract_z
 _atom_site_occupancy
 _atom_site_charge
  Zn  Zn1  1  0.952700  0.482280  0.152960  1.0  1.0625
  Zn  Zn2  1  0.153490  0.342110  0.240840  1.0  0.8993
  Zn  Zn3  1  0.047300  0.982280  0.347040  1.0  1.0621
  Zn  Zn4  1  0.846510  0.842110  0.259160  1.0  0.9014
  Zn  Zn5  1  0.047300  0.517720  0.847040  1.0  1.0621
  Zn  Zn6  1  0.846510  0.657890  0.759160  1.0  0.902
  Zn  Zn7  1  0.952700  0.017720  0.652960  1.0  1.0623
  Zn  Zn8  1  0.153490  0.157890  0.740840  1.0  0.902
  H  H9  1  0.231100  0.504900  0.414700  1.0  0.107
  H  H10  1  0.244200  0.384000  0.460000  1.0  0.1063
  H  H11  1  0.485900  0.735900  0.404100  1.0  0.1127
  H  H12  1  0.328900  0.247200  0.438900  1.0  0.1114
  H  H13  1  0.111600  0.079600  0.504800  1.0  0.1168
  H  H14  1  0.296300  0.245600  0.604100  1.0  0.119
  H  H15  1  0.276200  0.768200  0.384100  1.0  0.1182
  H  H16  1  0.069800  0.696400  0.246400  1.0  0.1055
  H  H17  1  0.302600  0.534900  0.327100  1.0  0.1131
  H  H18  1  0.768900  0.004900  0.085300  1.0  0.1068
  H  H19  1  0.755800  0.884000  0.040000  1.0  0.1065
  H  H20  1  0.514100  0.235900  0.095900  1.0  0.1128
  H  H21  1  0.671100  0.747200  0.061100  1.0  0.1117
  H  H22  1  0.888400  0.579600  0.995200  1.0  0.117
  H  H23  1  0.703700  0.745600  0.895900  1.0  0.1189
  H  H24  1  0.723800  0.268200  0.115900  1.0  0.1188
  H  H25  1  0.930200  0.196400  0.253600  1.0  0.1055
  H  H26  1  0.697400  0.034900  0.172900  1.0  0.1131
  H  H27  1  0.768900  0.495100  0.585300  1.0  0.1066
  H  H28  1  0.755800  0.616000  0.540000  1.0  0.1059
  H  H29  1  0.514100  0.264100  0.595900  1.0  0.113
  H  H30  1  0.671100  0.752800  0.561100  1.0  0.1121
  H  H31  1  0.888400  0.920400  0.495200  1.0  0.1169
  H  H32  1  0.703700  0.754400  0.395900  1.0  0.1192
  H  H33  1  0.723800  0.231800  0.615900  1.0  0.1186
  H  H34  1  0.930200  0.303600  0.753600  1.0  0.1058
  H  H35  1  0.697400  0.465100  0.672900  1.0  0.113
  H  H36  1  0.231100  0.995100  0.914700  1.0  0.1069
  H  H37  1  0.244200  0.116000  0.960000  1.0  0.1062
  H  H38  1  0.485900  0.764100  0.904100  1.0  0.1129
  H  H39  1  0.328900  0.252800  0.938900  1.0  0.1117
  H  H40  1  0.111600  0.420400  0.004800  1.0  0.1172
  H  H41  1  0.296300  0.254400  0.104100  1.0  0.1191
  H  H42  1  0.276200  0.731800  0.884100  1.0  0.1184
  H  H43  1  0.069800  0.803600  0.746400  1.0  0.1053
  H  H44  1  0.302600  0.965100  0.827100  1.0  0.1122
  C  C45  1  0.301000  0.493200  0.438100  1.0  -0.1592
  C  C46  1  0.308000  0.421600  0.465700  1.0  -0.1116
  C  C47  1  0.410300  0.399800  0.504100  1.0  0.0264
  C  C48  1  0.497400  0.539300  0.484100  1.0  0.0044
  C  C49  1  0.398600  0.554700  0.442890  1.0  -0.0283
  C  C50  1  0.395900  0.629400  0.412100  1.0  -0.0351
  C  C51  1  0.487400  0.686600  0.424900  1.0  -0.091
  C  C52  1  0.418000  0.324800  0.532900  1.0  -0.0187
  C  C53  1  0.329400  0.256200  0.523200  1.0  0.0456
  C  C54  1  0.297500  0.223700  0.470200  1.0  -0.079
  C  C55  1  0.218000  0.155500  0.463000  1.0  -0.1603
  C  C56  1  0.166300  0.123700  0.509400  1.0  0.031
  C  C57  1  0.195400  0.156800  0.561500  1.0  -0.1605
  C  C58  1  0.277000  0.223200  0.568300  1.0  -0.0573
  C  C59  1  0.300000  0.647600  0.364800  1.0  0.0375
  C  C60  1  0.252500  0.726800  0.358000  1.0  -0.0649
  C  C61  1  0.167800  0.745600  0.311600  1.0  -0.1445
  C  C62  1  0.129400  0.684700  0.275500  1.0  0.0395
  C  C63  1  0.176500  0.605000  0.280700  1.0  -0.1454
  C  C64  1  0.266000  0.587200  0.324800  1.0  -0.0776
  C  C65  1  0.128900  0.534900  0.242200  1.0  0.7529
  C  C66  1  0.136100  0.127800  0.611800  1.0  0.7245
  C  C67  1  0.114800  0.832000  0.305400  1.0  0.7081
  C  C68  1  0.184400  0.120500  0.404400  1.0  0.7036
  C  C69  1  0.699000  0.993200  0.061900  1.0  -0.1568
  C  C70  1  0.692000  0.921600  0.034300  1.0  -0.1102
  C  C71  1  0.589700  0.899800  0.995900  1.0  0.0262
  C  C72  1  0.502600  0.039300  0.015900  1.0  0.0045
  C  C73  1  0.601400  0.054700  0.057110  1.0  -0.0275
  C  C74  1  0.604100  0.129400  0.087900  1.0  -0.0349
  C  C75  1  0.512600  0.186600  0.075100  1.0  -0.0905
  C  C76  1  0.582000  0.824800  0.967100  1.0  -0.0188
  C  C77  1  0.670600  0.756200  0.976800  1.0  0.0455
  C  C78  1  0.702500  0.723700  0.029800  1.0  -0.0777
  C  C79  1  0.782000  0.655500  0.037000  1.0  -0.1596
  C  C80  1  0.833700  0.623700  0.990600  1.0  0.0299
  C  C81  1  0.804600  0.656800  0.938500  1.0  -0.1604
  C  C82  1  0.723000  0.723200  0.931700  1.0  -0.0572
  C  C83  1  0.700000  0.147600  0.135200  1.0  0.0371
  C  C84  1  0.747500  0.226800  0.142000  1.0  -0.0655
  C  C85  1  0.832200  0.245600  0.188400  1.0  -0.1439
  C  C86  1  0.870600  0.184700  0.224500  1.0  0.0391
  C  C87  1  0.823500  0.105000  0.219300  1.0  -0.1443
  C  C88  1  0.734000  0.087200  0.175200  1.0  -0.0795
  C  C89  1  0.871100  0.034900  0.257800  1.0  0.7525
  C  C90  1  0.863900  0.627800  0.888200  1.0  0.7244
  C  C91  1  0.885200  0.332000  0.194600  1.0  0.7075
  C  C92  1  0.815600  0.620500  0.095600  1.0  0.7044
  C  C93  1  0.699000  0.506800  0.561900  1.0  -0.1571
  C  C94  1  0.692000  0.578400  0.534300  1.0  -0.1102
  C  C95  1  0.589700  0.600200  0.495900  1.0  0.0261
  C  C96  1  0.502600  0.460700  0.515900  1.0  0.0042
  C  C97  1  0.601400  0.445300  0.557110  1.0  -0.0274
  C  C98  1  0.604100  0.370600  0.587900  1.0  -0.0349
  C  C99  1  0.512600  0.313400  0.575100  1.0  -0.0916
  C  C100  1  0.582000  0.675200  0.467100  1.0  -0.0188
  C  C101  1  0.670600  0.743800  0.476800  1.0  0.0454
  C  C102  1  0.702500  0.776300  0.529800  1.0  -0.078
  C  C103  1  0.782000  0.844500  0.537000  1.0  -0.1596
  C  C104  1  0.833700  0.876300  0.490600  1.0  0.0281
  C  C105  1  0.804600  0.843200  0.438500  1.0  -0.1599
  C  C106  1  0.723000  0.776800  0.431700  1.0  -0.0564
  C  C107  1  0.700000  0.352400  0.635200  1.0  0.037
  C  C108  1  0.747500  0.273200  0.642000  1.0  -0.0646
  C  C109  1  0.832200  0.254400  0.688400  1.0  -0.1444
  C  C110  1  0.870600  0.315300  0.724500  1.0  0.0394
  C  C111  1  0.823500  0.395000  0.719300  1.0  -0.1442
  C  C112  1  0.734000  0.412800  0.675200  1.0  -0.0792
  C  C113  1  0.871100  0.465100  0.757800  1.0  0.7526
  C  C114  1  0.863900  0.872200  0.388200  1.0  0.7246
  C  C115  1  0.885200  0.168000  0.694600  1.0  0.7078
  C  C116  1  0.815600  0.879500  0.595600  1.0  0.7042
  C  C117  1  0.301000  0.006800  0.938100  1.0  -0.1598
  C  C118  1  0.308000  0.078400  0.965700  1.0  -0.1113
  C  C119  1  0.410300  0.100200  0.004100  1.0  0.0263
  C  C120  1  0.497400  0.960700  0.984100  1.0  0.0042
  C  C121  1  0.398600  0.945300  0.942890  1.0  -0.0282
  C  C122  1  0.395900  0.870600  0.912100  1.0  -0.0352
  C  C123  1  0.487400  0.813400  0.924900  1.0  -0.0921
  C  C124  1  0.418000  0.175200  0.032900  1.0  -0.0187
  C  C125  1  0.329400  0.243800  0.023200  1.0  0.0457
  C  C126  1  0.297500  0.276300  0.970200  1.0  -0.0785
  C  C127  1  0.218000  0.344500  0.963000  1.0  -0.159
  C  C128  1  0.166300  0.376300  0.009400  1.0  0.0289
  C  C129  1  0.195400  0.343200  0.061500  1.0  -0.1606
  C  C130  1  0.277000  0.276800  0.068300  1.0  -0.0568
  C  C131  1  0.300000  0.852400  0.864800  1.0  0.0371
  C  C132  1  0.252500  0.773200  0.858000  1.0  -0.0631
  C  C133  1  0.167800  0.754400  0.811600  1.0  -0.1448
  C  C134  1  0.129400  0.815300  0.775500  1.0  0.0399
  C  C135  1  0.176500  0.895000  0.780700  1.0  -0.1446
  C  C136  1  0.266000  0.912800  0.824800  1.0  -0.0785
  C  C137  1  0.128900  0.965100  0.742200  1.0  0.7533
  C  C138  1  0.136100  0.372200  0.111800  1.0  0.7244
  C  C139  1  0.114800  0.668000  0.805400  1.0  0.7078
  C  C140  1  0.184400  0.379500  0.904400  1.0  0.7032
  O  O141  1  0.152600  0.168600  0.657380  1.0  -0.6615
  O  O142  1  0.075200  0.061600  0.604830  1.0  -0.5935
  O  O143  1  0.036400  0.846400  0.265290  1.0  -0.6292
  O  O144  1  0.150000  0.886000  0.341800  1.0  -0.5812
  O  O145  1  0.180100  0.467100  0.246930  1.0  -0.6429
  O  O146  1  0.038100  0.551900  0.208110  1.0  -0.5944
  O  O147  1  0.131400  0.052100  0.403420  1.0  -0.6115
  O  O148  1  0.199900  0.160400  0.362200  1.0  -0.4035
  O  O149  1  0.847400  0.668600  0.842620  1.0  -0.6602
  O  O150  1  0.924800  0.561600  0.895170  1.0  -0.5914
  O  O151  1  0.963600  0.346400  0.234710  1.0  -0.6275
  O  O152  1  0.850000  0.386000  0.158200  1.0  -0.5809
  O  O153  1  0.819900  0.967100  0.253070  1.0  -0.6424
  O  O154  1  0.961900  0.051900  0.291890  1.0  -0.5949
  O  O155  1  0.868600  0.552100  0.096580  1.0  -0.6121
  O  O156  1  0.800100  0.660400  0.137800  1.0  -0.4048
  O  O157  1  0.847400  0.831400  0.342620  1.0  -0.6597
  O  O158  1  0.924800  0.938400  0.395170  1.0  -0.5929
  O  O159  1  0.963600  0.153600  0.734710  1.0  -0.6276
  O  O160  1  0.850000  0.114000  0.658200  1.0  -0.5804
  O  O161  1  0.819900  0.532900  0.753070  1.0  -0.644
  O  O162  1  0.961900  0.448100  0.791890  1.0  -0.5948
  O  O163  1  0.868600  0.947900  0.596580  1.0  -0.6114
  O  O164  1  0.800100  0.839600  0.637800  1.0  -0.4045
  O  O165  1  0.152600  0.331400  0.157380  1.0  -0.6606
  O  O166  1  0.075200  0.438400  0.104830  1.0  -0.5937
  O  O167  1  0.036400  0.653600  0.765290  1.0  -0.6289
  O  O168  1  0.150000  0.614000  0.841800  1.0  -0.5804
  O  O169  1  0.180100  0.032900  0.746930  1.0  -0.6444
  O  O170  1  0.038100  0.948100  0.708110  1.0  -0.5947
  O  O171  1  0.131400  0.447900  0.903420  1.0  -0.6109
  O  O172  1  0.199900  0.339600  0.862200  1.0  -0.402
