# generated using pymatgen
data_Dy2H42(C23O6)3
_symmetry_space_group_name_H-M   'P 1'
_cell_length_a   31.28000000
_cell_length_b   14.73500000
_cell_length_c   28.51000000
_cell_angle_alpha   90.00000000
_cell_angle_beta   120.13000000
_cell_angle_gamma   90.00000000
_symmetry_Int_Tables_number   1
_chemical_formula_structural   Dy2H42(C23O6)3
_chemical_formula_sum   'Dy8 H168 C276 O72'
_cell_volume   11365.12798250
_cell_formula_units_Z   4
loop_
 _symmetry_equiv_pos_site_id
 _symmetry_equiv_pos_as_xyz
  1  'x, y, z'
loop_
 _atom_site_type_symbol
 _atom_site_label
 _atom_site_symmetry_multiplicity
 _atom_site_fract_x
 _atom_site_fract_y
 _atom_site_fract_z
 _atom_site_occupancy
 _atom_site_charge
  Dy  Dy1  1  0.231940  0.882170  0.512460  1.0  2.2461
  Dy  Dy2  1  0.731940  0.382170  0.512460  1.0  2.2461
  Dy  Dy3  1  0.768060  0.882170  0.987540  1.0  2.246
  Dy  Dy4  1  0.268060  0.382170  0.987540  1.0  2.246
  Dy  Dy5  1  0.768060  0.117830  0.487540  1.0  2.2468
  Dy  Dy6  1  0.268060  0.617830  0.487540  1.0  2.2468
  Dy  Dy7  1  0.231940  0.117830  0.012460  1.0  2.2473
  Dy  Dy8  1  0.731940  0.617830  0.012460  1.0  2.2473
  H  H9  1  0.122800  0.988000  0.076300  1.0  0.102
  H  H10  1  0.174200  0.965600  0.282800  1.0  0.0983
  H  H11  1  0.095900  0.914300  0.253300  1.0  0.0855
  H  H12  1  0.038400  0.902400  0.162300  1.0  0.1159
  H  H13  1  0.269600  0.104100  0.173800  1.0  0.3841
  H  H14  1  0.999900  0.867300  0.277400  1.0  0.0987
  H  H15  1  0.161600  0.633800  0.350500  1.0  0.1004
  H  H16  1  0.997400  0.725800  0.172300  1.0  0.0974
  H  H17  1  0.014800  0.614800  0.129100  1.0  0.1051
  H  H18  1  0.083400  0.518500  0.177900  1.0  0.1073
  H  H19  1  0.099600  0.882100  0.378600  1.0  0.4038
  H  H20  1  0.304000  0.939600  0.239900  1.0  0.0896
  H  H21  1  0.373000  0.700800  0.269000  1.0  0.1099
  H  H22  1  0.358900  0.673700  0.338900  1.0  0.1065
  H  H23  1  0.348300  0.832700  0.222400  1.0  0.0985
  H  H24  1  0.324500  0.720400  0.395300  1.0  0.0974
  H  H25  1  0.238400  0.955100  0.393500  1.0  0.3738
  H  H26  1  0.241100  0.057100  0.300500  1.0  0.0997
  H  H27  1  0.282300  0.056100  0.284700  1.0  0.1109
  H  H28  1  0.059600  0.939700  0.099400  1.0  0.108
  H  H29  1  0.136200  0.544300  0.266700  1.0  0.0973
  H  H30  1  0.622800  0.488000  0.076300  1.0  0.102
  H  H31  1  0.674200  0.465600  0.282800  1.0  0.0983
  H  H32  1  0.595900  0.414300  0.253300  1.0  0.0855
  H  H33  1  0.538400  0.402400  0.162300  1.0  0.1159
  H  H34  1  0.769600  0.604100  0.173800  1.0  0.3841
  H  H35  1  0.499900  0.367300  0.277400  1.0  0.0987
  H  H36  1  0.661600  0.133800  0.350500  1.0  0.1004
  H  H37  1  0.497400  0.225800  0.172300  1.0  0.0974
  H  H38  1  0.514800  0.114800  0.129100  1.0  0.1036
  H  H39  1  0.583400  0.018500  0.177900  1.0  0.1075
  H  H40  1  0.599600  0.382100  0.378600  1.0  0.4038
  H  H41  1  0.804000  0.439600  0.239900  1.0  0.0896
  H  H42  1  0.873000  0.200800  0.269000  1.0  0.1099
  H  H43  1  0.858900  0.173700  0.338900  1.0  0.1065
  H  H44  1  0.848300  0.332700  0.222400  1.0  0.0978
  H  H45  1  0.824500  0.220400  0.395300  1.0  0.0974
  H  H46  1  0.738400  0.455100  0.393500  1.0  0.3738
  H  H47  1  0.741100  0.557100  0.300500  1.0  0.0997
  H  H48  1  0.782300  0.556100  0.284700  1.0  0.1109
  H  H49  1  0.559600  0.439700  0.099400  1.0  0.108
  H  H50  1  0.636200  0.044300  0.266700  1.0  0.0973
  H  H51  1  0.877200  0.988000  0.423700  1.0  0.1033
  H  H52  1  0.825800  0.965600  0.217200  1.0  0.0981
  H  H53  1  0.904100  0.914300  0.246700  1.0  0.0853
  H  H54  1  0.961600  0.902400  0.337700  1.0  0.1163
  H  H55  1  0.730400  0.104100  0.326200  1.0  0.3848
  H  H56  1  0.000100  0.867300  0.222600  1.0  0.0985
  H  H57  1  0.838400  0.633800  0.149500  1.0  0.1002
  H  H58  1  0.002600  0.725800  0.327700  1.0  0.0974
  H  H59  1  0.985200  0.614800  0.370900  1.0  0.105
  H  H60  1  0.916600  0.518500  0.322100  1.0  0.1086
  H  H61  1  0.900400  0.882100  0.121400  1.0  0.4047
  H  H62  1  0.696000  0.939600  0.260100  1.0  0.0896
  H  H63  1  0.627000  0.700800  0.231000  1.0  0.1103
  H  H64  1  0.641100  0.673700  0.161100  1.0  0.1064
  H  H65  1  0.651700  0.832700  0.277600  1.0  0.098
  H  H66  1  0.675500  0.720400  0.104700  1.0  0.0974
  H  H67  1  0.761600  0.955100  0.106500  1.0  0.3747
  H  H68  1  0.758900  0.057100  0.199500  1.0  0.0998
  H  H69  1  0.717700  0.056100  0.215300  1.0  0.1123
  H  H70  1  0.940400  0.939700  0.400600  1.0  0.1085
  H  H71  1  0.863800  0.544300  0.233300  1.0  0.098
  H  H72  1  0.377200  0.488000  0.423700  1.0  0.1033
  H  H73  1  0.325800  0.465600  0.217200  1.0  0.0981
  H  H74  1  0.404100  0.414300  0.246700  1.0  0.0853
  H  H75  1  0.461600  0.402400  0.337700  1.0  0.1163
  H  H76  1  0.230400  0.604100  0.326200  1.0  0.3848
  H  H77  1  0.500100  0.367300  0.222600  1.0  0.0985
  H  H78  1  0.338400  0.133800  0.149500  1.0  0.1002
  H  H79  1  0.502600  0.225800  0.327700  1.0  0.0974
  H  H80  1  0.485200  0.114800  0.370900  1.0  0.105
  H  H81  1  0.416600  0.018500  0.322100  1.0  0.1086
  H  H82  1  0.400400  0.382100  0.121400  1.0  0.4047
  H  H83  1  0.196000  0.439600  0.260100  1.0  0.0896
  H  H84  1  0.127000  0.200800  0.231000  1.0  0.1103
  H  H85  1  0.141100  0.173700  0.161100  1.0  0.1064
  H  H86  1  0.151700  0.332700  0.277600  1.0  0.098
  H  H87  1  0.175500  0.220400  0.104700  1.0  0.0974
  H  H88  1  0.261600  0.455100  0.106500  1.0  0.3721
  H  H89  1  0.258900  0.557100  0.199500  1.0  0.0998
  H  H90  1  0.217700  0.556100  0.215300  1.0  0.1123
  H  H91  1  0.440400  0.439700  0.400600  1.0  0.1085
  H  H92  1  0.363800  0.044300  0.233300  1.0  0.098
  H  H93  1  0.877200  0.012000  0.923700  1.0  0.1038
  H  H94  1  0.825800  0.034400  0.717200  1.0  0.098
  H  H95  1  0.904100  0.085700  0.746700  1.0  0.0858
  H  H96  1  0.961600  0.097600  0.837700  1.0  0.1165
  H  H97  1  0.730400  0.895900  0.826200  1.0  0.3852
  H  H98  1  0.000100  0.132700  0.722600  1.0  0.0994
  H  H99  1  0.838400  0.366200  0.649500  1.0  0.1009
  H  H100  1  0.002600  0.274200  0.827700  1.0  0.0975
  H  H101  1  0.985200  0.385200  0.870900  1.0  0.105
  H  H102  1  0.916600  0.481500  0.822100  1.0  0.1089
  H  H103  1  0.900400  0.117900  0.621400  1.0  0.4064
  H  H104  1  0.696000  0.060400  0.760100  1.0  0.0889
  H  H105  1  0.627000  0.299200  0.731000  1.0  0.1099
  H  H106  1  0.641100  0.326300  0.661100  1.0  0.1066
  H  H107  1  0.651700  0.167300  0.777600  1.0  0.0976
  H  H108  1  0.675500  0.279600  0.604700  1.0  0.0983
  H  H109  1  0.761600  0.044900  0.606500  1.0  0.3725
  H  H110  1  0.758900  0.942900  0.699500  1.0  0.0991
  H  H111  1  0.717700  0.943900  0.715300  1.0  0.1119
  H  H112  1  0.940400  0.060300  0.900600  1.0  0.1084
  H  H113  1  0.863800  0.455700  0.733300  1.0  0.0982
  H  H114  1  0.377200  0.512000  0.923700  1.0  0.1038
  H  H115  1  0.325800  0.534400  0.717200  1.0  0.098
  H  H116  1  0.404100  0.585700  0.746700  1.0  0.0858
  H  H117  1  0.461600  0.597600  0.837700  1.0  0.1165
  H  H118  1  0.230400  0.395900  0.826200  1.0  0.3852
  H  H119  1  0.500100  0.632700  0.722600  1.0  0.0994
  H  H120  1  0.338400  0.866200  0.649500  1.0  0.1009
  H  H121  1  0.502600  0.774200  0.827700  1.0  0.0975
  H  H122  1  0.485200  0.885200  0.870900  1.0  0.104
  H  H123  1  0.416600  0.981500  0.822100  1.0  0.1084
  H  H124  1  0.400400  0.617900  0.621400  1.0  0.4064
  H  H125  1  0.196000  0.560400  0.760100  1.0  0.0889
  H  H126  1  0.127000  0.799200  0.731000  1.0  0.1099
  H  H127  1  0.141100  0.826300  0.661100  1.0  0.1066
  H  H128  1  0.151700  0.667300  0.777600  1.0  0.0969
  H  H129  1  0.175500  0.779600  0.604700  1.0  0.0983
  H  H130  1  0.261600  0.544900  0.606500  1.0  0.3725
  H  H131  1  0.258900  0.442900  0.699500  1.0  0.0991
  H  H132  1  0.217700  0.443900  0.715300  1.0  0.1119
  H  H133  1  0.440400  0.560300  0.900600  1.0  0.1084
  H  H134  1  0.363800  0.955700  0.733300  1.0  0.0982
  H  H135  1  0.122800  0.012000  0.576300  1.0  0.1024
  H  H136  1  0.174200  0.034400  0.782800  1.0  0.0985
  H  H137  1  0.095900  0.085700  0.753300  1.0  0.0854
  H  H138  1  0.038400  0.097600  0.662300  1.0  0.1158
  H  H139  1  0.269600  0.895900  0.673800  1.0  0.3843
  H  H140  1  0.999900  0.132700  0.777400  1.0  0.098
  H  H141  1  0.161600  0.366200  0.850500  1.0  0.1001
  H  H142  1  0.997400  0.274200  0.672300  1.0  0.0976
  H  H143  1  0.014800  0.385200  0.629100  1.0  0.1054
  H  H144  1  0.083400  0.481500  0.677900  1.0  0.108
  H  H145  1  0.099600  0.117900  0.878600  1.0  0.4051
  H  H146  1  0.304000  0.060400  0.739900  1.0  0.0896
  H  H147  1  0.373000  0.299200  0.769000  1.0  0.1094
  H  H148  1  0.358900  0.326300  0.838900  1.0  0.1063
  H  H149  1  0.348300  0.167300  0.722400  1.0  0.0988
  H  H150  1  0.324500  0.279600  0.895300  1.0  0.0978
  H  H151  1  0.238400  0.044900  0.893500  1.0  0.3749
  H  H152  1  0.241100  0.942900  0.800500  1.0  0.0996
  H  H153  1  0.282300  0.943900  0.784700  1.0  0.1106
  H  H154  1  0.059600  0.060300  0.599400  1.0  0.1082
  H  H155  1  0.136200  0.455700  0.766700  1.0  0.0973
  H  H156  1  0.622800  0.512000  0.576300  1.0  0.1024
  H  H157  1  0.674200  0.534400  0.782800  1.0  0.0985
  H  H158  1  0.595900  0.585700  0.753300  1.0  0.0854
  H  H159  1  0.538400  0.597600  0.662300  1.0  0.1158
  H  H160  1  0.769600  0.395900  0.673800  1.0  0.3843
  H  H161  1  0.499900  0.632700  0.777400  1.0  0.098
  H  H162  1  0.661600  0.866200  0.850500  1.0  0.1001
  H  H163  1  0.497400  0.774200  0.672300  1.0  0.0976
  H  H164  1  0.514800  0.885200  0.629100  1.0  0.1054
  H  H165  1  0.583400  0.981500  0.677900  1.0  0.108
  H  H166  1  0.599600  0.617900  0.878600  1.0  0.4051
  H  H167  1  0.804000  0.560400  0.739900  1.0  0.0896
  H  H168  1  0.873000  0.799200  0.769000  1.0  0.1094
  H  H169  1  0.858900  0.826300  0.838900  1.0  0.1063
  H  H170  1  0.848300  0.667300  0.722400  1.0  0.0988
  H  H171  1  0.824500  0.779600  0.895300  1.0  0.0978
  H  H172  1  0.738400  0.544900  0.893500  1.0  0.3726
  H  H173  1  0.741100  0.442900  0.800500  1.0  0.0996
  H  H174  1  0.782300  0.443900  0.784700  1.0  0.1106
  H  H175  1  0.559600  0.560300  0.599400  1.0  0.1082
  H  H176  1  0.636200  0.955700  0.766700  1.0  0.0973
  C  C177  1  0.191200  0.028700  0.127800  1.0  -0.0952
  C  C178  1  0.226600  0.039800  0.184400  1.0  0.2066
  C  C179  1  0.168000  0.981600  0.207700  1.0  0.0097
  C  C180  1  0.145600  0.995900  0.113000  1.0  -0.0848
  C  C181  1  0.216100  0.012000  0.223800  1.0  0.027
  C  C182  1  0.131800  0.973900  0.151300  1.0  0.0312
  C  C183  1  0.152200  0.959600  0.245800  1.0  -0.1578
  C  C184  1  0.105000  0.929900  0.227900  1.0  -0.0887
  C  C185  1  0.070300  0.922300  0.173200  1.0  -0.1255
  C  C186  1  0.082500  0.792600  0.329700  1.0  0.2238
  C  C187  1  0.164700  0.762300  0.414100  1.0  0.7184
  C  C188  1  0.056700  0.706800  0.248100  1.0  0.0437
  C  C189  1  0.047400  0.773600  0.276300  1.0  0.0227
  C  C190  1  0.126400  0.740000  0.357100  1.0  -0.135
  C  C191  1  0.133900  0.670500  0.331600  1.0  -0.0796
  C  C192  1  0.099800  0.652300  0.276000  1.0  0.0383
  C  C193  1  0.025400  0.690200  0.191900  1.0  -0.147
  C  C194  1  0.035500  0.623400  0.166100  1.0  -0.1362
  C  C195  1  0.077600  0.566000  0.195400  1.0  -0.1453
  C  C196  1  0.303000  0.871100  0.301900  1.0  0.0413
  C  C197  1  0.314300  0.886400  0.260200  1.0  -0.1905
  C  C198  1  0.356200  0.743500  0.277800  1.0  -0.1195
  C  C199  1  0.320600  0.789600  0.331600  1.0  0.0365
  C  C200  1  0.347300  0.727000  0.318900  1.0  -0.1287
  C  C201  1  0.340900  0.821600  0.249700  1.0  -0.1003
  C  C202  1  0.288200  0.834700  0.389300  1.0  -0.1959
  C  C203  1  0.269800  0.915500  0.358700  1.0  0.246
  C  C204  1  0.275300  0.933400  0.314100  1.0  0.0187
  C  C205  1  0.312700  0.773700  0.375400  1.0  -0.1108
  C  C206  1  0.254900  0.021700  0.282600  1.0  -0.2223
  C  C207  1  0.281100  0.814000  0.436100  1.0  0.7373
  C  C208  1  0.205300  0.050700  0.086600  1.0  0.6917
  C  C209  1  0.083100  0.944100  0.136100  1.0  -0.082
  C  C210  1  0.108500  0.581000  0.247900  1.0  -0.1212
  C  C211  1  0.691200  0.528700  0.127800  1.0  -0.0952
  C  C212  1  0.726600  0.539800  0.184400  1.0  0.2066
  C  C213  1  0.668000  0.481600  0.207700  1.0  0.0097
  C  C214  1  0.645600  0.495900  0.113000  1.0  -0.0848
  C  C215  1  0.716100  0.512000  0.223800  1.0  0.027
  C  C216  1  0.631800  0.473900  0.151300  1.0  0.0312
  C  C217  1  0.652200  0.459600  0.245800  1.0  -0.1578
  C  C218  1  0.605000  0.429900  0.227900  1.0  -0.0887
  C  C219  1  0.570300  0.422300  0.173200  1.0  -0.1255
  C  C220  1  0.582500  0.292600  0.329700  1.0  0.2238
  C  C221  1  0.664700  0.262300  0.414100  1.0  0.7184
  C  C222  1  0.556700  0.206800  0.248100  1.0  0.0437
  C  C223  1  0.547400  0.273600  0.276300  1.0  0.0227
  C  C224  1  0.626400  0.240000  0.357100  1.0  -0.135
  C  C225  1  0.633900  0.170500  0.331600  1.0  -0.0796
  C  C226  1  0.599800  0.152300  0.276000  1.0  0.0383
  C  C227  1  0.525400  0.190200  0.191900  1.0  -0.147
  C  C228  1  0.535500  0.123400  0.166100  1.0  -0.1362
  C  C229  1  0.577600  0.066000  0.195400  1.0  -0.1453
  C  C230  1  0.803000  0.371100  0.301900  1.0  0.0413
  C  C231  1  0.814300  0.386400  0.260200  1.0  -0.1905
  C  C232  1  0.856200  0.243500  0.277800  1.0  -0.1195
  C  C233  1  0.820600  0.289600  0.331600  1.0  0.0365
  C  C234  1  0.847300  0.227000  0.318900  1.0  -0.1287
  C  C235  1  0.840900  0.321600  0.249700  1.0  -0.1003
  C  C236  1  0.788200  0.334700  0.389300  1.0  -0.1959
  C  C237  1  0.769800  0.415500  0.358700  1.0  0.246
  C  C238  1  0.775300  0.433400  0.314100  1.0  0.0187
  C  C239  1  0.812700  0.273700  0.375400  1.0  -0.1108
  C  C240  1  0.754900  0.521700  0.282600  1.0  -0.2223
  C  C241  1  0.781100  0.314000  0.436100  1.0  0.7373
  C  C242  1  0.705300  0.550700  0.086600  1.0  0.6917
  C  C243  1  0.583100  0.444100  0.136100  1.0  -0.082
  C  C244  1  0.608500  0.081000  0.247900  1.0  -0.1212
  C  C245  1  0.808800  0.028700  0.372200  1.0  -0.0935
  C  C246  1  0.773400  0.039800  0.315600  1.0  0.2078
  C  C247  1  0.832000  0.981600  0.292300  1.0  0.0098
  C  C248  1  0.854400  0.995900  0.387000  1.0  -0.0839
  C  C249  1  0.783900  0.012000  0.276200  1.0  0.0271
  C  C250  1  0.868200  0.973900  0.348700  1.0  0.031
  C  C251  1  0.847800  0.959600  0.254200  1.0  -0.158
  C  C252  1  0.895000  0.929900  0.272100  1.0  -0.088
  C  C253  1  0.929700  0.922300  0.326800  1.0  -0.1247
  C  C254  1  0.917500  0.792600  0.170300  1.0  0.2243
  C  C255  1  0.835300  0.762300  0.085900  1.0  0.7177
  C  C256  1  0.943300  0.706800  0.251900  1.0  0.0443
  C  C257  1  0.952600  0.773600  0.223700  1.0  0.0227
  C  C258  1  0.873600  0.740000  0.142900  1.0  -0.1354
  C  C259  1  0.866100  0.670500  0.168400  1.0  -0.0809
  C  C260  1  0.900200  0.652300  0.224000  1.0  0.038
  C  C261  1  0.974600  0.690200  0.308100  1.0  -0.1446
  C  C262  1  0.964500  0.623400  0.333900  1.0  -0.1396
  C  C263  1  0.922400  0.566000  0.304600  1.0  -0.1464
  C  C264  1  0.697000  0.871100  0.198100  1.0  0.0411
  C  C265  1  0.685700  0.886400  0.239800  1.0  -0.1915
  C  C266  1  0.643800  0.743500  0.222200  1.0  -0.1206
  C  C267  1  0.679400  0.789600  0.168400  1.0  0.0373
  C  C268  1  0.652700  0.727000  0.181100  1.0  -0.1315
  C  C269  1  0.659100  0.821600  0.250300  1.0  -0.1001
  C  C270  1  0.711800  0.834700  0.110700  1.0  -0.1966
  C  C271  1  0.730200  0.915500  0.141300  1.0  0.2443
  C  C272  1  0.724700  0.933400  0.185900  1.0  0.0183
  C  C273  1  0.687300  0.773700  0.124600  1.0  -0.1078
  C  C274  1  0.745100  0.021700  0.217400  1.0  -0.2207
  C  C275  1  0.718900  0.814000  0.063900  1.0  0.7379
  C  C276  1  0.794700  0.050700  0.413400  1.0  0.6929
  C  C277  1  0.916900  0.944100  0.363900  1.0  -0.0823
  C  C278  1  0.891500  0.581000  0.252100  1.0  -0.1204
  C  C279  1  0.308800  0.528700  0.372200  1.0  -0.0935
  C  C280  1  0.273400  0.539800  0.315600  1.0  0.2078
  C  C281  1  0.332000  0.481600  0.292300  1.0  0.0098
  C  C282  1  0.354400  0.495900  0.387000  1.0  -0.0839
  C  C283  1  0.283900  0.512000  0.276200  1.0  0.0271
  C  C284  1  0.368200  0.473900  0.348700  1.0  0.031
  C  C285  1  0.347800  0.459600  0.254200  1.0  -0.158
  C  C286  1  0.395000  0.429900  0.272100  1.0  -0.088
  C  C287  1  0.429700  0.422300  0.326800  1.0  -0.1247
  C  C288  1  0.417500  0.292600  0.170300  1.0  0.2243
  C  C289  1  0.335300  0.262300  0.085900  1.0  0.7177
  C  C290  1  0.443300  0.206800  0.251900  1.0  0.0443
  C  C291  1  0.452600  0.273600  0.223700  1.0  0.0227
  C  C292  1  0.373600  0.240000  0.142900  1.0  -0.1354
  C  C293  1  0.366100  0.170500  0.168400  1.0  -0.0809
  C  C294  1  0.400200  0.152300  0.224000  1.0  0.038
  C  C295  1  0.474600  0.190200  0.308100  1.0  -0.1446
  C  C296  1  0.464500  0.123400  0.333900  1.0  -0.1396
  C  C297  1  0.422400  0.066000  0.304600  1.0  -0.1464
  C  C298  1  0.197000  0.371100  0.198100  1.0  0.0411
  C  C299  1  0.185700  0.386400  0.239800  1.0  -0.1915
  C  C300  1  0.143800  0.243500  0.222200  1.0  -0.1206
  C  C301  1  0.179400  0.289600  0.168400  1.0  0.0373
  C  C302  1  0.152700  0.227000  0.181100  1.0  -0.1315
  C  C303  1  0.159100  0.321600  0.250300  1.0  -0.1001
  C  C304  1  0.211800  0.334700  0.110700  1.0  -0.1966
  C  C305  1  0.230200  0.415500  0.141300  1.0  0.2443
  C  C306  1  0.224700  0.433400  0.185900  1.0  0.0183
  C  C307  1  0.187300  0.273700  0.124600  1.0  -0.1078
  C  C308  1  0.245100  0.521700  0.217400  1.0  -0.2207
  C  C309  1  0.218900  0.314000  0.063900  1.0  0.7379
  C  C310  1  0.294700  0.550700  0.413400  1.0  0.6929
  C  C311  1  0.416900  0.444100  0.363900  1.0  -0.0823
  C  C312  1  0.391500  0.081000  0.252100  1.0  -0.1204
  C  C313  1  0.808800  0.971300  0.872200  1.0  -0.0929
  C  C314  1  0.773400  0.960200  0.815600  1.0  0.2077
  C  C315  1  0.832000  0.018400  0.792300  1.0  0.0109
  C  C316  1  0.854400  0.004100  0.887000  1.0  -0.0829
  C  C317  1  0.783900  0.988000  0.776200  1.0  0.0269
  C  C318  1  0.868200  0.026100  0.848700  1.0  0.0306
  C  C319  1  0.847800  0.040400  0.754200  1.0  -0.1582
  C  C320  1  0.895000  0.070100  0.772100  1.0  -0.0879
  C  C321  1  0.929700  0.077700  0.826800  1.0  -0.1251
  C  C322  1  0.917500  0.207400  0.670300  1.0  0.2246
  C  C323  1  0.835300  0.237700  0.585900  1.0  0.7181
  C  C324  1  0.943300  0.293200  0.751900  1.0  0.0441
  C  C325  1  0.952600  0.226400  0.723700  1.0  0.023
  C  C326  1  0.873600  0.260000  0.642900  1.0  -0.1357
  C  C327  1  0.866100  0.329500  0.668400  1.0  -0.0815
  C  C328  1  0.900200  0.347700  0.724000  1.0  0.0385
  C  C329  1  0.974600  0.309800  0.808100  1.0  -0.1442
  C  C330  1  0.964500  0.376600  0.833900  1.0  -0.1389
  C  C331  1  0.922400  0.434000  0.804600  1.0  -0.1468
  C  C332  1  0.697000  0.128900  0.698100  1.0  0.0412
  C  C333  1  0.685700  0.113600  0.739800  1.0  -0.1905
  C  C334  1  0.643800  0.256500  0.722200  1.0  -0.1211
  C  C335  1  0.679400  0.210400  0.668400  1.0  0.0375
  C  C336  1  0.652700  0.273000  0.681100  1.0  -0.1321
  C  C337  1  0.659100  0.178400  0.750300  1.0  -0.1019
  C  C338  1  0.711800  0.165300  0.610700  1.0  -0.1967
  C  C339  1  0.730200  0.084500  0.641300  1.0  0.2443
  C  C340  1  0.724700  0.066600  0.685900  1.0  0.0182
  C  C341  1  0.687300  0.226300  0.624600  1.0  -0.11
  C  C342  1  0.745100  0.978300  0.717400  1.0  -0.2235
  C  C343  1  0.718900  0.186000  0.563900  1.0  0.7374
  C  C344  1  0.794700  0.949300  0.913400  1.0  0.6943
  C  C345  1  0.916900  0.055900  0.863900  1.0  -0.0824
  C  C346  1  0.891500  0.419000  0.752100  1.0  -0.1209
  C  C347  1  0.308800  0.471300  0.872200  1.0  -0.0929
  C  C348  1  0.273400  0.460200  0.815600  1.0  0.2077
  C  C349  1  0.332000  0.518400  0.792300  1.0  0.0109
  C  C350  1  0.354400  0.504100  0.887000  1.0  -0.0829
  C  C351  1  0.283900  0.488000  0.776200  1.0  0.0269
  C  C352  1  0.368200  0.526100  0.848700  1.0  0.0306
  C  C353  1  0.347800  0.540400  0.754200  1.0  -0.1582
  C  C354  1  0.395000  0.570100  0.772100  1.0  -0.0879
  C  C355  1  0.429700  0.577700  0.826800  1.0  -0.1251
  C  C356  1  0.417500  0.707400  0.670300  1.0  0.2246
  C  C357  1  0.335300  0.737700  0.585900  1.0  0.7181
  C  C358  1  0.443300  0.793200  0.751900  1.0  0.0441
  C  C359  1  0.452600  0.726400  0.723700  1.0  0.023
  C  C360  1  0.373600  0.760000  0.642900  1.0  -0.1357
  C  C361  1  0.366100  0.829500  0.668400  1.0  -0.0815
  C  C362  1  0.400200  0.847700  0.724000  1.0  0.0385
  C  C363  1  0.474600  0.809800  0.808100  1.0  -0.1442
  C  C364  1  0.464500  0.876600  0.833900  1.0  -0.1389
  C  C365  1  0.422400  0.934000  0.804600  1.0  -0.1468
  C  C366  1  0.197000  0.628900  0.698100  1.0  0.0412
  C  C367  1  0.185700  0.613600  0.739800  1.0  -0.1905
  C  C368  1  0.143800  0.756500  0.722200  1.0  -0.1211
  C  C369  1  0.179400  0.710400  0.668400  1.0  0.0375
  C  C370  1  0.152700  0.773000  0.681100  1.0  -0.1321
  C  C371  1  0.159100  0.678400  0.750300  1.0  -0.1019
  C  C372  1  0.211800  0.665300  0.610700  1.0  -0.1967
  C  C373  1  0.230200  0.584500  0.641300  1.0  0.2443
  C  C374  1  0.224700  0.566600  0.685900  1.0  0.0182
  C  C375  1  0.187300  0.726300  0.624600  1.0  -0.11
  C  C376  1  0.245100  0.478300  0.717400  1.0  -0.2235
  C  C377  1  0.218900  0.686000  0.563900  1.0  0.7374
  C  C378  1  0.294700  0.449300  0.913400  1.0  0.6943
  C  C379  1  0.416900  0.555900  0.863900  1.0  -0.0824
  C  C380  1  0.391500  0.919000  0.752100  1.0  -0.1209
  C  C381  1  0.191200  0.971300  0.627800  1.0  -0.0946
  C  C382  1  0.226600  0.960200  0.684400  1.0  0.2067
  C  C383  1  0.168000  0.018400  0.707700  1.0  0.0105
  C  C384  1  0.145600  0.004100  0.613000  1.0  -0.0859
  C  C385  1  0.216100  0.988000  0.723800  1.0  0.0269
  C  C386  1  0.131800  0.026100  0.651300  1.0  0.0321
  C  C387  1  0.152200  0.040400  0.745800  1.0  -0.1582
  C  C388  1  0.105000  0.070100  0.727900  1.0  -0.0883
  C  C389  1  0.070300  0.077700  0.673200  1.0  -0.1257
  C  C390  1  0.082500  0.207400  0.829700  1.0  0.2245
  C  C391  1  0.164700  0.237700  0.914100  1.0  0.7184
  C  C392  1  0.056700  0.293200  0.748100  1.0  0.0435
  C  C393  1  0.047400  0.226400  0.776300  1.0  0.0229
  C  C394  1  0.126400  0.260000  0.857100  1.0  -0.1346
  C  C395  1  0.133900  0.329500  0.831600  1.0  -0.0798
  C  C396  1  0.099800  0.347700  0.776000  1.0  0.0383
  C  C397  1  0.025400  0.309800  0.691900  1.0  -0.1471
  C  C398  1  0.035500  0.376600  0.666100  1.0  -0.1368
  C  C399  1  0.077600  0.434000  0.695400  1.0  -0.1465
  C  C400  1  0.303000  0.128900  0.801900  1.0  0.0414
  C  C401  1  0.314300  0.113600  0.760200  1.0  -0.1894
  C  C402  1  0.356200  0.256500  0.777800  1.0  -0.1189
  C  C403  1  0.320600  0.210400  0.831600  1.0  0.0365
  C  C404  1  0.347300  0.273000  0.818900  1.0  -0.129
  C  C405  1  0.340900  0.178400  0.749700  1.0  -0.1017
  C  C406  1  0.288200  0.165300  0.889300  1.0  -0.196
  C  C407  1  0.269800  0.084500  0.858700  1.0  0.2461
  C  C408  1  0.275300  0.066600  0.814100  1.0  0.0189
  C  C409  1  0.312700  0.226300  0.875400  1.0  -0.112
  C  C410  1  0.254900  0.978300  0.782600  1.0  -0.222
  C  C411  1  0.281100  0.186000  0.936100  1.0  0.7378
  C  C412  1  0.205300  0.949300  0.586600  1.0  0.6928
  C  C413  1  0.083100  0.055900  0.636100  1.0  -0.0827
  C  C414  1  0.108500  0.419000  0.747900  1.0  -0.1214
  C  C415  1  0.691200  0.471300  0.627800  1.0  -0.0946
  C  C416  1  0.726600  0.460200  0.684400  1.0  0.2067
  C  C417  1  0.668000  0.518400  0.707700  1.0  0.0105
  C  C418  1  0.645600  0.504100  0.613000  1.0  -0.0859
  C  C419  1  0.716100  0.488000  0.723800  1.0  0.0269
  C  C420  1  0.631800  0.526100  0.651300  1.0  0.0321
  C  C421  1  0.652200  0.540400  0.745800  1.0  -0.1582
  C  C422  1  0.605000  0.570100  0.727900  1.0  -0.0883
  C  C423  1  0.570300  0.577700  0.673200  1.0  -0.1257
  C  C424  1  0.582500  0.707400  0.829700  1.0  0.2245
  C  C425  1  0.664700  0.737700  0.914100  1.0  0.7184
  C  C426  1  0.556700  0.793200  0.748100  1.0  0.0435
  C  C427  1  0.547400  0.726400  0.776300  1.0  0.0229
  C  C428  1  0.626400  0.760000  0.857100  1.0  -0.1346
  C  C429  1  0.633900  0.829500  0.831600  1.0  -0.0798
  C  C430  1  0.599800  0.847700  0.776000  1.0  0.0383
  C  C431  1  0.525400  0.809800  0.691900  1.0  -0.1471
  C  C432  1  0.535500  0.876600  0.666100  1.0  -0.1368
  C  C433  1  0.577600  0.934000  0.695400  1.0  -0.1465
  C  C434  1  0.803000  0.628900  0.801900  1.0  0.0414
  C  C435  1  0.814300  0.613600  0.760200  1.0  -0.1894
  C  C436  1  0.856200  0.756500  0.777800  1.0  -0.1189
  C  C437  1  0.820600  0.710400  0.831600  1.0  0.0365
  C  C438  1  0.847300  0.773000  0.818900  1.0  -0.129
  C  C439  1  0.840900  0.678400  0.749700  1.0  -0.1017
  C  C440  1  0.788200  0.665300  0.889300  1.0  -0.196
  C  C441  1  0.769800  0.584500  0.858700  1.0  0.2461
  C  C442  1  0.775300  0.566600  0.814100  1.0  0.0189
  C  C443  1  0.812700  0.726300  0.875400  1.0  -0.112
  C  C444  1  0.754900  0.478300  0.782600  1.0  -0.222
  C  C445  1  0.781100  0.686000  0.936100  1.0  0.7378
  C  C446  1  0.705300  0.449300  0.586600  1.0  0.6928
  C  C447  1  0.583100  0.555900  0.636100  1.0  -0.0827
  C  C448  1  0.608500  0.919000  0.747900  1.0  -0.1214
  C  C449  1  0.000000  0.828300  0.250000  1.0  -0.1431
  C  C450  1  0.500000  0.328300  0.250000  1.0  -0.1431
  C  C451  1  0.000000  0.171700  0.750000  1.0  -0.1437
  C  C452  1  0.500000  0.671700  0.750000  1.0  -0.1437
  O  O453  1  0.270900  0.076900  0.199600  1.0  -0.5076
  O  O454  1  0.073300  0.860700  0.354900  1.0  -0.5098
  O  O455  1  0.159100  0.835000  0.434100  1.0  -0.6817
  O  O456  1  0.245300  0.977500  0.371800  1.0  -0.5319
  O  O457  1  0.248800  0.078200  0.101700  1.0  -0.6508
  O  O458  1  0.173800  0.046400  0.036500  1.0  -0.6967
  O  O459  1  0.259400  0.871700  0.449100  1.0  -0.7138
  O  O460  1  0.296900  0.739300  0.459400  1.0  -0.6918
  O  O461  1  0.200800  0.711300  0.438800  1.0  -0.809
  O  O462  1  0.770900  0.576900  0.199600  1.0  -0.5076
  O  O463  1  0.573300  0.360700  0.354900  1.0  -0.5098
  O  O464  1  0.659100  0.335000  0.434100  1.0  -0.6817
  O  O465  1  0.745300  0.477500  0.371800  1.0  -0.5319
  O  O466  1  0.748800  0.578200  0.101700  1.0  -0.6508
  O  O467  1  0.673800  0.546400  0.036500  1.0  -0.6967
  O  O468  1  0.759400  0.371700  0.449100  1.0  -0.7138
  O  O469  1  0.796900  0.239300  0.459400  1.0  -0.6918
  O  O470  1  0.700800  0.211300  0.438800  1.0  -0.809
  O  O471  1  0.729100  0.076900  0.300400  1.0  -0.5096
  O  O472  1  0.926700  0.860700  0.145100  1.0  -0.5108
  O  O473  1  0.840900  0.835000  0.065900  1.0  -0.6837
  O  O474  1  0.754700  0.977500  0.128200  1.0  -0.5326
  O  O475  1  0.751200  0.078200  0.398300  1.0  -0.649
  O  O476  1  0.826200  0.046400  0.463500  1.0  -0.6981
  O  O477  1  0.740600  0.871700  0.050900  1.0  -0.7136
  O  O478  1  0.703100  0.739300  0.040600  1.0  -0.6918
  O  O479  1  0.799200  0.711300  0.061200  1.0  -0.8086
  O  O480  1  0.229100  0.576900  0.300400  1.0  -0.5096
  O  O481  1  0.426700  0.360700  0.145100  1.0  -0.5108
  O  O482  1  0.340900  0.335000  0.065900  1.0  -0.6837
  O  O483  1  0.254700  0.477500  0.128200  1.0  -0.5326
  O  O484  1  0.251200  0.578200  0.398300  1.0  -0.649
  O  O485  1  0.326200  0.546400  0.463500  1.0  -0.6981
  O  O486  1  0.240600  0.371700  0.050900  1.0  -0.7136
  O  O487  1  0.203100  0.239300  0.040600  1.0  -0.6918
  O  O488  1  0.299200  0.211300  0.061200  1.0  -0.8086
  O  O489  1  0.729100  0.923100  0.800400  1.0  -0.5093
  O  O490  1  0.926700  0.139300  0.645100  1.0  -0.5098
  O  O491  1  0.840900  0.165000  0.565900  1.0  -0.6819
  O  O492  1  0.754700  0.022500  0.628200  1.0  -0.5313
  O  O493  1  0.751200  0.921800  0.898300  1.0  -0.6489
  O  O494  1  0.826200  0.953600  0.963500  1.0  -0.6965
  O  O495  1  0.740600  0.128300  0.550900  1.0  -0.7128
  O  O496  1  0.703100  0.260700  0.540600  1.0  -0.6911
  O  O497  1  0.799200  0.288700  0.561200  1.0  -0.8077
  O  O498  1  0.229100  0.423100  0.800400  1.0  -0.5093
  O  O499  1  0.426700  0.639300  0.645100  1.0  -0.5098
  O  O500  1  0.340900  0.665000  0.565900  1.0  -0.6819
  O  O501  1  0.254700  0.522500  0.628200  1.0  -0.5313
  O  O502  1  0.251200  0.421800  0.898300  1.0  -0.6489
  O  O503  1  0.326200  0.453600  0.963500  1.0  -0.6965
  O  O504  1  0.240600  0.628300  0.550900  1.0  -0.7128
  O  O505  1  0.203100  0.760700  0.540600  1.0  -0.6911
  O  O506  1  0.299200  0.788700  0.561200  1.0  -0.8077
  O  O507  1  0.270900  0.923100  0.699600  1.0  -0.5074
  O  O508  1  0.073300  0.139300  0.854900  1.0  -0.5121
  O  O509  1  0.159100  0.165000  0.934100  1.0  -0.6806
  O  O510  1  0.245300  0.022500  0.871800  1.0  -0.5335
  O  O511  1  0.248800  0.921800  0.601700  1.0  -0.652
  O  O512  1  0.173800  0.953600  0.536500  1.0  -0.6973
  O  O513  1  0.259400  0.128300  0.949100  1.0  -0.7136
  O  O514  1  0.296900  0.260700  0.959400  1.0  -0.6918
  O  O515  1  0.200800  0.288700  0.938800  1.0  -0.8104
  O  O516  1  0.770900  0.423100  0.699600  1.0  -0.5074
  O  O517  1  0.573300  0.639300  0.854900  1.0  -0.5121
  O  O518  1  0.659100  0.665000  0.934100  1.0  -0.6806
  O  O519  1  0.745300  0.522500  0.871800  1.0  -0.5335
  O  O520  1  0.748800  0.421800  0.601700  1.0  -0.652
  O  O521  1  0.673800  0.453600  0.536500  1.0  -0.6973
  O  O522  1  0.759400  0.628300  0.949100  1.0  -0.7136
  O  O523  1  0.796900  0.760700  0.959400  1.0  -0.6918
  O  O524  1  0.700800  0.788700  0.938800  1.0  -0.8104
