# generated using pymatgen
data_NdH19(C17O4)2
_symmetry_space_group_name_H-M   'P 1'
_cell_length_a   10.55610000
_cell_length_b   10.53780000
_cell_length_c   16.89620000
_cell_angle_alpha   83.20500000
_cell_angle_beta   76.42500000
_cell_angle_gamma   69.97100000
_symmetry_Int_Tables_number   1
_chemical_formula_structural   NdH19(C17O4)2
_chemical_formula_sum   'Nd2 H38 C68 O16'
_cell_volume   1715.01548415
_cell_formula_units_Z   2
loop_
 _symmetry_equiv_pos_site_id
 _symmetry_equiv_pos_as_xyz
  1  'x, y, z'
loop_
 _atom_site_type_symbol
 _atom_site_label
 _atom_site_symmetry_multiplicity
 _atom_site_fract_x
 _atom_site_fract_y
 _atom_site_fract_z
 _atom_site_occupancy
 _atom_site_charge
  Nd  Nd1  1  0.372270  0.397600  0.481620  1.0  2.3116
  Nd  Nd2  1  0.627730  0.602400  0.518380  1.0  2.3175
  H  H3  1  0.118000  0.502000  0.290000  1.0  0.4175
  H  H4  1  0.258700  0.307600  0.145400  1.0  0.1056
  H  H5  1  0.558100  0.264700  0.269100  1.0  0.1103
  H  H6  1  0.418600  0.161900  0.048200  1.0  0.097
  H  H7  1  0.719900  0.125800  0.168700  1.0  0.0979
  H  H8  1  0.606300  0.173900  0.944400  1.0  0.1047
  H  H9  1  0.950900  0.773900  0.981200  1.0  0.1083
  H  H10  1  0.610900  0.869200  0.174600  1.0  0.0994
  H  H11  1  0.017400  0.818100  0.101200  1.0  0.1036
  H  H12  1  0.645400  0.776200  0.302400  1.0  0.0993
  H  H13  1  0.054100  0.714500  0.226700  1.0  0.1012
  H  H14  1  0.757900  0.915200  0.750500  1.0  0.1021
  H  H15  1  0.700700  0.282700  0.828400  1.0  0.1046
  H  H16  1  0.024200  0.996200  0.764400  1.0  0.107
  H  H17  1  0.973500  0.642600  0.864800  1.0  0.1008
  H  H18  1  0.676500  0.016400  0.634200  1.0  0.1198
  H  H19  1  0.629500  0.384600  0.709300  1.0  0.1118
  H  H20  1  0.206600  0.877200  0.665800  1.0  0.1175
  H  H21  1  0.144400  0.526800  0.758800  1.0  0.0984
  H  H22  1  0.882000  0.498000  0.710000  1.0  0.4181
  H  H23  1  0.741300  0.692400  0.854600  1.0  0.1058
  H  H24  1  0.441900  0.735300  0.730900  1.0  0.11
  H  H25  1  0.581400  0.838100  0.951800  1.0  0.0977
  H  H26  1  0.280100  0.874200  0.831300  1.0  0.1006
  H  H27  1  0.393700  0.826100  0.055600  1.0  0.1048
  H  H28  1  0.049100  0.226100  0.018800  1.0  0.1086
  H  H29  1  0.389100  0.130800  0.825400  1.0  0.0993
  H  H30  1  0.982600  0.181900  0.898800  1.0  0.1045
  H  H31  1  0.354600  0.223800  0.697600  1.0  0.0991
  H  H32  1  0.945900  0.285500  0.773300  1.0  0.1016
  H  H33  1  0.242100  0.084800  0.249500  1.0  0.1014
  H  H34  1  0.299300  0.717300  0.171600  1.0  0.1052
  H  H35  1  0.975800  0.003800  0.235600  1.0  0.1074
  H  H36  1  0.026500  0.357400  0.135200  1.0  0.1014
  H  H37  1  0.323500  0.983600  0.365800  1.0  0.1213
  H  H38  1  0.370500  0.615400  0.290700  1.0  0.112
  H  H39  1  0.793400  0.122800  0.334200  1.0  0.1178
  H  H40  1  0.855600  0.473200  0.241200  1.0  0.098
  C  C41  1  0.289500  0.393100  0.278700  1.0  0.6587
  C  C42  1  0.393200  0.301200  0.216100  1.0  -0.1693
  C  C43  1  0.352200  0.269800  0.150500  1.0  -0.0981
  C  C44  1  0.530100  0.245300  0.223600  1.0  -0.0468
  C  C45  1  0.447700  0.183200  0.092600  1.0  -0.1592
  C  C46  1  0.626000  0.160900  0.164400  1.0  -0.1115
  C  C47  1  0.586300  0.126700  0.098500  1.0  0.0253
  C  C48  1  0.686500  0.043100  0.031600  1.0  -0.003
  C  C49  1  0.790900  0.919600  0.042900  1.0  0.0181
  C  C50  1  0.677400  0.091700  0.952000  1.0  -0.1133
  C  C51  1  0.810300  0.855300  0.124500  1.0  0.0638
  C  C52  1  0.880200  0.856500  0.973800  1.0  -0.1237
  C  C53  1  0.765800  0.027400  0.883100  1.0  0.0077
  C  C54  1  0.701100  0.840000  0.185400  1.0  -0.0869
  C  C55  1  0.941400  0.808400  0.141700  1.0  -0.1448
  C  C56  1  0.872600  0.906700  0.894000  1.0  0.0041
  C  C57  1  0.735300  0.088100  0.802400  1.0  0.0571
  C  C58  1  0.721800  0.782900  0.261300  1.0  -0.0474
  C  C59  1  0.963100  0.747800  0.216900  1.0  -0.1342
  C  C60  1  0.980500  0.831500  0.825900  1.0  0.0479
  C  C61  1  0.729400  0.010900  0.743100  1.0  -0.1019
  C  C62  1  0.696800  0.228200  0.788600  1.0  -0.1512
  C  C63  1  0.854200  0.735000  0.278100  1.0  -0.1173
  C  C64  1  0.050400  0.900500  0.764800  1.0  -0.1158
  C  C65  1  0.018500  0.691100  0.823400  1.0  -0.1582
  C  C66  1  0.682600  0.070800  0.673300  1.0  -0.0554
  C  C67  1  0.653200  0.289400  0.718000  1.0  -0.0541
  C  C68  1  0.876100  0.675800  0.361000  1.0  0.7425
  C  C69  1  0.156800  0.830000  0.705100  1.0  -0.052
  C  C70  1  0.121800  0.621900  0.760900  1.0  -0.0469
  C  C71  1  0.644200  0.211400  0.660200  1.0  -0.1259
  C  C72  1  0.192000  0.690100  0.701900  1.0  -0.1114
  C  C73  1  0.582600  0.276800  0.588400  1.0  0.7445
  C  C74  1  0.307200  0.615700  0.634700  1.0  0.7314
  C  C75  1  0.710500  0.606900  0.721300  1.0  0.6586
  C  C76  1  0.606800  0.698800  0.783900  1.0  -0.17
  C  C77  1  0.647800  0.730200  0.849500  1.0  -0.0968
  C  C78  1  0.469900  0.754700  0.776400  1.0  -0.0463
  C  C79  1  0.552300  0.816800  0.907400  1.0  -0.1605
  C  C80  1  0.374000  0.839100  0.835600  1.0  -0.1102
  C  C81  1  0.413700  0.873300  0.901500  1.0  0.0245
  C  C82  1  0.313500  0.956900  0.968400  1.0  -0.0023
  C  C83  1  0.209100  0.080400  0.957100  1.0  0.0169
  C  C84  1  0.322600  0.908300  0.048000  1.0  -0.115
  C  C85  1  0.189700  0.144700  0.875500  1.0  0.0633
  C  C86  1  0.119800  0.143500  0.026200  1.0  -0.1233
  C  C87  1  0.234200  0.972600  0.116900  1.0  0.0074
  C  C88  1  0.298900  0.160000  0.814600  1.0  -0.0879
  C  C89  1  0.058600  0.191600  0.858300  1.0  -0.1449
  C  C90  1  0.127400  0.093300  0.106000  1.0  0.0046
  C  C91  1  0.264700  0.911900  0.197600  1.0  0.0578
  C  C92  1  0.278200  0.217100  0.738700  1.0  -0.0488
  C  C93  1  0.036900  0.252200  0.783100  1.0  -0.1343
  C  C94  1  0.019500  0.168500  0.174100  1.0  0.0468
  C  C95  1  0.270600  0.989100  0.256900  1.0  -0.1027
  C  C96  1  0.303200  0.771800  0.211400  1.0  -0.1533
  C  C97  1  0.145800  0.265000  0.721900  1.0  -0.1171
  C  C98  1  0.949600  0.099500  0.235200  1.0  -0.1137
  C  C99  1  0.981500  0.308900  0.176600  1.0  -0.1587
  C  C100  1  0.317400  0.929200  0.326700  1.0  -0.0547
  C  C101  1  0.346800  0.710600  0.282000  1.0  -0.0526
  C  C102  1  0.123900  0.324200  0.639000  1.0  0.7409
  C  C103  1  0.843200  0.170000  0.294900  1.0  -0.0518
  C  C104  1  0.878200  0.378100  0.239100  1.0  -0.0463
  C  C105  1  0.355800  0.788600  0.339800  1.0  -0.1257
  C  C106  1  0.808000  0.309900  0.298100  1.0  -0.1111
  C  C107  1  0.417400  0.723200  0.411600  1.0  0.7433
  C  C108  1  0.692800  0.384300  0.365300  1.0  0.7317
  O  O109  1  0.413700  0.606300  0.437690  1.0  -0.8311
  O  O110  1  0.523100  0.216300  0.557840  1.0  -0.6412
  O  O111  1  0.594900  0.337500  0.391260  1.0  -0.7301
  O  O112  1  0.294900  0.513700  0.609280  1.0  -0.7029
  O  O113  1  0.313700  0.411800  0.342960  1.0  -0.628
  O  O114  1  0.222000  0.290800  0.579160  1.0  -0.7434
  O  O115  1  0.172600  0.453200  0.257200  1.0  -0.523
  O  O116  1  0.994500  0.596000  0.366270  1.0  -0.5998
  O  O117  1  0.586300  0.393700  0.562310  1.0  -0.8297
  O  O118  1  0.476900  0.783700  0.442160  1.0  -0.6418
  O  O119  1  0.405100  0.662500  0.608740  1.0  -0.7289
  O  O120  1  0.705100  0.486300  0.390720  1.0  -0.7032
  O  O121  1  0.686300  0.588200  0.657040  1.0  -0.6227
  O  O122  1  0.778000  0.709200  0.420840  1.0  -0.7458
  O  O123  1  0.827400  0.546800  0.742800  1.0  -0.5215
  O  O124  1  0.005500  0.404000  0.633730  1.0  -0.5982
