# generated using pymatgen
data_NdH19(C17O4)2
_symmetry_space_group_name_H-M   'P 1'
_cell_length_a   9.52560000
_cell_length_b   12.12720000
_cell_length_c   15.88860000
_cell_angle_alpha   88.50800000
_cell_angle_beta   74.67700000
_cell_angle_gamma   70.37900000
_symmetry_Int_Tables_number   1
_chemical_formula_structural   NdH19(C17O4)2
_chemical_formula_sum   'Nd2 H38 C68 O16'
_cell_volume   1663.42284670
_cell_formula_units_Z   2
loop_
 _symmetry_equiv_pos_site_id
 _symmetry_equiv_pos_as_xyz
  1  'x, y, z'
loop_
 _atom_site_type_symbol
 _atom_site_label
 _atom_site_symmetry_multiplicity
 _atom_site_fract_x
 _atom_site_fract_y
 _atom_site_fract_z
 _atom_site_occupancy
 _atom_site_charge
  Nd  Nd1  1  0.295410  0.975800  0.018390  1.0  2.3385
  Nd  Nd2  1  0.704590  0.024200  0.981610  1.0  2.3421
  H  H3  1  0.987400  0.804800  0.059800  1.0  0.4071
  H  H4  1  0.336900  0.293400  0.516700  1.0  0.1082
  H  H5  1  0.176100  0.698300  0.515700  1.0  0.1067
  H  H6  1  0.264600  0.748400  0.380000  1.0  0.1131
  H  H7  1  0.212000  0.847600  0.258800  1.0  0.1143
  H  H8  1  0.041100  0.603600  0.199600  1.0  0.109
  H  H9  1  0.087100  0.507700  0.323000  1.0  0.089
  H  H10  1  0.465900  0.385800  0.278700  1.0  0.1005
  H  H11  1  0.504500  0.248100  0.167100  1.0  0.111
  H  H12  1  0.153500  0.153100  0.315800  1.0  0.1093
  H  H13  1  0.131600  0.276000  0.432000  1.0  0.115
  H  H14  1  0.225700  0.251100  0.653300  1.0  0.1126
  H  H15  1  0.272000  0.147800  0.773700  1.0  0.104
  H  H16  1  0.490100  0.362700  0.825700  1.0  0.1144
  H  H17  1  0.431100  0.471900  0.709900  1.0  0.0978
  H  H18  1  0.053700  0.569300  0.754500  1.0  0.0905
  H  H19  1  0.988200  0.696200  0.877400  1.0  0.118
  H  H20  1  0.266100  0.866200  0.740600  1.0  0.1115
  H  H21  1  0.316800  0.747700  0.614500  1.0  0.1096
  H  H22  1  0.012600  0.195200  0.940200  1.0  0.4079
  H  H23  1  0.663100  0.706600  0.483300  1.0  0.1078
  H  H24  1  0.823900  0.301700  0.484300  1.0  0.1082
  H  H25  1  0.735400  0.251600  0.620000  1.0  0.1129
  H  H26  1  0.788000  0.152400  0.741200  1.0  0.1141
  H  H27  1  0.958900  0.396400  0.800400  1.0  0.1089
  H  H28  1  0.912900  0.492300  0.677000  1.0  0.0894
  H  H29  1  0.534100  0.614200  0.721300  1.0  0.1005
  H  H30  1  0.495500  0.751900  0.832900  1.0  0.1106
  H  H31  1  0.846500  0.846900  0.684200  1.0  0.1095
  H  H32  1  0.868400  0.724000  0.568000  1.0  0.1149
  H  H33  1  0.774300  0.748900  0.346700  1.0  0.1132
  H  H34  1  0.728000  0.852200  0.226300  1.0  0.1047
  H  H35  1  0.509900  0.637300  0.174300  1.0  0.1146
  H  H36  1  0.568900  0.528100  0.290100  1.0  0.0972
  H  H37  1  0.946300  0.430700  0.245500  1.0  0.0904
  H  H38  1  0.011800  0.303800  0.122600  1.0  0.1179
  H  H39  1  0.733900  0.133800  0.259400  1.0  0.1116
  H  H40  1  0.683200  0.252300  0.385500  1.0  0.11
  C  C41  1  0.224200  0.550900  0.440300  1.0  0.0127
  C  C42  1  0.273100  0.427500  0.441300  1.0  -0.0215
  C  C43  1  0.302500  0.376500  0.516900  1.0  -0.1206
  C  C44  1  0.284300  0.440900  0.593500  1.0  -0.0337
  C  C45  1  0.232800  0.564100  0.593000  1.0  0.0048
  C  C46  1  0.207000  0.615200  0.516300  1.0  -0.1289
  C  C47  1  0.186400  0.615000  0.363400  1.0  0.0447
  C  C48  1  0.219500  0.718500  0.343300  1.0  -0.1469
  C  C49  1  0.188000  0.778000  0.271300  1.0  -0.05
  C  C50  1  0.120500  0.735600  0.216900  1.0  -0.1761
  C  C51  1  0.085600  0.633500  0.236600  1.0  -0.0589
  C  C52  1  0.115300  0.575500  0.309300  1.0  -0.1428
  C  C53  1  0.090000  0.798500  0.139400  1.0  0.6549
  C  C54  1  0.294400  0.345800  0.366800  1.0  0.0497
  C  C55  1  0.404400  0.336800  0.287200  1.0  -0.1317
  C  C56  1  0.425100  0.256600  0.219900  1.0  -0.0469
  C  C57  1  0.329500  0.188900  0.229900  1.0  -0.1251
  C  C58  1  0.219400  0.198500  0.308700  1.0  -0.0082
  C  C59  1  0.204000  0.273500  0.377300  1.0  -0.1194
  C  C60  1  0.338800  0.111400  0.155800  1.0  0.6984
  C  C61  1  0.320800  0.374500  0.669500  1.0  0.0444
  C  C62  1  0.276500  0.275600  0.689400  1.0  -0.1439
  C  C63  1  0.305600  0.213300  0.760500  1.0  -0.0534
  C  C64  1  0.383900  0.245500  0.813200  1.0  -0.1212
  C  C65  1  0.433200  0.341400  0.792000  1.0  -0.0984
  C  C66  1  0.399700  0.405300  0.722200  1.0  -0.1155
  C  C67  1  0.415200  0.175400  0.889600  1.0  0.7244
  C  C68  1  0.194200  0.643300  0.672400  1.0  0.0613
  C  C69  1  0.096200  0.630300  0.751100  1.0  -0.0968
  C  C70  1  0.058900  0.704500  0.824900  1.0  -0.0547
  C  C71  1  0.125700  0.790700  0.821600  1.0  -0.1017
  C  C72  1  0.221800  0.806300  0.743300  1.0  -0.0634
  C  C73  1  0.254100  0.734500  0.668400  1.0  -0.1397
  C  C74  1  0.098700  0.861700  0.903800  1.0  0.6714
  C  C75  1  0.775800  0.449100  0.559700  1.0  0.0126
  C  C76  1  0.726900  0.572500  0.558700  1.0  -0.021
  C  C77  1  0.697500  0.623500  0.483100  1.0  -0.1218
  C  C78  1  0.715700  0.559100  0.406500  1.0  -0.0348
  C  C79  1  0.767200  0.435900  0.407000  1.0  0.0031
  C  C80  1  0.793000  0.384800  0.483700  1.0  -0.1299
  C  C81  1  0.813600  0.385000  0.636600  1.0  0.0448
  C  C82  1  0.780500  0.281500  0.656700  1.0  -0.1475
  C  C83  1  0.812000  0.222000  0.728700  1.0  -0.0533
  C  C84  1  0.879500  0.264400  0.783100  1.0  -0.1763
  C  C85  1  0.914400  0.366500  0.763400  1.0  -0.059
  C  C86  1  0.884700  0.424500  0.690700  1.0  -0.1437
  C  C87  1  0.910000  0.201500  0.860600  1.0  0.6547
  C  C88  1  0.705600  0.654200  0.633200  1.0  0.0499
  C  C89  1  0.595600  0.663200  0.712800  1.0  -0.1304
  C  C90  1  0.574900  0.743400  0.780100  1.0  -0.0468
  C  C91  1  0.670500  0.811100  0.770100  1.0  -0.1236
  C  C92  1  0.780600  0.801500  0.691300  1.0  -0.01
  C  C93  1  0.796000  0.726500  0.622700  1.0  -0.1206
  C  C94  1  0.661200  0.888600  0.844200  1.0  0.6989
  C  C95  1  0.679200  0.625500  0.330500  1.0  0.0441
  C  C96  1  0.723500  0.724400  0.310600  1.0  -0.144
  C  C97  1  0.694400  0.786700  0.239500  1.0  -0.0512
  C  C98  1  0.616100  0.754500  0.186800  1.0  -0.12
  C  C99  1  0.566800  0.658600  0.208000  1.0  -0.0969
  C  C100  1  0.600300  0.594700  0.277800  1.0  -0.1154
  C  C101  1  0.584800  0.824600  0.110400  1.0  0.7249
  C  C102  1  0.805800  0.356700  0.327600  1.0  0.061
  C  C103  1  0.903800  0.369700  0.248900  1.0  -0.0979
  C  C104  1  0.941100  0.295500  0.175100  1.0  -0.0564
  C  C105  1  0.874300  0.209300  0.178400  1.0  -0.1022
  C  C106  1  0.778200  0.193700  0.256700  1.0  -0.0628
  C  C107  1  0.745900  0.265500  0.331600  1.0  -0.1385
  C  C108  1  0.901300  0.138300  0.096200  1.0  0.6719
  O  O109  1  0.131100  0.882900  0.116470  1.0  -0.5919
  O  O110  1  0.012700  0.758800  0.097930  1.0  -0.4834
  O  O111  1  0.236800  0.065400  0.164800  1.0  -0.6517
  O  O112  1  0.447100  0.095300  0.084810  1.0  -0.8291
  O  O113  1  0.535700  0.166600  0.911330  1.0  -0.6921
  O  O114  1  0.318100  0.127100  0.926020  1.0  -0.7212
  O  O115  1  0.208000  0.892200  0.913780  1.0  -0.7247
  O  O116  1  0.969000  0.881800  0.961420  1.0  -0.6528
  O  O117  1  0.868900  0.117100  0.883530  1.0  -0.5922
  O  O118  1  0.987300  0.241200  0.902070  1.0  -0.4813
  O  O119  1  0.763200  0.934600  0.835200  1.0  -0.6522
  O  O120  1  0.552900  0.904700  0.915190  1.0  -0.8302
  O  O121  1  0.464300  0.833400  0.088670  1.0  -0.6924
  O  O122  1  0.681900  0.872900  0.073980  1.0  -0.722
  O  O123  1  0.792000  0.107800  0.086220  1.0  -0.726
  O  O124  1  0.031000  0.118200  0.038580  1.0  -0.6523
