# generated using pymatgen
data_Cd3H98C94(N5O12)2
_symmetry_space_group_name_H-M   'P 1'
_cell_length_a   9.95160000
_cell_length_b   15.78180000
_cell_length_c   16.55090000
_cell_angle_alpha   110.42100000
_cell_angle_beta   101.58200000
_cell_angle_gamma   90.02900000
_symmetry_Int_Tables_number   1
_chemical_formula_structural   Cd3H98C94(N5O12)2
_chemical_formula_sum   'Cd3 H98 C94 N10 O24'
_cell_volume   2379.36726577
_cell_formula_units_Z   1
loop_
 _symmetry_equiv_pos_site_id
 _symmetry_equiv_pos_as_xyz
  1  'x, y, z'
loop_
 _atom_site_type_symbol
 _atom_site_label
 _atom_site_symmetry_multiplicity
 _atom_site_fract_x
 _atom_site_fract_y
 _atom_site_fract_z
 _atom_site_occupancy
 _atom_site_charge
  Cd  Cd1  1  0.959790  0.775210  0.567040  1.0  0.9545
  Cd  Cd2  1  0.040210  0.224790  0.432960  1.0  0.9556
  Cd  Cd3  1  0.500000  0.500000  0.000000  1.0  0.8863
  H  H4  1  0.121700  0.081100  0.663700  1.0  0.3365
  H  H5  1  0.075200  0.094800  0.844700  1.0  0.3749
  H  H6  1  0.133100  0.867400  0.937600  1.0  0.3543
  H  H7  1  0.921800  0.567100  0.878900  1.0  0.3832
  H  H8  1  0.300200  0.562000  0.433800  1.0  0.3537
  H  H9  1  0.782100  0.403600  0.697600  1.0  0.1018
  H  H10  1  0.814800  0.135500  0.608700  1.0  0.1041
  H  H11  1  0.660200  0.251800  0.823100  1.0  0.1045
  H  H12  1  0.811800  0.064000  0.733500  1.0  0.0779
  H  H13  1  0.685700  0.093300  0.778100  1.0  0.0875
  H  H14  1  0.616700  0.934100  0.657400  1.0  0.1095
  H  H15  1  0.442000  0.932800  0.550100  1.0  0.1032
  H  H16  1  0.504600  0.844300  0.558400  1.0  0.1181
  H  H17  1  0.539000  0.881600  0.488100  1.0  0.1134
  H  H18  1  0.171200  0.484900  0.959600  1.0  0.0647
  H  H19  1  0.980700  0.391600  0.879500  1.0  0.1036
  H  H20  1  0.006500  0.240500  0.794500  1.0  0.1026
  H  H21  1  0.412700  0.296200  0.871800  1.0  0.1216
  H  H22  1  0.352300  0.085900  0.684800  1.0  0.1018
  H  H23  1  0.435800  0.167000  0.764800  1.0  0.0923
  H  H24  1  0.333900  0.185700  0.688500  1.0  0.107
  H  H25  1  0.388200  0.196500  0.927200  1.0  0.1068
  H  H26  1  0.466300  0.126000  0.863700  1.0  0.0667
  H  H27  1  0.411400  0.101500  0.935900  1.0  0.1022
  H  H28  1  0.475900  0.989600  0.809600  1.0  0.1145
  H  H29  1  0.476400  0.836900  0.726800  1.0  0.1212
  H  H30  1  0.276500  0.758500  0.639400  1.0  0.0662
  H  H31  1  0.069500  0.967100  0.729700  1.0  0.0751
  H  H32  1  0.559800  0.600400  0.869800  1.0  0.0728
  H  H33  1  0.477300  0.699100  0.800200  1.0  0.1028
  H  H34  1  0.274400  0.766100  0.825200  1.0  0.0925
  H  H35  1  0.254400  0.635600  0.989500  1.0  0.0922
  H  H36  1  0.177000  0.805800  0.056500  1.0  0.1099
  H  H37  1  0.089500  0.714500  0.033100  1.0  0.1052
  H  H38  1  0.016000  0.801900  0.031600  1.0  0.0941
  H  H39  1  0.767400  0.666100  0.831900  1.0  0.112
  H  H40  1  0.834000  0.764700  0.858500  1.0  0.1073
  H  H41  1  0.825300  0.724300  0.931600  1.0  0.0987
  H  H42  1  0.067900  0.519600  0.764100  1.0  0.1083
  H  H43  1  0.100800  0.476800  0.622000  1.0  0.1013
  H  H44  1  0.062800  0.575800  0.547900  1.0  0.0746
  H  H45  1  0.930800  0.748900  0.743800  1.0  0.0999
  H  H46  1  0.791500  0.694100  0.360300  1.0  0.0697
  H  H47  1  0.600800  0.604000  0.268800  1.0  0.1107
  H  H48  1  0.458800  0.534900  0.326500  1.0  0.0985
  H  H49  1  0.709200  0.645800  0.561000  1.0  0.0798
  H  H50  1  0.444300  0.672300  0.578500  1.0  0.1042
  H  H51  1  0.539900  0.618400  0.627400  1.0  0.1051
  H  H52  1  0.380400  0.594900  0.601300  1.0  0.106
  H  H53  1  0.878300  0.918900  0.336300  1.0  0.3344
  H  H54  1  0.924800  0.905200  0.155300  1.0  0.3747
  H  H55  1  0.866900  0.132600  0.062400  1.0  0.3572
  H  H56  1  0.078200  0.432900  0.121100  1.0  0.3828
  H  H57  1  0.699800  0.438000  0.566200  1.0  0.3541
  H  H58  1  0.217900  0.596400  0.302400  1.0  0.1025
  H  H59  1  0.185200  0.864500  0.391300  1.0  0.1041
  H  H60  1  0.339800  0.748200  0.176900  1.0  0.1039
  H  H61  1  0.188200  0.936000  0.266500  1.0  0.0771
  H  H62  1  0.314300  0.906700  0.221900  1.0  0.087
  H  H63  1  0.383300  0.065900  0.342600  1.0  0.1164
  H  H64  1  0.558000  0.067200  0.449900  1.0  0.1009
  H  H65  1  0.495400  0.155700  0.441600  1.0  0.1176
  H  H66  1  0.461000  0.118400  0.511900  1.0  0.1123
  H  H67  1  0.828800  0.515100  0.040400  1.0  0.0645
  H  H68  1  0.019300  0.608400  0.120500  1.0  0.1036
  H  H69  1  0.993500  0.759500  0.205500  1.0  0.1028
  H  H70  1  0.587300  0.703800  0.128200  1.0  0.1213
  H  H71  1  0.647700  0.914100  0.315200  1.0  0.1022
  H  H72  1  0.564200  0.833000  0.235200  1.0  0.0903
  H  H73  1  0.666100  0.814300  0.311500  1.0  0.1056
  H  H74  1  0.611800  0.803500  0.072800  1.0  0.1036
  H  H75  1  0.533700  0.874000  0.136300  1.0  0.0633
  H  H76  1  0.588600  0.898500  0.064100  1.0  0.1014
  H  H77  1  0.524100  0.010400  0.190400  1.0  0.1145
  H  H78  1  0.523600  0.163100  0.273200  1.0  0.1208
  H  H79  1  0.723500  0.241500  0.360600  1.0  0.0664
  H  H80  1  0.930500  0.032900  0.270300  1.0  0.0762
  H  H81  1  0.440200  0.399600  0.130200  1.0  0.0727
  H  H82  1  0.522700  0.300900  0.199800  1.0  0.1032
  H  H83  1  0.725600  0.233900  0.174800  1.0  0.0922
  H  H84  1  0.745600  0.364400  0.010500  1.0  0.093
  H  H85  1  0.823000  0.194200  0.943500  1.0  0.1085
  H  H86  1  0.910500  0.285500  0.966900  1.0  0.1054
  H  H87  1  0.984000  0.198100  0.968400  1.0  0.0959
  H  H88  1  0.232600  0.333900  0.168100  1.0  0.1121
  H  H89  1  0.166000  0.235300  0.141500  1.0  0.1101
  H  H90  1  0.174700  0.275700  0.068400  1.0  0.0993
  H  H91  1  0.932100  0.480400  0.235900  1.0  0.1087
  H  H92  1  0.899200  0.523200  0.378000  1.0  0.1009
  H  H93  1  0.937200  0.424200  0.452100  1.0  0.0746
  H  H94  1  0.069200  0.251100  0.256200  1.0  0.0994
  H  H95  1  0.208500  0.305900  0.639700  1.0  0.0698
  H  H96  1  0.399200  0.396000  0.731200  1.0  0.1104
  H  H97  1  0.541200  0.465100  0.673500  1.0  0.0989
  H  H98  1  0.290800  0.354200  0.439000  1.0  0.0809
  H  H99  1  0.555700  0.327700  0.421500  1.0  0.1032
  H  H100  1  0.460100  0.381600  0.372600  1.0  0.1051
  H  H101  1  0.619600  0.405100  0.398700  1.0  0.1068
  C  C102  1  0.685100  0.425900  0.842000  1.0  0.6908
  C  C103  1  0.866700  0.276000  0.567000  1.0  0.6937
  C  C104  1  0.717000  0.340900  0.771800  1.0  -0.1058
  C  C105  1  0.770400  0.347300  0.702500  1.0  -0.0458
  C  C106  1  0.806200  0.270900  0.640800  1.0  -0.1869
  C  C107  1  0.788800  0.186900  0.649200  1.0  -0.0775
  C  C108  1  0.733600  0.178800  0.716800  1.0  0.065
  C  C109  1  0.697800  0.256500  0.777600  1.0  -0.1014
  C  C110  1  0.721700  0.087300  0.726300  1.0  0.0306
  C  C111  1  0.640700  0.952700  0.611100  1.0  0.0802
  C  C112  1  0.767700  0.900800  0.611300  1.0  0.6748
  C  C113  1  0.521300  0.898100  0.546300  1.0  -0.3586
  C  C114  1  0.182000  0.425800  0.924700  1.0  0.1889
  C  C115  1  0.067700  0.370500  0.877900  1.0  -0.1674
  C  C116  1  0.083400  0.280300  0.826700  1.0  -0.0798
  C  C117  1  0.215200  0.251400  0.824700  1.0  0.0346
  C  C118  1  0.324000  0.314100  0.873500  1.0  0.0963
  C  C119  1  0.235600  0.153100  0.771300  1.0  0.1809
  C  C120  1  0.349700  0.147400  0.723000  1.0  -0.3971
  C  C121  1  0.263900  0.096400  0.833200  1.0  0.1359
  C  C122  1  0.393400  0.133200  0.895200  1.0  -0.3808
  C  C123  1  0.271100  0.996200  0.779100  1.0  0.0689
  C  C124  1  0.393700  0.955900  0.776900  1.0  -0.0978
  C  C125  1  0.394600  0.865400  0.726100  1.0  -0.1391
  C  C126  1  0.274800  0.818700  0.675300  1.0  0.1738
  C  C127  1  0.153800  0.942000  0.727500  1.0  0.1546
  C  C128  1  0.478700  0.627200  0.880100  1.0  0.1747
  C  C129  1  0.429700  0.686300  0.838000  1.0  -0.1077
  C  C130  1  0.308800  0.726300  0.853200  1.0  -0.0402
  C  C131  1  0.239400  0.707100  0.909800  1.0  0.0233
  C  C132  1  0.298000  0.648000  0.949700  1.0  0.1433
  C  C133  1  0.100400  0.744900  0.925400  1.0  0.1815
  C  C134  1  0.095300  0.768900  0.020100  1.0  -0.3763
  C  C135  1  0.979400  0.672900  0.865500  1.0  0.1939
  C  C136  1  0.838300  0.710500  0.872500  1.0  -0.3736
  C  C137  1  0.996100  0.639900  0.769400  1.0  0.0098
  C  C138  1  0.047700  0.558000  0.732300  1.0  -0.0288
  C  C139  1  0.069200  0.533100  0.648600  1.0  -0.1196
  C  C140  1  0.043900  0.592200  0.603900  1.0  0.171
  C  C141  1  0.968400  0.694200  0.719900  1.0  0.1379
  C  C142  1  0.735400  0.666000  0.383700  1.0  0.1618
  C  C143  1  0.620900  0.612500  0.328600  1.0  -0.1271
  C  C144  1  0.536300  0.571700  0.363000  1.0  -0.0626
  C  C145  1  0.567300  0.585800  0.452400  1.0  0.0774
  C  C146  1  0.685200  0.638100  0.501400  1.0  0.1627
  C  C147  1  0.472300  0.544900  0.494600  1.0  0.2174
  C  C148  1  0.457900  0.614100  0.583800  1.0  -0.3734
  C  C149  1  0.314900  0.574100  0.158000  1.0  0.6903
  C  C150  1  0.133300  0.724000  0.433000  1.0  0.6948
  C  C151  1  0.283000  0.659100  0.228200  1.0  -0.1058
  C  C152  1  0.229600  0.652700  0.297500  1.0  -0.0455
  C  C153  1  0.193800  0.729100  0.359200  1.0  -0.1873
  C  C154  1  0.211200  0.813100  0.350800  1.0  -0.0781
  C  C155  1  0.266400  0.821200  0.283200  1.0  0.0651
  C  C156  1  0.302200  0.743500  0.222400  1.0  -0.1003
  C  C157  1  0.278300  0.912700  0.273700  1.0  0.0306
  C  C158  1  0.359300  0.047300  0.388900  1.0  0.0742
  C  C159  1  0.232300  0.099200  0.388700  1.0  0.6738
  C  C160  1  0.478700  0.101900  0.453700  1.0  -0.3581
  C  C161  1  0.818000  0.574200  0.075300  1.0  0.1882
  C  C162  1  0.932300  0.629500  0.122100  1.0  -0.1666
  C  C163  1  0.916600  0.719700  0.173300  1.0  -0.0822
  C  C164  1  0.784800  0.748600  0.175300  1.0  0.0347
  C  C165  1  0.676000  0.685900  0.126500  1.0  0.0939
  C  C166  1  0.764400  0.846900  0.228700  1.0  0.1805
  C  C167  1  0.650300  0.852600  0.277000  1.0  -0.3967
  C  C168  1  0.736100  0.903600  0.166800  1.0  0.1378
  C  C169  1  0.606600  0.866800  0.104800  1.0  -0.3813
  C  C170  1  0.728900  0.003800  0.220900  1.0  0.0697
  C  C171  1  0.606300  0.044100  0.223100  1.0  -0.1
  C  C172  1  0.605400  0.134600  0.273900  1.0  -0.1394
  C  C173  1  0.725200  0.181300  0.324700  1.0  0.1744
  C  C174  1  0.846200  0.058000  0.272500  1.0  0.1561
  C  C175  1  0.521300  0.372800  0.119900  1.0  0.1743
  C  C176  1  0.570300  0.313700  0.162000  1.0  -0.1066
  C  C177  1  0.691200  0.273700  0.146800  1.0  -0.0401
  C  C178  1  0.760600  0.292900  0.090200  1.0  0.0218
  C  C179  1  0.702000  0.352000  0.050300  1.0  0.1433
  C  C180  1  0.899600  0.255100  0.074600  1.0  0.1812
  C  C181  1  0.904700  0.231100  0.979900  1.0  -0.3766
  C  C182  1  0.020600  0.327100  0.134500  1.0  0.1936
  C  C183  1  0.161700  0.289500  0.127500  1.0  -0.3719
  C  C184  1  0.003900  0.360100  0.230600  1.0  0.0091
  C  C185  1  0.952300  0.442000  0.267700  1.0  -0.0293
  C  C186  1  0.930800  0.466900  0.351400  1.0  -0.1203
  C  C187  1  0.956100  0.407800  0.396100  1.0  0.1697
  C  C188  1  0.031600  0.305800  0.280100  1.0  0.1386
  C  C189  1  0.264600  0.334000  0.616300  1.0  0.1626
  C  C190  1  0.379100  0.387500  0.671400  1.0  -0.1243
  C  C191  1  0.463700  0.428300  0.637000  1.0  -0.0625
  C  C192  1  0.432700  0.414200  0.547600  1.0  0.0778
  C  C193  1  0.314800  0.361900  0.498600  1.0  0.1637
  C  C194  1  0.527700  0.455100  0.505400  1.0  0.2159
  C  C195  1  0.542100  0.385900  0.416200  1.0  -0.3747
  N  N196  1  0.308600  0.400300  0.923500  1.0  -0.3619
  N  N197  1  0.153900  0.856200  0.674900  1.0  -0.3591
  N  N198  1  0.413900  0.607500  0.934500  1.0  -0.3562
  N  N199  1  0.993600  0.671300  0.637300  1.0  -0.3594
  N  N200  1  0.769000  0.679300  0.469800  1.0  -0.3743
  N  N201  1  0.691400  0.599700  0.076500  1.0  -0.364
  N  N202  1  0.846100  0.143800  0.325100  1.0  -0.3559
  N  N203  1  0.586100  0.392500  0.065500  1.0  -0.3582
  N  N204  1  0.006400  0.328700  0.362700  1.0  -0.3597
  N  N205  1  0.231000  0.320700  0.530200  1.0  -0.3739
  O  O206  1  0.605200  0.415300  0.887800  1.0  -0.6588
  O  O207  1  0.738400  0.500800  0.849100  1.0  -0.5769
  O  O208  1  0.847900  0.341700  0.541400  1.0  -0.5495
  O  O209  1  0.938700  0.212500  0.535100  1.0  -0.6049
  O  O210  1  0.633500  0.027000  0.650700  1.0  -0.502
  O  O211  1  0.837800  0.900400  0.558000  1.0  -0.6014
  O  O212  1  0.794300  0.855800  0.659700  1.0  -0.6157
  O  O213  1  0.107000  0.116000  0.710500  1.0  -0.5338
  O  O214  1  0.148800  0.101300  0.879700  1.0  -0.5608
  O  O215  1  0.087300  0.823600  0.898600  1.0  -0.572
  O  O216  1  0.993000  0.600500  0.898400  1.0  -0.5287
  O  O217  1  0.339300  0.517100  0.436700  1.0  -0.5674
  O  O218  1  0.394800  0.584700  0.112200  1.0  -0.6583
  O  O219  1  0.261600  0.499200  0.150900  1.0  -0.578
  O  O220  1  0.152100  0.658300  0.458600  1.0  -0.5492
  O  O221  1  0.061300  0.787500  0.464900  1.0  -0.6052
  O  O222  1  0.366500  0.973000  0.349300  1.0  -0.5013
  O  O223  1  0.162200  0.099600  0.442000  1.0  -0.6022
  O  O224  1  0.205700  0.144200  0.340300  1.0  -0.6153
  O  O225  1  0.893000  0.884000  0.289500  1.0  -0.5328
  O  O226  1  0.851200  0.898700  0.120300  1.0  -0.5615
  O  O227  1  0.912700  0.176400  0.101400  1.0  -0.5776
  O  O228  1  0.007000  0.399500  0.101600  1.0  -0.5282
  O  O229  1  0.660700  0.482900  0.563300  1.0  -0.5645
