# generated using pymatgen
data_Al3P3HO13
_symmetry_space_group_name_H-M   'P 1'
_cell_length_a   8.48800000
_cell_length_b   17.72100000
_cell_length_c   9.02400000
_cell_angle_alpha   90.00000000
_cell_angle_beta   106.96000000
_cell_angle_gamma   90.00000000
_symmetry_Int_Tables_number   1
_chemical_formula_structural   Al3P3HO13
_chemical_formula_sum   'Al12 P12 H4 O52'
_cell_volume   1298.31949697
_cell_formula_units_Z   4
loop_
 _symmetry_equiv_pos_site_id
 _symmetry_equiv_pos_as_xyz
  1  'x, y, z'
loop_
 _atom_site_type_symbol
 _atom_site_label
 _atom_site_symmetry_multiplicity
 _atom_site_fract_x
 _atom_site_fract_y
 _atom_site_fract_z
 _atom_site_occupancy
 _atom_site_charge
  Al  Al1  1  0.983260  0.176610  0.807770  1.0  1.9787
  Al  Al2  1  0.927750  0.294470  0.207180  1.0  1.8725
  Al  Al3  1  0.371400  0.392510  0.829610  1.0  1.8824
  Al  Al4  1  0.516740  0.676610  0.692230  1.0  1.9786
  Al  Al5  1  0.572250  0.794470  0.292820  1.0  1.8732
  Al  Al6  1  0.128600  0.892510  0.670390  1.0  1.8802
  Al  Al7  1  0.016740  0.823390  0.192230  1.0  1.9791
  Al  Al8  1  0.072250  0.705530  0.792820  1.0  1.8704
  Al  Al9  1  0.628600  0.607490  0.170390  1.0  1.8798
  Al  Al10  1  0.483260  0.323390  0.307770  1.0  1.9791
  Al  Al11  1  0.427750  0.205530  0.707180  1.0  1.869
  Al  Al12  1  0.871400  0.107490  0.329610  1.0  1.8827
  P  P13  1  0.204420  0.289970  0.024540  1.0  1.9573
  P  P14  1  0.733640  0.169250  0.000120  1.0  1.8984
  P  P15  1  0.157370  0.071380  0.637490  1.0  1.9401
  P  P16  1  0.295580  0.789970  0.475460  1.0  1.9576
  P  P17  1  0.766360  0.669250  0.499880  1.0  1.8984
  P  P18  1  0.342630  0.571380  0.862510  1.0  1.9363
  P  P19  1  0.795580  0.710030  0.975460  1.0  1.9576
  P  P20  1  0.266360  0.830750  0.999880  1.0  1.8994
  P  P21  1  0.842630  0.928620  0.362510  1.0  1.9362
  P  P22  1  0.704420  0.210030  0.524540  1.0  1.9573
  P  P23  1  0.233640  0.330750  0.500120  1.0  1.8992
  P  P24  1  0.657370  0.428620  0.137490  1.0  1.9396
  H  H25  1  0.062800  0.204500  0.372600  1.0  0.4323
  H  H26  1  0.437200  0.704500  0.127400  1.0  0.432
  H  H27  1  0.937200  0.795500  0.627400  1.0  0.4321
  H  H28  1  0.562800  0.295500  0.872600  1.0  0.4321
  O  O29  1  0.163100  0.223300  0.911100  1.0  -0.9498
  O  O30  1  0.239400  0.359080  0.942800  1.0  -0.9069
  O  O31  1  0.059800  0.306500  0.084600  1.0  -1.002
  O  O32  1  0.357600  0.268900  0.157000  1.0  -0.9126
  O  O33  1  0.874100  0.147300  0.931700  1.0  -1.0178
  O  O34  1  0.569200  0.158800  0.879600  1.0  -0.8612
  O  O35  1  0.743400  0.114100  0.131700  1.0  -0.8461
  O  O36  1  0.753700  0.250380  0.056600  1.0  -0.8353
  O  O37  1  0.044400  0.094400  0.736600  1.0  -0.9365
  O  O38  1  0.065600  0.083700  0.468800  1.0  -0.9247
  O  O39  1  0.313000  0.118700  0.682900  1.0  -0.9761
  O  O40  1  0.208800  0.990730  0.670000  1.0  -0.8465
  O  O41  1  0.966100  0.203400  0.309900  1.0  -0.9408
  O  O42  1  0.336900  0.723300  0.588900  1.0  -0.9511
  O  O43  1  0.260600  0.859080  0.557200  1.0  -0.9053
  O  O44  1  0.440200  0.806500  0.415400  1.0  -1.0032
  O  O45  1  0.142400  0.768900  0.343000  1.0  -0.9126
  O  O46  1  0.625900  0.647300  0.568300  1.0  -1.0179
  O  O47  1  0.930800  0.658800  0.620400  1.0  -0.8623
  O  O48  1  0.756600  0.614100  0.368300  1.0  -0.8467
  O  O49  1  0.746300  0.750380  0.443400  1.0  -0.8352
  O  O50  1  0.455600  0.594400  0.763400  1.0  -0.9351
  O  O51  1  0.434400  0.583700  0.031200  1.0  -0.9249
  O  O52  1  0.187000  0.618700  0.817100  1.0  -0.9745
  O  O53  1  0.291200  0.490730  0.830000  1.0  -0.8454
  O  O54  1  0.533900  0.703400  0.190100  1.0  -0.9393
  O  O55  1  0.836900  0.776700  0.088900  1.0  -0.9518
  O  O56  1  0.760600  0.640920  0.057200  1.0  -0.9066
  O  O57  1  0.940200  0.693500  0.915400  1.0  -1.0023
  O  O58  1  0.642400  0.731100  0.843000  1.0  -0.9116
  O  O59  1  0.125900  0.852700  0.068300  1.0  -1.0199
  O  O60  1  0.430800  0.841200  0.120400  1.0  -0.8626
  O  O61  1  0.256600  0.885900  0.868300  1.0  -0.8476
  O  O62  1  0.246300  0.749620  0.943400  1.0  -0.8353
  O  O63  1  0.955600  0.905600  0.263400  1.0  -0.9374
  O  O64  1  0.934400  0.916300  0.531200  1.0  -0.9261
  O  O65  1  0.687000  0.881300  0.317100  1.0  -0.974
  O  O66  1  0.791200  0.009270  0.330000  1.0  -0.845
  O  O67  1  0.033900  0.796600  0.690100  1.0  -0.9397
  O  O68  1  0.663100  0.276700  0.411100  1.0  -0.9509
  O  O69  1  0.739400  0.140920  0.442800  1.0  -0.9072
  O  O70  1  0.559800  0.193500  0.584600  1.0  -1.0012
  O  O71  1  0.857600  0.231100  0.657000  1.0  -0.9124
  O  O72  1  0.374100  0.352700  0.431700  1.0  -1.0202
  O  O73  1  0.069200  0.341200  0.379600  1.0  -0.8619
  O  O74  1  0.243400  0.385900  0.631700  1.0  -0.8478
  O  O75  1  0.253700  0.249620  0.556600  1.0  -0.8352
  O  O76  1  0.544400  0.405600  0.236600  1.0  -0.9381
  O  O77  1  0.565600  0.416300  0.968800  1.0  -0.9259
  O  O78  1  0.813000  0.381300  0.182900  1.0  -0.9748
  O  O79  1  0.708800  0.509270  0.170000  1.0  -0.8461
  O  O80  1  0.466100  0.296600  0.809900  1.0  -0.9404
