# generated using pymatgen
data_CeH19(C17O4)2
_symmetry_space_group_name_H-M   'P 1'
_cell_length_a   9.56030000
_cell_length_b   12.13860000
_cell_length_c   15.94580000
_cell_angle_alpha   88.45500000
_cell_angle_beta   74.41700000
_cell_angle_gamma   70.23300000
_symmetry_Int_Tables_number   1
_chemical_formula_structural   CeH19(C17O4)2
_chemical_formula_sum   'Ce2 H38 C68 O16'
_cell_volume   1673.26683515
_cell_formula_units_Z   2
loop_
 _symmetry_equiv_pos_site_id
 _symmetry_equiv_pos_as_xyz
  1  'x, y, z'
loop_
 _atom_site_type_symbol
 _atom_site_label
 _atom_site_symmetry_multiplicity
 _atom_site_fract_x
 _atom_site_fract_y
 _atom_site_fract_z
 _atom_site_occupancy
 _atom_site_charge
  Ce  Ce1  1  0.295540  0.974470  0.018290  1.0  2.2769
  Ce  Ce2  1  0.704460  0.025530  0.981710  1.0  2.2853
  H  H3  1  0.991800  0.799800  0.058500  1.0  0.3973
  H  H4  1  0.339800  0.293200  0.514900  1.0  0.1106
  H  H5  1  0.176900  0.698000  0.514900  1.0  0.1076
  H  H6  1  0.085100  0.508200  0.324600  1.0  0.0914
  H  H7  1  0.037300  0.603900  0.202100  1.0  0.1089
  H  H8  1  0.207000  0.848800  0.258600  1.0  0.112
  H  H9  1  0.261200  0.749600  0.379500  1.0  0.1143
  H  H10  1  0.464700  0.385500  0.277700  1.0  0.1036
  H  H11  1  0.499700  0.249000  0.166800  1.0  0.1062
  H  H12  1  0.153500  0.152800  0.318100  1.0  0.1115
  H  H13  1  0.130600  0.277700  0.432700  1.0  0.1196
  H  H14  1  0.230100  0.250400  0.651100  1.0  0.1129
  H  H15  1  0.274900  0.147400  0.771100  1.0  0.1068
  H  H16  1  0.490300  0.362300  0.823800  1.0  0.1172
  H  H17  1  0.432500  0.471700  0.707000  1.0  0.0997
  H  H18  1  0.053300  0.569100  0.752500  1.0  0.0956
  H  H19  1  0.989400  0.694700  0.875500  1.0  0.1166
  H  H20  1  0.269800  0.863000  0.740600  1.0  0.1144
  H  H21  1  0.318500  0.747200  0.614400  1.0  0.1099
  H  H22  1  0.008200  0.200200  0.941500  1.0  0.3983
  H  H23  1  0.660200  0.706800  0.485100  1.0  0.1101
  H  H24  1  0.823100  0.302000  0.485100  1.0  0.1088
  H  H25  1  0.914900  0.491800  0.675400  1.0  0.0916
  H  H26  1  0.962700  0.396100  0.797900  1.0  0.1086
  H  H27  1  0.793000  0.151200  0.741400  1.0  0.1118
  H  H28  1  0.738800  0.250400  0.620500  1.0  0.1142
  H  H29  1  0.535300  0.614500  0.722300  1.0  0.1036
  H  H30  1  0.500300  0.751000  0.833200  1.0  0.1061
  H  H31  1  0.846500  0.847200  0.681900  1.0  0.1118
  H  H32  1  0.869400  0.722300  0.567300  1.0  0.1196
  H  H33  1  0.769900  0.749600  0.348900  1.0  0.1134
  H  H34  1  0.725100  0.852600  0.228900  1.0  0.1078
  H  H35  1  0.509700  0.637700  0.176200  1.0  0.1172
  H  H36  1  0.567500  0.528300  0.293000  1.0  0.0992
  H  H37  1  0.946700  0.430900  0.247500  1.0  0.0955
  H  H38  1  0.010600  0.305300  0.124500  1.0  0.1164
  H  H39  1  0.730200  0.137000  0.259400  1.0  0.1144
  H  H40  1  0.681500  0.252800  0.385600  1.0  0.1104
  C  C41  1  0.223800  0.551100  0.439600  1.0  0.0041
  C  C42  1  0.273000  0.428100  0.440500  1.0  -0.0028
  C  C43  1  0.304400  0.376400  0.515500  1.0  -0.1252
  C  C44  1  0.286700  0.440500  0.591700  1.0  0.0021
  C  C45  1  0.233200  0.564400  0.592100  1.0  0.0049
  C  C46  1  0.207400  0.615000  0.515500  1.0  -0.0972
  C  C47  1  0.183900  0.616100  0.363600  1.0  0.0501
  C  C48  1  0.112700  0.576000  0.310600  1.0  -0.1262
  C  C49  1  0.082300  0.633800  0.238400  1.0  -0.0531
  C  C50  1  0.117100  0.735400  0.218100  1.0  -0.1569
  C  C51  1  0.183900  0.778900  0.271500  1.0  -0.0476
  C  C52  1  0.216200  0.719600  0.343200  1.0  -0.1396
  C  C53  1  0.086000  0.798900  0.140800  1.0  0.6666
  C  C54  1  0.294000  0.346300  0.366100  1.0  0.0069
  C  C55  1  0.402700  0.337100  0.286700  1.0  -0.1187
  C  C56  1  0.421500  0.257300  0.220000  1.0  -0.0337
  C  C57  1  0.327600  0.190100  0.230200  1.0  -0.132
  C  C58  1  0.218200  0.199100  0.310200  1.0  -0.0152
  C  C59  1  0.203000  0.274400  0.377900  1.0  -0.1147
  C  C60  1  0.336500  0.112200  0.157500  1.0  0.6877
  C  C61  1  0.322200  0.374100  0.667900  1.0  0.047
  C  C62  1  0.279900  0.275200  0.687300  1.0  -0.1333
  C  C63  1  0.308600  0.212700  0.757800  1.0  -0.0719
  C  C64  1  0.387100  0.244500  0.809900  1.0  -0.1281
  C  C65  1  0.434700  0.340700  0.789800  1.0  -0.0634
  C  C66  1  0.401100  0.405300  0.719700  1.0  -0.1123
  C  C67  1  0.417000  0.175100  0.886400  1.0  0.7213
  C  C68  1  0.195200  0.643000  0.671300  1.0  0.0577
  C  C69  1  0.096400  0.629500  0.749500  1.0  -0.1194
  C  C70  1  0.060000  0.703200  0.823200  1.0  -0.0501
  C  C71  1  0.126600  0.789500  0.820600  1.0  -0.1062
  C  C72  1  0.224100  0.804300  0.742800  1.0  -0.0689
  C  C73  1  0.255600  0.733700  0.668000  1.0  -0.1438
  C  C74  1  0.099200  0.859100  0.902500  1.0  0.6866
  C  C75  1  0.776200  0.448900  0.560400  1.0  0.004
  C  C76  1  0.727000  0.571900  0.559500  1.0  -0.0023
  C  C77  1  0.695600  0.623600  0.484500  1.0  -0.127
  C  C78  1  0.713300  0.559500  0.408300  1.0  0.0011
  C  C79  1  0.766800  0.435600  0.407900  1.0  0.0032
  C  C80  1  0.792600  0.385000  0.484500  1.0  -0.0981
  C  C81  1  0.816100  0.383900  0.636400  1.0  0.0516
  C  C82  1  0.887300  0.424000  0.689400  1.0  -0.1264
  C  C83  1  0.917700  0.366200  0.761600  1.0  -0.0543
  C  C84  1  0.882900  0.264600  0.781900  1.0  -0.1575
  C  C85  1  0.816100  0.221100  0.728500  1.0  -0.0513
  C  C86  1  0.783800  0.280400  0.656800  1.0  -0.1402
  C  C87  1  0.914000  0.201100  0.859200  1.0  0.6665
  C  C88  1  0.706000  0.653700  0.633900  1.0  0.0074
  C  C89  1  0.597300  0.662900  0.713300  1.0  -0.1176
  C  C90  1  0.578500  0.742700  0.780000  1.0  -0.0334
  C  C91  1  0.672400  0.809900  0.769800  1.0  -0.1303
  C  C92  1  0.781800  0.800900  0.689800  1.0  -0.0177
  C  C93  1  0.797000  0.725600  0.622100  1.0  -0.1158
  C  C94  1  0.663500  0.887800  0.842500  1.0  0.6872
  C  C95  1  0.677800  0.625900  0.332100  1.0  0.0473
  C  C96  1  0.720100  0.724800  0.312700  1.0  -0.1326
  C  C97  1  0.691400  0.787300  0.242200  1.0  -0.0708
  C  C98  1  0.612900  0.755500  0.190100  1.0  -0.1269
  C  C99  1  0.565300  0.659300  0.210200  1.0  -0.0604
  C  C100  1  0.598900  0.594700  0.280300  1.0  -0.1129
  C  C101  1  0.583000  0.824900  0.113600  1.0  0.7212
  C  C102  1  0.804800  0.357000  0.328700  1.0  0.0575
  C  C103  1  0.903600  0.370500  0.250500  1.0  -0.1205
  C  C104  1  0.940000  0.296800  0.176800  1.0  -0.0519
  C  C105  1  0.873400  0.210500  0.179400  1.0  -0.1069
  C  C106  1  0.775900  0.195700  0.257200  1.0  -0.069
  C  C107  1  0.744400  0.266300  0.332000  1.0  -0.1402
  C  C108  1  0.900800  0.140900  0.097500  1.0  0.6856
  O  O109  1  0.125400  0.883500  0.117780  1.0  -0.627
  O  O110  1  0.010900  0.757500  0.099460  1.0  -0.4976
  O  O111  1  0.236900  0.062800  0.167350  1.0  -0.6598
  O  O112  1  0.441200  0.098200  0.084600  1.0  -0.8227
  O  O113  1  0.534200  0.169200  0.909600  1.0  -0.6976
  O  O114  1  0.321300  0.124000  0.921310  1.0  -0.7232
  O  O115  1  0.206300  0.890600  0.912960  1.0  -0.7173
  O  O116  1  0.969700  0.878300  0.961020  1.0  -0.6625
  O  O117  1  0.874600  0.116500  0.882220  1.0  -0.6267
  O  O118  1  0.989100  0.242500  0.900540  1.0  -0.496
  O  O119  1  0.763100  0.937200  0.832650  1.0  -0.6605
  O  O120  1  0.558800  0.901800  0.915400  1.0  -0.8222
  O  O121  1  0.465800  0.830800  0.090400  1.0  -0.6985
  O  O122  1  0.678700  0.876000  0.078690  1.0  -0.7244
  O  O123  1  0.793700  0.109400  0.087040  1.0  -0.7192
  O  O124  1  0.030300  0.121700  0.038980  1.0  -0.6648
