# generated using pymatgen
data_MnGa2P3H2(CO5)4
_symmetry_space_group_name_H-M   'P 1'
_cell_length_a   9.52860000
_cell_length_b   10.14510000
_cell_length_c   12.57960000
_cell_angle_alpha   86.42900000
_cell_angle_beta   69.60600000
_cell_angle_gamma   62.33800000
_symmetry_Int_Tables_number   1
_chemical_formula_structural   MnGa2P3H2(CO5)4
_chemical_formula_sum   'Mn2 Ga4 P6 H4 C8 O40'
_cell_volume   1002.27144259
_cell_formula_units_Z   2
loop_
 _symmetry_equiv_pos_site_id
 _symmetry_equiv_pos_as_xyz
  1  'x, y, z'
loop_
 _atom_site_type_symbol
 _atom_site_label
 _atom_site_symmetry_multiplicity
 _atom_site_fract_x
 _atom_site_fract_y
 _atom_site_fract_z
 _atom_site_occupancy
 _atom_site_charge
  Mn  Mn1  1  0.746740  0.764260  0.434140  1.0  1.071
  Mn  Mn2  1  0.253260  0.235740  0.565860  1.0  1.0706
  Ga  Ga3  1  0.866590  0.917900  0.163740  1.0  1.6399
  Ga  Ga4  1  0.897010  0.853950  0.663210  1.0  1.6227
  Ga  Ga5  1  0.133410  0.082100  0.836260  1.0  1.642
  Ga  Ga6  1  0.102990  0.146050  0.336790  1.0  1.6238
  P  P7  1  0.995580  0.842610  0.887240  1.0  1.7612
  P  P8  1  0.888390  0.965370  0.415540  1.0  1.8009
  P  P9  1  0.485600  0.013690  0.317560  1.0  1.8231
  P  P10  1  0.004420  0.157390  0.112760  1.0  1.7631
  P  P11  1  0.111610  0.034630  0.584460  1.0  1.8002
  P  P12  1  0.514400  0.986310  0.682440  1.0  1.8246
  H  H13  1  0.639400  0.118800  0.517300  1.0  0.4259
  H  H14  1  0.084700  0.602600  0.889100  1.0  0.434
  H  H15  1  0.360600  0.881200  0.482700  1.0  0.4256
  H  H16  1  0.915300  0.397400  0.110900  1.0  0.4354
  C  C17  1  0.021400  0.604500  0.130200  1.0  0.6669
  C  C18  1  0.163900  0.646400  0.115900  1.0  0.6422
  C  C19  1  0.985500  0.549000  0.636500  1.0  0.6603
  C  C20  1  0.153700  0.556400  0.596900  1.0  0.6326
  C  C21  1  0.978600  0.395500  0.869800  1.0  0.6675
  C  C22  1  0.836100  0.353600  0.884100  1.0  0.6415
  C  C23  1  0.014500  0.451000  0.363500  1.0  0.6623
  C  C24  1  0.846300  0.443600  0.403100  1.0  0.6335
  O  O25  1  0.883600  0.922500  0.007000  1.0  -0.7933
  O  O26  1  0.125000  0.897200  0.826100  1.0  -0.8016
  O  O27  1  0.881600  0.855800  0.822400  1.0  -0.7639
  O  O28  1  0.111400  0.669300  0.888900  1.0  -0.6178
  O  O29  1  0.044500  0.984700  0.359300  1.0  -0.8058
  O  O30  1  0.906100  0.851500  0.502400  1.0  -0.8145
  O  O31  1  0.843600  0.904700  0.329500  1.0  -0.8121
  O  O32  1  0.734900  0.122300  0.475800  1.0  -0.5354
  O  O33  1  0.623600  0.013600  0.208000  1.0  -0.7458
  O  O34  1  0.344100  0.020200  0.279700  1.0  -0.7526
  O  O35  1  0.423400  0.150400  0.399400  1.0  -0.7685
  O  O36  1  0.545700  0.868600  0.373100  1.0  -0.793
  O  O37  1  0.852800  0.673300  0.675300  1.0  -0.5219
  O  O38  1  0.140100  0.684900  0.611600  1.0  -0.5386
  O  O39  1  0.116800  0.786300  0.126200  1.0  -0.5285
  O  O40  1  0.873500  0.714400  0.163200  1.0  -0.5274
  O  O41  1  0.289800  0.438200  0.557600  1.0  -0.5473
  O  O42  1  0.993800  0.424400  0.628500  1.0  -0.5281
  O  O43  1  0.062300  0.471700  0.110200  1.0  -0.5149
  O  O44  1  0.310200  0.546400  0.099500  1.0  -0.473
  O  O45  1  0.116400  0.077500  0.993000  1.0  -0.7912
  O  O46  1  0.875000  0.102800  0.173900  1.0  -0.8013
  O  O47  1  0.118400  0.144200  0.177600  1.0  -0.7634
  O  O48  1  0.888600  0.330700  0.111100  1.0  -0.6188
  O  O49  1  0.955500  0.015300  0.640700  1.0  -0.8068
  O  O50  1  0.093900  0.148500  0.497600  1.0  -0.8152
  O  O51  1  0.156400  0.095300  0.670500  1.0  -0.8132
  O  O52  1  0.265100  0.877700  0.524200  1.0  -0.5353
  O  O53  1  0.376400  0.986400  0.792000  1.0  -0.7436
  O  O54  1  0.655900  0.979800  0.720300  1.0  -0.7525
  O  O55  1  0.576600  0.849600  0.600600  1.0  -0.7693
  O  O56  1  0.454300  0.131400  0.626900  1.0  -0.7942
  O  O57  1  0.147200  0.326700  0.324700  1.0  -0.5216
  O  O58  1  0.859900  0.315100  0.388400  1.0  -0.5377
  O  O59  1  0.883200  0.213700  0.873800  1.0  -0.5321
  O  O60  1  0.126500  0.285600  0.836800  1.0  -0.5257
  O  O61  1  0.710200  0.561800  0.442400  1.0  -0.5491
  O  O62  1  0.006200  0.575600  0.371500  1.0  -0.5279
  O  O63  1  0.937700  0.528300  0.889800  1.0  -0.5141
  O  O64  1  0.689800  0.453600  0.900500  1.0  -0.4741
