# generated using pymatgen
data_MnGa4P4C2(O10F)2
_symmetry_space_group_name_H-M   'P 1'
_cell_length_a   8.14520000
_cell_length_b   8.90290000
_cell_length_c   10.44520000
_cell_angle_alpha   111.43700000
_cell_angle_beta   103.73400000
_cell_angle_gamma   102.09600000
_symmetry_Int_Tables_number   1
_chemical_formula_structural   MnGa4P4C2(O10F)2
_chemical_formula_sum   'Mn1 Ga4 P4 C2 O20 F2'
_cell_volume   647.06370646
_cell_formula_units_Z   1
loop_
 _symmetry_equiv_pos_site_id
 _symmetry_equiv_pos_as_xyz
  1  'x, y, z'
loop_
 _atom_site_type_symbol
 _atom_site_label
 _atom_site_symmetry_multiplicity
 _atom_site_fract_x
 _atom_site_fract_y
 _atom_site_fract_z
 _atom_site_occupancy
 _atom_site_charge
  Mn  Mn1  1  0.500000  0.500000  0.500000  1.0  1.1503
  Ga  Ga2  1  0.231990  0.945930  0.947190  1.0  1.7235
  Ga  Ga3  1  0.311960  0.490830  0.140810  1.0  1.6261
  Ga  Ga4  1  0.768010  0.054070  0.052810  1.0  1.7253
  Ga  Ga5  1  0.688040  0.509170  0.859190  1.0  1.6276
  P  P6  1  0.163930  0.181260  0.217160  1.0  1.8878
  P  P7  1  0.537040  0.257960  0.990190  1.0  1.9055
  P  P8  1  0.836070  0.818740  0.782840  1.0  1.886
  P  P9  1  0.462960  0.742040  0.009810  1.0  1.9054
  C  C10  1  0.003800  0.437900  0.927100  1.0  0.6282
  C  C11  1  0.996200  0.562100  0.072900  1.0  0.6284
  O  O12  1  0.233500  0.040300  0.133400  1.0  -0.9028
  O  O13  1  0.031400  0.907600  0.800900  1.0  -0.8013
  O  O14  1  0.153500  0.302800  0.146500  1.0  -0.8838
  O  O15  1  0.277200  0.264800  0.377400  1.0  -0.7702
  O  O16  1  0.481100  0.374600  0.105500  1.0  -0.8585
  O  O17  1  0.401700  0.076400  0.909700  1.0  -0.9011
  O  O18  1  0.283400  0.748800  0.925300  1.0  -0.8666
  O  O19  1  0.445900  0.684700  0.127000  1.0  -0.7988
  O  O20  1  0.144100  0.397400  0.932600  1.0  -0.5419
  O  O21  1  0.131700  0.613500  0.184400  1.0  -0.5332
  O  O22  1  0.766500  0.959700  0.866600  1.0  -0.9019
  O  O23  1  0.968600  0.092400  0.199100  1.0  -0.8035
  O  O24  1  0.846500  0.697200  0.853500  1.0  -0.8828
  O  O25  1  0.722800  0.735200  0.622600  1.0  -0.77
  O  O26  1  0.518900  0.625400  0.894500  1.0  -0.8594
  O  O27  1  0.598300  0.923600  0.090300  1.0  -0.8989
  O  O28  1  0.716600  0.251200  0.074700  1.0  -0.8659
  O  O29  1  0.554100  0.315300  0.873000  1.0  -0.8007
  O  O30  1  0.855900  0.602600  0.067400  1.0  -0.5422
  O  O31  1  0.868300  0.386500  0.815600  1.0  -0.5344
  F  F32  1  0.433200  0.595200  0.343900  1.0  -0.487
  F  F33  1  0.566800  0.404800  0.656100  1.0  -0.4891
