# generated using pymatgen
data_Gd2H55C42(NO)12
_symmetry_space_group_name_H-M   'P 1'
_cell_length_a   9.14270000
_cell_length_b   24.50300000
_cell_length_c   24.58800000
_cell_angle_alpha   90.00000000
_cell_angle_beta   91.08900000
_cell_angle_gamma   90.00000000
_symmetry_Int_Tables_number   1
_chemical_formula_structural   Gd2H55C42(NO)12
_chemical_formula_sum   'Gd8 H220 C168 N48 O48'
_cell_volume   5507.29682703
_cell_formula_units_Z   4
loop_
 _symmetry_equiv_pos_site_id
 _symmetry_equiv_pos_as_xyz
  1  'x, y, z'
loop_
 _atom_site_type_symbol
 _atom_site_label
 _atom_site_symmetry_multiplicity
 _atom_site_fract_x
 _atom_site_fract_y
 _atom_site_fract_z
 _atom_site_occupancy
 _atom_site_charge
  Gd  Gd1  1  0.080310  0.859960  0.709440  1.0  2.172
  Gd  Gd2  1  0.696500  0.889530  0.790390  1.0  2.1469
  Gd  Gd3  1  0.408660  0.066150  0.287670  1.0  2.1377
  Gd  Gd4  1  0.018720  0.092130  0.205190  1.0  2.1636
  Gd  Gd5  1  0.919690  0.359960  0.290560  1.0  2.1765
  Gd  Gd6  1  0.303500  0.389530  0.209610  1.0  2.1462
  Gd  Gd7  1  0.591340  0.566150  0.712330  1.0  2.138
  Gd  Gd8  1  0.981280  0.592130  0.794810  1.0  2.1668
  H  H9  1  0.242700  0.861800  0.903300  1.0  0.0705
  H  H10  1  0.089500  0.835300  0.913900  1.0  0.0759
  H  H11  1  0.973700  0.915800  0.894900  1.0  0.0662
  H  H12  1  0.255600  0.961500  0.876400  1.0  0.0554
  H  H13  1  0.107500  0.993700  0.870400  1.0  0.0747
  H  H14  1  0.223200  0.013000  0.953600  1.0  0.057
  H  H15  1  0.068300  0.987400  0.962000  1.0  0.0588
  H  H16  1  0.223300  0.948700  0.021700  1.0  0.0611
  H  H17  1  0.333600  0.934200  0.975600  1.0  0.0518
  H  H18  1  0.388500  0.895700  0.183200  1.0  0.0748
  H  H19  1  0.288300  0.916400  0.134600  1.0  0.0662
  H  H20  1  0.083600  0.906500  0.186600  1.0  0.0778
  H  H21  1  0.093000  0.885700  0.276700  1.0  0.0663
  H  H22  1  0.263300  0.878300  0.275200  1.0  0.0639
  H  H23  1  0.054100  0.809500  0.225200  1.0  0.0651
  H  H24  1  0.166900  0.792600  0.271100  1.0  0.0715
  H  H25  1  0.358900  0.796300  0.211900  1.0  0.0624
  H  H26  1  0.236200  0.761500  0.182900  1.0  0.0722
  H  H27  1  0.907800  0.667900  0.082100  1.0  0.0721
  H  H28  1  0.057100  0.683300  0.111200  1.0  0.0731
  H  H29  1  0.056000  0.590300  0.086700  1.0  0.0763
  H  H30  1  0.182200  0.621400  0.057600  1.0  0.0579
  H  H31  1  0.061500  0.564800  0.994600  1.0  0.0598
  H  H32  1  0.911600  0.593200  0.006800  1.0  0.0632
  H  H33  1  0.153300  0.646200  0.961600  1.0  0.0677
  H  H34  1  0.010800  0.725700  0.952300  1.0  0.0809
  H  H35  1  0.877200  0.696300  0.979100  1.0  0.0681
  H  H36  1  0.577200  0.066500  0.877900  1.0  0.0696
  H  H37  1  0.630700  0.090500  0.822500  1.0  0.0714
  H  H38  1  0.358000  0.036000  0.833400  1.0  0.0683
  H  H39  1  0.343400  0.045700  0.736900  1.0  0.0747
  H  H40  1  0.494400  0.076300  0.737700  1.0  0.066
  H  H41  1  0.311800  0.144100  0.733600  1.0  0.0628
  H  H42  1  0.230800  0.118300  0.783200  1.0  0.0507
  H  H43  1  0.498600  0.171800  0.786000  1.0  0.0696
  H  H44  1  0.356300  0.190400  0.815000  1.0  0.0756
  H  H45  1  0.290700  0.283100  0.883100  1.0  0.0687
  H  H46  1  0.157800  0.302100  0.918000  1.0  0.0633
  H  H47  1  0.272400  0.377000  0.885000  1.0  0.0784
  H  H48  1  0.423000  0.356900  0.908900  1.0  0.0677
  H  H49  1  0.187400  0.391800  0.974800  1.0  0.0703
  H  H50  1  0.329800  0.426500  0.965200  1.0  0.0823
  H  H51  1  0.476100  0.356400  0.006900  1.0  0.0791
  H  H52  1  0.353500  0.279000  0.044000  1.0  0.0688
  H  H53  1  0.202800  0.301800  0.022300  1.0  0.0681
  H  H54  1  0.485700  0.169800  0.089700  1.0  0.0709
  H  H55  1  0.606500  0.130100  0.111800  1.0  0.0846
  H  H56  1  0.308300  0.108900  0.100200  1.0  0.0773
  H  H57  1  0.502700  0.021700  0.125800  1.0  0.0773
  H  H58  1  0.338700  0.016600  0.106800  1.0  0.0659
  H  H59  1  0.392100  0.033400  0.020600  1.0  0.0603
  H  H60  1  0.505200  0.989700  0.041200  1.0  0.08
  H  H61  1  0.685900  0.055700  0.049500  1.0  0.0616
  H  H62  1  0.620500  0.057000  0.989900  1.0  0.0662
  H  H63  1  0.475300  0.911500  0.496000  1.0  0.0611
  H  H64  1  0.429700  0.916700  0.557000  1.0  0.0709
  H  H65  1  0.637200  0.968400  0.541800  1.0  0.0698
  H  H66  1  0.720300  0.915900  0.522400  1.0  0.0485
  H  H67  1  0.783600  0.929100  0.615700  1.0  0.0765
  H  H68  1  0.618500  0.933400  0.631000  1.0  0.0903
  H  H69  1  0.768800  0.836100  0.603400  1.0  0.0784
  H  H70  1  0.546000  0.787300  0.598700  1.0  0.0694
  H  H71  1  0.456200  0.838500  0.617300  1.0  0.0772
  H  H72  1  0.764400  0.632800  0.532400  1.0  0.0724
  H  H73  1  0.647200  0.675200  0.551400  1.0  0.0792
  H  H74  1  0.464300  0.625700  0.514700  1.0  0.0778
  H  H75  1  0.497700  0.544500  0.466100  1.0  0.0664
  H  H76  1  0.667900  0.546400  0.476300  1.0  0.078
  H  H77  1  0.624400  0.579200  0.386800  1.0  0.075
  H  H78  1  0.507600  0.621100  0.407400  1.0  0.071
  H  H79  1  0.811700  0.627100  0.433300  1.0  0.0527
  H  H80  1  0.729900  0.667300  0.393300  1.0  0.0628
  H  H81  1  0.561200  0.786800  0.294600  1.0  0.0626
  H  H82  1  0.698700  0.761700  0.324600  1.0  0.0588
  H  H83  1  0.846800  0.832500  0.293900  1.0  0.0643
  H  H84  1  0.766300  0.806900  0.243100  1.0  0.0754
  H  H85  1  0.596400  0.877600  0.242000  1.0  0.0728
  H  H86  1  0.754300  0.902500  0.239400  1.0  0.0723
  H  H87  1  0.751800  0.923600  0.332300  1.0  0.0704
  H  H88  1  0.554700  0.899000  0.386900  1.0  0.0756
  H  H89  1  0.463600  0.878200  0.336400  1.0  0.0739
  H  H90  1  0.829800  0.081900  0.396000  1.0  0.073
  H  H91  1  0.955100  0.123400  0.411000  1.0  0.0744
  H  H92  1  0.128800  0.057000  0.399600  1.0  0.0853
  H  H93  1  0.896000  0.982500  0.369800  1.0  0.0779
  H  H94  1  0.063300  0.967200  0.368800  1.0  0.0766
  H  H95  1  0.954200  0.937500  0.449900  1.0  0.0631
  H  H96  1  0.085000  0.977400  0.461600  1.0  0.0688
  H  H97  1  0.788500  0.004400  0.464800  1.0  0.0516
  H  H98  1  0.896200  0.002000  0.515100  1.0  0.0648
  H  H99  1  0.985800  0.232400  0.448000  1.0  0.0683
  H  H100  1  0.089700  0.277700  0.472300  1.0  0.0596
  H  H101  1  0.785500  0.288700  0.455200  1.0  0.0708
  H  H102  1  0.796200  0.375600  0.484900  1.0  0.0511
  H  H103  1  0.965800  0.371300  0.495300  1.0  0.0606
  H  H104  1  0.856000  0.357800  0.580200  1.0  0.0687
  H  H105  1  0.748800  0.313800  0.555700  1.0  0.0639
  H  H106  1  0.049900  0.300400  0.574400  1.0  0.0582
  H  H107  1  0.924900  0.267600  0.602700  1.0  0.0618
  H  H108  1  0.790700  0.030400  0.629400  1.0  0.0711
  H  H109  1  0.696200  0.048000  0.679100  1.0  0.0521
  H  H110  1  0.005200  0.045300  0.680700  1.0  0.0733
  H  H111  1  0.811000  0.071700  0.766700  1.0  0.0706
  H  H112  1  0.981900  0.069900  0.773800  1.0  0.0732
  H  H113  1  0.007300  0.143600  0.717300  1.0  0.0639
  H  H114  1  0.895900  0.159500  0.762500  1.0  0.0739
  H  H115  1  0.698300  0.146000  0.703400  1.0  0.0588
  H  H116  1  0.807700  0.184700  0.673900  1.0  0.071
  H  H117  1  0.388900  0.453200  0.094800  1.0  0.403
  H  H118  1  0.482200  0.511800  0.594300  1.0  0.4177
  H  H119  1  0.757300  0.361800  0.096700  1.0  0.0744
  H  H120  1  0.910500  0.335300  0.086100  1.0  0.0776
  H  H121  1  0.026300  0.415800  0.105100  1.0  0.0615
  H  H122  1  0.744400  0.461500  0.123600  1.0  0.0551
  H  H123  1  0.892500  0.493700  0.129600  1.0  0.074
  H  H124  1  0.776800  0.513000  0.046400  1.0  0.0577
  H  H125  1  0.931700  0.487400  0.038000  1.0  0.0573
  H  H126  1  0.776700  0.448700  0.978300  1.0  0.0616
  H  H127  1  0.666400  0.434200  0.024400  1.0  0.0538
  H  H128  1  0.611500  0.395700  0.816800  1.0  0.0726
  H  H129  1  0.711700  0.416400  0.865400  1.0  0.0667
  H  H130  1  0.916400  0.406500  0.813400  1.0  0.0764
  H  H131  1  0.907000  0.385700  0.723300  1.0  0.0652
  H  H132  1  0.736700  0.378300  0.724800  1.0  0.0631
  H  H133  1  0.945900  0.309500  0.774800  1.0  0.0613
  H  H134  1  0.833100  0.292600  0.728900  1.0  0.0709
  H  H135  1  0.641100  0.296300  0.788100  1.0  0.0625
  H  H136  1  0.763800  0.261500  0.817100  1.0  0.0731
  H  H137  1  0.092200  0.167900  0.917900  1.0  0.0741
  H  H138  1  0.942900  0.183300  0.888800  1.0  0.0732
  H  H139  1  0.944000  0.090300  0.913300  1.0  0.0755
  H  H140  1  0.817800  0.121400  0.942400  1.0  0.0603
  H  H141  1  0.938500  0.064800  0.005400  1.0  0.0604
  H  H142  1  0.088400  0.093200  0.993200  1.0  0.0627
  H  H143  1  0.846700  0.146200  0.038400  1.0  0.0667
  H  H144  1  0.989200  0.225700  0.047700  1.0  0.0808
  H  H145  1  0.122800  0.196300  0.020900  1.0  0.0677
  H  H146  1  0.422800  0.566500  0.122100  1.0  0.0712
  H  H147  1  0.369300  0.590500  0.177500  1.0  0.0723
  H  H148  1  0.642000  0.536000  0.166600  1.0  0.0698
  H  H149  1  0.656600  0.545700  0.263100  1.0  0.0744
  H  H150  1  0.505600  0.576300  0.262300  1.0  0.0658
  H  H151  1  0.688200  0.644100  0.266400  1.0  0.0634
  H  H152  1  0.769200  0.618300  0.216800  1.0  0.0524
  H  H153  1  0.501400  0.671800  0.214000  1.0  0.0684
  H  H154  1  0.643700  0.690400  0.185000  1.0  0.0757
  H  H155  1  0.709300  0.783100  0.116900  1.0  0.0679
  H  H156  1  0.842200  0.802100  0.082000  1.0  0.0644
  H  H157  1  0.727600  0.877000  0.115000  1.0  0.0774
  H  H158  1  0.577000  0.856900  0.091100  1.0  0.0682
  H  H159  1  0.812600  0.891800  0.025200  1.0  0.0733
  H  H160  1  0.670200  0.926500  0.034800  1.0  0.0812
  H  H161  1  0.523900  0.856400  0.993100  1.0  0.082
  H  H162  1  0.646500  0.779000  0.956000  1.0  0.0693
  H  H163  1  0.797200  0.801800  0.977700  1.0  0.0705
  H  H164  1  0.514300  0.669800  0.910300  1.0  0.0743
  H  H165  1  0.393500  0.630100  0.888200  1.0  0.0847
  H  H166  1  0.691700  0.608900  0.899800  1.0  0.0764
  H  H167  1  0.497300  0.521700  0.874200  1.0  0.078
  H  H168  1  0.661300  0.516600  0.893200  1.0  0.0677
  H  H169  1  0.607900  0.533400  0.979400  1.0  0.0597
  H  H170  1  0.494800  0.489700  0.958800  1.0  0.076
  H  H171  1  0.314100  0.555700  0.950500  1.0  0.0622
  H  H172  1  0.379500  0.557000  0.010100  1.0  0.065
  H  H173  1  0.524700  0.411500  0.504000  1.0  0.0602
  H  H174  1  0.570300  0.416700  0.443000  1.0  0.0703
  H  H175  1  0.362800  0.468400  0.458200  1.0  0.069
  H  H176  1  0.279700  0.415900  0.477600  1.0  0.0475
  H  H177  1  0.216400  0.429100  0.384300  1.0  0.0759
  H  H178  1  0.381500  0.433400  0.369000  1.0  0.0905
  H  H179  1  0.231200  0.336100  0.396600  1.0  0.0767
  H  H180  1  0.454000  0.287300  0.401300  1.0  0.0701
  H  H181  1  0.543800  0.338500  0.382700  1.0  0.0765
  H  H182  1  0.235600  0.132800  0.467600  1.0  0.0708
  H  H183  1  0.352800  0.175200  0.448600  1.0  0.0801
  H  H184  1  0.535700  0.125700  0.485300  1.0  0.0775
  H  H185  1  0.502300  0.044500  0.533900  1.0  0.0672
  H  H186  1  0.332100  0.046400  0.523700  1.0  0.0788
  H  H187  1  0.375600  0.079200  0.613200  1.0  0.0746
  H  H188  1  0.492400  0.121100  0.592600  1.0  0.0721
  H  H189  1  0.188300  0.127100  0.566700  1.0  0.0522
  H  H190  1  0.270100  0.167300  0.606700  1.0  0.0639
  H  H191  1  0.438800  0.286800  0.705400  1.0  0.0645
  H  H192  1  0.301300  0.261700  0.675400  1.0  0.0593
  H  H193  1  0.153200  0.332500  0.706100  1.0  0.0636
  H  H194  1  0.233700  0.306900  0.756900  1.0  0.0771
  H  H195  1  0.403600  0.377600  0.758000  1.0  0.0756
  H  H196  1  0.245700  0.402500  0.760600  1.0  0.071
  H  H197  1  0.248200  0.423600  0.667700  1.0  0.0714
  H  H198  1  0.445300  0.399000  0.613100  1.0  0.0769
  H  H199  1  0.536400  0.378200  0.663600  1.0  0.0706
  H  H200  1  0.170200  0.581900  0.604000  1.0  0.0708
  H  H201  1  0.044900  0.623400  0.589000  1.0  0.0738
  H  H202  1  0.871200  0.557000  0.600400  1.0  0.0846
  H  H203  1  0.104000  0.482500  0.630200  1.0  0.0803
  H  H204  1  0.936700  0.467200  0.631200  1.0  0.0768
  H  H205  1  0.045800  0.437500  0.550100  1.0  0.0624
  H  H206  1  0.915000  0.477400  0.538400  1.0  0.0704
  H  H207  1  0.211500  0.504400  0.535200  1.0  0.0533
  H  H208  1  0.103800  0.502000  0.484900  1.0  0.0643
  H  H209  1  0.014200  0.732400  0.552000  1.0  0.0714
  H  H210  1  0.910300  0.777700  0.527700  1.0  0.0607
  H  H211  1  0.214500  0.788700  0.544800  1.0  0.0678
  H  H212  1  0.203800  0.875600  0.515100  1.0  0.0508
  H  H213  1  0.034200  0.871300  0.504700  1.0  0.0593
  H  H214  1  0.144000  0.857800  0.419800  1.0  0.0702
  H  H215  1  0.251200  0.813800  0.444300  1.0  0.0638
  H  H216  1  0.950100  0.800400  0.425600  1.0  0.0589
  H  H217  1  0.075100  0.767600  0.397300  1.0  0.0636
  H  H218  1  0.209300  0.530400  0.370600  1.0  0.0705
  H  H219  1  0.303800  0.548000  0.320900  1.0  0.0509
  H  H220  1  0.994800  0.545300  0.319300  1.0  0.0734
  H  H221  1  0.189000  0.571700  0.233300  1.0  0.0702
  H  H222  1  0.018100  0.569900  0.226200  1.0  0.0736
  H  H223  1  0.992700  0.643600  0.282700  1.0  0.064
  H  H224  1  0.104100  0.659500  0.237500  1.0  0.074
  H  H225  1  0.301700  0.646000  0.296600  1.0  0.0596
  H  H226  1  0.192300  0.684700  0.326100  1.0  0.0712
  H  H227  1  0.611100  0.953200  0.905200  1.0  0.4036
  H  H228  1  0.517800  0.011800  0.405700  1.0  0.4151
  C  C229  1  0.149500  0.848100  0.016400  1.0  0.2355
  C  C230  1  0.193200  0.822900  0.102700  1.0  0.3912
  C  C231  1  0.103500  0.761300  0.043600  1.0  0.4453
  C  C232  1  0.145400  0.868800  0.916600  1.0  -0.032
  C  C233  1  0.074800  0.911000  0.883300  1.0  -0.1435
  C  C234  1  0.157700  0.965100  0.890600  1.0  -0.167
  C  C235  1  0.166300  0.979800  0.949500  1.0  -0.1458
  C  C236  1  0.230700  0.938200  0.983800  1.0  0.0048
  C  C237  1  0.074400  0.892500  0.823900  1.0  0.6744
  C  C238  1  0.291800  0.893100  0.166400  1.0  0.0135
  C  C239  1  0.178500  0.909700  0.205500  1.0  -0.0687
  C  C240  1  0.173200  0.874200  0.254100  1.0  -0.1517
  C  C241  1  0.153100  0.815100  0.239000  1.0  -0.1381
  C  C242  1  0.261100  0.797700  0.195900  1.0  -0.0022
  C  C243  1  0.199100  0.970000  0.220000  1.0  0.6992
  C  C244  1  0.012400  0.671500  0.077100  1.0  -0.0072
  C  C245  1  0.076800  0.617800  0.059600  1.0  -0.1505
  C  C246  1  0.016200  0.599000  0.004600  1.0  -0.1702
  C  C247  1  0.046800  0.641800  0.961900  1.0  -0.191
  C  C248  1  0.983100  0.698100  0.978400  1.0  -0.0373
  C  C249  1  0.000000  0.627100  0.904000  1.0  0.6719
  C  C250  1  0.455500  0.155100  0.902900  1.0  0.3301
  C  C251  1  0.391500  0.222000  0.957700  1.0  0.3679
  C  C252  1  0.505700  0.149200  0.994800  1.0  0.5418
  C  C253  1  0.544900  0.082500  0.843700  1.0  -0.0119
  C  C254  1  0.447200  0.042300  0.812800  1.0  -0.1712
  C  C255  1  0.406400  0.069800  0.758100  1.0  -0.157
  C  C256  1  0.326100  0.125100  0.767900  1.0  -0.1246
  C  C257  1  0.413900  0.158700  0.805300  1.0  -0.0194
  C  C258  1  0.526800  0.988500  0.805500  1.0  0.6455
  C  C259  1  0.263600  0.301900  0.916100  1.0  0.0017
  C  C260  1  0.318600  0.357700  0.915300  1.0  -0.1358
  C  C261  1  0.291300  0.389700  0.967900  1.0  -0.1326
  C  C262  1  0.371200  0.358100  0.014100  1.0  -0.177
  C  C263  1  0.306600  0.299900  0.015000  1.0  0.031
  C  C264  1  0.345600  0.390400  0.067500  1.0  0.6236
  C  C265  1  0.518700  0.132200  0.089100  1.0  -0.0259
  C  C266  1  0.404100  0.097900  0.114900  1.0  -0.1656
  C  C267  1  0.428900  0.036400  0.101000  1.0  -0.1625
  C  C268  1  0.475300  0.027500  0.045000  1.0  -0.1215
  C  C269  1  0.598800  0.063700  0.027800  1.0  0.0212
  C  C270  1  0.399000  0.099800  0.176800  1.0  0.6161
  C  C271  1  0.565000  0.811800  0.498100  1.0  0.2403
  C  C272  1  0.637300  0.730900  0.463300  1.0  0.5751
  C  C273  1  0.610200  0.804300  0.410100  1.0  0.4964
  C  C274  1  0.504300  0.902900  0.533100  1.0  0.0137
  C  C275  1  0.645200  0.929200  0.546400  1.0  -0.1496
  C  C276  1  0.686500  0.915000  0.607400  1.0  -0.1576
  C  C277  1  0.684100  0.853600  0.620000  1.0  -0.1313
  C  C278  1  0.539000  0.826800  0.596200  1.0  -0.0901
  C  C279  1  0.699500  0.850500  0.678400  1.0  0.5647
  C  C280  1  0.671100  0.649500  0.522900  1.0  -0.0433
  C  C281  1  0.559300  0.607700  0.519500  1.0  -0.1438
  C  C282  1  0.581400  0.568600  0.470000  1.0  -0.1601
  C  C283  1  0.599100  0.603000  0.416700  1.0  -0.1082
  C  C284  1  0.719300  0.645400  0.425800  1.0  0.0285
  C  C285  1  0.552700  0.571700  0.569900  1.0  0.5269
  C  C286  1  0.651700  0.795600  0.313800  1.0  0.026
  C  C287  1  0.752000  0.827600  0.276200  1.0  -0.1315
  C  C288  1  0.687400  0.882600  0.262300  1.0  -0.1498
  C  C289  1  0.658200  0.916200  0.313700  1.0  -0.1742
  C  C290  1  0.561600  0.881000  0.352000  1.0  -0.0647
  C  C291  1  0.584400  0.968800  0.301800  1.0  0.6766
  C  C292  1  0.908300  0.104900  0.510400  1.0  0.6012
  C  C293  1  0.922000  0.191500  0.536700  1.0  0.5527
  C  C294  1  0.852600  0.126000  0.595700  1.0  0.4771
  C  C295  1  0.926200  0.085400  0.412900  1.0  -0.017
  C  C296  1  0.031300  0.051600  0.383300  1.0  -0.1553
  C  C297  1  0.990700  0.989100  0.387000  1.0  -0.1397
  C  C298  1  0.986800  0.974900  0.446100  1.0  -0.157
  C  C299  1  0.888700  0.011100  0.476700  1.0  -0.0028
  C  C300  1  0.037900  0.064500  0.322000  1.0  0.7018
  C  C301  1  0.991500  0.262800  0.473100  1.0  -0.0023
  C  C302  1  0.882100  0.306000  0.456500  1.0  -0.1588
  C  C303  1  0.874800  0.351000  0.495400  1.0  -0.1675
  C  C304  1  0.847400  0.328200  0.554100  1.0  -0.1305
  C  C305  1  0.953600  0.284500  0.568900  1.0  0.0141
  C  C306  1  0.915100  0.326700  0.397000  1.0  0.6582
  C  C307  1  0.788400  0.053900  0.661100  1.0  -0.0152
  C  C308  1  0.911900  0.039800  0.698900  1.0  -0.1716
  C  C309  1  0.902400  0.078000  0.748300  1.0  -0.1625
  C  C310  1  0.911000  0.136000  0.731300  1.0  -0.1367
  C  C311  1  0.794200  0.147900  0.687400  1.0  0.0123
  C  C312  1  0.895600  0.981400  0.714200  1.0  0.7091
  C  C313  1  0.850500  0.348100  0.983600  1.0  0.2339
  C  C314  1  0.806800  0.322900  0.897300  1.0  0.3919
  C  C315  1  0.896500  0.261300  0.956400  1.0  0.4429
  C  C316  1  0.854600  0.368800  0.083400  1.0  -0.0287
  C  C317  1  0.925200  0.411000  0.116700  1.0  -0.1424
  C  C318  1  0.842300  0.465100  0.109400  1.0  -0.1658
  C  C319  1  0.833700  0.479800  0.050500  1.0  -0.1464
  C  C320  1  0.769300  0.438200  0.016200  1.0  0.0059
  C  C321  1  0.925600  0.392500  0.176100  1.0  0.6716
  C  C322  1  0.708200  0.393100  0.833600  1.0  0.0127
  C  C323  1  0.821500  0.409700  0.794500  1.0  -0.0702
  C  C324  1  0.826800  0.374200  0.745900  1.0  -0.1516
  C  C325  1  0.846900  0.315100  0.761000  1.0  -0.1401
  C  C326  1  0.738900  0.297700  0.804100  1.0  -0.001
  C  C327  1  0.800900  0.470000  0.780000  1.0  0.6997
  C  C328  1  0.987600  0.171500  0.922900  1.0  -0.005
  C  C329  1  0.923200  0.117800  0.940400  1.0  -0.1487
  C  C330  1  0.983800  0.099000  0.995400  1.0  -0.1696
  C  C331  1  0.953200  0.141800  0.038100  1.0  -0.189
  C  C332  1  0.016900  0.198100  0.021600  1.0  -0.0382
  C  C333  1  0.000000  0.127100  0.096000  1.0  0.6733
  C  C334  1  0.544500  0.655100  0.097100  1.0  0.3291
  C  C335  1  0.608500  0.722000  0.042300  1.0  0.368
  C  C336  1  0.494300  0.649200  0.005200  1.0  0.5415
  C  C337  1  0.455100  0.582500  0.156300  1.0  -0.0112
  C  C338  1  0.552800  0.542300  0.187200  1.0  -0.1711
  C  C339  1  0.593600  0.569800  0.241900  1.0  -0.1588
  C  C340  1  0.673900  0.625100  0.232100  1.0  -0.1267
  C  C341  1  0.586100  0.658700  0.194700  1.0  -0.0175
  C  C342  1  0.473200  0.488500  0.194500  1.0  0.6439
  C  C343  1  0.736400  0.801900  0.083900  1.0  0.0029
  C  C344  1  0.681400  0.857700  0.084700  1.0  -0.1398
  C  C345  1  0.708700  0.889700  0.032100  1.0  -0.1339
  C  C346  1  0.628800  0.858100  0.985900  1.0  -0.1782
  C  C347  1  0.693400  0.799900  0.985000  1.0  0.0304
  C  C348  1  0.654400  0.890400  0.932500  1.0  0.6212
  C  C349  1  0.481300  0.632200  0.910900  1.0  -0.0267
  C  C350  1  0.595900  0.597900  0.885100  1.0  -0.1642
  C  C351  1  0.571100  0.536400  0.899000  1.0  -0.161
  C  C352  1  0.524700  0.527500  0.955000  1.0  -0.122
  C  C353  1  0.401200  0.563700  0.972200  1.0  0.0241
  C  C354  1  0.601000  0.599800  0.823200  1.0  0.6171
  C  C355  1  0.435000  0.311800  0.501900  1.0  0.2416
  C  C356  1  0.362700  0.230900  0.536700  1.0  0.5763
  C  C357  1  0.389800  0.304300  0.589900  1.0  0.4962
  C  C358  1  0.495700  0.402900  0.466900  1.0  0.0131
  C  C359  1  0.354800  0.429200  0.453600  1.0  -0.1488
  C  C360  1  0.313500  0.415000  0.392600  1.0  -0.1574
  C  C361  1  0.315900  0.353600  0.380000  1.0  -0.1314
  C  C362  1  0.461000  0.326800  0.403800  1.0  -0.0903
  C  C363  1  0.300500  0.350500  0.321600  1.0  0.5657
  C  C364  1  0.328900  0.149500  0.477100  1.0  -0.0403
  C  C365  1  0.440700  0.107700  0.480500  1.0  -0.146
  C  C366  1  0.418600  0.068600  0.530000  1.0  -0.159
  C  C367  1  0.400900  0.103000  0.583300  1.0  -0.1116
  C  C368  1  0.280700  0.145400  0.574200  1.0  0.029
  C  C369  1  0.447300  0.071700  0.430100  1.0  0.5247
  C  C370  1  0.348300  0.295600  0.686200  1.0  0.0257
  C  C371  1  0.248000  0.327600  0.723800  1.0  -0.1301
  C  C372  1  0.312600  0.382600  0.737700  1.0  -0.1496
  C  C373  1  0.341800  0.416200  0.686300  1.0  -0.1748
  C  C374  1  0.438400  0.381000  0.648000  1.0  -0.0648
  C  C375  1  0.415600  0.468800  0.698200  1.0  0.6765
  C  C376  1  0.091700  0.604900  0.489600  1.0  0.6006
  C  C377  1  0.078000  0.691500  0.463300  1.0  0.5515
  C  C378  1  0.147400  0.626000  0.404300  1.0  0.4763
  C  C379  1  0.073800  0.585400  0.587100  1.0  -0.0187
  C  C380  1  0.968700  0.551600  0.616700  1.0  -0.1563
  C  C381  1  0.009300  0.489100  0.613000  1.0  -0.1402
  C  C382  1  0.013200  0.474900  0.553900  1.0  -0.1547
  C  C383  1  0.111300  0.511100  0.523300  1.0  0.0002
  C  C384  1  0.962100  0.564500  0.678000  1.0  0.7013
  C  C385  1  0.008500  0.762800  0.526900  1.0  -0.0003
  C  C386  1  0.117900  0.806000  0.543500  1.0  -0.1603
  C  C387  1  0.125200  0.851000  0.504600  1.0  -0.1685
  C  C388  1  0.152600  0.828200  0.445900  1.0  -0.1309
  C  C389  1  0.046400  0.784500  0.431100  1.0  0.0143
  C  C390  1  0.084900  0.826700  0.603000  1.0  0.6589
  C  C391  1  0.211600  0.553900  0.338900  1.0  -0.0159
  C  C392  1  0.088100  0.539800  0.301100  1.0  -0.1722
  C  C393  1  0.097600  0.578000  0.251700  1.0  -0.163
  C  C394  1  0.089000  0.636000  0.268700  1.0  -0.1346
  C  C395  1  0.205800  0.647900  0.312600  1.0  0.0131
  C  C396  1  0.104400  0.481400  0.285800  1.0  0.7113
  N  N397  1  0.192100  0.864300  0.065600  1.0  -0.5735
  N  N398  1  0.149900  0.773000  0.095100  1.0  -0.4853
  N  N399  1  0.107600  0.796400  0.001500  1.0  -0.591
  N  N400  1  0.155500  0.886400  0.974700  1.0  -0.2237
  N  N401  1  0.259100  0.835200  0.150900  1.0  -0.1611
  N  N402  1  0.042600  0.711900  0.033100  1.0  -0.1822
  N  N403  1  0.392100  0.201900  0.908100  1.0  -0.4976
  N  N404  1  0.444900  0.198700  0.003600  1.0  -0.5798
  N  N405  1  0.507900  0.124600  0.946500  1.0  -0.5539
  N  N406  1  0.463600  0.133200  0.854000  1.0  -0.0032
  N  N407  1  0.327500  0.273000  0.964400  1.0  -0.2699
  N  N408  1  0.557900  0.119500  0.034900  1.0  0.0087
  N  N409  1  0.596600  0.758600  0.507800  1.0  -0.6373
  N  N410  1  0.654400  0.750900  0.413500  1.0  -0.5124
  N  N411  1  0.569000  0.836100  0.448100  1.0  -0.4961
  N  N412  1  0.516800  0.842800  0.539400  1.0  -0.1671
  N  N413  1  0.683900  0.679300  0.470000  1.0  -0.1269
  N  N414  1  0.621200  0.826500  0.359900  1.0  -0.1495
  N  N415  1  0.931100  0.157000  0.496500  1.0  -0.5068
  N  N416  1  0.880600  0.179300  0.587900  1.0  -0.5683
  N  N417  1  0.869500  0.086700  0.558400  1.0  -0.6251
  N  N418  1  0.920600  0.068000  0.470100  1.0  -0.1444
  N  N419  1  0.959300  0.244500  0.527600  1.0  -0.1748
  N  N420  1  0.799900  0.111600  0.644100  1.0  -0.0806
  N  N421  1  0.807900  0.364300  0.934400  1.0  -0.5738
  N  N422  1  0.850100  0.273000  0.904900  1.0  -0.4864
  N  N423  1  0.892400  0.296400  0.998500  1.0  -0.5907
  N  N424  1  0.844500  0.386400  0.025300  1.0  -0.2246
  N  N425  1  0.740900  0.335200  0.849100  1.0  -0.16
  N  N426  1  0.957400  0.211900  0.966900  1.0  -0.1825
  N  N427  1  0.607900  0.701900  0.091900  1.0  -0.4981
  N  N428  1  0.555100  0.698700  0.996400  1.0  -0.5829
  N  N429  1  0.492100  0.624600  0.053500  1.0  -0.553
  N  N430  1  0.536400  0.633200  0.146000  1.0  -0.0039
  N  N431  1  0.672500  0.773000  0.035600  1.0  -0.271
  N  N432  1  0.442100  0.619500  0.965100  1.0  0.0083
  N  N433  1  0.403400  0.258600  0.492200  1.0  -0.638
  N  N434  1  0.345600  0.250900  0.586500  1.0  -0.5142
  N  N435  1  0.431000  0.336100  0.551900  1.0  -0.4968
  N  N436  1  0.483200  0.342800  0.460600  1.0  -0.1666
  N  N437  1  0.316100  0.179300  0.530000  1.0  -0.1265
  N  N438  1  0.378800  0.326500  0.640100  1.0  -0.1504
  N  N439  1  0.068900  0.657000  0.503500  1.0  -0.5105
  N  N440  1  0.119400  0.679300  0.412100  1.0  -0.5662
  N  N441  1  0.130500  0.586700  0.441600  1.0  -0.6259
  N  N442  1  0.079400  0.568000  0.529900  1.0  -0.1436
  N  N443  1  0.040700  0.744500  0.472400  1.0  -0.174
  N  N444  1  0.200100  0.611600  0.355900  1.0  -0.0781
  O  O445  1  0.946400  0.888900  0.800400  1.0  -0.8209
  O  O446  1  0.189200  0.883000  0.801100  1.0  -0.6465
  O  O447  1  0.102400  0.003100  0.203200  1.0  -0.6768
  O  O448  1  0.313000  0.984600  0.245200  1.0  -0.7026
  O  O449  1  0.990900  0.576300  0.892400  1.0  -0.6772
  O  O450  1  0.975300  0.661500  0.869600  1.0  -0.6217
  O  O451  1  0.628500  0.973700  0.837600  1.0  -0.6887
  O  O452  1  0.494500  0.956300  0.765700  1.0  -0.6777
  O  O453  1  0.404100  0.437100  0.066200  1.0  -0.5046
  O  O454  1  0.278500  0.373100  0.104900  1.0  -0.5927
  O  O455  1  0.275000  0.099800  0.198300  1.0  -0.822
  O  O456  1  0.508900  0.096400  0.204200  1.0  -0.6169
  O  O457  1  0.588600  0.853300  0.708400  1.0  -0.6597
  O  O458  1  0.819100  0.851100  0.702100  1.0  -0.7237
  O  O459  1  0.609900  0.584700  0.610400  1.0  -0.6118
  O  O460  1  0.479500  0.528400  0.565300  1.0  -0.5125
  O  O461  1  0.611800  0.996900  0.263400  1.0  -0.6087
  O  O462  1  0.500100  0.989400  0.338200  1.0  -0.7193
  O  O463  1  0.156900  0.071200  0.299200  1.0  -0.7427
  O  O464  1  0.919600  0.068800  0.296400  1.0  -0.6684
  O  O465  1  0.941800  0.290900  0.363100  1.0  -0.6261
  O  O466  1  0.913000  0.375200  0.386500  1.0  -0.6312
  O  O467  1  0.786000  0.964500  0.739100  1.0  -0.7003
  O  O468  1  0.000600  0.949200  0.701600  1.0  -0.7653
  O  O469  1  0.053600  0.388900  0.199600  1.0  -0.8206
  O  O470  1  0.810800  0.383000  0.198900  1.0  -0.6505
  O  O471  1  0.897600  0.503100  0.796800  1.0  -0.678
  O  O472  1  0.687000  0.484600  0.754800  1.0  -0.7012
  O  O473  1  0.009100  0.076300  0.107600  1.0  -0.6751
  O  O474  1  0.024700  0.161500  0.130400  1.0  -0.6203
  O  O475  1  0.371500  0.473700  0.162400  1.0  -0.689
  O  O476  1  0.505500  0.456300  0.234300  1.0  -0.6785
  O  O477  1  0.595900  0.937100  0.933800  1.0  -0.5068
  O  O478  1  0.721500  0.873100  0.895100  1.0  -0.5917
  O  O479  1  0.725000  0.599800  0.801700  1.0  -0.8233
  O  O480  1  0.491100  0.596400  0.795800  1.0  -0.618
  O  O481  1  0.411400  0.353300  0.291600  1.0  -0.6559
  O  O482  1  0.180900  0.351100  0.297900  1.0  -0.7237
  O  O483  1  0.390100  0.084700  0.389600  1.0  -0.6125
  O  O484  1  0.520500  0.028400  0.434700  1.0  -0.5124
  O  O485  1  0.388200  0.496900  0.736600  1.0  -0.6102
  O  O486  1  0.499900  0.489400  0.661800  1.0  -0.7193
  O  O487  1  0.843100  0.571200  0.700800  1.0  -0.7432
  O  O488  1  0.080400  0.568800  0.703600  1.0  -0.6706
  O  O489  1  0.058200  0.790900  0.636900  1.0  -0.6262
  O  O490  1  0.087000  0.875200  0.613500  1.0  -0.6313
  O  O491  1  0.214000  0.464500  0.260900  1.0  -0.6999
  O  O492  1  0.999400  0.449200  0.298400  1.0  -0.7677
