# generated using pymatgen
data_Cd3H40C66(NO6)2
_symmetry_space_group_name_H-M   'P 1'
_cell_length_a   16.31870000
_cell_length_b   17.03650000
_cell_length_c   18.94260000
_cell_angle_alpha   88.41200000
_cell_angle_beta   70.68100000
_cell_angle_gamma   62.59200000
_symmetry_Int_Tables_number   1
_chemical_formula_structural   Cd3H40C66(NO6)2
_chemical_formula_sum   'Cd6 H80 C132 N4 O24'
_cell_volume   4362.86050481
_cell_formula_units_Z   2
loop_
 _symmetry_equiv_pos_site_id
 _symmetry_equiv_pos_as_xyz
  1  'x, y, z'
loop_
 _atom_site_type_symbol
 _atom_site_label
 _atom_site_symmetry_multiplicity
 _atom_site_fract_x
 _atom_site_fract_y
 _atom_site_fract_z
 _atom_site_occupancy
 _atom_site_charge
  Cd  Cd1  1  0.672460  0.630010  0.444880  1.0  1.0069
  Cd  Cd2  1  0.761040  0.716820  0.262590  1.0  1.1803
  Cd  Cd3  1  0.851010  0.805120  0.076990  1.0  0.9611
  Cd  Cd4  1  0.327540  0.369990  0.555120  1.0  1.0067
  Cd  Cd5  1  0.238960  0.283180  0.737410  1.0  1.1805
  Cd  Cd6  1  0.148990  0.194880  0.923010  1.0  0.9607
  H  H7  1  0.545000  0.541600  0.536200  1.0  0.0794
  H  H8  1  0.415500  0.563800  0.646400  1.0  0.1321
  H  H9  1  0.403000  0.796200  0.703800  1.0  0.134
  H  H10  1  0.528100  0.764800  0.591100  1.0  0.0699
  H  H11  1  0.278100  0.763900  0.787100  1.0  0.1649
  H  H12  1  0.292100  0.601800  0.756600  1.0  0.1009
  H  H13  1  0.170300  0.571700  0.858000  1.0  0.1156
  H  H14  1  0.022500  0.625700  0.959900  1.0  0.0761
  H  H15  1  0.002700  0.861400  0.976300  1.0  0.117
  H  H16  1  0.147400  0.811100  0.871500  1.0  0.119
  H  H17  1  0.930700  0.704100  0.334100  1.0  0.1062
  H  H18  1  0.023800  0.776500  0.327900  1.0  0.1071
  H  H19  1  0.800000  0.962400  0.503900  1.0  0.1079
  H  H20  1  0.713100  0.882200  0.517600  1.0  0.1158
  H  H21  1  0.112400  0.818900  0.384800  1.0  0.1164
  H  H22  1  0.116100  0.054100  0.389300  1.0  0.1075
  H  H23  1  0.859700  0.050500  0.420700  1.0  0.1134
  H  H24  1  0.230100  0.789300  0.443500  1.0  0.1002
  H  H25  1  0.398300  0.712200  0.426900  1.0  0.112
  H  H26  1  0.443800  0.889700  0.294900  1.0  0.1148
  H  H27  1  0.276800  0.963700  0.309000  1.0  0.1289
  H  H28  1  0.008900  0.192100  0.457700  1.0  0.102
  H  H29  1  0.919400  0.346000  0.476200  1.0  0.1189
  H  H30  1  0.750600  0.326700  0.369400  1.0  0.0769
  H  H31  1  0.834200  0.172600  0.359900  1.0  0.115
  H  H32  1  0.809300  0.558700  0.001000  1.0  0.119
  H  H33  1  0.723600  0.477600  0.011000  1.0  0.0895
  H  H34  1  0.502700  0.653600  0.191600  1.0  0.1186
  H  H35  1  0.589200  0.728500  0.185100  1.0  0.0836
  H  H36  1  0.665000  0.385700  0.079200  1.0  0.0948
  H  H37  1  0.412700  0.381300  0.109700  1.0  0.1045
  H  H38  1  0.414500  0.617100  0.119900  1.0  0.1163
  H  H39  1  0.730600  0.245900  0.013600  1.0  0.1101
  H  H40  1  0.817300  0.092400  0.020700  1.0  0.1149
  H  H41  1  0.568100  0.104300  0.163000  1.0  0.1237
  H  H42  1  0.491000  0.256400  0.172500  1.0  0.0998
  H  H43  1  0.254300  0.459700  0.175500  1.0  0.1157
  H  H44  1  0.088600  0.534900  0.197500  1.0  0.1172
  H  H45  1  0.113400  0.745400  0.111400  1.0  0.1192
  H  H46  1  0.279800  0.671800  0.092100  1.0  0.1061
  H  H47  1  0.455000  0.458400  0.463800  1.0  0.0784
  H  H48  1  0.584500  0.436200  0.353600  1.0  0.1321
  H  H49  1  0.597000  0.203800  0.296200  1.0  0.1347
  H  H50  1  0.471900  0.235200  0.408900  1.0  0.0694
  H  H51  1  0.721900  0.236100  0.212900  1.0  0.1653
  H  H52  1  0.707900  0.398200  0.243400  1.0  0.1003
  H  H53  1  0.829700  0.428300  0.142000  1.0  0.1156
  H  H54  1  0.977500  0.374300  0.040100  1.0  0.076
  H  H55  1  0.997300  0.138600  0.023700  1.0  0.1171
  H  H56  1  0.852600  0.188900  0.128500  1.0  0.1168
  H  H57  1  0.069300  0.295900  0.665900  1.0  0.1061
  H  H58  1  0.976200  0.223500  0.672100  1.0  0.1078
  H  H59  1  0.200000  0.037600  0.496100  1.0  0.1076
  H  H60  1  0.286900  0.117800  0.482400  1.0  0.1162
  H  H61  1  0.887600  0.181100  0.615200  1.0  0.1155
  H  H62  1  0.883900  0.945900  0.610700  1.0  0.1074
  H  H63  1  0.140300  0.949500  0.579300  1.0  0.1136
  H  H64  1  0.769900  0.210700  0.556500  1.0  0.1002
  H  H65  1  0.601700  0.287800  0.573100  1.0  0.1119
  H  H66  1  0.556200  0.110300  0.705100  1.0  0.115
  H  H67  1  0.723200  0.036300  0.691000  1.0  0.13
  H  H68  1  0.991100  0.807900  0.542300  1.0  0.1024
  H  H69  1  0.080600  0.654000  0.523800  1.0  0.1188
  H  H70  1  0.249400  0.673300  0.630600  1.0  0.0779
  H  H71  1  0.165800  0.827400  0.640100  1.0  0.1154
  H  H72  1  0.190700  0.441300  0.999000  1.0  0.1195
  H  H73  1  0.276400  0.522400  0.989000  1.0  0.0898
  H  H74  1  0.497300  0.346400  0.808400  1.0  0.119
  H  H75  1  0.410800  0.271500  0.814900  1.0  0.0843
  H  H76  1  0.335000  0.614300  0.920800  1.0  0.0948
  H  H77  1  0.587300  0.618700  0.890300  1.0  0.104
  H  H78  1  0.585500  0.382900  0.880100  1.0  0.1166
  H  H79  1  0.269400  0.754100  0.986400  1.0  0.1102
  H  H80  1  0.182700  0.907600  0.979300  1.0  0.115
  H  H81  1  0.431900  0.895700  0.837000  1.0  0.1243
  H  H82  1  0.509000  0.743600  0.827500  1.0  0.0998
  H  H83  1  0.745700  0.540300  0.824500  1.0  0.1148
  H  H84  1  0.911400  0.465100  0.802500  1.0  0.1174
  H  H85  1  0.886600  0.254600  0.888600  1.0  0.1193
  H  H86  1  0.720200  0.328200  0.907900  1.0  0.1055
  C  C87  1  0.513800  0.595200  0.570600  1.0  0.1619
  C  C88  1  0.436500  0.607900  0.636100  1.0  -0.2023
  C  C89  1  0.390600  0.685000  0.685900  1.0  0.0991
  C  C90  1  0.428500  0.743700  0.669700  1.0  -0.2058
  C  C91  1  0.504300  0.722800  0.602500  1.0  0.1899
  C  C92  1  0.304700  0.707700  0.757600  1.0  -0.1157
  C  C93  1  0.262900  0.659800  0.783800  1.0  -0.1384
  C  C94  1  0.173600  0.686200  0.852300  1.0  0.0646
  C  C95  1  0.136700  0.632600  0.880200  1.0  -0.1665
  C  C96  1  0.048100  0.665500  0.942400  1.0  0.1775
  C  C97  1  0.036100  0.801500  0.951700  1.0  0.1164
  C  C98  1  0.122600  0.770800  0.889300  1.0  -0.1073
  C  C99  1  0.759500  0.733300  0.434800  1.0  0.6942
  C  C100  1  0.813900  0.784400  0.429500  1.0  -0.0893
  C  C101  1  0.905600  0.754700  0.370300  1.0  -0.0601
  C  C102  1  0.959300  0.799800  0.365000  1.0  -0.1242
  C  C103  1  0.920800  0.877300  0.412500  1.0  0.0134
  C  C104  1  0.827400  0.908900  0.470400  1.0  -0.1361
  C  C105  1  0.775600  0.861300  0.478200  1.0  -0.0555
  C  C106  1  0.977800  0.926500  0.406100  1.0  0.0196
  C  C107  1  0.078500  0.882300  0.391400  1.0  -0.1541
  C  C108  1  0.131200  0.928700  0.385900  1.0  0.0253
  C  C109  1  0.080900  0.021800  0.392200  1.0  -0.1279
  C  C110  1  0.980200  0.069000  0.402800  1.0  0.0388
  C  C111  1  0.928700  0.019900  0.411300  1.0  -0.1313
  C  C112  1  0.237800  0.881800  0.375800  1.0  0.0553
  C  C113  1  0.273900  0.808800  0.412100  1.0  -0.1164
  C  C114  1  0.373600  0.763500  0.403200  1.0  -0.0503
  C  C115  1  0.437100  0.795000  0.358500  1.0  -0.1255
  C  C116  1  0.400900  0.868400  0.324500  1.0  -0.0454
  C  C117  1  0.301300  0.912400  0.332900  1.0  -0.1337
  C  C118  1  0.545200  0.746600  0.349700  1.0  0.7256
  C  C119  1  0.928000  0.166300  0.409000  1.0  0.0723
  C  C120  1  0.954200  0.219900  0.441400  1.0  -0.1119
  C  C121  1  0.903500  0.311200  0.450100  1.0  -0.0944
  C  C122  1  0.827900  0.353500  0.420600  1.0  -0.1117
  C  C123  1  0.803100  0.299700  0.388200  1.0  -0.0513
  C  C124  1  0.852900  0.207600  0.382600  1.0  -0.1388
  C  C125  1  0.771700  0.451000  0.429900  1.0  0.6832
  C  C126  1  0.767900  0.699200  0.089900  1.0  0.7265
  C  C127  1  0.710100  0.649600  0.094900  1.0  -0.1132
  C  C128  1  0.747800  0.577000  0.041100  1.0  -0.0911
  C  C129  1  0.694800  0.530300  0.045800  1.0  -0.1394
  C  C130  1  0.603600  0.558700  0.099000  1.0  0.0335
  C  C131  1  0.565500  0.633600  0.152600  1.0  -0.1932
  C  C132  1  0.617400  0.677000  0.149000  1.0  -0.0185
  C  C133  1  0.547900  0.508400  0.100500  1.0  0.0171
  C  C134  1  0.595700  0.416800  0.090200  1.0  -0.1394
  C  C135  1  0.546100  0.367900  0.095300  1.0  0.0299
  C  C136  1  0.447100  0.414200  0.107400  1.0  -0.1249
  C  C137  1  0.394800  0.506400  0.116200  1.0  -0.0258
  C  C138  1  0.448000  0.553600  0.113100  1.0  -0.1312
  C  C139  1  0.598900  0.268700  0.092200  1.0  0.0725
  C  C140  1  0.697300  0.218100  0.046400  1.0  -0.1732
  C  C141  1  0.748200  0.125400  0.048000  1.0  -0.0648
  C  C142  1  0.699700  0.083600  0.088000  1.0  -0.0952
  C  C143  1  0.602800  0.133000  0.133700  1.0  -0.1344
  C  C144  1  0.556500  0.223100  0.137100  1.0  -0.1282
  C  C145  1  0.756300  0.982400  0.082600  1.0  0.6411
  C  C146  1  0.286800  0.556700  0.131500  1.0  0.0719
  C  C147  1  0.226100  0.518300  0.162900  1.0  -0.1375
  C  C148  1  0.128100  0.562700  0.175800  1.0  -0.0697
  C  C149  1  0.084600  0.648100  0.157900  1.0  -0.1102
  C  C150  1  0.142200  0.687600  0.125400  1.0  -0.0893
  C  C151  1  0.241000  0.643400  0.113400  1.0  -0.1143
  C  C152  1  0.974000  0.697100  0.173200  1.0  0.7126
  C  C153  1  0.486200  0.404800  0.429400  1.0  0.1617
  C  C154  1  0.563500  0.392100  0.363900  1.0  -0.2031
  C  C155  1  0.609400  0.315000  0.314100  1.0  0.0987
  C  C156  1  0.571500  0.256300  0.330300  1.0  -0.205
  C  C157  1  0.495700  0.277200  0.397500  1.0  0.1896
  C  C158  1  0.695300  0.292300  0.242400  1.0  -0.1166
  C  C159  1  0.737100  0.340200  0.216200  1.0  -0.1362
  C  C160  1  0.826400  0.313800  0.147700  1.0  0.0629
  C  C161  1  0.863300  0.367400  0.119800  1.0  -0.1655
  C  C162  1  0.951900  0.334500  0.057600  1.0  0.1781
  C  C163  1  0.963900  0.198500  0.048300  1.0  0.1155
  C  C164  1  0.877400  0.229200  0.110700  1.0  -0.1066
  C  C165  1  0.240500  0.266700  0.565200  1.0  0.6943
  C  C166  1  0.186100  0.215600  0.570500  1.0  -0.0904
  C  C167  1  0.094400  0.245300  0.629700  1.0  -0.0603
  C  C168  1  0.040700  0.200200  0.635000  1.0  -0.1244
  C  C169  1  0.079200  0.122700  0.587500  1.0  0.0141
  C  C170  1  0.172600  0.091100  0.529600  1.0  -0.1353
  C  C171  1  0.224400  0.138700  0.521800  1.0  -0.0553
  C  C172  1  0.022200  0.073500  0.593900  1.0  0.0201
  C  C173  1  0.921500  0.117700  0.608600  1.0  -0.1555
  C  C174  1  0.868800  0.071300  0.614100  1.0  0.0254
  C  C175  1  0.919100  0.978200  0.607800  1.0  -0.13
  C  C176  1  0.019800  0.931000  0.597200  1.0  0.0372
  C  C177  1  0.071300  0.980100  0.588700  1.0  -0.1282
  C  C178  1  0.762200  0.118200  0.624200  1.0  0.0541
  C  C179  1  0.726100  0.191200  0.587900  1.0  -0.1175
  C  C180  1  0.626400  0.236500  0.596800  1.0  -0.0509
  C  C181  1  0.562900  0.205000  0.641500  1.0  -0.1267
  C  C182  1  0.599100  0.131600  0.675500  1.0  -0.0466
  C  C183  1  0.698700  0.087600  0.667100  1.0  -0.1335
  C  C184  1  0.454800  0.253400  0.650300  1.0  0.7257
  C  C185  1  0.072000  0.833700  0.591000  1.0  0.0728
  C  C186  1  0.045800  0.780100  0.558600  1.0  -0.1106
  C  C187  1  0.096500  0.688800  0.549900  1.0  -0.0926
  C  C188  1  0.172100  0.646500  0.579400  1.0  -0.1124
  C  C189  1  0.196900  0.700300  0.611800  1.0  -0.0522
  C  C190  1  0.147100  0.792400  0.617400  1.0  -0.1398
  C  C191  1  0.228300  0.549000  0.570100  1.0  0.6831
  C  C192  1  0.232100  0.300800  0.910100  1.0  0.7264
  C  C193  1  0.289900  0.350400  0.905100  1.0  -0.1122
  C  C194  1  0.252200  0.423000  0.958900  1.0  -0.0912
  C  C195  1  0.305200  0.469700  0.954200  1.0  -0.1411
  C  C196  1  0.396400  0.441300  0.901000  1.0  0.0335
  C  C197  1  0.434500  0.366400  0.847400  1.0  -0.1934
  C  C198  1  0.382600  0.323000  0.851000  1.0  -0.0198
  C  C199  1  0.452100  0.491600  0.899500  1.0  0.0176
  C  C200  1  0.404300  0.583200  0.909800  1.0  -0.1398
  C  C201  1  0.453900  0.632100  0.904700  1.0  0.0306
  C  C202  1  0.552900  0.585800  0.892600  1.0  -0.1245
  C  C203  1  0.605200  0.493600  0.883800  1.0  -0.0268
  C  C204  1  0.552000  0.446400  0.886900  1.0  -0.1323
  C  C205  1  0.401100  0.731300  0.907800  1.0  0.0722
  C  C206  1  0.302700  0.781900  0.953600  1.0  -0.1723
  C  C207  1  0.251800  0.874600  0.952000  1.0  -0.0636
  C  C208  1  0.300300  0.916400  0.912000  1.0  -0.0953
  C  C209  1  0.397200  0.867000  0.866300  1.0  -0.1334
  C  C210  1  0.443500  0.776900  0.862900  1.0  -0.1295
  C  C211  1  0.243700  0.017600  0.917400  1.0  0.6386
  C  C212  1  0.713200  0.443300  0.868500  1.0  0.0726
  C  C213  1  0.773900  0.481700  0.837100  1.0  -0.1383
  C  C214  1  0.871900  0.437300  0.824200  1.0  -0.0713
  C  C215  1  0.915400  0.351900  0.842100  1.0  -0.1084
  C  C216  1  0.857800  0.312400  0.874600  1.0  -0.0896
  C  C217  1  0.759000  0.356600  0.886600  1.0  -0.1149
  C  C218  1  0.026000  0.302900  0.826800  1.0  0.7121
  N  N219  1  0.546800  0.654100  0.553100  1.0  -0.2967
  N  N220  1  0.000000  0.744500  0.977000  1.0  -0.327
  N  N221  1  0.453200  0.345900  0.446900  1.0  -0.2966
  N  N222  1  0.000000  0.255500  0.023000  1.0  -0.3267
  O  O223  1  0.778400  0.682200  0.378200  1.0  -0.6903
  O  O224  1  0.693800  0.741900  0.499400  1.0  -0.5968
  O  O225  1  0.596400  0.780300  0.313000  1.0  -0.623
  O  O226  1  0.574000  0.677800  0.379300  1.0  -0.6247
  O  O227  1  0.713600  0.486500  0.392000  1.0  -0.6054
  O  O228  1  0.785600  0.498500  0.468500  1.0  -0.6187
  O  O229  1  0.743600  0.751200  0.147600  1.0  -0.6749
  O  O230  1  0.831300  0.692400  0.030900  1.0  -0.5673
  O  O231  1  0.845000  0.942100  0.046300  1.0  -0.6223
  O  O232  1  0.719500  0.942500  0.117400  1.0  -0.5659
  O  O233  1  0.925600  0.658500  0.205500  1.0  -0.6253
  O  O234  1  0.937200  0.775000  0.155300  1.0  -0.6418
  O  O235  1  0.221600  0.317800  0.621800  1.0  -0.6914
  O  O236  1  0.306200  0.258100  0.500600  1.0  -0.598
  O  O237  1  0.403600  0.219700  0.687000  1.0  -0.6236
  O  O238  1  0.426000  0.322200  0.620700  1.0  -0.6264
  O  O239  1  0.286400  0.513500  0.608000  1.0  -0.6093
  O  O240  1  0.214400  0.501500  0.531500  1.0  -0.615
  O  O241  1  0.256400  0.248800  0.852400  1.0  -0.6752
  O  O242  1  0.168700  0.307600  0.969100  1.0  -0.5652
  O  O243  1  0.155000  0.057900  0.953700  1.0  -0.6236
  O  O244  1  0.280500  0.057500  0.882600  1.0  -0.5692
  O  O245  1  0.074400  0.341500  0.794500  1.0  -0.6256
  O  O246  1  0.062800  0.225000  0.844700  1.0  -0.6395
