# generated using pymatgen
data_Cd3H38C64(NO6)2
_symmetry_space_group_name_H-M   'P 1'
_cell_length_a   16.49180000
_cell_length_b   16.83820000
_cell_length_c   18.48830000
_cell_angle_alpha   69.53900000
_cell_angle_beta   66.78600000
_cell_angle_gamma   63.79200000
_symmetry_Int_Tables_number   1
_chemical_formula_structural   Cd3H38C64(NO6)2
_chemical_formula_sum   'Cd6 H76 C128 N4 O24'
_cell_volume   4136.34030254
_cell_formula_units_Z   2
loop_
 _symmetry_equiv_pos_site_id
 _symmetry_equiv_pos_as_xyz
  1  'x, y, z'
loop_
 _atom_site_type_symbol
 _atom_site_label
 _atom_site_symmetry_multiplicity
 _atom_site_fract_x
 _atom_site_fract_y
 _atom_site_fract_z
 _atom_site_occupancy
 _atom_site_charge
  Cd  Cd1  1  0.521680  0.224660  0.545010  1.0  0.9946
  Cd  Cd2  1  0.444750  0.294900  0.747870  1.0  1.0497
  Cd  Cd3  1  0.374170  0.373970  0.939160  1.0  1.0123
  Cd  Cd4  1  0.478320  0.775340  0.454990  1.0  0.9938
  Cd  Cd5  1  0.555250  0.705100  0.252130  1.0  1.0491
  Cd  Cd6  1  0.625830  0.626030  0.060840  1.0  1.0123
  H  H7  1  0.504000  0.387900  0.384000  1.0  0.0874
  H  H8  1  0.467200  0.424000  0.264700  1.0  0.119
  H  H9  1  0.526100  0.158900  0.287700  1.0  0.1275
  H  H10  1  0.556300  0.130000  0.408600  1.0  0.0907
  H  H11  1  0.512400  0.416400  0.123000  1.0  0.1236
  H  H12  1  0.470700  0.436900  0.011100  1.0  0.0737
  H  H13  1  0.357800  0.249300  0.117400  1.0  0.0913
  H  H14  1  0.393300  0.222400  0.234100  1.0  0.1316
  H  H15  1  0.679500  0.283900  0.679200  1.0  0.0984
  H  H16  1  0.761800  0.356500  0.694700  1.0  0.114
  H  H17  1  0.693300  0.559100  0.505400  1.0  0.1008
  H  H18  1  0.613700  0.485300  0.488700  1.0  0.1152
  H  H19  1  0.906700  0.403200  0.626300  1.0  0.1193
  H  H20  1  0.927800  0.642300  0.598900  1.0  0.1073
  H  H21  1  0.691300  0.637300  0.588600  1.0  0.1034
  H  H22  1  0.059200  0.355400  0.582600  1.0  0.1175
  H  H23  1  0.209800  0.279600  0.595500  1.0  0.1072
  H  H24  1  0.184200  0.480600  0.683000  1.0  0.116
  H  H25  1  0.032900  0.559500  0.667600  1.0  0.1202
  H  H26  1  0.833700  0.775100  0.634700  1.0  0.1248
  H  H27  1  0.761900  0.932100  0.617000  1.0  0.1141
  H  H28  1  0.589200  0.926500  0.514400  1.0  0.1096
  H  H29  1  0.669300  0.772300  0.523300  1.0  0.1128
  H  H30  1  0.664500  0.295000  0.926300  1.0  0.1137
  H  H31  1  0.815700  0.219500  0.939600  1.0  0.1021
  H  H32  1  0.871300  0.052700  0.800000  1.0  0.1286
  H  H33  1  0.719000  0.125600  0.789200  1.0  0.1128
  H  H34  1  0.977400  0.189600  0.882300  1.0  0.1098
  H  H35  1  0.199700  0.955800  0.906900  1.0  0.1185
  H  H36  1  0.967600  0.954100  0.880100  1.0  0.1129
  H  H37  1  0.117000  0.239200  0.811100  1.0  0.1063
  H  H38  1  0.200800  0.314300  0.821500  1.0  0.1093
  H  H39  1  0.268800  0.116800  0.012700  1.0  0.1176
  H  H40  1  0.191700  0.038700  0.998600  1.0  0.1068
  H  H41  1  0.267100  0.845900  0.824000  1.0  0.1051
  H  H42  1  0.346400  0.689400  0.835300  1.0  0.0997
  H  H43  1  0.101200  0.649600  0.973900  1.0  0.113
  H  H44  1  0.023600  0.805500  0.962900  1.0  0.1054
  H  H45  1  0.496000  0.612100  0.616000  1.0  0.0883
  H  H46  1  0.532800  0.576000  0.735300  1.0  0.1194
  H  H47  1  0.473900  0.841100  0.712300  1.0  0.1277
  H  H48  1  0.443700  0.870000  0.591400  1.0  0.0919
  H  H49  1  0.487600  0.583600  0.877000  1.0  0.1234
  H  H50  1  0.529300  0.563100  0.988900  1.0  0.0737
  H  H51  1  0.642200  0.750700  0.882600  1.0  0.0922
  H  H52  1  0.606700  0.777600  0.765900  1.0  0.1319
  H  H53  1  0.320500  0.716100  0.320800  1.0  0.0993
  H  H54  1  0.238200  0.643500  0.305300  1.0  0.1132
  H  H55  1  0.306700  0.440900  0.494600  1.0  0.1018
  H  H56  1  0.386300  0.514700  0.511300  1.0  0.1151
  H  H57  1  0.093300  0.596800  0.373700  1.0  0.1186
  H  H58  1  0.072200  0.357700  0.401100  1.0  0.1076
  H  H59  1  0.308700  0.362700  0.411400  1.0  0.1037
  H  H60  1  0.940800  0.644600  0.417400  1.0  0.1174
  H  H61  1  0.790200  0.720400  0.404500  1.0  0.1061
  H  H62  1  0.815800  0.519400  0.317000  1.0  0.1155
  H  H63  1  0.967100  0.440500  0.332400  1.0  0.12
  H  H64  1  0.166300  0.224900  0.365300  1.0  0.1247
  H  H65  1  0.238100  0.067900  0.383000  1.0  0.1132
  H  H66  1  0.410800  0.073500  0.485600  1.0  0.1103
  H  H67  1  0.330700  0.227700  0.476700  1.0  0.1146
  H  H68  1  0.335500  0.705000  0.073700  1.0  0.1141
  H  H69  1  0.184300  0.780500  0.060400  1.0  0.1018
  H  H70  1  0.128700  0.947300  0.200000  1.0  0.1283
  H  H71  1  0.281000  0.874400  0.210800  1.0  0.1129
  H  H72  1  0.022600  0.810400  0.117700  1.0  0.1087
  H  H73  1  0.800300  0.044200  0.093100  1.0  0.1188
  H  H74  1  0.032400  0.045900  0.119900  1.0  0.1114
  H  H75  1  0.883000  0.760800  0.188900  1.0  0.1057
  H  H76  1  0.799200  0.685700  0.178500  1.0  0.1084
  H  H77  1  0.731200  0.883200  0.987300  1.0  0.1177
  H  H78  1  0.808300  0.961300  0.001400  1.0  0.1082
  H  H79  1  0.732900  0.154100  0.176000  1.0  0.1052
  H  H80  1  0.653600  0.310600  0.164700  1.0  0.1001
  H  H81  1  0.898800  0.350400  0.026100  1.0  0.114
  H  H82  1  0.976400  0.194500  0.037100  1.0  0.1056
  C  C83  1  0.505800  0.340900  0.365600  1.0  0.1753
  C  C84  1  0.484100  0.363000  0.293700  1.0  -0.1772
  C  C85  1  0.487100  0.296500  0.264700  1.0  0.1224
  C  C86  1  0.518000  0.207700  0.307600  1.0  -0.2151
  C  C87  1  0.536900  0.190800  0.379400  1.0  0.1721
  C  C88  1  0.459200  0.316600  0.192200  1.0  0.1045
  C  C89  1  0.480300  0.380900  0.123900  1.0  -0.2058
  C  C90  1  0.454800  0.393000  0.057500  1.0  0.1876
  C  C91  1  0.388900  0.284100  0.119500  1.0  0.1511
  C  C92  1  0.410500  0.266800  0.188900  1.0  -0.2155
  C  C93  1  0.588500  0.330000  0.570600  1.0  0.6901
  C  C94  1  0.639100  0.377400  0.581700  1.0  -0.1314
  C  C95  1  0.683200  0.339500  0.643600  1.0  -0.0407
  C  C96  1  0.731700  0.382700  0.653100  1.0  -0.1077
  C  C97  1  0.736300  0.464900  0.601300  1.0  0.0654
  C  C98  1  0.691000  0.502700  0.540300  1.0  -0.1201
  C  C99  1  0.643400  0.459300  0.530500  1.0  -0.0269
  C  C100  1  0.790300  0.513500  0.605500  1.0  0.0118
  C  C101  1  0.880800  0.467400  0.616800  1.0  -0.1019
  C  C102  1  0.932900  0.515900  0.614000  1.0  -0.0051
  C  C103  1  0.892200  0.609200  0.601700  1.0  -0.1367
  C  C104  1  0.802000  0.656900  0.593200  1.0  0.0066
  C  C105  1  0.752900  0.606300  0.595000  1.0  -0.1547
  C  C106  1  0.028800  0.466100  0.622700  1.0  0.0762
  C  C107  1  0.084100  0.382200  0.602200  1.0  -0.1455
  C  C108  1  0.174200  0.336900  0.609800  1.0  -0.0938
  C  C109  1  0.213800  0.373000  0.637700  1.0  -0.1314
  C  C110  1  0.159300  0.455900  0.661200  1.0  -0.1124
  C  C111  1  0.068600  0.502400  0.652800  1.0  -0.1285
  C  C112  1  0.313700  0.328500  0.640700  1.0  0.709
  C  C113  1  0.757400  0.757700  0.582300  1.0  0.0257
  C  C114  1  0.784700  0.806000  0.609300  1.0  -0.1202
  C  C115  1  0.741200  0.899200  0.599700  1.0  -0.0548
  C  C116  1  0.666900  0.945000  0.564900  1.0  -0.1258
  C  C117  1  0.639900  0.896400  0.537800  1.0  -0.0844
  C  C118  1  0.686400  0.804400  0.544700  1.0  -0.1198
  C  C119  1  0.615300  0.045500  0.558800  1.0  0.6994
  C  C120  1  0.578200  0.264500  0.849400  1.0  0.7242
  C  C121  1  0.676900  0.215900  0.857200  1.0  -0.1276
  C  C122  1  0.706200  0.245000  0.901400  1.0  -0.0845
  C  C123  1  0.796200  0.200500  0.908500  1.0  -0.1039
  C  C124  1  0.859800  0.127900  0.871300  1.0  0.0603
  C  C125  1  0.829300  0.101400  0.826500  1.0  -0.1435
  C  C126  1  0.738900  0.144900  0.819900  1.0  -0.074
  C  C127  1  0.956900  0.080300  0.879600  1.0  0.0453
  C  C128  1  0.006400  0.126100  0.885400  1.0  -0.153
  C  C129  1  0.095600  0.082900  0.895500  1.0  0.0503
  C  C130  1  0.138500  0.987300  0.899600  1.0  -0.1135
  C  C131  1  0.091400  0.939700  0.893000  1.0  0.0419
  C  C132  1  0.000300  0.986400  0.883700  1.0  -0.1305
  C  C133  1  0.146400  0.131900  0.902100  1.0  0.0393
  C  C134  1  0.148900  0.213500  0.851500  1.0  -0.1302
  C  C135  1  0.197600  0.259200  0.858400  1.0  -0.054
  C  C136  1  0.241600  0.224000  0.919300  1.0  -0.1149
  C  C137  1  0.238700  0.141400  0.971300  1.0  -0.0488
  C  C138  1  0.192500  0.095200  0.963300  1.0  -0.1281
  C  C139  1  0.292300  0.272100  0.927800  1.0  0.7068
  C  C140  1  0.138900  0.841500  0.895600  1.0  0.0308
  C  C141  1  0.233500  0.805900  0.856100  1.0  -0.1263
  C  C142  1  0.281000  0.712600  0.862100  1.0  -0.0481
  C  C143  1  0.231400  0.653700  0.908000  1.0  -0.126
  C  C144  1  0.135800  0.689200  0.944300  1.0  -0.0361
  C  C145  1  0.089500  0.782200  0.938000  1.0  -0.1424
  C  C146  1  0.283200  0.554600  0.916000  1.0  0.6806
  C  C147  1  0.494200  0.659100  0.634400  1.0  0.173
  C  C148  1  0.515900  0.637000  0.706300  1.0  -0.1762
  C  C149  1  0.512900  0.703500  0.735300  1.0  0.1218
  C  C150  1  0.482000  0.792300  0.692400  1.0  -0.2156
  C  C151  1  0.463100  0.809200  0.620600  1.0  0.1715
  C  C152  1  0.540800  0.683400  0.807800  1.0  0.1055
  C  C153  1  0.519700  0.619100  0.876100  1.0  -0.2038
  C  C154  1  0.545200  0.607000  0.942500  1.0  0.1878
  C  C155  1  0.611100  0.715900  0.880500  1.0  0.1496
  C  C156  1  0.589500  0.733200  0.811100  1.0  -0.2161
  C  C157  1  0.411500  0.670000  0.429400  1.0  0.691
  C  C158  1  0.360900  0.622600  0.418300  1.0  -0.1307
  C  C159  1  0.316800  0.660500  0.356400  1.0  -0.0391
  C  C160  1  0.268300  0.617300  0.346900  1.0  -0.1082
  C  C161  1  0.263700  0.535100  0.398700  1.0  0.0662
  C  C162  1  0.309000  0.497300  0.459700  1.0  -0.1201
  C  C163  1  0.356600  0.540700  0.469500  1.0  -0.0266
  C  C164  1  0.209700  0.486500  0.394500  1.0  0.0123
  C  C165  1  0.119200  0.532600  0.383200  1.0  -0.1022
  C  C166  1  0.067100  0.484100  0.386000  1.0  -0.0054
  C  C167  1  0.107800  0.390800  0.398300  1.0  -0.1389
  C  C168  1  0.198000  0.343100  0.406800  1.0  0.0065
  C  C169  1  0.247100  0.393700  0.405000  1.0  -0.1545
  C  C170  1  0.971200  0.533900  0.377300  1.0  0.0758
  C  C171  1  0.915900  0.617800  0.397800  1.0  -0.1479
  C  C172  1  0.825800  0.663100  0.390200  1.0  -0.0957
  C  C173  1  0.786200  0.627000  0.362300  1.0  -0.1308
  C  C174  1  0.840700  0.544100  0.338800  1.0  -0.1085
  C  C175  1  0.931400  0.497600  0.347200  1.0  -0.1275
  C  C176  1  0.686300  0.671500  0.359300  1.0  0.7098
  C  C177  1  0.242600  0.242300  0.417700  1.0  0.0249
  C  C178  1  0.215300  0.194000  0.390700  1.0  -0.1197
  C  C179  1  0.258800  0.100800  0.400300  1.0  -0.0558
  C  C180  1  0.333100  0.055000  0.435100  1.0  -0.1259
  C  C181  1  0.360100  0.103600  0.462200  1.0  -0.0877
  C  C182  1  0.313600  0.195600  0.455300  1.0  -0.1224
  C  C183  1  0.384700  0.954500  0.441200  1.0  0.7007
  C  C184  1  0.421800  0.735500  0.150600  1.0  0.7247
  C  C185  1  0.323100  0.784100  0.142800  1.0  -0.1274
  C  C186  1  0.293800  0.755000  0.098600  1.0  -0.083
  C  C187  1  0.203800  0.799500  0.091500  1.0  -0.1027
  C  C188  1  0.140200  0.872100  0.128700  1.0  0.0607
  C  C189  1  0.170700  0.898600  0.173500  1.0  -0.1454
  C  C190  1  0.261100  0.855100  0.180100  1.0  -0.0741
  C  C191  1  0.043100  0.919700  0.120400  1.0  0.0451
  C  C192  1  0.993600  0.873900  0.114600  1.0  -0.1538
  C  C193  1  0.904400  0.917100  0.104500  1.0  0.0497
  C  C194  1  0.861500  0.012700  0.100400  1.0  -0.1143
  C  C195  1  0.908600  0.060300  0.107000  1.0  0.0424
  C  C196  1  0.999700  0.013600  0.116300  1.0  -0.1306
  C  C197  1  0.853600  0.868100  0.097900  1.0  0.038
  C  C198  1  0.851100  0.786500  0.148500  1.0  -0.1284
  C  C199  1  0.802400  0.740800  0.141600  1.0  -0.0544
  C  C200  1  0.758400  0.776000  0.080700  1.0  -0.1142
  C  C201  1  0.761300  0.858600  0.028700  1.0  -0.049
  C  C202  1  0.807500  0.904800  0.036700  1.0  -0.1293
  C  C203  1  0.707700  0.727900  0.072200  1.0  0.7079
  C  C204  1  0.861100  0.158500  0.104400  1.0  0.0314
  C  C205  1  0.766500  0.194100  0.143900  1.0  -0.1255
  C  C206  1  0.719000  0.287400  0.137900  1.0  -0.0485
  C  C207  1  0.768600  0.346300  0.092000  1.0  -0.1251
  C  C208  1  0.864200  0.310800  0.055700  1.0  -0.0377
  C  C209  1  0.910500  0.217800  0.062000  1.0  -0.1453
  C  C210  1  0.716800  0.445400  0.084000  1.0  0.6813
  N  N211  1  0.528900  0.257000  0.409300  1.0  -0.3532
  N  N212  1  0.408800  0.346500  0.054800  1.0  -0.3343
  N  N213  1  0.471100  0.743000  0.590700  1.0  -0.3531
  N  N214  1  0.591200  0.653500  0.945200  1.0  -0.3352
  O  O215  1  0.579100  0.343800  0.504000  1.0  -0.5784
  O  O216  1  0.561700  0.269900  0.629700  1.0  -0.6913
  O  O217  1  0.335900  0.350300  0.685200  1.0  -0.6478
  O  O218  1  0.367300  0.272800  0.595300  1.0  -0.6077
  O  O219  1  0.653400  0.093800  0.563700  1.0  -0.6202
  O  O220  1  0.534800  0.078000  0.549600  1.0  -0.6264
  O  O221  1  0.552000  0.230700  0.815200  1.0  -0.6524
  O  O222  1  0.528300  0.334300  0.877300  1.0  -0.598
  O  O223  1  0.324200  0.326200  0.866600  1.0  -0.6578
  O  O224  1  0.305200  0.259900  0.994400  1.0  -0.5917
  O  O225  1  0.239500  0.501700  0.959800  1.0  -0.6089
  O  O226  1  0.370800  0.523600  0.881300  1.0  -0.607
  O  O227  1  0.420900  0.656200  0.496000  1.0  -0.5806
  O  O228  1  0.438300  0.730100  0.370300  1.0  -0.6919
  O  O229  1  0.664100  0.649700  0.314800  1.0  -0.6499
  O  O230  1  0.632700  0.727200  0.404700  1.0  -0.6077
  O  O231  1  0.346600  0.906200  0.436300  1.0  -0.6199
  O  O232  1  0.465200  0.922000  0.450400  1.0  -0.6275
  O  O233  1  0.448000  0.769300  0.184800  1.0  -0.6533
  O  O234  1  0.471700  0.665700  0.122700  1.0  -0.5984
  O  O235  1  0.675800  0.673800  0.133400  1.0  -0.6552
  O  O236  1  0.694800  0.740100  0.005600  1.0  -0.5908
  O  O237  1  0.760500  0.498300  0.040200  1.0  -0.609
  O  O238  1  0.629200  0.476400  0.118700  1.0  -0.6068
