# generated using pymatgen
data_Zn2H18C12N2Cl2O7
_symmetry_space_group_name_H-M   'P 1'
_cell_length_a   8.07690000
_cell_length_b   10.87230000
_cell_length_c   12.90900000
_cell_angle_alpha   101.51100000
_cell_angle_beta   96.39900000
_cell_angle_gamma   109.81700000
_symmetry_Int_Tables_number   1
_chemical_formula_structural   Zn2H18C12N2Cl2O7
_chemical_formula_sum   'Zn4 H36 C24 N4 Cl4 O14'
_cell_volume   1025.10235448
_cell_formula_units_Z   2
loop_
 _symmetry_equiv_pos_site_id
 _symmetry_equiv_pos_as_xyz
  1  'x, y, z'
loop_
 _atom_site_type_symbol
 _atom_site_label
 _atom_site_symmetry_multiplicity
 _atom_site_fract_x
 _atom_site_fract_y
 _atom_site_fract_z
 _atom_site_occupancy
 _atom_site_charge
  Zn  Zn1  1  0.512910  0.648820  0.498160  1.0  0.9464
  Zn  Zn2  1  0.101380  0.368870  0.477580  1.0  0.9019
  Zn  Zn3  1  0.487090  0.351180  0.501840  1.0  0.9459
  Zn  Zn4  1  0.898620  0.631130  0.522420  1.0  0.9034
  H  H5  1  0.311000  0.419000  0.370000  1.0  0.4248
  H  H6  1  0.744000  0.047000  0.399000  1.0  0.2587
  H  H7  1  0.682000  0.964000  0.469000  1.0  0.2556
  H  H8  1  0.242000  0.719000  0.422000  1.0  0.2137
  H  H9  1  0.396000  0.822000  0.490000  1.0  0.2276
  H  H10  1  0.162900  0.620900  0.239500  1.0  0.1105
  H  H11  1  0.185400  0.668300  0.072100  1.0  0.2849
  H  H12  1  0.628000  0.003700  0.211700  1.0  0.1062
  H  H13  1  0.073000  0.965200  0.243800  1.0  0.1388
  H  H14  1  0.923300  0.929000  0.316100  1.0  0.1084
  H  H15  1  0.112700  0.916600  0.349800  1.0  0.1245
  H  H16  1  0.704100  0.282900  0.189000  1.0  0.1374
  H  H17  1  0.852600  0.237300  0.245100  1.0  0.1364
  H  H18  1  0.901400  0.391700  0.241600  1.0  0.1378
  H  H19  1  0.355000  0.340100  0.824500  1.0  0.1346
  H  H20  1  0.144500  0.310400  0.809400  1.0  0.1246
  H  H21  1  0.285800  0.462900  0.840600  1.0  0.1402
  H  H22  1  0.414500  0.859800  0.058800  1.0  0.2782
  H  H23  1  0.689000  0.581000  0.630000  1.0  0.4203
  H  H24  1  0.256000  0.953000  0.601000  1.0  0.2581
  H  H25  1  0.318000  0.036000  0.531000  1.0  0.2551
  H  H26  1  0.758000  0.281000  0.578000  1.0  0.2155
  H  H27  1  0.604000  0.178000  0.510000  1.0  0.2279
  H  H28  1  0.837100  0.379100  0.760500  1.0  0.1106
  H  H29  1  0.814600  0.331700  0.927900  1.0  0.282
  H  H30  1  0.372000  0.996300  0.788300  1.0  0.106
  H  H31  1  0.927000  0.034800  0.756200  1.0  0.139
  H  H32  1  0.076700  0.071000  0.683900  1.0  0.1085
  H  H33  1  0.887300  0.083400  0.650200  1.0  0.1242
  H  H34  1  0.295900  0.717100  0.811000  1.0  0.1374
  H  H35  1  0.147400  0.762700  0.754900  1.0  0.1368
  H  H36  1  0.098600  0.608300  0.758400  1.0  0.1377
  H  H37  1  0.645000  0.659900  0.175500  1.0  0.1343
  H  H38  1  0.855500  0.689600  0.190600  1.0  0.1232
  H  H39  1  0.714200  0.537100  0.159400  1.0  0.1378
  H  H40  1  0.585500  0.140200  0.941200  1.0  0.2772
  C  C41  1  0.520000  0.899700  0.318800  1.0  0.2014
  C  C42  1  0.378900  0.786000  0.326600  1.0  0.185
  C  C43  1  0.256400  0.699500  0.234100  1.0  -0.1942
  C  C44  1  0.269900  0.727100  0.134700  1.0  -0.0797
  C  C45  1  0.406300  0.840200  0.126900  1.0  -0.0872
  C  C46  1  0.533100  0.926700  0.218300  1.0  -0.184
  C  C47  1  0.126100  0.111700  0.382900  1.0  0.7509
  C  C48  1  0.052400  0.968300  0.317500  1.0  -0.4348
  C  C49  1  0.748600  0.339900  0.353800  1.0  0.7117
  C  C50  1  0.806700  0.310400  0.248200  1.0  -0.4518
  C  C51  1  0.252000  0.366500  0.682100  1.0  0.7385
  C  C52  1  0.260000  0.370300  0.799300  1.0  -0.4268
  C  C53  1  0.480000  0.100300  0.681200  1.0  0.2015
  C  C54  1  0.621100  0.214000  0.673400  1.0  0.186
  C  C55  1  0.743600  0.300500  0.765900  1.0  -0.1903
  C  C56  1  0.730100  0.272900  0.865300  1.0  -0.0826
  C  C57  1  0.593700  0.159800  0.873100  1.0  -0.0854
  C  C58  1  0.466900  0.073300  0.781700  1.0  -0.1888
  C  C59  1  0.873900  0.888300  0.617100  1.0  0.7492
  C  C60  1  0.947600  0.031700  0.682500  1.0  -0.4317
  C  C61  1  0.251400  0.660100  0.646200  1.0  0.7125
  C  C62  1  0.193300  0.689600  0.751800  1.0  -0.455
  C  C63  1  0.748000  0.633500  0.317900  1.0  0.7376
  C  C64  1  0.740000  0.629700  0.200700  1.0  -0.4253
  N  N65  1  0.640900  0.989200  0.411100  1.0  -0.5716
  N  N66  1  0.362300  0.755400  0.428000  1.0  -0.6289
  N  N67  1  0.359100  0.010800  0.588900  1.0  -0.5791
  N  N68  1  0.637700  0.244600  0.572000  1.0  -0.6282
  Cl  Cl69  1  0.436300  0.905500  0.013900  1.0  -0.0346
  Cl  Cl70  1  0.109000  0.594900  0.022000  1.0  -0.03
  Cl  Cl71  1  0.563700  0.094500  0.986100  1.0  -0.0316
  Cl  Cl72  1  0.891000  0.405100  0.978000  1.0  -0.0298
  O  O73  1  0.329000  0.451900  0.436800  1.0  -1.0116
  O  O74  1  0.017100  0.173800  0.394100  1.0  -0.5922
  O  O75  1  0.287800  0.160800  0.427100  1.0  -0.5907
  O  O76  1  0.867800  0.385600  0.440600  1.0  -0.6824
  O  O77  1  0.588100  0.323000  0.355800  1.0  -0.5952
  O  O78  1  0.107000  0.361700  0.629500  1.0  -0.5828
  O  O79  1  0.388300  0.370200  0.645400  1.0  -0.5904
  O  O80  1  0.671000  0.548100  0.563200  1.0  -1.0123
  O  O81  1  0.982900  0.826200  0.605900  1.0  -0.5939
  O  O82  1  0.712200  0.839200  0.572900  1.0  -0.5922
  O  O83  1  0.132200  0.614400  0.559400  1.0  -0.6814
  O  O84  1  0.411900  0.677000  0.644200  1.0  -0.5954
  O  O85  1  0.893000  0.638300  0.370500  1.0  -0.5819
  O  O86  1  0.611700  0.629800  0.354600  1.0  -0.5927
