# generated using pymatgen
data_CdHgC4(SN)4
_symmetry_space_group_name_H-M   'P 1'
_cell_length_a   7.76700000
_cell_length_b   16.24400000
_cell_length_c   15.30430000
_cell_angle_alpha   90.00000000
_cell_angle_beta   90.00000000
_cell_angle_gamma   90.00000000
_symmetry_Int_Tables_number   1
_chemical_formula_structural   CdHgC4(SN)4
_chemical_formula_sum   'Cd4 Hg4 C16 S16 N16'
_cell_volume   1930.89988314
_cell_formula_units_Z   4
loop_
 _symmetry_equiv_pos_site_id
 _symmetry_equiv_pos_as_xyz
  1  'x, y, z'
loop_
 _atom_site_type_symbol
 _atom_site_label
 _atom_site_symmetry_multiplicity
 _atom_site_fract_x
 _atom_site_fract_y
 _atom_site_fract_z
 _atom_site_occupancy
 _atom_site_charge
  Cd  Cd1  1  0.492980  0.379220  0.759830  1.0  1.1621
  Cd  Cd2  1  0.507020  0.620780  0.259830  1.0  1.1629
  Cd  Cd3  1  0.007020  0.879220  0.759830  1.0  1.1624
  Cd  Cd4  1  0.992980  0.120780  0.259830  1.0  1.1634
  Hg  Hg5  1  0.959510  0.571070  0.564830  1.0  0.4207
  Hg  Hg6  1  0.040490  0.428930  0.064830  1.0  0.421
  Hg  Hg7  1  0.540490  0.071070  0.564830  1.0  0.4211
  Hg  Hg8  1  0.459510  0.928930  0.064830  1.0  0.4206
  C  C9  1  0.330000  0.497900  0.595800  1.0  0.3745
  C  C10  1  0.851000  0.755200  0.595300  1.0  0.3959
  C  C11  1  0.701000  0.506900  0.421500  1.0  0.3814
  C  C12  1  0.844600  0.503000  0.753100  1.0  0.373
  C  C13  1  0.670000  0.502100  0.095800  1.0  0.3739
  C  C14  1  0.149000  0.244800  0.095300  1.0  0.395
  C  C15  1  0.299000  0.493100  0.921500  1.0  0.3817
  C  C16  1  0.155400  0.497000  0.253100  1.0  0.3739
  C  C17  1  0.170000  0.997900  0.595800  1.0  0.3737
  C  C18  1  0.649000  0.255200  0.595300  1.0  0.3974
  C  C19  1  0.799000  0.006900  0.421500  1.0  0.3817
  C  C20  1  0.655400  0.003000  0.753100  1.0  0.3734
  C  C21  1  0.830000  0.002100  0.095800  1.0  0.3748
  C  C22  1  0.351000  0.744800  0.095300  1.0  0.3972
  C  C23  1  0.201000  0.993100  0.921500  1.0  0.3814
  C  C24  1  0.344600  0.997000  0.253100  1.0  0.3733
  S  S25  1  0.265600  0.553300  0.511900  1.0  -0.2488
  S  S26  1  0.770200  0.453500  0.505600  1.0  -0.2311
  S  S27  1  0.986400  0.574000  0.729600  1.0  -0.2455
  S  S28  1  0.795200  0.695800  0.512700  1.0  -0.2718
  S  S29  1  0.734400  0.446700  0.011900  1.0  -0.2493
  S  S30  1  0.229800  0.546500  0.005600  1.0  -0.2296
  S  S31  1  0.013600  0.426000  0.229600  1.0  -0.2465
  S  S32  1  0.204800  0.304200  0.012700  1.0  -0.2728
  S  S33  1  0.234400  0.053300  0.511900  1.0  -0.2487
  S  S34  1  0.729800  0.953500  0.505600  1.0  -0.2311
  S  S35  1  0.513600  0.074000  0.729600  1.0  -0.245
  S  S36  1  0.704800  0.195800  0.512700  1.0  -0.2724
  S  S37  1  0.765600  0.946700  0.011900  1.0  -0.2495
  S  S38  1  0.270200  0.046500  0.005600  1.0  -0.2298
  S  S39  1  0.486400  0.926000  0.229600  1.0  -0.247
  S  S40  1  0.295200  0.804200  0.012700  1.0  -0.2724
  N  N41  1  0.377000  0.462200  0.655100  1.0  -0.5077
  N  N42  1  0.880200  0.795600  0.654300  1.0  -0.5413
  N  N43  1  0.652000  0.546900  0.366500  1.0  -0.5292
  N  N44  1  0.742000  0.453800  0.767200  1.0  -0.5292
  N  N45  1  0.623000  0.537800  0.155100  1.0  -0.5108
  N  N46  1  0.119800  0.204400  0.154300  1.0  -0.5407
  N  N47  1  0.348000  0.453100  0.866500  1.0  -0.5295
  N  N48  1  0.258000  0.546200  0.267200  1.0  -0.5342
  N  N49  1  0.123000  0.962200  0.655100  1.0  -0.5078
  N  N50  1  0.619800  0.295600  0.654300  1.0  -0.5409
  N  N51  1  0.848000  0.046900  0.366500  1.0  -0.5294
  N  N52  1  0.758000  0.953800  0.767200  1.0  -0.5287
  N  N53  1  0.877000  0.037800  0.155100  1.0  -0.5105
  N  N54  1  0.380200  0.704400  0.154300  1.0  -0.5415
  N  N55  1  0.152000  0.953100  0.866500  1.0  -0.5292
  N  N56  1  0.242000  0.046200  0.267200  1.0  -0.5344
