# generated using pymatgen
data_MgH8(C5O3)2
_symmetry_space_group_name_H-M   'P 1'
_cell_length_a   7.33320000
_cell_length_b   7.70880000
_cell_length_c   12.07000000
_cell_angle_alpha   90.00000000
_cell_angle_beta   91.42000000
_cell_angle_gamma   90.00000000
_symmetry_Int_Tables_number   1
_chemical_formula_structural   MgH8(C5O3)2
_chemical_formula_sum   'Mg2 H16 C20 O12'
_cell_volume   682.10963805
_cell_formula_units_Z   2
loop_
 _symmetry_equiv_pos_site_id
 _symmetry_equiv_pos_as_xyz
  1  'x, y, z'
loop_
 _atom_site_type_symbol
 _atom_site_label
 _atom_site_symmetry_multiplicity
 _atom_site_fract_x
 _atom_site_fract_y
 _atom_site_fract_z
 _atom_site_occupancy
 _atom_site_charge
  Mg  Mg1  1  0.000000  0.500000  0.500000  1.0  1.6136
  Mg  Mg2  1  0.500000  0.000000  0.500000  1.0  1.6136
  H  H3  1  0.441000  0.607400  0.704900  1.0  0.0927
  H  H4  1  0.539600  0.782900  0.735100  1.0  0.0899
  H  H5  1  0.344400  0.684800  0.879300  1.0  0.1019
  H  H6  1  0.779400  0.390700  0.952800  1.0  0.1183
  H  H7  1  0.059000  0.107400  0.295100  1.0  0.0916
  H  H8  1  0.960400  0.282900  0.264900  1.0  0.0901
  H  H9  1  0.155600  0.184800  0.120700  1.0  0.1037
  H  H10  1  0.720600  0.890700  0.047200  1.0  0.1181
  H  H11  1  0.559000  0.392600  0.295100  1.0  0.0917
  H  H12  1  0.460400  0.217100  0.264900  1.0  0.0901
  H  H13  1  0.655600  0.315200  0.120700  1.0  0.1039
  H  H14  1  0.220600  0.609300  0.047200  1.0  0.1177
  H  H15  1  0.941000  0.892600  0.704900  1.0  0.0927
  H  H16  1  0.039600  0.717100  0.735100  1.0  0.0903
  H  H17  1  0.844400  0.815200  0.879300  1.0  0.1026
  H  H18  1  0.279400  0.109300  0.952800  1.0  0.1183
  C  C19  1  0.664400  0.652600  0.608100  1.0  0.7899
  C  C20  1  0.559100  0.662600  0.715100  1.0  -0.1036
  C  C21  1  0.574300  0.542400  0.899000  1.0  0.2268
  C  C22  1  0.407000  0.610200  0.927400  1.0  -0.234
  C  C23  1  0.666200  0.434600  0.971600  1.0  -0.1633
  C  C24  1  0.835600  0.152600  0.391900  1.0  0.7898
  C  C25  1  0.940900  0.162600  0.284900  1.0  -0.1015
  C  C26  1  0.925700  0.042400  0.101000  1.0  0.2308
  C  C27  1  0.093000  0.110200  0.072600  1.0  -0.2309
  C  C28  1  0.833800  0.934600  0.028400  1.0  -0.1607
  C  C29  1  0.335600  0.347400  0.391900  1.0  0.7888
  C  C30  1  0.440900  0.337400  0.284900  1.0  -0.1014
  C  C31  1  0.425700  0.457600  0.101000  1.0  0.2278
  C  C32  1  0.593000  0.389800  0.072600  1.0  -0.2307
  C  C33  1  0.333800  0.565400  0.028400  1.0  -0.1611
  C  C34  1  0.164400  0.847400  0.608100  1.0  0.7892
  C  C35  1  0.059100  0.837400  0.715100  1.0  -0.1026
  C  C36  1  0.074300  0.957600  0.899000  1.0  0.2287
  C  C37  1  0.907000  0.889800  0.927400  1.0  -0.2366
  C  C38  1  0.166200  0.065400  0.971600  1.0  -0.1628
  O  O39  1  0.789300  0.543600  0.602800  1.0  -0.7264
  O  O40  1  0.616200  0.753700  0.530870  1.0  -0.751
  O  O41  1  0.660400  0.577500  0.800320  1.0  -0.2473
  O  O42  1  0.710700  0.043600  0.397200  1.0  -0.7254
  O  O43  1  0.883800  0.253700  0.469130  1.0  -0.7641
  O  O44  1  0.839600  0.077500  0.199680  1.0  -0.2477
  O  O45  1  0.210700  0.456400  0.397200  1.0  -0.7206
  O  O46  1  0.383800  0.246300  0.469130  1.0  -0.7656
  O  O47  1  0.339600  0.422500  0.199680  1.0  -0.2473
  O  O48  1  0.289300  0.956400  0.602800  1.0  -0.7244
  O  O49  1  0.116200  0.746300  0.530870  1.0  -0.7553
  O  O50  1  0.160400  0.922500  0.800320  1.0  -0.2483
