# generated using pymatgen
data_SrCoH4(C2O3)3
_symmetry_space_group_name_H-M   'P 1'
_cell_length_a   6.88000000
_cell_length_b   14.36000000
_cell_length_c   15.80000000
_cell_angle_alpha   90.00000000
_cell_angle_beta   101.69000000
_cell_angle_gamma   90.00000000
_symmetry_Int_Tables_number   1
_chemical_formula_structural   SrCoH4(C2O3)3
_chemical_formula_sum   'Sr4 Co4 H16 C24 O36'
_cell_volume   1528.61169170
_cell_formula_units_Z   4
loop_
 _symmetry_equiv_pos_site_id
 _symmetry_equiv_pos_as_xyz
  1  'x, y, z'
loop_
 _atom_site_type_symbol
 _atom_site_label
 _atom_site_symmetry_multiplicity
 _atom_site_fract_x
 _atom_site_fract_y
 _atom_site_fract_z
 _atom_site_occupancy
 _atom_site_charge
  Sr  Sr1  1  0.766290  0.915280  0.548580  1.0  1.6016
  Sr  Sr2  1  0.233710  0.415280  0.951420  1.0  1.6016
  Sr  Sr3  1  0.233710  0.084720  0.451420  1.0  1.6021
  Sr  Sr4  1  0.766290  0.584720  0.048580  1.0  1.602
  Co  Co5  1  0.775070  0.737300  0.796960  1.0  1.1108
  Co  Co6  1  0.224930  0.237300  0.703040  1.0  1.111
  Co  Co7  1  0.224930  0.262700  0.203040  1.0  1.1114
  Co  Co8  1  0.775070  0.762700  0.296960  1.0  1.1112
  H  H9  1  0.164500  0.936800  0.847400  1.0  0.2025
  H  H10  1  0.292300  0.884100  0.792500  1.0  0.183
  H  H11  1  0.309800  0.541000  0.766600  1.0  0.177
  H  H12  1  0.510500  0.538000  0.735200  1.0  0.1886
  H  H13  1  0.835500  0.436800  0.652600  1.0  0.2023
  H  H14  1  0.707700  0.384100  0.707500  1.0  0.1841
  H  H15  1  0.690200  0.041000  0.733400  1.0  0.1777
  H  H16  1  0.489500  0.038000  0.764800  1.0  0.1888
  H  H17  1  0.835500  0.063200  0.152600  1.0  0.2027
  H  H18  1  0.707700  0.115900  0.207500  1.0  0.1842
  H  H19  1  0.690200  0.459000  0.233400  1.0  0.1773
  H  H20  1  0.489500  0.462000  0.264800  1.0  0.1885
  H  H21  1  0.164500  0.563200  0.347400  1.0  0.2035
  H  H22  1  0.292300  0.615900  0.292500  1.0  0.1831
  H  H23  1  0.309800  0.959000  0.266600  1.0  0.1773
  H  H24  1  0.510500  0.962000  0.235200  1.0  0.1885
  C  C25  1  0.005600  0.891400  0.734600  1.0  0.8027
  C  C26  1  0.169000  0.881100  0.813200  1.0  -0.5925
  C  C27  1  0.190900  0.801500  0.875200  1.0  0.7833
  C  C28  1  0.374600  0.663900  0.715100  1.0  0.7821
  C  C29  1  0.430900  0.575400  0.766300  1.0  -0.5954
  C  C30  1  0.543200  0.583500  0.859200  1.0  0.8327
  C  C31  1  0.994400  0.391400  0.765400  1.0  0.803
  C  C32  1  0.831000  0.381100  0.686800  1.0  -0.592
  C  C33  1  0.809100  0.301500  0.624800  1.0  0.784
  C  C34  1  0.625400  0.163900  0.784900  1.0  0.7807
  C  C35  1  0.569100  0.075400  0.733700  1.0  -0.5932
  C  C36  1  0.456800  0.083500  0.640800  1.0  0.8276
  C  C37  1  0.994400  0.108600  0.265400  1.0  0.803
  C  C38  1  0.831000  0.118900  0.186800  1.0  -0.5913
  C  C39  1  0.809100  0.198500  0.124800  1.0  0.785
  C  C40  1  0.625400  0.336100  0.284900  1.0  0.7812
  C  C41  1  0.569100  0.424600  0.233700  1.0  -0.594
  C  C42  1  0.456800  0.416500  0.140800  1.0  0.8278
  C  C43  1  0.005600  0.608600  0.234600  1.0  0.8029
  C  C44  1  0.169000  0.618900  0.313200  1.0  -0.5921
  C  C45  1  0.190900  0.698500  0.375200  1.0  0.7835
  C  C46  1  0.374600  0.836100  0.215100  1.0  0.782
  C  C47  1  0.430900  0.924600  0.266300  1.0  -0.5959
  C  C48  1  0.543200  0.916500  0.359200  1.0  0.8329
  O  O49  1  0.886200  0.084400  0.512300  1.0  -0.4279
  O  O50  1  0.863200  0.835900  0.717000  1.0  -0.7016
  O  O51  1  0.022200  0.959400  0.687200  1.0  -0.6437
  O  O52  1  0.051700  0.744200  0.874600  1.0  -0.5987
  O  O53  1  0.350700  0.798400  0.927900  1.0  -0.5377
  O  O54  1  0.495300  0.730700  0.721600  1.0  -0.6222
  O  O55  1  0.208900  0.666200  0.665900  1.0  -0.5266
  O  O56  1  0.685200  0.639300  0.879100  1.0  -0.6889
  O  O57  1  0.491100  0.530200  0.912700  1.0  -0.7321
  O  O58  1  0.113800  0.584400  0.987700  1.0  -0.4279
  O  O59  1  0.136800  0.335900  0.783000  1.0  -0.7024
  O  O60  1  0.977800  0.459400  0.812800  1.0  -0.6457
  O  O61  1  0.948300  0.244200  0.625400  1.0  -0.5969
  O  O62  1  0.649300  0.298400  0.572100  1.0  -0.5363
  O  O63  1  0.504700  0.230700  0.778400  1.0  -0.6219
  O  O64  1  0.791100  0.166200  0.834100  1.0  -0.5254
  O  O65  1  0.314800  0.139300  0.620900  1.0  -0.6892
  O  O66  1  0.508900  0.030200  0.587300  1.0  -0.7321
  O  O67  1  0.113800  0.915600  0.487700  1.0  -0.4275
  O  O68  1  0.136800  0.164100  0.283000  1.0  -0.7034
  O  O69  1  0.977800  0.040600  0.312800  1.0  -0.6439
  O  O70  1  0.948300  0.255800  0.125400  1.0  -0.5975
  O  O71  1  0.649300  0.201600  0.072100  1.0  -0.5361
  O  O72  1  0.504700  0.269300  0.278400  1.0  -0.6216
  O  O73  1  0.791100  0.333800  0.334100  1.0  -0.5253
  O  O74  1  0.314800  0.360700  0.120900  1.0  -0.6878
  O  O75  1  0.508900  0.469800  0.087300  1.0  -0.7334
  O  O76  1  0.886200  0.415600  0.012300  1.0  -0.4274
  O  O77  1  0.863200  0.664100  0.217000  1.0  -0.7004
  O  O78  1  0.022200  0.540600  0.187200  1.0  -0.6429
  O  O79  1  0.051700  0.755800  0.374600  1.0  -0.5984
  O  O80  1  0.350700  0.701600  0.427900  1.0  -0.5377
  O  O81  1  0.495300  0.769300  0.221600  1.0  -0.6213
  O  O82  1  0.208900  0.833800  0.165900  1.0  -0.5267
  O  O83  1  0.685200  0.860700  0.379100  1.0  -0.6865
  O  O84  1  0.491100  0.969800  0.412700  1.0  -0.734
