# generated using pymatgen
data_Mn3H34C54(N2O3)4
_symmetry_space_group_name_H-M   'P 1'
_cell_length_a   10.12500000
_cell_length_b   10.76640000
_cell_length_c   13.29280000
_cell_angle_alpha   86.52100000
_cell_angle_beta   73.15100000
_cell_angle_gamma   85.31700000
_symmetry_Int_Tables_number   1
_chemical_formula_structural   Mn3H34C54(N2O3)4
_chemical_formula_sum   'Mn3 H34 C54 N8 O12'
_cell_volume   1381.16977577
_cell_formula_units_Z   1
loop_
 _symmetry_equiv_pos_site_id
 _symmetry_equiv_pos_as_xyz
  1  'x, y, z'
loop_
 _atom_site_type_symbol
 _atom_site_label
 _atom_site_symmetry_multiplicity
 _atom_site_fract_x
 _atom_site_fract_y
 _atom_site_fract_z
 _atom_site_occupancy
 _atom_site_charge
  Mn  Mn1  1  0.861590  0.591200  0.307860  1.0  1.0702
  Mn  Mn2  1  0.138410  0.408800  0.692140  1.0  1.0715
  Mn  Mn3  1  0.000000  0.000000  0.000000  1.0  1.0558
  H  H4  1  0.234900  0.404600  0.172200  1.0  0.1132
  H  H5  1  0.371800  0.356100  0.282400  1.0  0.097
  H  H6  1  0.422800  0.152700  0.328800  1.0  0.1201
  H  H7  1  0.185800  0.040700  0.161200  1.0  0.1
  H  H8  1  0.536000  0.936900  0.272600  1.0  0.1075
  H  H9  1  0.382400  0.597600  0.332500  1.0  0.1137
  H  H10  1  0.139500  0.896000  0.290000  1.0  0.099
  H  H11  1  0.785600  0.326800  0.216000  1.0  0.0989
  H  H12  1  0.830800  0.115800  0.277200  1.0  0.1281
  H  H13  1  0.967400  0.349100  0.436000  1.0  0.1016
  H  H14  1  0.480900  0.145100  0.044200  1.0  0.1178
  H  H15  1  0.657100  0.980500  0.052800  1.0  0.0923
  H  H16  1  0.841800  0.292200  0.985200  1.0  0.095
  H  H17  1  0.451900  0.331000  0.918800  1.0  0.1083
  H  H18  1  0.668100  0.474800  0.088200  1.0  0.1124
  H  H19  1  0.822700  0.975500  0.426800  1.0  0.1162
  H  H20  1  0.107400  0.186300  0.473300  1.0  0.1184
  H  H21  1  0.765100  0.595400  0.827800  1.0  0.1127
  H  H22  1  0.628200  0.643900  0.717600  1.0  0.0968
  H  H23  1  0.577200  0.847300  0.671200  1.0  0.1198
  H  H24  1  0.814200  0.959300  0.838800  1.0  0.1004
  H  H25  1  0.464000  0.063100  0.727400  1.0  0.1072
  H  H26  1  0.617600  0.402400  0.667500  1.0  0.1121
  H  H27  1  0.860500  0.104000  0.710000  1.0  0.0987
  H  H28  1  0.214400  0.673200  0.784000  1.0  0.099
  H  H29  1  0.169200  0.884200  0.722800  1.0  0.1287
  H  H30  1  0.032600  0.650900  0.564000  1.0  0.1013
  H  H31  1  0.519100  0.854900  0.955800  1.0  0.1179
  H  H32  1  0.342900  0.019500  0.947200  1.0  0.0947
  H  H33  1  0.158200  0.707800  0.014800  1.0  0.0949
  H  H34  1  0.548100  0.669000  0.081200  1.0  0.1081
  H  H35  1  0.331900  0.525200  0.911800  1.0  0.1123
  H  H36  1  0.177300  0.024500  0.573200  1.0  0.117
  H  H37  1  0.892600  0.813700  0.526700  1.0  0.1165
  C  C38  1  0.120500  0.250100  0.072300  1.0  0.7146
  C  C39  1  0.199900  0.226000  0.152200  1.0  -0.1812
  C  C40  1  0.253800  0.321900  0.190800  1.0  -0.1025
  C  C41  1  0.335700  0.292200  0.256800  1.0  -0.0972
  C  C42  1  0.365300  0.170500  0.285700  1.0  -0.1339
  C  C43  1  0.308900  0.074500  0.250100  1.0  0.0522
  C  C44  1  0.225400  0.104300  0.184300  1.0  -0.159
  C  C45  1  0.333900  0.940200  0.277700  1.0  0.0505
  C  C46  1  0.462200  0.886900  0.282400  1.0  -0.0688
  C  C47  1  0.480100  0.758200  0.302100  1.0  -0.144
  C  C48  1  0.620500  0.699800  0.299700  1.0  0.6368
  C  C49  1  0.370100  0.682900  0.319000  1.0  -0.0119
  C  C50  1  0.241500  0.736000  0.315700  1.0  -0.1579
  C  C51  1  0.119900  0.657600  0.329900  1.0  0.693
  C  C52  1  0.225300  0.861900  0.294000  1.0  -0.0868
  C  C53  1  0.827800  0.304700  0.268600  1.0  0.0486
  C  C54  1  0.851800  0.188500  0.302000  1.0  -0.1421
  C  C55  1  0.926800  0.317900  0.389200  1.0  0.1444
  C  C56  1  0.574400  0.154900  0.033800  1.0  -0.15
  C  C57  1  0.672600  0.064400  0.038000  1.0  0.0492
  C  C58  1  0.774400  0.234600  0.001200  1.0  0.1653
  C  C59  1  0.571500  0.386000  0.003600  1.0  0.143
  C  C60  1  0.471200  0.398700  0.951100  1.0  -0.1311
  C  C61  1  0.600900  0.485000  0.052700  1.0  -0.1189
  C  C62  1  0.958700  0.096000  0.441100  1.0  0.1215
  C  C63  1  0.893800  0.984900  0.456400  1.0  -0.1122
  C  C64  1  0.064500  0.111520  0.484190  1.0  -0.1394
  C  C65  1  0.879500  0.749900  0.927700  1.0  0.713
  C  C66  1  0.800100  0.774000  0.847800  1.0  -0.1827
  C  C67  1  0.746200  0.678100  0.809200  1.0  -0.1015
  C  C68  1  0.664300  0.707800  0.743200  1.0  -0.1027
  C  C69  1  0.634700  0.829500  0.714300  1.0  -0.1323
  C  C70  1  0.691100  0.925500  0.749900  1.0  0.0519
  C  C71  1  0.774600  0.895700  0.815700  1.0  -0.1585
  C  C72  1  0.666100  0.059800  0.722300  1.0  0.0501
  C  C73  1  0.537800  0.113100  0.717600  1.0  -0.0677
  C  C74  1  0.519900  0.241800  0.697900  1.0  -0.1413
  C  C75  1  0.379500  0.300200  0.700300  1.0  0.6397
  C  C76  1  0.629900  0.317100  0.681000  1.0  -0.0143
  C  C77  1  0.758500  0.264000  0.684300  1.0  -0.1598
  C  C78  1  0.880100  0.342400  0.670100  1.0  0.6932
  C  C79  1  0.774700  0.138100  0.706000  1.0  -0.0861
  C  C80  1  0.172200  0.695300  0.731400  1.0  0.0476
  C  C81  1  0.148200  0.811500  0.698000  1.0  -0.1455
  C  C82  1  0.073200  0.682100  0.610800  1.0  0.1438
  C  C83  1  0.425600  0.845100  0.966200  1.0  -0.152
  C  C84  1  0.327400  0.935600  0.962000  1.0  0.0501
  C  C85  1  0.225600  0.765400  0.998800  1.0  0.1652
  C  C86  1  0.428500  0.614000  0.996400  1.0  0.142
  C  C87  1  0.528800  0.601300  0.048900  1.0  -0.1324
  C  C88  1  0.399100  0.515000  0.947300  1.0  -0.1125
  C  C89  1  0.041300  0.904000  0.558900  1.0  0.1228
  C  C90  1  0.106200  0.015100  0.543600  1.0  -0.1101
  C  C91  1  0.935500  0.888480  0.515810  1.0  -0.1382
  N  N92  1  0.874430  0.387200  0.323180  1.0  -0.3796
  N  N93  1  0.913990  0.197070  0.380360  1.0  0.0428
  N  N94  1  0.799520  0.113850  0.017110  1.0  -0.4018
  N  N95  1  0.639300  0.264390  0.011110  1.0  0.0282
  N  N96  1  0.125570  0.612800  0.676820  1.0  -0.3788
  N  N97  1  0.086010  0.802930  0.619640  1.0  0.0422
  N  N98  1  0.200480  0.886150  0.982890  1.0  -0.4031
  N  N99  1  0.360700  0.735610  0.988890  1.0  0.0276
  O  O100  1  0.095330  0.361480  0.045750  1.0  -0.5677
  O  O101  1  0.087500  0.157680  0.034820  1.0  -0.6715
  O  O102  1  0.721580  0.766000  0.282490  1.0  -0.5919
  O  O103  1  0.636600  0.584490  0.313500  1.0  -0.5928
  O  O104  1  0.115900  0.552690  0.374490  1.0  -0.5762
  O  O105  1  0.023400  0.707100  0.293010  1.0  -0.6045
  O  O106  1  0.904670  0.638520  0.954250  1.0  -0.5691
  O  O107  1  0.912500  0.842320  0.965180  1.0  -0.6715
  O  O108  1  0.278420  0.234000  0.717510  1.0  -0.5926
  O  O109  1  0.363400  0.415510  0.686500  1.0  -0.5936
  O  O110  1  0.884100  0.447310  0.625510  1.0  -0.5812
  O  O111  1  0.976600  0.292900  0.706990  1.0  -0.6045
