# generated using pymatgen
data_SrNiH6(C2O3)3
_symmetry_space_group_name_H-M   'P 1'
_cell_length_a   6.77450000
_cell_length_b   14.22000000
_cell_length_c   15.62900000
_cell_angle_alpha   90.00000000
_cell_angle_beta   101.10000000
_cell_angle_gamma   90.00000000
_symmetry_Int_Tables_number   1
_chemical_formula_structural   SrNiH6(C2O3)3
_chemical_formula_sum   'Sr4 Ni4 H24 C24 O36'
_cell_volume   1477.42888913
_cell_formula_units_Z   4
loop_
 _symmetry_equiv_pos_site_id
 _symmetry_equiv_pos_as_xyz
  1  'x, y, z'
loop_
 _atom_site_type_symbol
 _atom_site_label
 _atom_site_symmetry_multiplicity
 _atom_site_fract_x
 _atom_site_fract_y
 _atom_site_fract_z
 _atom_site_occupancy
 _atom_site_charge
  Sr  Sr1  1  0.230830  0.584730  0.451730  1.0  1.6431
  Sr  Sr2  1  0.769170  0.084730  0.048270  1.0  1.6427
  Sr  Sr3  1  0.769170  0.415270  0.548270  1.0  1.6422
  Sr  Sr4  1  0.230830  0.915270  0.951730  1.0  1.6427
  Ni  Ni5  1  0.222020  0.735290  0.705710  1.0  0.8043
  Ni  Ni6  1  0.777980  0.235290  0.794290  1.0  0.8039
  Ni  Ni7  1  0.777980  0.264710  0.294290  1.0  0.8044
  Ni  Ni8  1  0.222020  0.764710  0.205710  1.0  0.8048
  H  H9  1  0.491100  0.537000  0.768000  1.0  0.1805
  H  H10  1  0.694300  0.541600  0.735000  1.0  0.1744
  H  H11  1  0.714400  0.600000  0.195800  1.0  0.1787
  H  H12  1  0.872500  0.563900  0.143500  1.0  0.2062
  H  H13  1  0.081400  0.377700  0.445600  1.0  0.4618
  H  H14  1  0.224900  0.401400  0.521300  1.0  0.4805
  H  H15  1  0.508900  0.037000  0.732000  1.0  0.1803
  H  H16  1  0.305700  0.041600  0.765000  1.0  0.1746
  H  H17  1  0.285600  0.100000  0.304200  1.0  0.1794
  H  H18  1  0.127500  0.063900  0.356500  1.0  0.2078
  H  H19  1  0.918600  0.877700  0.054400  1.0  0.4643
  H  H20  1  0.775100  0.901400  0.978700  1.0  0.4789
  H  H21  1  0.508900  0.463000  0.232000  1.0  0.1801
  H  H22  1  0.305700  0.458400  0.265000  1.0  0.1749
  H  H23  1  0.285600  0.400000  0.804200  1.0  0.1794
  H  H24  1  0.127500  0.436100  0.856500  1.0  0.207
  H  H25  1  0.918600  0.622300  0.554400  1.0  0.4645
  H  H26  1  0.775100  0.598600  0.478700  1.0  0.4801
  H  H27  1  0.491100  0.963000  0.268000  1.0  0.18
  H  H28  1  0.694300  0.958400  0.235000  1.0  0.1738
  H  H29  1  0.714400  0.900000  0.695800  1.0  0.1788
  H  H30  1  0.872500  0.936100  0.643500  1.0  0.206
  H  H31  1  0.081400  0.122300  0.945600  1.0  0.4631
  H  H32  1  0.224900  0.098600  0.021300  1.0  0.4794
  C  C33  1  0.456900  0.583600  0.643700  1.0  0.8381
  C  C34  1  0.570300  0.575400  0.735900  1.0  -0.5777
  C  C35  1  0.623500  0.665500  0.786400  1.0  0.7737
  C  C36  1  0.996500  0.607300  0.263700  1.0  0.797
  C  C37  1  0.843500  0.614500  0.180900  1.0  -0.5836
  C  C38  1  0.812500  0.701200  0.125200  1.0  0.7822
  C  C39  1  0.543100  0.083600  0.856300  1.0  0.8392
  C  C40  1  0.429700  0.075400  0.764100  1.0  -0.5779
  C  C41  1  0.376500  0.165500  0.713600  1.0  0.7745
  C  C42  1  0.003500  0.107300  0.236300  1.0  0.7967
  C  C43  1  0.156500  0.114500  0.319100  1.0  -0.5833
  C  C44  1  0.187500  0.201200  0.374800  1.0  0.7833
  C  C45  1  0.543100  0.416400  0.356300  1.0  0.8396
  C  C46  1  0.429700  0.424600  0.264100  1.0  -0.5769
  C  C47  1  0.376500  0.334500  0.213600  1.0  0.775
  C  C48  1  0.003500  0.392700  0.736300  1.0  0.7968
  C  C49  1  0.156500  0.385500  0.819100  1.0  -0.5852
  C  C50  1  0.187500  0.298800  0.874800  1.0  0.7817
  C  C51  1  0.456900  0.916400  0.143700  1.0  0.8381
  C  C52  1  0.570300  0.924600  0.235900  1.0  -0.5764
  C  C53  1  0.623500  0.834500  0.286400  1.0  0.7748
  C  C54  1  0.996500  0.892700  0.763700  1.0  0.7975
  C  C55  1  0.843500  0.885500  0.680900  1.0  -0.5855
  C  C56  1  0.812500  0.798800  0.625200  1.0  0.7806
  O  O57  1  0.309900  0.640130  0.623550  1.0  -0.6687
  O  O58  1  0.506300  0.530420  0.587890  1.0  -0.7857
  O  O59  1  0.791000  0.665600  0.837500  1.0  -0.5882
  O  O60  1  0.500600  0.731000  0.780450  1.0  -0.5975
  O  O61  1  0.135400  0.666350  0.284710  1.0  -0.6778
  O  O62  1  0.979000  0.538260  0.310830  1.0  -0.6723
  O  O63  1  0.946100  0.760600  0.128030  1.0  -0.6012
  O  O64  1  0.647100  0.706500  0.072900  1.0  -0.609
  O  O65  1  0.114500  0.416160  0.487590  1.0  -0.9601
  O  O66  1  0.690100  0.140130  0.876450  1.0  -0.669
  O  O67  1  0.493700  0.030420  0.912110  1.0  -0.783
  O  O68  1  0.209000  0.165600  0.662500  1.0  -0.5887
  O  O69  1  0.499400  0.231000  0.719550  1.0  -0.5981
  O  O70  1  0.864600  0.166350  0.215290  1.0  -0.6769
  O  O71  1  0.021000  0.038260  0.189170  1.0  -0.6732
  O  O72  1  0.053900  0.260600  0.371970  1.0  -0.6003
  O  O73  1  0.352900  0.206500  0.427100  1.0  -0.6134
  O  O74  1  0.885500  0.916160  0.012410  1.0  -0.9596
  O  O75  1  0.690100  0.359870  0.376450  1.0  -0.6682
  O  O76  1  0.493700  0.469580  0.412110  1.0  -0.7855
  O  O77  1  0.209000  0.334400  0.162500  1.0  -0.589
  O  O78  1  0.499400  0.269000  0.219550  1.0  -0.5968
  O  O79  1  0.864600  0.333650  0.715290  1.0  -0.6776
  O  O80  1  0.021000  0.461740  0.689170  1.0  -0.6717
  O  O81  1  0.053900  0.239400  0.871970  1.0  -0.6001
  O  O82  1  0.352900  0.293500  0.927100  1.0  -0.6139
  O  O83  1  0.885500  0.583840  0.512410  1.0  -0.9589
  O  O84  1  0.309900  0.859870  0.123550  1.0  -0.6693
  O  O85  1  0.506300  0.969580  0.087890  1.0  -0.7861
  O  O86  1  0.791000  0.834400  0.337500  1.0  -0.5881
  O  O87  1  0.500600  0.769000  0.280450  1.0  -0.597
  O  O88  1  0.135400  0.833650  0.784710  1.0  -0.6766
  O  O89  1  0.979000  0.961740  0.810830  1.0  -0.6715
  O  O90  1  0.946100  0.739400  0.628030  1.0  -0.6014
  O  O91  1  0.647100  0.793500  0.572900  1.0  -0.6108
  O  O92  1  0.114500  0.083840  0.987590  1.0  -0.9596
