# generated using pymatgen
data_MgH8C12O5
_symmetry_space_group_name_H-M   'P 1'
_cell_length_a   7.17220000
_cell_length_b   12.81090000
_cell_length_c   17.31620000
_cell_angle_alpha   90.00000000
_cell_angle_beta   90.93300000
_cell_angle_gamma   90.00000000
_symmetry_Int_Tables_number   1
_chemical_formula_structural   MgH8C12O5
_chemical_formula_sum   'Mg4 H32 C48 O20'
_cell_volume   1590.84198161
_cell_formula_units_Z   4
loop_
 _symmetry_equiv_pos_site_id
 _symmetry_equiv_pos_as_xyz
  1  'x, y, z'
loop_
 _atom_site_type_symbol
 _atom_site_label
 _atom_site_symmetry_multiplicity
 _atom_site_fract_x
 _atom_site_fract_y
 _atom_site_fract_z
 _atom_site_occupancy
 _atom_site_charge
  Mg  Mg1  1  0.500000  0.500000  0.000000  1.0  1.471
  Mg  Mg2  1  0.500000  0.000000  0.500000  1.0  1.471
  Mg  Mg3  1  0.000000  0.500000  0.000000  1.0  1.5383
  Mg  Mg4  1  0.000000  0.000000  0.500000  1.0  1.5413
  H  H5  1  0.758600  0.352300  0.980300  1.0  0.372
  H  H6  1  0.748900  0.391000  0.051500  1.0  0.3791
  H  H7  1  0.999100  0.323400  0.200200  1.0  0.0833
  H  H8  1  0.990400  0.218400  0.309100  1.0  0.086
  H  H9  1  0.562100  0.243100  0.087800  1.0  0.0901
  H  H10  1  0.805700  0.135000  0.117200  1.0  0.1012
  H  H11  1  0.808000  0.039000  0.231400  1.0  0.0928
  H  H12  1  0.564700  0.049400  0.313700  1.0  0.0825
  H  H13  1  0.241400  0.852300  0.519700  1.0  0.3723
  H  H14  1  0.251100  0.891000  0.448500  1.0  0.3804
  H  H15  1  0.000900  0.823400  0.299800  1.0  0.0831
  H  H16  1  0.009600  0.718400  0.190900  1.0  0.0858
  H  H17  1  0.437900  0.743100  0.412200  1.0  0.0896
  H  H18  1  0.194300  0.635000  0.382800  1.0  0.1024
  H  H19  1  0.192000  0.539000  0.268600  1.0  0.0933
  H  H20  1  0.435300  0.549400  0.186300  1.0  0.0831
  H  H21  1  0.241400  0.647700  0.019700  1.0  0.3734
  H  H22  1  0.251100  0.609000  0.948500  1.0  0.3806
  H  H23  1  0.000900  0.676600  0.799800  1.0  0.0828
  H  H24  1  0.009600  0.781600  0.690900  1.0  0.0859
  H  H25  1  0.437900  0.756900  0.912200  1.0  0.0895
  H  H26  1  0.194300  0.865000  0.882800  1.0  0.1022
  H  H27  1  0.192000  0.961000  0.768600  1.0  0.0937
  H  H28  1  0.435300  0.950600  0.686300  1.0  0.083
  H  H29  1  0.758600  0.147700  0.480300  1.0  0.3722
  H  H30  1  0.748900  0.109000  0.551500  1.0  0.3788
  H  H31  1  0.999100  0.176600  0.700200  1.0  0.0831
  H  H32  1  0.990400  0.281600  0.809100  1.0  0.0861
  H  H33  1  0.562100  0.256900  0.587800  1.0  0.0886
  H  H34  1  0.805700  0.365000  0.617200  1.0  0.1011
  H  H35  1  0.808000  0.461000  0.731400  1.0  0.0934
  H  H36  1  0.564700  0.450600  0.813700  1.0  0.0825
  C  C37  1  0.257100  0.363540  0.101750  1.0  0.699
  C  C38  1  0.238900  0.104450  0.378770  1.0  0.7046
  C  C39  1  0.255600  0.284940  0.166990  1.0  -0.1459
  C  C40  1  0.102200  0.282660  0.213140  1.0  -0.048
  C  C41  1  0.097700  0.219810  0.279710  1.0  -0.0439
  C  C42  1  0.248500  0.160610  0.302030  1.0  -0.1482
  C  C43  1  0.408300  0.156250  0.253590  1.0  0.0459
  C  C44  1  0.409800  0.217440  0.184480  1.0  0.0446
  C  C45  1  0.561600  0.205630  0.133800  1.0  -0.1467
  C  C46  1  0.706800  0.140720  0.150990  1.0  -0.1186
  C  C47  1  0.707700  0.082560  0.219550  1.0  -0.1439
  C  C48  1  0.562800  0.089420  0.268840  1.0  -0.1383
  C  C49  1  0.742900  0.863540  0.398250  1.0  0.699
  C  C50  1  0.761100  0.604450  0.121230  1.0  0.7046
  C  C51  1  0.744400  0.784940  0.333010  1.0  -0.1466
  C  C52  1  0.897800  0.782660  0.286860  1.0  -0.0494
  C  C53  1  0.902300  0.719810  0.220290  1.0  -0.0446
  C  C54  1  0.751500  0.660610  0.197970  1.0  -0.1485
  C  C55  1  0.591700  0.656250  0.246410  1.0  0.0456
  C  C56  1  0.590200  0.717440  0.315520  1.0  0.0447
  C  C57  1  0.438400  0.705630  0.366200  1.0  -0.1459
  C  C58  1  0.293200  0.640720  0.349010  1.0  -0.1179
  C  C59  1  0.292300  0.582560  0.280450  1.0  -0.1444
  C  C60  1  0.437200  0.589420  0.231160  1.0  -0.1396
  C  C61  1  0.742900  0.636460  0.898250  1.0  0.6988
  C  C62  1  0.761100  0.895550  0.621230  1.0  0.7047
  C  C63  1  0.744400  0.715060  0.833010  1.0  -0.1462
  C  C64  1  0.897800  0.717340  0.786860  1.0  -0.049
  C  C65  1  0.902300  0.780190  0.720290  1.0  -0.0455
  C  C66  1  0.751500  0.839390  0.697970  1.0  -0.1488
  C  C67  1  0.591700  0.843750  0.746410  1.0  0.0457
  C  C68  1  0.590200  0.782560  0.815520  1.0  0.0449
  C  C69  1  0.438400  0.794370  0.866200  1.0  -0.1459
  C  C70  1  0.293200  0.859280  0.849010  1.0  -0.1192
  C  C71  1  0.292300  0.917440  0.780450  1.0  -0.1432
  C  C72  1  0.437200  0.910580  0.731160  1.0  -0.1392
  C  C73  1  0.257100  0.136460  0.601750  1.0  0.6987
  C  C74  1  0.238900  0.395550  0.878770  1.0  0.7048
  C  C75  1  0.255600  0.215060  0.666990  1.0  -0.1459
  C  C76  1  0.102200  0.217340  0.713140  1.0  -0.048
  C  C77  1  0.097700  0.280190  0.779710  1.0  -0.0436
  C  C78  1  0.248500  0.339390  0.802030  1.0  -0.1488
  C  C79  1  0.408300  0.343750  0.753590  1.0  0.046
  C  C80  1  0.409800  0.282560  0.684480  1.0  0.045
  C  C81  1  0.561600  0.294370  0.633800  1.0  -0.1464
  C  C82  1  0.706800  0.359280  0.650990  1.0  -0.1193
  C  C83  1  0.707700  0.417440  0.719550  1.0  -0.1421
  C  C84  1  0.562800  0.410580  0.768840  1.0  -0.1384
  O  O85  1  0.104400  0.381750  0.068170  1.0  -0.6311
  O  O86  1  0.409130  0.407690  0.087490  1.0  -0.6062
  O  O87  1  0.082540  0.071440  0.399120  1.0  -0.6096
  O  O88  1  0.387570  0.097190  0.418280  1.0  -0.6321
  O  O89  1  0.749730  0.409010  0.005470  1.0  -0.8734
  O  O90  1  0.895600  0.881750  0.431830  1.0  -0.6306
  O  O91  1  0.590870  0.907690  0.412510  1.0  -0.6062
  O  O92  1  0.917460  0.571440  0.100880  1.0  -0.6104
  O  O93  1  0.612430  0.597190  0.081720  1.0  -0.6319
  O  O94  1  0.250270  0.909010  0.494530  1.0  -0.8729
  O  O95  1  0.895600  0.618250  0.931830  1.0  -0.6305
  O  O96  1  0.590870  0.592310  0.912510  1.0  -0.6062
  O  O97  1  0.917460  0.928560  0.600880  1.0  -0.6104
  O  O98  1  0.612430  0.902810  0.581720  1.0  -0.6327
  O  O99  1  0.250270  0.590990  0.994530  1.0  -0.8742
  O  O100  1  0.104400  0.118250  0.568170  1.0  -0.6304
  O  O101  1  0.409130  0.092310  0.587490  1.0  -0.6063
  O  O102  1  0.082540  0.428560  0.899120  1.0  -0.6105
  O  O103  1  0.387570  0.402810  0.918280  1.0  -0.6317
  O  O104  1  0.749730  0.090990  0.505470  1.0  -0.875
