# generated using pymatgen
data_ZnH28(C11O3)3
_symmetry_space_group_name_H-M   'P 1'
_cell_length_a   36.99100000
_cell_length_b   8.39400000
_cell_length_c   36.94000000
_cell_angle_alpha   90.00000000
_cell_angle_beta   116.75000000
_cell_angle_gamma   90.00000000
_symmetry_Int_Tables_number   1
_chemical_formula_structural   ZnH28(C11O3)3
_chemical_formula_sum   'Zn8 H224 C264 O72'
_cell_volume   10242.43334288
_cell_formula_units_Z   8
loop_
 _symmetry_equiv_pos_site_id
 _symmetry_equiv_pos_as_xyz
  1  'x, y, z'
loop_
 _atom_site_type_symbol
 _atom_site_label
 _atom_site_symmetry_multiplicity
 _atom_site_fract_x
 _atom_site_fract_y
 _atom_site_fract_z
 _atom_site_occupancy
 _atom_site_charge
  Zn  Zn1  1  0.830750  0.032670  0.177020  1.0  1.0161
  Zn  Zn2  1  0.330750  0.532670  0.177020  1.0  1.0161
  Zn  Zn3  1  0.830750  0.967330  0.677020  1.0  1.0151
  Zn  Zn4  1  0.330750  0.467330  0.677020  1.0  1.0151
  Zn  Zn5  1  0.169250  0.032670  0.322980  1.0  1.0164
  Zn  Zn6  1  0.669250  0.532670  0.322980  1.0  1.0164
  Zn  Zn7  1  0.169250  0.967330  0.822980  1.0  1.0152
  Zn  Zn8  1  0.669250  0.467330  0.822980  1.0  1.0152
  H  H9  1  0.505000  0.080500  0.891900  1.0  0.1113
  H  H10  1  0.529000  0.967900  0.929000  1.0  0.1097
  H  H11  1  0.547200  0.133600  0.926300  1.0  0.1204
  H  H12  1  0.392000  0.345300  0.890200  1.0  0.1152
  H  H13  1  0.402300  0.483200  0.922000  1.0  0.1209
  H  H14  1  0.384800  0.321700  0.928600  1.0  0.1229
  H  H15  1  0.549700  0.213000  0.061800  1.0  0.1153
  H  H16  1  0.507900  0.225700  0.062700  1.0  0.1182
  H  H17  1  0.529600  0.380100  0.058600  1.0  0.1094
  H  H18  1  0.559900  0.025300  0.032500  1.0  0.0744
  H  H19  1  0.564400  0.996300  0.992600  1.0  0.0729
  H  H20  1  0.652900  0.369100  0.056300  1.0  0.1214
  H  H21  1  0.719300  0.299600  0.098500  1.0  0.1051
  H  H22  1  0.687900  0.840600  0.087800  1.0  0.1042
  H  H23  1  0.622500  0.904500  0.044200  1.0  0.1167
  H  H24  1  0.456500  0.143900  0.866100  1.0  0.0959
  H  H25  1  0.422500  0.266100  0.862400  1.0  0.0966
  H  H26  1  0.373200  0.803000  0.872900  1.0  0.1285
  H  H27  1  0.347600  0.619000  0.821600  1.0  0.0969
  H  H28  1  0.381300  0.880900  0.753300  1.0  0.1095
  H  H29  1  0.410200  0.064400  0.804800  1.0  0.122
  H  H30  1  0.469300  0.482000  0.027600  1.0  0.0594
  H  H31  1  0.429200  0.502400  0.986900  1.0  0.0713
  H  H32  1  0.422500  0.624100  0.039300  1.0  0.1108
  H  H33  1  0.394500  0.716300  0.080400  1.0  0.1224
  H  H34  1  0.372300  0.271000  0.102400  1.0  0.1033
  H  H35  1  0.399900  0.175300  0.060700  1.0  0.1088
  H  H36  1  0.379000  0.803300  0.121400  1.0  0.3208
  H  H37  1  0.005000  0.580500  0.891900  1.0  0.1113
  H  H38  1  0.029000  0.467900  0.929000  1.0  0.1097
  H  H39  1  0.047200  0.633600  0.926300  1.0  0.1204
  H  H40  1  0.892000  0.845300  0.890200  1.0  0.1152
  H  H41  1  0.902300  0.983200  0.922000  1.0  0.1209
  H  H42  1  0.884800  0.821700  0.928600  1.0  0.1229
  H  H43  1  0.049700  0.713000  0.061800  1.0  0.1153
  H  H44  1  0.007900  0.725700  0.062700  1.0  0.1182
  H  H45  1  0.029600  0.880100  0.058600  1.0  0.1094
  H  H46  1  0.059900  0.525300  0.032500  1.0  0.0744
  H  H47  1  0.064400  0.496300  0.992600  1.0  0.0729
  H  H48  1  0.152900  0.869100  0.056300  1.0  0.1214
  H  H49  1  0.219300  0.799600  0.098500  1.0  0.1051
  H  H50  1  0.187900  0.340600  0.087800  1.0  0.1042
  H  H51  1  0.122500  0.404500  0.044200  1.0  0.1167
  H  H52  1  0.956500  0.643900  0.866100  1.0  0.0959
  H  H53  1  0.922500  0.766100  0.862400  1.0  0.0966
  H  H54  1  0.873200  0.303000  0.872900  1.0  0.1285
  H  H55  1  0.847600  0.119000  0.821600  1.0  0.0969
  H  H56  1  0.881300  0.380900  0.753300  1.0  0.1095
  H  H57  1  0.910200  0.564400  0.804800  1.0  0.122
  H  H58  1  0.969300  0.982000  0.027600  1.0  0.0594
  H  H59  1  0.929200  0.002400  0.986900  1.0  0.0713
  H  H60  1  0.922500  0.124100  0.039300  1.0  0.1108
  H  H61  1  0.894500  0.216300  0.080400  1.0  0.1224
  H  H62  1  0.872300  0.771000  0.102400  1.0  0.1033
  H  H63  1  0.899900  0.675300  0.060700  1.0  0.1088
  H  H64  1  0.879000  0.303300  0.121400  1.0  0.3208
  H  H65  1  0.505000  0.919500  0.391900  1.0  0.1118
  H  H66  1  0.529000  0.032100  0.429000  1.0  0.1111
  H  H67  1  0.547200  0.866400  0.426300  1.0  0.1205
  H  H68  1  0.392000  0.654700  0.390200  1.0  0.1152
  H  H69  1  0.402300  0.516800  0.422000  1.0  0.1169
  H  H70  1  0.384800  0.678300  0.428600  1.0  0.1227
  H  H71  1  0.549700  0.787000  0.561800  1.0  0.1162
  H  H72  1  0.507900  0.774300  0.562700  1.0  0.1173
  H  H73  1  0.529600  0.619900  0.558600  1.0  0.1098
  H  H74  1  0.559900  0.974700  0.532500  1.0  0.0746
  H  H75  1  0.564400  0.003700  0.492600  1.0  0.0735
  H  H76  1  0.652900  0.630900  0.556300  1.0  0.1215
  H  H77  1  0.719300  0.700400  0.598500  1.0  0.105
  H  H78  1  0.687900  0.159400  0.587800  1.0  0.1039
  H  H79  1  0.622500  0.095500  0.544200  1.0  0.1172
  H  H80  1  0.456500  0.856100  0.366100  1.0  0.0961
  H  H81  1  0.422500  0.733900  0.362400  1.0  0.097
  H  H82  1  0.373200  0.197000  0.372900  1.0  0.1286
  H  H83  1  0.347600  0.381000  0.321600  1.0  0.0974
  H  H84  1  0.381300  0.119100  0.253300  1.0  0.1093
  H  H85  1  0.410200  0.935600  0.304800  1.0  0.1214
  H  H86  1  0.469300  0.518000  0.527600  1.0  0.0598
  H  H87  1  0.429200  0.497600  0.486900  1.0  0.0721
  H  H88  1  0.422500  0.375900  0.539300  1.0  0.1111
  H  H89  1  0.394500  0.283700  0.580400  1.0  0.1231
  H  H90  1  0.372300  0.729000  0.602400  1.0  0.1036
  H  H91  1  0.399900  0.824700  0.560700  1.0  0.1091
  H  H92  1  0.379000  0.196700  0.621400  1.0  0.317
  H  H93  1  0.005000  0.419500  0.391900  1.0  0.1118
  H  H94  1  0.029000  0.532100  0.429000  1.0  0.1111
  H  H95  1  0.047200  0.366400  0.426300  1.0  0.1205
  H  H96  1  0.892000  0.154700  0.390200  1.0  0.1152
  H  H97  1  0.902300  0.016800  0.422000  1.0  0.1169
  H  H98  1  0.884800  0.178300  0.428600  1.0  0.1227
  H  H99  1  0.049700  0.287000  0.561800  1.0  0.1162
  H  H100  1  0.007900  0.274300  0.562700  1.0  0.1173
  H  H101  1  0.029600  0.119900  0.558600  1.0  0.1098
  H  H102  1  0.059900  0.474700  0.532500  1.0  0.0746
  H  H103  1  0.064400  0.503700  0.492600  1.0  0.0735
  H  H104  1  0.152900  0.130900  0.556300  1.0  0.1215
  H  H105  1  0.219300  0.200400  0.598500  1.0  0.105
  H  H106  1  0.187900  0.659400  0.587800  1.0  0.1039
  H  H107  1  0.122500  0.595500  0.544200  1.0  0.1172
  H  H108  1  0.956500  0.356100  0.366100  1.0  0.0961
  H  H109  1  0.922500  0.233900  0.362400  1.0  0.097
  H  H110  1  0.873200  0.697000  0.372900  1.0  0.1286
  H  H111  1  0.847600  0.881000  0.321600  1.0  0.0974
  H  H112  1  0.881300  0.619100  0.253300  1.0  0.1093
  H  H113  1  0.910200  0.435600  0.304800  1.0  0.1214
  H  H114  1  0.969300  0.018000  0.527600  1.0  0.0598
  H  H115  1  0.929200  0.997600  0.486900  1.0  0.0721
  H  H116  1  0.922500  0.875900  0.539300  1.0  0.1111
  H  H117  1  0.894500  0.783700  0.580400  1.0  0.1231
  H  H118  1  0.872300  0.229000  0.602400  1.0  0.1036
  H  H119  1  0.899900  0.324700  0.560700  1.0  0.1091
  H  H120  1  0.879000  0.696700  0.621400  1.0  0.317
  H  H121  1  0.495000  0.080500  0.608100  1.0  0.1113
  H  H122  1  0.471000  0.967900  0.571000  1.0  0.1089
  H  H123  1  0.452800  0.133600  0.573700  1.0  0.1217
  H  H124  1  0.608000  0.345300  0.609800  1.0  0.1152
  H  H125  1  0.597700  0.483200  0.578000  1.0  0.1197
  H  H126  1  0.615200  0.321700  0.571400  1.0  0.1207
  H  H127  1  0.450300  0.213000  0.438200  1.0  0.1122
  H  H128  1  0.492100  0.225700  0.437300  1.0  0.1187
  H  H129  1  0.470400  0.380100  0.441400  1.0  0.1093
  H  H130  1  0.440100  0.025300  0.467500  1.0  0.0746
  H  H131  1  0.435600  0.996300  0.507400  1.0  0.0741
  H  H132  1  0.347100  0.369100  0.443700  1.0  0.1225
  H  H133  1  0.280700  0.299600  0.401500  1.0  0.105
  H  H134  1  0.312100  0.840600  0.412200  1.0  0.104
  H  H135  1  0.377500  0.904500  0.455800  1.0  0.1171
  H  H136  1  0.543500  0.143900  0.633900  1.0  0.0967
  H  H137  1  0.577500  0.266100  0.637600  1.0  0.0971
  H  H138  1  0.626800  0.803000  0.627100  1.0  0.128
  H  H139  1  0.652400  0.619000  0.678400  1.0  0.0977
  H  H140  1  0.618700  0.880900  0.746700  1.0  0.1091
  H  H141  1  0.589800  0.064400  0.695200  1.0  0.1223
  H  H142  1  0.530700  0.482000  0.472400  1.0  0.06
  H  H143  1  0.570800  0.502400  0.513100  1.0  0.0712
  H  H144  1  0.577500  0.624100  0.460700  1.0  0.1113
  H  H145  1  0.605500  0.716300  0.419600  1.0  0.1225
  H  H146  1  0.627700  0.271000  0.397600  1.0  0.1027
  H  H147  1  0.600100  0.175300  0.439300  1.0  0.1086
  H  H148  1  0.621000  0.803300  0.378600  1.0  0.3209
  H  H149  1  0.995000  0.580500  0.608100  1.0  0.1113
  H  H150  1  0.971000  0.467900  0.571000  1.0  0.1089
  H  H151  1  0.952800  0.633600  0.573700  1.0  0.1217
  H  H152  1  0.108000  0.845300  0.609800  1.0  0.1152
  H  H153  1  0.097700  0.983200  0.578000  1.0  0.1197
  H  H154  1  0.115200  0.821700  0.571400  1.0  0.1207
  H  H155  1  0.950300  0.713000  0.438200  1.0  0.1122
  H  H156  1  0.992100  0.725700  0.437300  1.0  0.1187
  H  H157  1  0.970400  0.880100  0.441400  1.0  0.1093
  H  H158  1  0.940100  0.525300  0.467500  1.0  0.0746
  H  H159  1  0.935600  0.496300  0.507400  1.0  0.0741
  H  H160  1  0.847100  0.869100  0.443700  1.0  0.1225
  H  H161  1  0.780700  0.799600  0.401500  1.0  0.105
  H  H162  1  0.812100  0.340600  0.412200  1.0  0.104
  H  H163  1  0.877500  0.404500  0.455800  1.0  0.1171
  H  H164  1  0.043500  0.643900  0.633900  1.0  0.0967
  H  H165  1  0.077500  0.766100  0.637600  1.0  0.0971
  H  H166  1  0.126800  0.303000  0.627100  1.0  0.128
  H  H167  1  0.152400  0.119000  0.678400  1.0  0.0977
  H  H168  1  0.118700  0.380900  0.746700  1.0  0.1091
  H  H169  1  0.089800  0.564400  0.695200  1.0  0.1223
  H  H170  1  0.030700  0.982000  0.472400  1.0  0.06
  H  H171  1  0.070800  0.002400  0.513100  1.0  0.0712
  H  H172  1  0.077500  0.124100  0.460700  1.0  0.1113
  H  H173  1  0.105500  0.216300  0.419600  1.0  0.1225
  H  H174  1  0.127700  0.771000  0.397600  1.0  0.1027
  H  H175  1  0.100100  0.675300  0.439300  1.0  0.1086
  H  H176  1  0.121000  0.303300  0.378600  1.0  0.3209
  H  H177  1  0.495000  0.919500  0.108100  1.0  0.1113
  H  H178  1  0.471000  0.032100  0.071000  1.0  0.1095
  H  H179  1  0.452800  0.866400  0.073700  1.0  0.1226
  H  H180  1  0.608000  0.654700  0.109800  1.0  0.1157
  H  H181  1  0.597700  0.516800  0.078000  1.0  0.1178
  H  H182  1  0.615200  0.678300  0.071400  1.0  0.1207
  H  H183  1  0.450300  0.787000  0.938200  1.0  0.1124
  H  H184  1  0.492100  0.774300  0.937300  1.0  0.1181
  H  H185  1  0.470400  0.619900  0.941400  1.0  0.1087
  H  H186  1  0.440100  0.974700  0.967500  1.0  0.0739
  H  H187  1  0.435600  0.003700  0.007400  1.0  0.0725
  H  H188  1  0.347100  0.630900  0.943700  1.0  0.1222
  H  H189  1  0.280700  0.700400  0.901500  1.0  0.1042
  H  H190  1  0.312100  0.159400  0.912200  1.0  0.1044
  H  H191  1  0.377500  0.095500  0.955800  1.0  0.1167
  H  H192  1  0.543500  0.856100  0.133900  1.0  0.0968
  H  H193  1  0.577500  0.733900  0.137600  1.0  0.0987
  H  H194  1  0.626800  0.197000  0.127100  1.0  0.1279
  H  H195  1  0.652400  0.381000  0.178400  1.0  0.0979
  H  H196  1  0.618700  0.119100  0.246700  1.0  0.1092
  H  H197  1  0.589800  0.935600  0.195200  1.0  0.1223
  H  H198  1  0.530700  0.518000  0.972400  1.0  0.06
  H  H199  1  0.570800  0.497600  0.013100  1.0  0.0716
  H  H200  1  0.577500  0.375900  0.960700  1.0  0.111
  H  H201  1  0.605500  0.283700  0.919600  1.0  0.1218
  H  H202  1  0.627700  0.729000  0.897600  1.0  0.1033
  H  H203  1  0.600100  0.824700  0.939300  1.0  0.1086
  H  H204  1  0.621000  0.196700  0.878600  1.0  0.3172
  H  H205  1  0.995000  0.419500  0.108100  1.0  0.1113
  H  H206  1  0.971000  0.532100  0.071000  1.0  0.1095
  H  H207  1  0.952800  0.366400  0.073700  1.0  0.1226
  H  H208  1  0.108000  0.154700  0.109800  1.0  0.1157
  H  H209  1  0.097700  0.016800  0.078000  1.0  0.1178
  H  H210  1  0.115200  0.178300  0.071400  1.0  0.1207
  H  H211  1  0.950300  0.287000  0.938200  1.0  0.1124
  H  H212  1  0.992100  0.274300  0.937300  1.0  0.1181
  H  H213  1  0.970400  0.119900  0.941400  1.0  0.1087
  H  H214  1  0.940100  0.474700  0.967500  1.0  0.0739
  H  H215  1  0.935600  0.503700  0.007400  1.0  0.0725
  H  H216  1  0.847100  0.130900  0.943700  1.0  0.1222
  H  H217  1  0.780700  0.200400  0.901500  1.0  0.1042
  H  H218  1  0.812100  0.659400  0.912200  1.0  0.1044
  H  H219  1  0.877500  0.595500  0.955800  1.0  0.1167
  H  H220  1  0.043500  0.356100  0.133900  1.0  0.0968
  H  H221  1  0.077500  0.233900  0.137600  1.0  0.0987
  H  H222  1  0.126800  0.697000  0.127100  1.0  0.1279
  H  H223  1  0.152400  0.881000  0.178400  1.0  0.0979
  H  H224  1  0.118700  0.619100  0.246700  1.0  0.1092
  H  H225  1  0.089800  0.435600  0.195200  1.0  0.1223
  H  H226  1  0.030700  0.018000  0.972400  1.0  0.06
  H  H227  1  0.070800  0.997600  0.013100  1.0  0.0716
  H  H228  1  0.077500  0.875900  0.960700  1.0  0.111
  H  H229  1  0.105500  0.783700  0.919600  1.0  0.1218
  H  H230  1  0.127700  0.229000  0.897600  1.0  0.1033
  H  H231  1  0.100100  0.324700  0.939300  1.0  0.1086
  H  H232  1  0.121000  0.696700  0.878600  1.0  0.3172
  C  C233  1  0.501610  0.153700  0.943360  1.0  0.0471
  C  C234  1  0.462960  0.219700  0.921910  1.0  -0.0483
  C  C235  1  0.444500  0.305500  0.941640  1.0  0.1079
  C  C236  1  0.465580  0.327000  0.983780  1.0  -0.0619
  C  C237  1  0.503020  0.253800  0.005740  1.0  0.0698
  C  C238  1  0.520610  0.162200  0.984850  1.0  -0.0017
  C  C239  1  0.522600  0.076800  0.920500  1.0  -0.3627
  C  C240  1  0.402030  0.369800  0.918490  1.0  -0.3673
  C  C241  1  0.524520  0.269600  0.051390  1.0  -0.3589
  C  C242  1  0.560140  0.076900  0.009130  1.0  0.0519
  C  C243  1  0.630610  0.143800  0.047210  1.0  0.2553
  C  C244  1  0.659910  0.262900  0.062880  1.0  -0.2061
  C  C245  1  0.699530  0.220900  0.088390  1.0  -0.0393
  C  C246  1  0.710070  0.064000  0.099050  1.0  -0.1366
  C  C247  1  0.680690  0.947000  0.081660  1.0  -0.0416
  C  C248  1  0.641670  0.984600  0.055890  1.0  -0.2873
  C  C249  1  0.753480  0.014900  0.127490  1.0  0.6389
  C  C250  1  0.438830  0.176800  0.877800  1.0  0.0424
  C  C251  1  0.396470  0.949000  0.844620  1.0  0.3122
  C  C252  1  0.375900  0.817400  0.849300  1.0  -0.266
  C  C253  1  0.359800  0.710600  0.818200  1.0  -0.0402
  C  C254  1  0.361190  0.733600  0.782230  1.0  -0.1453
  C  C255  1  0.380100  0.864600  0.777650  1.0  -0.034
  C  C256  1  0.397600  0.974100  0.808500  1.0  -0.2886
  C  C257  1  0.343700  0.614300  0.747800  1.0  0.7013
  C  C258  1  0.447990  0.425100  0.005340  1.0  0.0914
  C  C259  1  0.413230  0.390500  0.045110  1.0  0.3093
  C  C260  1  0.412330  0.552400  0.051690  1.0  -0.2817
  C  C261  1  0.396200  0.607300  0.076900  1.0  -0.1257
  C  C262  1  0.382400  0.499600  0.097100  1.0  -0.1658
  C  C263  1  0.382800  0.342100  0.090200  1.0  -0.0339
  C  C264  1  0.398900  0.284400  0.064600  1.0  -0.2185
  C  C265  1  0.366200  0.563300  0.125400  1.0  0.6253
  C  C266  1  0.001610  0.653700  0.943360  1.0  0.0471
  C  C267  1  0.962960  0.719700  0.921910  1.0  -0.0483
  C  C268  1  0.944500  0.805500  0.941640  1.0  0.1079
  C  C269  1  0.965580  0.827000  0.983780  1.0  -0.0619
  C  C270  1  0.003020  0.753800  0.005740  1.0  0.0698
  C  C271  1  0.020610  0.662200  0.984850  1.0  -0.0017
  C  C272  1  0.022600  0.576800  0.920500  1.0  -0.3627
  C  C273  1  0.902030  0.869800  0.918490  1.0  -0.3673
  C  C274  1  0.024520  0.769600  0.051390  1.0  -0.3589
  C  C275  1  0.060140  0.576900  0.009130  1.0  0.0519
  C  C276  1  0.130610  0.643800  0.047210  1.0  0.2553
  C  C277  1  0.159910  0.762900  0.062880  1.0  -0.2061
  C  C278  1  0.199530  0.720900  0.088390  1.0  -0.0393
  C  C279  1  0.210070  0.564000  0.099050  1.0  -0.1366
  C  C280  1  0.180690  0.447000  0.081660  1.0  -0.0416
  C  C281  1  0.141670  0.484600  0.055890  1.0  -0.2873
  C  C282  1  0.253480  0.514900  0.127490  1.0  0.6389
  C  C283  1  0.938830  0.676800  0.877800  1.0  0.0424
  C  C284  1  0.896470  0.449000  0.844620  1.0  0.3122
  C  C285  1  0.875900  0.317400  0.849300  1.0  -0.266
  C  C286  1  0.859800  0.210600  0.818200  1.0  -0.0402
  C  C287  1  0.861190  0.233600  0.782230  1.0  -0.1453
  C  C288  1  0.880100  0.364600  0.777650  1.0  -0.034
  C  C289  1  0.897600  0.474100  0.808500  1.0  -0.2886
  C  C290  1  0.843700  0.114300  0.747800  1.0  0.7013
  C  C291  1  0.947990  0.925100  0.005340  1.0  0.0914
  C  C292  1  0.913230  0.890500  0.045110  1.0  0.3093
  C  C293  1  0.912330  0.052400  0.051690  1.0  -0.2817
  C  C294  1  0.896200  0.107300  0.076900  1.0  -0.1257
  C  C295  1  0.882400  0.999600  0.097100  1.0  -0.1658
  C  C296  1  0.882800  0.842100  0.090200  1.0  -0.0339
  C  C297  1  0.898900  0.784400  0.064600  1.0  -0.2185
  C  C298  1  0.866200  0.063300  0.125400  1.0  0.6253
  C  C299  1  0.501610  0.846300  0.443360  1.0  0.0466
  C  C300  1  0.462960  0.780300  0.421910  1.0  -0.0501
  C  C301  1  0.444500  0.694500  0.441640  1.0  0.1086
  C  C302  1  0.465580  0.673000  0.483780  1.0  -0.0615
  C  C303  1  0.503020  0.746200  0.505740  1.0  0.0699
  C  C304  1  0.520610  0.837800  0.484850  1.0  -0.0016
  C  C305  1  0.522600  0.923200  0.420500  1.0  -0.3627
  C  C306  1  0.402030  0.630200  0.418490  1.0  -0.367
  C  C307  1  0.524520  0.730400  0.551390  1.0  -0.3587
  C  C308  1  0.560140  0.923100  0.509130  1.0  0.0534
  C  C309  1  0.630610  0.856200  0.547210  1.0  0.2558
  C  C310  1  0.659910  0.737100  0.562880  1.0  -0.2065
  C  C311  1  0.699530  0.779100  0.588390  1.0  -0.04
  C  C312  1  0.710070  0.936000  0.599050  1.0  -0.1362
  C  C313  1  0.680690  0.053000  0.581660  1.0  -0.04
  C  C314  1  0.641670  0.015400  0.555890  1.0  -0.2874
  C  C315  1  0.753480  0.985100  0.627490  1.0  0.6385
  C  C316  1  0.438830  0.823200  0.377800  1.0  0.0433
  C  C317  1  0.396470  0.051000  0.344620  1.0  0.3121
  C  C318  1  0.375900  0.182600  0.349300  1.0  -0.2666
  C  C319  1  0.359800  0.289400  0.318200  1.0  -0.0403
  C  C320  1  0.361190  0.266400  0.282230  1.0  -0.1439
  C  C321  1  0.380100  0.135400  0.277650  1.0  -0.0328
  C  C322  1  0.397600  0.025900  0.308500  1.0  -0.2876
  C  C323  1  0.343700  0.385700  0.247800  1.0  0.7012
  C  C324  1  0.447990  0.574900  0.505340  1.0  0.0898
  C  C325  1  0.413230  0.609500  0.545110  1.0  0.3098
  C  C326  1  0.412330  0.447600  0.551690  1.0  -0.2815
  C  C327  1  0.396200  0.392700  0.576900  1.0  -0.1248
  C  C328  1  0.382400  0.500400  0.597100  1.0  -0.1652
  C  C329  1  0.382800  0.657900  0.590200  1.0  -0.035
  C  C330  1  0.398900  0.715600  0.564600  1.0  -0.2187
  C  C331  1  0.366200  0.436700  0.625400  1.0  0.6254
  C  C332  1  0.001610  0.346300  0.443360  1.0  0.0466
  C  C333  1  0.962960  0.280300  0.421910  1.0  -0.0501
  C  C334  1  0.944500  0.194500  0.441640  1.0  0.1086
  C  C335  1  0.965580  0.173000  0.483780  1.0  -0.0615
  C  C336  1  0.003020  0.246200  0.505740  1.0  0.0699
  C  C337  1  0.020610  0.337800  0.484850  1.0  -0.0016
  C  C338  1  0.022600  0.423200  0.420500  1.0  -0.3627
  C  C339  1  0.902030  0.130200  0.418490  1.0  -0.367
  C  C340  1  0.024520  0.230400  0.551390  1.0  -0.3587
  C  C341  1  0.060140  0.423100  0.509130  1.0  0.0534
  C  C342  1  0.130610  0.356200  0.547210  1.0  0.2558
  C  C343  1  0.159910  0.237100  0.562880  1.0  -0.2065
  C  C344  1  0.199530  0.279100  0.588390  1.0  -0.04
  C  C345  1  0.210070  0.436000  0.599050  1.0  -0.1362
  C  C346  1  0.180690  0.553000  0.581660  1.0  -0.04
  C  C347  1  0.141670  0.515400  0.555890  1.0  -0.2874
  C  C348  1  0.253480  0.485100  0.627490  1.0  0.6385
  C  C349  1  0.938830  0.323200  0.377800  1.0  0.0433
  C  C350  1  0.896470  0.551000  0.344620  1.0  0.3121
  C  C351  1  0.875900  0.682600  0.349300  1.0  -0.2666
  C  C352  1  0.859800  0.789400  0.318200  1.0  -0.0403
  C  C353  1  0.861190  0.766400  0.282230  1.0  -0.1439
  C  C354  1  0.880100  0.635400  0.277650  1.0  -0.0328
  C  C355  1  0.897600  0.525900  0.308500  1.0  -0.2876
  C  C356  1  0.843700  0.885700  0.247800  1.0  0.7012
  C  C357  1  0.947990  0.074900  0.505340  1.0  0.0898
  C  C358  1  0.913230  0.109500  0.545110  1.0  0.3098
  C  C359  1  0.912330  0.947600  0.551690  1.0  -0.2815
  C  C360  1  0.896200  0.892700  0.576900  1.0  -0.1248
  C  C361  1  0.882400  0.000400  0.597100  1.0  -0.1652
  C  C362  1  0.882800  0.157900  0.590200  1.0  -0.035
  C  C363  1  0.898900  0.215600  0.564600  1.0  -0.2187
  C  C364  1  0.866200  0.936700  0.625400  1.0  0.6254
  C  C365  1  0.498390  0.153700  0.556640  1.0  0.0471
  C  C366  1  0.537040  0.219700  0.578090  1.0  -0.048
  C  C367  1  0.555500  0.305500  0.558360  1.0  0.107
  C  C368  1  0.534420  0.327000  0.516220  1.0  -0.0618
  C  C369  1  0.496980  0.253800  0.494260  1.0  0.07
  C  C370  1  0.479390  0.162200  0.515150  1.0  -0.0011
  C  C371  1  0.477400  0.076800  0.579500  1.0  -0.3632
  C  C372  1  0.597970  0.369800  0.581510  1.0  -0.3694
  C  C373  1  0.475480  0.269600  0.448610  1.0  -0.3572
  C  C374  1  0.439860  0.076900  0.490870  1.0  0.0535
  C  C375  1  0.369390  0.143800  0.452790  1.0  0.2564
  C  C376  1  0.340090  0.262900  0.437120  1.0  -0.2062
  C  C377  1  0.300470  0.220900  0.411610  1.0  -0.0386
  C  C378  1  0.289930  0.064000  0.400950  1.0  -0.1345
  C  C379  1  0.319310  0.947000  0.418340  1.0  -0.0403
  C  C380  1  0.358330  0.984600  0.444110  1.0  -0.2869
  C  C381  1  0.246520  0.014900  0.372510  1.0  0.6392
  C  C382  1  0.561170  0.176800  0.622200  1.0  0.0369
  C  C383  1  0.603530  0.949000  0.655380  1.0  0.3151
  C  C384  1  0.624100  0.817400  0.650700  1.0  -0.2651
  C  C385  1  0.640200  0.710600  0.681800  1.0  -0.0405
  C  C386  1  0.638810  0.733600  0.717770  1.0  -0.1435
  C  C387  1  0.619900  0.864600  0.722350  1.0  -0.0299
  C  C388  1  0.602400  0.974100  0.691500  1.0  -0.2899
  C  C389  1  0.656300  0.614300  0.752200  1.0  0.702
  C  C390  1  0.552010  0.425100  0.494660  1.0  0.0902
  C  C391  1  0.586770  0.390500  0.454890  1.0  0.3061
  C  C392  1  0.587670  0.552400  0.448310  1.0  -0.2813
  C  C393  1  0.603800  0.607300  0.423100  1.0  -0.1243
  C  C394  1  0.617600  0.499600  0.402900  1.0  -0.1666
  C  C395  1  0.617200  0.342100  0.409800  1.0  -0.0349
  C  C396  1  0.601100  0.284400  0.435400  1.0  -0.218
  C  C397  1  0.633800  0.563300  0.374600  1.0  0.6259
  C  C398  1  0.998390  0.653700  0.556640  1.0  0.0471
  C  C399  1  0.037040  0.719700  0.578090  1.0  -0.048
  C  C400  1  0.055500  0.805500  0.558360  1.0  0.107
  C  C401  1  0.034420  0.827000  0.516220  1.0  -0.0618
  C  C402  1  0.996980  0.753800  0.494260  1.0  0.07
  C  C403  1  0.979390  0.662200  0.515150  1.0  -0.0011
  C  C404  1  0.977400  0.576800  0.579500  1.0  -0.3632
  C  C405  1  0.097970  0.869800  0.581510  1.0  -0.3694
  C  C406  1  0.975480  0.769600  0.448610  1.0  -0.3572
  C  C407  1  0.939860  0.576900  0.490870  1.0  0.0535
  C  C408  1  0.869390  0.643800  0.452790  1.0  0.2564
  C  C409  1  0.840090  0.762900  0.437120  1.0  -0.2062
  C  C410  1  0.800470  0.720900  0.411610  1.0  -0.0386
  C  C411  1  0.789930  0.564000  0.400950  1.0  -0.1345
  C  C412  1  0.819310  0.447000  0.418340  1.0  -0.0403
  C  C413  1  0.858330  0.484600  0.444110  1.0  -0.2869
  C  C414  1  0.746520  0.514900  0.372510  1.0  0.6392
  C  C415  1  0.061170  0.676800  0.622200  1.0  0.0369
  C  C416  1  0.103530  0.449000  0.655380  1.0  0.3151
  C  C417  1  0.124100  0.317400  0.650700  1.0  -0.2651
  C  C418  1  0.140200  0.210600  0.681800  1.0  -0.0405
  C  C419  1  0.138810  0.233600  0.717770  1.0  -0.1435
  C  C420  1  0.119900  0.364600  0.722350  1.0  -0.0299
  C  C421  1  0.102400  0.474100  0.691500  1.0  -0.2899
  C  C422  1  0.156300  0.114300  0.752200  1.0  0.702
  C  C423  1  0.052010  0.925100  0.494660  1.0  0.0902
  C  C424  1  0.086770  0.890500  0.454890  1.0  0.3061
  C  C425  1  0.087670  0.052400  0.448310  1.0  -0.2813
  C  C426  1  0.103800  0.107300  0.423100  1.0  -0.1243
  C  C427  1  0.117600  0.999600  0.402900  1.0  -0.1666
  C  C428  1  0.117200  0.842100  0.409800  1.0  -0.0349
  C  C429  1  0.101100  0.784400  0.435400  1.0  -0.218
  C  C430  1  0.133800  0.063300  0.374600  1.0  0.6259
  C  C431  1  0.498390  0.846300  0.056640  1.0  0.047
  C  C432  1  0.537040  0.780300  0.078090  1.0  -0.0477
  C  C433  1  0.555500  0.694500  0.058360  1.0  0.1068
  C  C434  1  0.534420  0.673000  0.016220  1.0  -0.0614
  C  C435  1  0.496980  0.746200  0.994260  1.0  0.0702
  C  C436  1  0.479390  0.837800  0.015150  1.0  -0.0013
  C  C437  1  0.477400  0.923200  0.079500  1.0  -0.3629
  C  C438  1  0.597970  0.630200  0.081510  1.0  -0.3695
  C  C439  1  0.475480  0.730400  0.948610  1.0  -0.3566
  C  C440  1  0.439860  0.923100  0.990870  1.0  0.0561
  C  C441  1  0.369390  0.856200  0.952790  1.0  0.2574
  C  C442  1  0.340090  0.737100  0.937120  1.0  -0.2059
  C  C443  1  0.300470  0.779100  0.911610  1.0  -0.0385
  C  C444  1  0.289930  0.936000  0.900950  1.0  -0.1343
  C  C445  1  0.319310  0.053000  0.918340  1.0  -0.0403
  C  C446  1  0.358330  0.015400  0.944110  1.0  -0.287
  C  C447  1  0.246520  0.985100  0.872510  1.0  0.639
  C  C448  1  0.561170  0.823200  0.122200  1.0  0.0364
  C  C449  1  0.603530  0.051000  0.155380  1.0  0.3151
  C  C450  1  0.624100  0.182600  0.150700  1.0  -0.2654
  C  C451  1  0.640200  0.289400  0.181800  1.0  -0.0404
  C  C452  1  0.638810  0.266400  0.217770  1.0  -0.1437
  C  C453  1  0.619900  0.135400  0.222350  1.0  -0.03
  C  C454  1  0.602400  0.025900  0.191500  1.0  -0.2899
  C  C455  1  0.656300  0.385700  0.252200  1.0  0.7004
  C  C456  1  0.552010  0.574900  0.994660  1.0  0.0902
  C  C457  1  0.586770  0.609500  0.954890  1.0  0.3074
  C  C458  1  0.587670  0.447600  0.948310  1.0  -0.282
  C  C459  1  0.603800  0.392700  0.923100  1.0  -0.123
  C  C460  1  0.617600  0.500400  0.902900  1.0  -0.1668
  C  C461  1  0.617200  0.657900  0.909800  1.0  -0.0351
  C  C462  1  0.601100  0.715600  0.935400  1.0  -0.2207
  C  C463  1  0.633800  0.436700  0.874600  1.0  0.6261
  C  C464  1  0.998390  0.346300  0.056640  1.0  0.047
  C  C465  1  0.037040  0.280300  0.078090  1.0  -0.0477
  C  C466  1  0.055500  0.194500  0.058360  1.0  0.1068
  C  C467  1  0.034420  0.173000  0.016220  1.0  -0.0614
  C  C468  1  0.996980  0.246200  0.994260  1.0  0.0702
  C  C469  1  0.979390  0.337800  0.015150  1.0  -0.0013
  C  C470  1  0.977400  0.423200  0.079500  1.0  -0.3629
  C  C471  1  0.097970  0.130200  0.081510  1.0  -0.3695
  C  C472  1  0.975480  0.230400  0.948610  1.0  -0.3566
  C  C473  1  0.939860  0.423100  0.990870  1.0  0.0561
  C  C474  1  0.869390  0.356200  0.952790  1.0  0.2574
  C  C475  1  0.840090  0.237100  0.937120  1.0  -0.2059
  C  C476  1  0.800470  0.279100  0.911610  1.0  -0.0385
  C  C477  1  0.789930  0.436000  0.900950  1.0  -0.1343
  C  C478  1  0.819310  0.553000  0.918340  1.0  -0.0403
  C  C479  1  0.858330  0.515400  0.944110  1.0  -0.287
  C  C480  1  0.746520  0.485100  0.872510  1.0  0.639
  C  C481  1  0.061170  0.323200  0.122200  1.0  0.0364
  C  C482  1  0.103530  0.551000  0.155380  1.0  0.3151
  C  C483  1  0.124100  0.682600  0.150700  1.0  -0.2654
  C  C484  1  0.140200  0.789400  0.181800  1.0  -0.0404
  C  C485  1  0.138810  0.766400  0.217770  1.0  -0.1437
  C  C486  1  0.119900  0.635400  0.222350  1.0  -0.03
  C  C487  1  0.102400  0.525900  0.191500  1.0  -0.2899
  C  C488  1  0.156300  0.885700  0.252200  1.0  0.7004
  C  C489  1  0.052010  0.074900  0.994660  1.0  0.0902
  C  C490  1  0.086770  0.109500  0.954890  1.0  0.3074
  C  C491  1  0.087670  0.947600  0.948310  1.0  -0.282
  C  C492  1  0.103800  0.892700  0.923100  1.0  -0.123
  C  C493  1  0.117600  0.000400  0.902900  1.0  -0.1668
  C  C494  1  0.117200  0.157900  0.909800  1.0  -0.0351
  C  C495  1  0.101100  0.215600  0.935400  1.0  -0.2207
  C  C496  1  0.133800  0.936700  0.874600  1.0  0.6261
  O  O497  1  0.592340  0.197000  0.022140  1.0  -0.2799
  O  O498  1  0.413620  0.046500  0.878310  1.0  -0.2907
  O  O499  1  0.427300  0.320900  0.020480  1.0  -0.2821
  O  O500  1  0.762700  0.876300  0.132570  1.0  -0.4834
  O  O501  1  0.778620  0.132000  0.144700  1.0  -0.5751
  O  O502  1  0.346480  0.637500  0.717110  1.0  -0.5803
  O  O503  1  0.322100  0.511900  0.750300  1.0  -0.3619
  O  O504  1  0.355520  0.459700  0.142700  1.0  -0.5766
  O  O505  1  0.363600  0.718300  0.127700  1.0  -0.5131
  O  O506  1  0.092340  0.697000  0.022140  1.0  -0.2799
  O  O507  1  0.913620  0.546500  0.878310  1.0  -0.2907
  O  O508  1  0.927300  0.820900  0.020480  1.0  -0.2821
  O  O509  1  0.262700  0.376300  0.132570  1.0  -0.4834
  O  O510  1  0.278620  0.632000  0.144700  1.0  -0.5751
  O  O511  1  0.846480  0.137500  0.717110  1.0  -0.5803
  O  O512  1  0.822100  0.011900  0.750300  1.0  -0.3619
  O  O513  1  0.855520  0.959700  0.142700  1.0  -0.5766
  O  O514  1  0.863600  0.218300  0.127700  1.0  -0.5131
  O  O515  1  0.592340  0.803000  0.522140  1.0  -0.281
  O  O516  1  0.413620  0.953500  0.378310  1.0  -0.2903
  O  O517  1  0.427300  0.679100  0.520480  1.0  -0.2831
  O  O518  1  0.762700  0.123700  0.632570  1.0  -0.4804
  O  O519  1  0.778620  0.868000  0.644700  1.0  -0.5757
  O  O520  1  0.346480  0.362500  0.217110  1.0  -0.5799
  O  O521  1  0.322100  0.488100  0.250300  1.0  -0.3621
  O  O522  1  0.355520  0.540300  0.642700  1.0  -0.5772
  O  O523  1  0.363600  0.281700  0.627700  1.0  -0.5121
  O  O524  1  0.092340  0.303000  0.522140  1.0  -0.281
  O  O525  1  0.913620  0.453500  0.378310  1.0  -0.2903
  O  O526  1  0.927300  0.179100  0.520480  1.0  -0.2831
  O  O527  1  0.262700  0.623700  0.632570  1.0  -0.4804
  O  O528  1  0.278620  0.368000  0.644700  1.0  -0.5757
  O  O529  1  0.846480  0.862500  0.217110  1.0  -0.5799
  O  O530  1  0.822100  0.988100  0.250300  1.0  -0.3621
  O  O531  1  0.855520  0.040300  0.642700  1.0  -0.5772
  O  O532  1  0.863600  0.781700  0.627700  1.0  -0.5121
  O  O533  1  0.407660  0.197000  0.477860  1.0  -0.2806
  O  O534  1  0.586380  0.046500  0.621690  1.0  -0.2899
  O  O535  1  0.572700  0.320900  0.479520  1.0  -0.2846
  O  O536  1  0.237300  0.876300  0.367430  1.0  -0.4833
  O  O537  1  0.221380  0.132000  0.355300  1.0  -0.5773
  O  O538  1  0.653520  0.637500  0.782890  1.0  -0.5785
  O  O539  1  0.677900  0.511900  0.749700  1.0  -0.3616
  O  O540  1  0.644480  0.459700  0.357300  1.0  -0.5771
  O  O541  1  0.636400  0.718300  0.372300  1.0  -0.5138
  O  O542  1  0.907660  0.697000  0.477860  1.0  -0.2806
  O  O543  1  0.086380  0.546500  0.621690  1.0  -0.2899
  O  O544  1  0.072700  0.820900  0.479520  1.0  -0.2846
  O  O545  1  0.737300  0.376300  0.367430  1.0  -0.4833
  O  O546  1  0.721380  0.632000  0.355300  1.0  -0.5773
  O  O547  1  0.153520  0.137500  0.782890  1.0  -0.5785
  O  O548  1  0.177900  0.011900  0.749700  1.0  -0.3616
  O  O549  1  0.144480  0.959700  0.357300  1.0  -0.5771
  O  O550  1  0.136400  0.218300  0.372300  1.0  -0.5138
  O  O551  1  0.407660  0.803000  0.977860  1.0  -0.281
  O  O552  1  0.586380  0.953500  0.121690  1.0  -0.2902
  O  O553  1  0.572700  0.679100  0.979520  1.0  -0.2843
  O  O554  1  0.237300  0.123700  0.867430  1.0  -0.4806
  O  O555  1  0.221380  0.868000  0.855300  1.0  -0.5771
  O  O556  1  0.653520  0.362500  0.282890  1.0  -0.5786
  O  O557  1  0.677900  0.488100  0.249700  1.0  -0.3612
  O  O558  1  0.644480  0.540300  0.857300  1.0  -0.5783
  O  O559  1  0.636400  0.281700  0.872300  1.0  -0.5129
  O  O560  1  0.907660  0.303000  0.977860  1.0  -0.281
  O  O561  1  0.086380  0.453500  0.121690  1.0  -0.2902
  O  O562  1  0.072700  0.179100  0.979520  1.0  -0.2843
  O  O563  1  0.737300  0.623700  0.867430  1.0  -0.4806
  O  O564  1  0.721380  0.368000  0.855300  1.0  -0.5771
  O  O565  1  0.153520  0.862500  0.282890  1.0  -0.5786
  O  O566  1  0.177900  0.988100  0.249700  1.0  -0.3612
  O  O567  1  0.144480  0.040300  0.857300  1.0  -0.5783
  O  O568  1  0.136400  0.781700  0.872300  1.0  -0.5129
