# generated using pymatgen
data_ZnH12C18(N3O2)2
_symmetry_space_group_name_H-M   'P 1'
_cell_length_a   7.60330000
_cell_length_b   9.35200000
_cell_length_c   15.19300000
_cell_angle_alpha   89.33000000
_cell_angle_beta   80.57000000
_cell_angle_gamma   85.89700000
_symmetry_Int_Tables_number   1
_chemical_formula_structural   ZnH12C18(N3O2)2
_chemical_formula_sum   'Zn2 H24 C36 N12 O8'
_cell_volume   1062.98418612
_cell_formula_units_Z   2
loop_
 _symmetry_equiv_pos_site_id
 _symmetry_equiv_pos_as_xyz
  1  'x, y, z'
loop_
 _atom_site_type_symbol
 _atom_site_label
 _atom_site_symmetry_multiplicity
 _atom_site_fract_x
 _atom_site_fract_y
 _atom_site_fract_z
 _atom_site_occupancy
 _atom_site_charge
  Zn  Zn1  1  0.105460  0.379830  0.236700  1.0  0.9136
  Zn  Zn2  1  0.894540  0.620170  0.763300  1.0  0.9125
  H  H3  1  0.099000  0.773700  0.946600  1.0  0.1074
  H  H4  1  0.867300  0.029100  0.146800  1.0  0.1047
  H  H5  1  0.166800  0.621700  0.076200  1.0  0.0919
  H  H6  1  0.727900  0.816400  0.201100  1.0  0.0868
  H  H7  1  0.482500  0.947900  0.352600  1.0  0.1197
  H  H8  1  0.660700  0.188900  0.530200  1.0  0.1073
  H  H9  1  0.907800  0.200200  0.401100  1.0  0.1058
  H  H10  1  0.510200  0.186600  0.267800  1.0  0.0895
  H  H11  1  0.435200  0.237400  0.968100  1.0  0.0991
  H  H12  1  0.595000  0.087500  0.859500  1.0  0.0973
  H  H13  1  0.236500  0.407000  0.565800  1.0  0.1044
  H  H14  1  0.438000  0.475700  0.653000  1.0  0.0968
  H  H15  1  0.901000  0.226300  0.053400  1.0  0.1077
  H  H16  1  0.132700  0.970900  0.853200  1.0  0.1052
  H  H17  1  0.833200  0.378300  0.923800  1.0  0.0919
  H  H18  1  0.272100  0.183600  0.798900  1.0  0.0868
  H  H19  1  0.517500  0.052100  0.647400  1.0  0.119
  H  H20  1  0.339300  0.811100  0.469800  1.0  0.1069
  H  H21  1  0.092200  0.799800  0.598900  1.0  0.1054
  H  H22  1  0.489800  0.813400  0.732200  1.0  0.0891
  H  H23  1  0.564800  0.762600  0.031900  1.0  0.0995
  H  H24  1  0.405000  0.912500  0.140500  1.0  0.097
  H  H25  1  0.763500  0.593000  0.434200  1.0  0.105
  H  H26  1  0.562000  0.524300  0.347000  1.0  0.0976
  C  C27  1  0.980000  0.883100  0.054800  1.0  0.1292
  C  C28  1  0.058900  0.864900  0.968200  1.0  -0.1097
  C  C29  1  0.920800  0.017400  0.087500  1.0  -0.126
  C  C30  1  0.063100  0.643500  0.116800  1.0  0.1396
  C  C31  1  0.824000  0.749200  0.185500  1.0  0.1814
  C  C32  1  0.583100  0.079700  0.433000  1.0  0.1582
  C  C33  1  0.489200  0.968400  0.411700  1.0  -0.1655
  C  C34  1  0.595900  0.112800  0.518400  1.0  -0.1683
  C  C35  1  0.836100  0.213700  0.357200  1.0  0.1212
  C  C36  1  0.618400  0.207500  0.283900  1.0  0.1642
  C  C37  1  0.403500  0.090900  0.065600  1.0  -0.1386
  C  C38  1  0.460900  0.141700  0.981500  1.0  -0.0448
  C  C39  1  0.556900  0.051500  0.916300  1.0  -0.0344
  C  C40  1  0.297600  0.189000  0.137800  1.0  0.6341
  C  C41  1  0.378700  0.457600  0.447900  1.0  -0.1409
  C  C42  1  0.342500  0.444200  0.539000  1.0  -0.0352
  C  C43  1  0.463100  0.485700  0.591400  1.0  -0.0572
  C  C44  1  0.248600  0.406200  0.392200  1.0  0.6936
  C  C45  1  0.020000  0.116900  0.945200  1.0  0.1284
  C  C46  1  0.941100  0.135100  0.031800  1.0  -0.1111
  C  C47  1  0.079200  0.982600  0.912500  1.0  -0.12
  C  C48  1  0.936900  0.356500  0.883200  1.0  0.138
  C  C49  1  0.176000  0.250800  0.814500  1.0  0.1806
  C  C50  1  0.416900  0.920300  0.567000  1.0  0.1578
  C  C51  1  0.510800  0.031600  0.588300  1.0  -0.17
  C  C52  1  0.404100  0.887200  0.481600  1.0  -0.1692
  C  C53  1  0.163900  0.786300  0.642800  1.0  0.1198
  C  C54  1  0.381600  0.792500  0.716100  1.0  0.1637
  C  C55  1  0.596500  0.909100  0.934400  1.0  -0.1393
  C  C56  1  0.539100  0.858300  0.018500  1.0  -0.0447
  C  C57  1  0.443100  0.948500  0.083700  1.0  -0.0351
  C  C58  1  0.702400  0.811000  0.862200  1.0  0.6338
  C  C59  1  0.621300  0.542400  0.552100  1.0  -0.1411
  C  C60  1  0.657500  0.555800  0.461000  1.0  -0.0384
  C  C61  1  0.536900  0.514300  0.408600  1.0  -0.0579
  C  C62  1  0.751400  0.593800  0.607800  1.0  0.6955
  N  N63  1  0.003000  0.561700  0.182700  1.0  -0.2241
  N  N64  1  0.847400  0.630600  0.228700  1.0  -0.2841
  N  N65  1  0.956200  0.763700  0.114800  1.0  0.0011
  N  N66  1  0.877300  0.285900  0.282900  1.0  -0.1924
  N  N67  1  0.736500  0.284100  0.235600  1.0  -0.296
  N  N68  1  0.675500  0.162700  0.360400  1.0  0.0308
  N  N69  1  0.997000  0.438300  0.817300  1.0  -0.2262
  N  N70  1  0.152600  0.369400  0.771300  1.0  -0.2834
  N  N71  1  0.043800  0.236300  0.885200  1.0  -1e-04
  N  N72  1  0.122700  0.714100  0.717100  1.0  -0.1931
  N  N73  1  0.263500  0.715900  0.764400  1.0  -0.2961
  N  N74  1  0.324500  0.837300  0.639600  1.0  0.0312
  O  O75  1  0.255500  0.137700  0.213600  1.0  -0.6278
  O  O76  1  0.256800  0.314500  0.118600  1.0  -0.5724
  O  O77  1  0.260600  0.454200  0.312600  1.0  -0.6128
  O  O78  1  0.143100  0.320000  0.422200  1.0  -0.5381
  O  O79  1  0.744500  0.862300  0.786400  1.0  -0.63
  O  O80  1  0.743200  0.685500  0.881400  1.0  -0.5738
  O  O81  1  0.739400  0.545800  0.687400  1.0  -0.6119
  O  O82  1  0.856900  0.680000  0.577800  1.0  -0.5401
