# generated using pymatgen
data_Co2WC9(N4O)2
_symmetry_space_group_name_H-M   'P 1'
_cell_length_a   11.48840000
_cell_length_b   13.65130000
_cell_length_c   12.79910000
_cell_angle_alpha   90.00000000
_cell_angle_beta   100.92000000
_cell_angle_gamma   90.00000000
_symmetry_Int_Tables_number   1
_chemical_formula_structural   Co2WC9(N4O)2
_chemical_formula_sum   'Co8 W4 C36 N32 O8'
_cell_volume   1970.95631593
_cell_formula_units_Z   4
loop_
 _symmetry_equiv_pos_site_id
 _symmetry_equiv_pos_as_xyz
  1  'x, y, z'
loop_
 _atom_site_type_symbol
 _atom_site_label
 _atom_site_symmetry_multiplicity
 _atom_site_fract_x
 _atom_site_fract_y
 _atom_site_fract_z
 _atom_site_occupancy
 _atom_site_charge
  Co  Co1  1  0.698250  0.915620  0.622310  1.0  0.9868
  Co  Co2  1  0.842650  0.215340  0.966390  1.0  1.0851
  Co  Co3  1  0.301750  0.415620  0.877690  1.0  0.9872
  Co  Co4  1  0.157350  0.715340  0.533610  1.0  1.0838
  Co  Co5  1  0.301750  0.084380  0.377690  1.0  0.9871
  Co  Co6  1  0.157350  0.784660  0.033610  1.0  1.0853
  Co  Co7  1  0.698250  0.584380  0.122310  1.0  0.9866
  Co  Co8  1  0.842650  0.284660  0.466390  1.0  1.0836
  W  W9  1  0.139320  0.061660  0.735810  1.0  0.0021
  W  W10  1  0.860680  0.561660  0.764190  1.0  -0.0023
  W  W11  1  0.860680  0.938340  0.264190  1.0  -0.0024
  W  W12  1  0.139320  0.438340  0.235810  1.0  0.0017
  C  C13  1  0.967400  0.994700  0.697500  1.0  0.1786
  C  C14  1  0.160200  0.920800  0.661100  1.0  0.1717
  C  C15  1  0.215600  0.095700  0.597200  1.0  0.1981
  C  C16  1  0.026200  0.165100  0.639100  1.0  0.2057
  C  C17  1  0.150100  0.965400  0.869000  1.0  0.1838
  C  C18  1  0.322300  0.027200  0.782400  1.0  0.179
  C  C19  1  0.225500  0.197800  0.792500  1.0  0.2003
  C  C20  1  0.031400  0.127600  0.838600  1.0  0.1961
  C  C21  1  0.467100  0.952400  0.501500  1.0  0.6187
  C  C22  1  0.032600  0.494700  0.802500  1.0  0.1796
  C  C23  1  0.839800  0.420800  0.838900  1.0  0.1706
  C  C24  1  0.784400  0.595700  0.902800  1.0  0.1975
  C  C25  1  0.973800  0.665100  0.860900  1.0  0.2063
  C  C26  1  0.849900  0.465400  0.631000  1.0  0.1815
  C  C27  1  0.677700  0.527200  0.717600  1.0  0.1789
  C  C28  1  0.774500  0.697800  0.707500  1.0  0.2011
  C  C29  1  0.968600  0.627600  0.661400  1.0  0.1944
  C  C30  1  0.532900  0.452400  0.998500  1.0  0.6183
  C  C31  1  0.032600  0.005300  0.302500  1.0  0.1788
  C  C32  1  0.839800  0.079200  0.338900  1.0  0.1698
  C  C33  1  0.784400  0.904300  0.402800  1.0  0.1979
  C  C34  1  0.973800  0.834900  0.360900  1.0  0.2065
  C  C35  1  0.849900  0.034600  0.131000  1.0  0.1812
  C  C36  1  0.677700  0.972800  0.217600  1.0  0.1789
  C  C37  1  0.774500  0.802200  0.207500  1.0  0.2012
  C  C38  1  0.968600  0.872400  0.161400  1.0  0.1953
  C  C39  1  0.532900  0.047600  0.498500  1.0  0.6173
  C  C40  1  0.967400  0.505300  0.197500  1.0  0.1782
  C  C41  1  0.160200  0.579200  0.161100  1.0  0.1716
  C  C42  1  0.215600  0.404300  0.097200  1.0  0.1985
  C  C43  1  0.026200  0.334900  0.139100  1.0  0.2057
  C  C44  1  0.150100  0.534600  0.369000  1.0  0.1828
  C  C45  1  0.322300  0.472800  0.282400  1.0  0.1789
  C  C46  1  0.225500  0.302200  0.292500  1.0  0.2019
  C  C47  1  0.031400  0.372400  0.338600  1.0  0.1972
  C  C48  1  0.467100  0.547600  0.001500  1.0  0.6177
  N  N49  1  0.873600  0.964900  0.678800  1.0  -0.4157
  N  N50  1  0.171100  0.850100  0.621000  1.0  -0.3758
  N  N51  1  0.254200  0.112200  0.526800  1.0  -0.3751
  N  N52  1  0.968500  0.217000  0.582400  1.0  -0.3906
  N  N53  1  0.156500  0.912500  0.942300  1.0  -0.4523
  N  N54  1  0.423500  0.008600  0.800300  1.0  -0.3834
  N  N55  1  0.266300  0.272700  0.822300  1.0  -0.4375
  N  N56  1  0.974000  0.160700  0.892100  1.0  -0.4157
  N  N57  1  0.126400  0.464900  0.821200  1.0  -0.4167
  N  N58  1  0.828900  0.350100  0.879000  1.0  -0.3757
  N  N59  1  0.745800  0.612200  0.973200  1.0  -0.3766
  N  N60  1  0.031500  0.717000  0.917600  1.0  -0.3915
  N  N61  1  0.843500  0.412500  0.557700  1.0  -0.4533
  N  N62  1  0.576500  0.508600  0.699700  1.0  -0.3834
  N  N63  1  0.733700  0.772700  0.677700  1.0  -0.4376
  N  N64  1  0.026000  0.660700  0.607900  1.0  -0.416
  N  N65  1  0.126400  0.035100  0.321200  1.0  -0.4168
  N  N66  1  0.828900  0.149900  0.379000  1.0  -0.3807
  N  N67  1  0.745800  0.887800  0.473200  1.0  -0.3738
  N  N68  1  0.031500  0.783000  0.417600  1.0  -0.3892
  N  N69  1  0.843500  0.087500  0.057700  1.0  -0.4528
  N  N70  1  0.576500  0.991400  0.199700  1.0  -0.3828
  N  N71  1  0.733700  0.727300  0.177700  1.0  -0.4388
  N  N72  1  0.026000  0.839300  0.107900  1.0  -0.4161
  N  N73  1  0.873600  0.535100  0.178800  1.0  -0.4159
  N  N74  1  0.171100  0.649900  0.121000  1.0  -0.3798
  N  N75  1  0.254200  0.387800  0.026800  1.0  -0.3727
  N  N76  1  0.968500  0.283000  0.082400  1.0  -0.3903
  N  N77  1  0.156500  0.587500  0.442300  1.0  -0.4522
  N  N78  1  0.423500  0.491400  0.300300  1.0  -0.3828
  N  N79  1  0.266300  0.227300  0.322300  1.0  -0.4385
  N  N80  1  0.974000  0.339300  0.392100  1.0  -0.4158
  O  O81  1  0.365900  0.946100  0.444700  1.0  -0.4728
  O  O82  1  0.518300  0.884300  0.557600  1.0  -0.4797
  O  O83  1  0.634100  0.446100  0.055300  1.0  -0.4733
  O  O84  1  0.481700  0.384300  0.942400  1.0  -0.4775
  O  O85  1  0.634100  0.053900  0.555300  1.0  -0.4751
  O  O86  1  0.481700  0.115700  0.442400  1.0  -0.4766
  O  O87  1  0.365900  0.553900  0.944700  1.0  -0.4745
  O  O88  1  0.518300  0.615700  0.057600  1.0  -0.4783
