# generated using pymatgen
data_Co2H24C25(N4O)4
_symmetry_space_group_name_H-M   'P 1'
_cell_length_a   10.31630000
_cell_length_b   10.31630000
_cell_length_c   33.09500000
_cell_angle_alpha   90.00000000
_cell_angle_beta   90.00000000
_cell_angle_gamma   90.00000000
_symmetry_Int_Tables_number   1
_chemical_formula_structural   Co2H24C25(N4O)4
_chemical_formula_sum   'Co8 H96 C100 N64 O16'
_cell_volume   3522.16998211
_cell_formula_units_Z   4
loop_
 _symmetry_equiv_pos_site_id
 _symmetry_equiv_pos_as_xyz
  1  'x, y, z'
loop_
 _atom_site_type_symbol
 _atom_site_label
 _atom_site_symmetry_multiplicity
 _atom_site_fract_x
 _atom_site_fract_y
 _atom_site_fract_z
 _atom_site_occupancy
 _atom_site_charge
  Co  Co1  1  0.000000  0.500000  0.000000  1.0  0.7517
  Co  Co2  1  0.500000  0.000000  0.500000  1.0  0.7517
  Co  Co3  1  0.500000  0.500000  0.500000  1.0  0.7517
  Co  Co4  1  0.000000  0.000000  0.000000  1.0  0.7517
  Co  Co5  1  0.250000  0.250000  0.250000  1.0  0.7517
  Co  Co6  1  0.750000  0.750000  0.750000  1.0  0.7517
  Co  Co7  1  0.250000  0.750000  0.750000  1.0  0.7517
  Co  Co8  1  0.750000  0.250000  0.250000  1.0  0.7517
  H  H9  1  0.215100  0.603300  0.053700  1.0  0.0805
  H  H10  1  0.097400  0.616900  0.170200  1.0  0.1021
  H  H11  1  0.893100  0.544300  0.149000  1.0  0.0834
  H  H12  1  0.855800  0.505600  0.080700  1.0  0.071
  H  H13  1  0.415600  0.630400  0.081800  1.0  0.0627
  H  H14  1  0.355900  0.769800  0.081400  1.0  0.0619
  H  H15  1  0.715100  0.103300  0.553700  1.0  0.0805
  H  H16  1  0.597400  0.116900  0.670200  1.0  0.1021
  H  H17  1  0.393100  0.044300  0.649000  1.0  0.0834
  H  H18  1  0.355800  0.005600  0.580700  1.0  0.071
  H  H19  1  0.915600  0.130400  0.581800  1.0  0.0627
  H  H20  1  0.855900  0.269800  0.581400  1.0  0.0619
  H  H21  1  0.284900  0.396700  0.553700  1.0  0.0809
  H  H22  1  0.402600  0.383100  0.670200  1.0  0.1025
  H  H23  1  0.606900  0.455700  0.649000  1.0  0.0837
  H  H24  1  0.644200  0.494400  0.580700  1.0  0.0704
  H  H25  1  0.084400  0.369600  0.581800  1.0  0.0627
  H  H26  1  0.144100  0.230200  0.581400  1.0  0.0614
  H  H27  1  0.784900  0.896700  0.053700  1.0  0.0809
  H  H28  1  0.902600  0.883100  0.170200  1.0  0.1025
  H  H29  1  0.106900  0.955700  0.149000  1.0  0.0837
  H  H30  1  0.144200  0.994400  0.080700  1.0  0.0704
  H  H31  1  0.584400  0.869600  0.081800  1.0  0.0627
  H  H32  1  0.644100  0.730200  0.081400  1.0  0.0614
  H  H33  1  0.146700  0.465100  0.303700  1.0  0.0805
  H  H34  1  0.133100  0.347400  0.420200  1.0  0.1023
  H  H35  1  0.205700  0.143100  0.399000  1.0  0.0839
  H  H36  1  0.244400  0.105800  0.330700  1.0  0.071
  H  H37  1  0.119600  0.665600  0.331800  1.0  0.0629
  H  H38  1  0.980200  0.605900  0.331400  1.0  0.0615
  H  H39  1  0.646700  0.965100  0.803700  1.0  0.0805
  H  H40  1  0.633100  0.847400  0.920200  1.0  0.1023
  H  H41  1  0.705700  0.643100  0.899000  1.0  0.0839
  H  H42  1  0.744400  0.605800  0.830700  1.0  0.071
  H  H43  1  0.619600  0.165600  0.831800  1.0  0.0629
  H  H44  1  0.480200  0.105900  0.831400  1.0  0.0615
  H  H45  1  0.353300  0.534900  0.803700  1.0  0.0804
  H  H46  1  0.366900  0.652600  0.920200  1.0  0.1023
  H  H47  1  0.294300  0.856900  0.899000  1.0  0.0831
  H  H48  1  0.255600  0.894200  0.830700  1.0  0.0713
  H  H49  1  0.380400  0.334400  0.831800  1.0  0.0621
  H  H50  1  0.519800  0.394100  0.831400  1.0  0.0617
  H  H51  1  0.853300  0.034900  0.303700  1.0  0.0804
  H  H52  1  0.866900  0.152600  0.420200  1.0  0.1023
  H  H53  1  0.794300  0.356900  0.399000  1.0  0.0831
  H  H54  1  0.755600  0.394200  0.330700  1.0  0.0713
  H  H55  1  0.880400  0.834400  0.331800  1.0  0.0621
  H  H56  1  0.019800  0.894100  0.331400  1.0  0.0617
  H  H57  1  0.784900  0.396700  0.946300  1.0  0.0815
  H  H58  1  0.902600  0.383100  0.829800  1.0  0.1034
  H  H59  1  0.106900  0.455700  0.851000  1.0  0.0849
  H  H60  1  0.144200  0.494400  0.919300  1.0  0.0703
  H  H61  1  0.584400  0.369600  0.918200  1.0  0.0617
  H  H62  1  0.644100  0.230200  0.918600  1.0  0.0628
  H  H63  1  0.284900  0.896700  0.446300  1.0  0.0815
  H  H64  1  0.402600  0.883100  0.329800  1.0  0.1034
  H  H65  1  0.606900  0.955700  0.351000  1.0  0.0849
  H  H66  1  0.644200  0.994400  0.419300  1.0  0.0703
  H  H67  1  0.084400  0.869600  0.418200  1.0  0.0617
  H  H68  1  0.144100  0.730200  0.418600  1.0  0.0628
  H  H69  1  0.715100  0.603300  0.446300  1.0  0.0816
  H  H70  1  0.597400  0.616900  0.329800  1.0  0.1033
  H  H71  1  0.393100  0.544300  0.351000  1.0  0.0847
  H  H72  1  0.355800  0.505600  0.419300  1.0  0.071
  H  H73  1  0.915600  0.630400  0.418200  1.0  0.0633
  H  H74  1  0.855900  0.769800  0.418600  1.0  0.0616
  H  H75  1  0.215100  0.103300  0.946300  1.0  0.0816
  H  H76  1  0.097400  0.116900  0.829800  1.0  0.1033
  H  H77  1  0.893100  0.044300  0.851000  1.0  0.0847
  H  H78  1  0.855800  0.005600  0.919300  1.0  0.071
  H  H79  1  0.415600  0.130400  0.918200  1.0  0.0633
  H  H80  1  0.355900  0.269800  0.918600  1.0  0.0616
  H  H81  1  0.853300  0.534900  0.696300  1.0  0.0813
  H  H82  1  0.866900  0.652600  0.579800  1.0  0.1035
  H  H83  1  0.794300  0.856900  0.601000  1.0  0.0842
  H  H84  1  0.755600  0.894200  0.669300  1.0  0.0708
  H  H85  1  0.880400  0.334400  0.668200  1.0  0.0625
  H  H86  1  0.019800  0.394100  0.668600  1.0  0.0617
  H  H87  1  0.353300  0.034900  0.196300  1.0  0.0813
  H  H88  1  0.366900  0.152600  0.079800  1.0  0.1035
  H  H89  1  0.294300  0.356900  0.101000  1.0  0.0842
  H  H90  1  0.255600  0.394200  0.169300  1.0  0.0708
  H  H91  1  0.380400  0.834400  0.168200  1.0  0.0625
  H  H92  1  0.519800  0.894100  0.168600  1.0  0.0617
  H  H93  1  0.646700  0.465100  0.196300  1.0  0.0808
  H  H94  1  0.633100  0.347400  0.079800  1.0  0.1031
  H  H95  1  0.705700  0.143100  0.101000  1.0  0.0849
  H  H96  1  0.744400  0.105800  0.169300  1.0  0.0711
  H  H97  1  0.619600  0.665600  0.168200  1.0  0.0618
  H  H98  1  0.480200  0.605900  0.168600  1.0  0.0619
  H  H99  1  0.146700  0.965100  0.696300  1.0  0.0808
  H  H100  1  0.133100  0.847400  0.579800  1.0  0.1031
  H  H101  1  0.205700  0.643100  0.601000  1.0  0.0849
  H  H102  1  0.244400  0.605800  0.669300  1.0  0.0711
  H  H103  1  0.119600  0.165600  0.668200  1.0  0.0618
  H  H104  1  0.980200  0.105900  0.668600  1.0  0.0619
  C  C105  1  0.148400  0.591400  0.073600  1.0  0.0905
  C  C106  1  0.175200  0.618500  0.113220  1.0  0.2718
  C  C107  1  0.080000  0.600400  0.142120  1.0  -0.1831
  C  C108  1  0.961500  0.557800  0.129770  1.0  -0.0899
  C  C109  1  0.940000  0.533700  0.089370  1.0  0.1358
  C  C110  1  0.388200  0.701600  0.098440  1.0  0.034
  C  C111  1  0.648400  0.091400  0.573600  1.0  0.0905
  C  C112  1  0.675200  0.118500  0.613220  1.0  0.2718
  C  C113  1  0.580000  0.100400  0.642120  1.0  -0.1831
  C  C114  1  0.461500  0.057800  0.629770  1.0  -0.0899
  C  C115  1  0.440000  0.033700  0.589370  1.0  0.1358
  C  C116  1  0.888200  0.201600  0.598440  1.0  0.034
  C  C117  1  0.351600  0.408600  0.573600  1.0  0.0913
  C  C118  1  0.324800  0.381500  0.613220  1.0  0.2722
  C  C119  1  0.420000  0.399600  0.642120  1.0  -0.1833
  C  C120  1  0.538500  0.442200  0.629770  1.0  -0.09
  C  C121  1  0.560000  0.466300  0.589370  1.0  0.1357
  C  C122  1  0.111800  0.298400  0.598440  1.0  0.0326
  C  C123  1  0.851600  0.908600  0.073600  1.0  0.0913
  C  C124  1  0.824800  0.881500  0.113220  1.0  0.2722
  C  C125  1  0.920000  0.899600  0.142120  1.0  -0.1833
  C  C126  1  0.038500  0.942200  0.129770  1.0  -0.09
  C  C127  1  0.060000  0.966300  0.089370  1.0  0.1357
  C  C128  1  0.611800  0.798400  0.098440  1.0  0.0326
  C  C129  1  0.158600  0.398400  0.323600  1.0  0.0886
  C  C130  1  0.131500  0.425200  0.363220  1.0  0.2708
  C  C131  1  0.149600  0.330000  0.392120  1.0  -0.1825
  C  C132  1  0.192200  0.211500  0.379770  1.0  -0.0906
  C  C133  1  0.216300  0.190000  0.339370  1.0  0.1357
  C  C134  1  0.048400  0.638200  0.348440  1.0  0.0329
  C  C135  1  0.658600  0.898400  0.823600  1.0  0.0886
  C  C136  1  0.631500  0.925200  0.863220  1.0  0.2708
  C  C137  1  0.649600  0.830000  0.892120  1.0  -0.1825
  C  C138  1  0.692200  0.711500  0.879770  1.0  -0.0906
  C  C139  1  0.716300  0.690000  0.839370  1.0  0.1357
  C  C140  1  0.548400  0.138200  0.848440  1.0  0.0329
  C  C141  1  0.341400  0.601600  0.823600  1.0  0.09
  C  C142  1  0.368500  0.574800  0.863220  1.0  0.2709
  C  C143  1  0.350400  0.670000  0.892120  1.0  -0.1825
  C  C144  1  0.307800  0.788500  0.879770  1.0  -0.091
  C  C145  1  0.283700  0.810000  0.839370  1.0  0.1356
  C  C146  1  0.451600  0.361800  0.848440  1.0  0.0336
  C  C147  1  0.841400  0.101600  0.323600  1.0  0.09
  C  C148  1  0.868500  0.074800  0.363220  1.0  0.2709
  C  C149  1  0.850400  0.170000  0.392120  1.0  -0.1825
  C  C150  1  0.807800  0.288500  0.379770  1.0  -0.091
  C  C151  1  0.783700  0.310000  0.339370  1.0  0.1356
  C  C152  1  0.951600  0.861800  0.348440  1.0  0.0336
  C  C153  1  0.851600  0.408600  0.926400  1.0  0.0909
  C  C154  1  0.824800  0.381500  0.886780  1.0  0.2726
  C  C155  1  0.920000  0.399600  0.857880  1.0  -0.1821
  C  C156  1  0.038500  0.442200  0.870230  1.0  -0.0893
  C  C157  1  0.060000  0.466300  0.910630  1.0  0.1361
  C  C158  1  0.611800  0.298400  0.901560  1.0  0.0335
  C  C159  1  0.351600  0.908600  0.426400  1.0  0.0909
  C  C160  1  0.324800  0.881500  0.386780  1.0  0.2726
  C  C161  1  0.420000  0.899600  0.357880  1.0  -0.1821
  C  C162  1  0.538500  0.942200  0.370230  1.0  -0.0893
  C  C163  1  0.560000  0.966300  0.410630  1.0  0.1361
  C  C164  1  0.111800  0.798400  0.401560  1.0  0.0335
  C  C165  1  0.648400  0.591400  0.426400  1.0  0.0909
  C  C166  1  0.675200  0.618500  0.386780  1.0  0.2722
  C  C167  1  0.580000  0.600400  0.357880  1.0  -0.1818
  C  C168  1  0.461500  0.557800  0.370230  1.0  -0.09
  C  C169  1  0.440000  0.533700  0.410630  1.0  0.1368
  C  C170  1  0.888200  0.701600  0.401560  1.0  0.0339
  C  C171  1  0.148400  0.091400  0.926400  1.0  0.0909
  C  C172  1  0.175200  0.118500  0.886780  1.0  0.2722
  C  C173  1  0.080000  0.100400  0.857880  1.0  -0.1818
  C  C174  1  0.961500  0.057800  0.870230  1.0  -0.09
  C  C175  1  0.940000  0.033700  0.910630  1.0  0.1368
  C  C176  1  0.388200  0.201600  0.901560  1.0  0.0339
  C  C177  1  0.841400  0.601600  0.676400  1.0  0.0896
  C  C178  1  0.868500  0.574800  0.636780  1.0  0.2715
  C  C179  1  0.850400  0.670000  0.607880  1.0  -0.1811
  C  C180  1  0.807800  0.788500  0.620230  1.0  -0.0911
  C  C181  1  0.783700  0.810000  0.660630  1.0  0.1365
  C  C182  1  0.951600  0.361800  0.651560  1.0  0.0337
  C  C183  1  0.341400  0.101600  0.176400  1.0  0.0896
  C  C184  1  0.368500  0.074800  0.136780  1.0  0.2715
  C  C185  1  0.350400  0.170000  0.107880  1.0  -0.1811
  C  C186  1  0.307800  0.288500  0.120230  1.0  -0.0911
  C  C187  1  0.283700  0.310000  0.160630  1.0  0.1365
  C  C188  1  0.451600  0.861800  0.151560  1.0  0.0337
  C  C189  1  0.658600  0.398400  0.176400  1.0  0.089
  C  C190  1  0.631500  0.425200  0.136780  1.0  0.2713
  C  C191  1  0.649600  0.330000  0.107880  1.0  -0.1814
  C  C192  1  0.692200  0.211500  0.120230  1.0  -0.0906
  C  C193  1  0.716300  0.190000  0.160630  1.0  0.1361
  C  C194  1  0.548400  0.638200  0.151560  1.0  0.0335
  C  C195  1  0.158600  0.898400  0.676400  1.0  0.089
  C  C196  1  0.131500  0.925200  0.636780  1.0  0.2713
  C  C197  1  0.149600  0.830000  0.607880  1.0  -0.1814
  C  C198  1  0.192200  0.711500  0.620230  1.0  -0.0906
  C  C199  1  0.216300  0.690000  0.660630  1.0  0.1361
  C  C200  1  0.048400  0.138200  0.651560  1.0  0.0335
  C  C201  1  0.500000  0.750000  0.125000  1.0  -0.0403
  C  C202  1  0.000000  0.250000  0.625000  1.0  -0.0403
  C  C203  1  0.000000  0.750000  0.375000  1.0  -0.0403
  C  C204  1  0.500000  0.250000  0.875000  1.0  -0.0403
  N  N205  1  0.032200  0.549300  0.061460  1.0  -0.3326
  N  N206  1  0.865700  0.351500  0.019680  1.0  -0.5201
  N  N207  1  0.855100  0.243100  0.010820  1.0  0.5048
  N  N208  1  0.839800  0.133400  0.001870  1.0  -0.4643
  N  N209  1  0.532200  0.049300  0.561460  1.0  -0.3326
  N  N210  1  0.365700  0.851500  0.519680  1.0  -0.5201
  N  N211  1  0.355100  0.743100  0.510820  1.0  0.5048
  N  N212  1  0.339800  0.633400  0.501870  1.0  -0.4643
  N  N213  1  0.467800  0.450700  0.561460  1.0  -0.3306
  N  N214  1  0.634300  0.648500  0.519680  1.0  -0.5198
  N  N215  1  0.644900  0.756900  0.510820  1.0  0.5022
  N  N216  1  0.660200  0.866600  0.501870  1.0  -0.4659
  N  N217  1  0.967800  0.950700  0.061460  1.0  -0.3306
  N  N218  1  0.134300  0.148500  0.019680  1.0  -0.5198
  N  N219  1  0.144900  0.256900  0.010820  1.0  0.5022
  N  N220  1  0.160200  0.366600  0.001870  1.0  -0.4659
  N  N221  1  0.200700  0.282200  0.311460  1.0  -0.3314
  N  N222  1  0.398500  0.115700  0.269680  1.0  -0.518
  N  N223  1  0.506900  0.105100  0.260820  1.0  0.5032
  N  N224  1  0.616600  0.089800  0.251870  1.0  -0.4631
  N  N225  1  0.700700  0.782200  0.811460  1.0  -0.3314
  N  N226  1  0.898500  0.615700  0.769680  1.0  -0.518
  N  N227  1  0.006900  0.605100  0.760820  1.0  0.5032
  N  N228  1  0.116600  0.589800  0.751870  1.0  -0.4631
  N  N229  1  0.299300  0.717800  0.811460  1.0  -0.3299
  N  N230  1  0.101500  0.884300  0.769680  1.0  -0.5182
  N  N231  1  0.993100  0.894900  0.760820  1.0  0.5019
  N  N232  1  0.883400  0.910200  0.751870  1.0  -0.4646
  N  N233  1  0.799300  0.217800  0.311460  1.0  -0.3299
  N  N234  1  0.601500  0.384300  0.269680  1.0  -0.5182
  N  N235  1  0.493100  0.394900  0.260820  1.0  0.5019
  N  N236  1  0.383400  0.410200  0.251870  1.0  -0.4646
  N  N237  1  0.967800  0.450700  0.938540  1.0  -0.3318
  N  N238  1  0.134300  0.648500  0.980320  1.0  -0.5197
  N  N239  1  0.144900  0.756900  0.989180  1.0  0.5016
  N  N240  1  0.160200  0.866600  0.998130  1.0  -0.4655
  N  N241  1  0.467800  0.950700  0.438540  1.0  -0.3318
  N  N242  1  0.634300  0.148500  0.480320  1.0  -0.5197
  N  N243  1  0.644900  0.256900  0.489180  1.0  0.5016
  N  N244  1  0.660200  0.366600  0.498130  1.0  -0.4655
  N  N245  1  0.532200  0.549300  0.438540  1.0  -0.3318
  N  N246  1  0.365700  0.351500  0.480320  1.0  -0.5195
  N  N247  1  0.355100  0.243100  0.489180  1.0  0.504
  N  N248  1  0.339800  0.133400  0.498130  1.0  -0.4639
  N  N249  1  0.032200  0.049300  0.938540  1.0  -0.3318
  N  N250  1  0.865700  0.851500  0.980320  1.0  -0.5195
  N  N251  1  0.855100  0.743100  0.989180  1.0  0.504
  N  N252  1  0.839800  0.633400  0.998130  1.0  -0.4639
  N  N253  1  0.799300  0.717800  0.688540  1.0  -0.3315
  N  N254  1  0.601500  0.884300  0.730320  1.0  -0.5174
  N  N255  1  0.493100  0.894900  0.739180  1.0  0.5014
  N  N256  1  0.383400  0.910200  0.748130  1.0  -0.4646
  N  N257  1  0.299300  0.217800  0.188540  1.0  -0.3315
  N  N258  1  0.101500  0.384300  0.230320  1.0  -0.5174
  N  N259  1  0.993100  0.394900  0.239180  1.0  0.5014
  N  N260  1  0.883400  0.410200  0.248130  1.0  -0.4646
  N  N261  1  0.700700  0.282200  0.188540  1.0  -0.3307
  N  N262  1  0.898500  0.115700  0.230320  1.0  -0.5178
  N  N263  1  0.006900  0.105100  0.239180  1.0  0.5024
  N  N264  1  0.116600  0.089800  0.248130  1.0  -0.4632
  N  N265  1  0.200700  0.782200  0.688540  1.0  -0.3307
  N  N266  1  0.398500  0.615700  0.730320  1.0  -0.5178
  N  N267  1  0.506900  0.605100  0.739180  1.0  0.5024
  N  N268  1  0.616600  0.589800  0.748130  1.0  -0.4632
  O  O269  1  0.291200  0.661200  0.126820  1.0  -0.2754
  O  O270  1  0.791200  0.161200  0.626820  1.0  -0.2754
  O  O271  1  0.208800  0.338800  0.626820  1.0  -0.2755
  O  O272  1  0.708800  0.838800  0.126820  1.0  -0.2755
  O  O273  1  0.088800  0.541200  0.376820  1.0  -0.2766
  O  O274  1  0.588800  0.041200  0.876820  1.0  -0.2766
  O  O275  1  0.411200  0.458800  0.876820  1.0  -0.2766
  O  O276  1  0.911200  0.958800  0.376820  1.0  -0.2766
  O  O277  1  0.708800  0.338800  0.873180  1.0  -0.2746
  O  O278  1  0.208800  0.838800  0.373180  1.0  -0.2746
  O  O279  1  0.791200  0.661200  0.373180  1.0  -0.2751
  O  O280  1  0.291200  0.161200  0.873180  1.0  -0.2751
  O  O281  1  0.911200  0.458800  0.623180  1.0  -0.2759
  O  O282  1  0.411200  0.958800  0.123180  1.0  -0.2759
  O  O283  1  0.588800  0.541200  0.123180  1.0  -0.2764
  O  O284  1  0.088800  0.041200  0.623180  1.0  -0.2764
