# generated using pymatgen
data_Mn3Mo2(CN)16
_symmetry_space_group_name_H-M   'P 1'
_cell_length_a   14.83300000
_cell_length_b   8.47660000
_cell_length_c   17.32600000
_cell_angle_alpha   90.00000000
_cell_angle_beta   108.46000000
_cell_angle_gamma   90.00000000
_symmetry_Int_Tables_number   1
_chemical_formula_structural   Mn3Mo2(CN)16
_chemical_formula_sum   'Mn6 Mo4 C32 N32'
_cell_volume   2066.36439655
_cell_formula_units_Z   2
loop_
 _symmetry_equiv_pos_site_id
 _symmetry_equiv_pos_as_xyz
  1  'x, y, z'
loop_
 _atom_site_type_symbol
 _atom_site_label
 _atom_site_symmetry_multiplicity
 _atom_site_fract_x
 _atom_site_fract_y
 _atom_site_fract_z
 _atom_site_occupancy
 _atom_site_charge
  Mn  Mn1  1  0.138010  0.291840  0.608820  1.0  1.1249
  Mn  Mn2  1  0.361990  0.791840  0.891180  1.0  1.1262
  Mn  Mn3  1  0.861990  0.708160  0.391180  1.0  1.1255
  Mn  Mn4  1  0.638010  0.208160  0.108820  1.0  1.1246
  Mn  Mn5  1  0.500000  0.000000  0.500000  1.0  1.0818
  Mn  Mn6  1  0.000000  0.500000  0.000000  1.0  1.0812
  Mo  Mo7  1  0.511530  0.280880  0.783890  1.0  -0.231
  Mo  Mo8  1  0.988470  0.780880  0.716110  1.0  -0.2269
  Mo  Mo9  1  0.488470  0.719120  0.216110  1.0  -0.2272
  Mo  Mo10  1  0.011530  0.219120  0.283890  1.0  -0.2314
  C  C11  1  0.508600  0.148900  0.677700  1.0  0.2546
  C  C12  1  0.490800  0.456500  0.689900  1.0  0.1929
  C  C13  1  0.634900  0.429800  0.816200  1.0  0.227
  C  C14  1  0.635200  0.130400  0.811100  1.0  0.2195
  C  C15  1  0.360300  0.267900  0.721100  1.0  0.2355
  C  C16  1  0.450100  0.476500  0.828500  1.0  0.236
  C  C17  1  0.558400  0.271100  0.914400  1.0  0.2212
  C  C18  1  0.459500  0.061500  0.816700  1.0  0.2374
  C  C19  1  0.991400  0.648900  0.822300  1.0  0.2528
  C  C20  1  0.009200  0.956500  0.810100  1.0  0.1923
  C  C21  1  0.865100  0.929800  0.683800  1.0  0.2262
  C  C22  1  0.864800  0.630400  0.688900  1.0  0.2205
  C  C23  1  0.139700  0.767900  0.778900  1.0  0.2352
  C  C24  1  0.049900  0.976500  0.671500  1.0  0.2364
  C  C25  1  0.941600  0.771100  0.585600  1.0  0.2208
  C  C26  1  0.040500  0.561500  0.683300  1.0  0.2372
  C  C27  1  0.491400  0.851100  0.322300  1.0  0.2519
  C  C28  1  0.509200  0.543500  0.310100  1.0  0.1935
  C  C29  1  0.365100  0.570200  0.183800  1.0  0.2263
  C  C30  1  0.364800  0.869600  0.188900  1.0  0.2204
  C  C31  1  0.639700  0.732100  0.278900  1.0  0.2351
  C  C32  1  0.549900  0.523500  0.171500  1.0  0.2362
  C  C33  1  0.441600  0.728900  0.085600  1.0  0.2208
  C  C34  1  0.540500  0.938500  0.183300  1.0  0.2368
  C  C35  1  0.008600  0.351100  0.177700  1.0  0.2541
  C  C36  1  0.990800  0.043500  0.189900  1.0  0.1937
  C  C37  1  0.134900  0.070200  0.316200  1.0  0.2277
  C  C38  1  0.135200  0.369600  0.311100  1.0  0.2194
  C  C39  1  0.860300  0.232100  0.221100  1.0  0.2355
  C  C40  1  0.950100  0.023500  0.328500  1.0  0.2359
  C  C41  1  0.058400  0.228900  0.414400  1.0  0.221
  C  C42  1  0.959500  0.438500  0.316700  1.0  0.2368
  N  N43  1  0.508000  0.074600  0.621500  1.0  -0.4931
  N  N44  1  0.480100  0.558600  0.642100  1.0  -0.3635
  N  N45  1  0.703300  0.505900  0.836900  1.0  -0.3823
  N  N46  1  0.699500  0.048900  0.821900  1.0  -0.3746
  N  N47  1  0.281600  0.261900  0.687400  1.0  -0.409
  N  N48  1  0.416000  0.581400  0.850200  1.0  -0.4047
  N  N49  1  0.583400  0.266100  0.983900  1.0  -0.4286
  N  N50  1  0.434200  0.947700  0.835900  1.0  -0.4045
  N  N51  1  0.992000  0.574600  0.878500  1.0  -0.493
  N  N52  1  0.019900  0.058600  0.857900  1.0  -0.3638
  N  N53  1  0.796700  0.005900  0.663100  1.0  -0.3812
  N  N54  1  0.800500  0.548900  0.678100  1.0  -0.374
  N  N55  1  0.218400  0.761900  0.812600  1.0  -0.4104
  N  N56  1  0.084000  0.081400  0.649800  1.0  -0.4046
  N  N57  1  0.916600  0.766100  0.516100  1.0  -0.4278
  N  N58  1  0.065800  0.447700  0.664100  1.0  -0.4052
  N  N59  1  0.492000  0.925400  0.378500  1.0  -0.4961
  N  N60  1  0.519900  0.441400  0.357900  1.0  -0.361
  N  N61  1  0.296700  0.494100  0.163100  1.0  -0.3802
  N  N62  1  0.300500  0.951100  0.178100  1.0  -0.3749
  N  N63  1  0.718400  0.738100  0.312600  1.0  -0.4103
  N  N64  1  0.584000  0.418600  0.149800  1.0  -0.4016
  N  N65  1  0.416600  0.733900  0.016100  1.0  -0.4277
  N  N66  1  0.565800  0.052300  0.164100  1.0  -0.4068
  N  N67  1  0.008000  0.425400  0.121500  1.0  -0.495
  N  N68  1  0.980100  0.941400  0.142100  1.0  -0.3618
  N  N69  1  0.203300  0.994100  0.336900  1.0  -0.381
  N  N70  1  0.199500  0.451100  0.321900  1.0  -0.3763
  N  N71  1  0.781600  0.238100  0.187400  1.0  -0.4091
  N  N72  1  0.916000  0.918600  0.350200  1.0  -0.4013
  N  N73  1  0.083400  0.233900  0.483900  1.0  -0.4286
  N  N74  1  0.934200  0.552300  0.335900  1.0  -0.4066
