# generated using pymatgen
data_NdH7(C5O2)3
_symmetry_space_group_name_H-M   'P 1'
_cell_length_a   24.87180000
_cell_length_b   13.75910000
_cell_length_c   13.68320000
_cell_angle_alpha   90.00000000
_cell_angle_beta   98.94900000
_cell_angle_gamma   90.00000000
_symmetry_Int_Tables_number   1
_chemical_formula_structural   NdH7(C5O2)3
_chemical_formula_sum   'Nd8 H56 C120 O48'
_cell_volume   4625.57680584
_cell_formula_units_Z   8
loop_
 _symmetry_equiv_pos_site_id
 _symmetry_equiv_pos_as_xyz
  1  'x, y, z'
loop_
 _atom_site_type_symbol
 _atom_site_label
 _atom_site_symmetry_multiplicity
 _atom_site_fract_x
 _atom_site_fract_y
 _atom_site_fract_z
 _atom_site_occupancy
 _atom_site_charge
  Nd  Nd1  1  0.169930  0.215980  0.461140  1.0  2.2397
  Nd  Nd2  1  0.669930  0.715980  0.461140  1.0  2.2397
  Nd  Nd3  1  0.830070  0.215980  0.038860  1.0  2.238
  Nd  Nd4  1  0.330070  0.715980  0.038860  1.0  2.238
  Nd  Nd5  1  0.830070  0.784020  0.538860  1.0  2.2378
  Nd  Nd6  1  0.330070  0.284020  0.538860  1.0  2.2377
  Nd  Nd7  1  0.169930  0.784020  0.961140  1.0  2.2309
  Nd  Nd8  1  0.669930  0.284020  0.961140  1.0  2.2309
  H  H9  1  0.992100  0.178000  0.588000  1.0  0.1188
  H  H10  1  0.909900  0.229600  0.627900  1.0  0.1113
  H  H11  1  0.956200  0.507200  0.616900  1.0  0.1122
  H  H12  1  0.038400  0.455400  0.578300  1.0  0.0896
  H  H13  1  0.867800  0.299100  0.755300  1.0  0.1024
  H  H14  1  0.725700  0.440200  0.685200  1.0  0.1071
  H  H15  1  0.854600  0.515900  0.558100  1.0  0.0991
  H  H16  1  0.492100  0.678000  0.588000  1.0  0.1188
  H  H17  1  0.409900  0.729600  0.627900  1.0  0.1113
  H  H18  1  0.456200  0.007200  0.616900  1.0  0.1122
  H  H19  1  0.538400  0.955400  0.578300  1.0  0.0896
  H  H20  1  0.367800  0.799100  0.755300  1.0  0.1024
  H  H21  1  0.225700  0.940200  0.685200  1.0  0.1071
  H  H22  1  0.354600  0.015900  0.558100  1.0  0.0991
  H  H23  1  0.007900  0.178000  0.912000  1.0  0.1194
  H  H24  1  0.090100  0.229600  0.872100  1.0  0.1118
  H  H25  1  0.043800  0.507200  0.883100  1.0  0.1124
  H  H26  1  0.961600  0.455400  0.921700  1.0  0.0898
  H  H27  1  0.132200  0.299100  0.744700  1.0  0.1026
  H  H28  1  0.274300  0.440200  0.814800  1.0  0.1089
  H  H29  1  0.145400  0.515900  0.941900  1.0  0.0984
  H  H30  1  0.507900  0.678000  0.912000  1.0  0.1194
  H  H31  1  0.590100  0.729600  0.872100  1.0  0.1118
  H  H32  1  0.543800  0.007200  0.883100  1.0  0.1124
  H  H33  1  0.461600  0.955400  0.921700  1.0  0.0898
  H  H34  1  0.632200  0.799100  0.744700  1.0  0.1026
  H  H35  1  0.774300  0.940200  0.814800  1.0  0.1089
  H  H36  1  0.645400  0.015900  0.941900  1.0  0.0984
  H  H37  1  0.007900  0.822000  0.412000  1.0  0.1194
  H  H38  1  0.090100  0.770400  0.372100  1.0  0.1114
  H  H39  1  0.043800  0.492800  0.383100  1.0  0.1119
  H  H40  1  0.961600  0.544600  0.421700  1.0  0.0892
  H  H41  1  0.132200  0.700900  0.244700  1.0  0.1029
  H  H42  1  0.274300  0.559800  0.314800  1.0  0.1092
  H  H43  1  0.145400  0.484100  0.441900  1.0  0.0985
  H  H44  1  0.507900  0.322000  0.412000  1.0  0.1194
  H  H45  1  0.590100  0.270400  0.372100  1.0  0.1114
  H  H46  1  0.543800  0.992800  0.383100  1.0  0.1119
  H  H47  1  0.461600  0.044600  0.421700  1.0  0.0892
  H  H48  1  0.632200  0.200900  0.244700  1.0  0.1029
  H  H49  1  0.774300  0.059800  0.314800  1.0  0.1092
  H  H50  1  0.645400  0.984100  0.441900  1.0  0.0985
  H  H51  1  0.992100  0.822000  0.088000  1.0  0.1192
  H  H52  1  0.909900  0.770400  0.127900  1.0  0.1118
  H  H53  1  0.956200  0.492800  0.116900  1.0  0.112
  H  H54  1  0.038400  0.544600  0.078300  1.0  0.0898
  H  H55  1  0.867800  0.700900  0.255300  1.0  0.1022
  H  H56  1  0.725700  0.559800  0.185200  1.0  0.1074
  H  H57  1  0.854600  0.484100  0.058100  1.0  0.0988
  H  H58  1  0.492100  0.322000  0.088000  1.0  0.1192
  H  H59  1  0.409900  0.270400  0.127900  1.0  0.1118
  H  H60  1  0.456200  0.992800  0.116900  1.0  0.112
  H  H61  1  0.538400  0.044600  0.078300  1.0  0.0898
  H  H62  1  0.367800  0.200900  0.255300  1.0  0.1022
  H  H63  1  0.225700  0.059800  0.185200  1.0  0.1074
  H  H64  1  0.354600  0.984100  0.058100  1.0  0.0988
  C  C65  1  0.074450  0.281710  0.537940  1.0  0.7058
  C  C66  1  0.023390  0.313250  0.575450  1.0  -0.1512
  C  C67  1  0.984910  0.244100  0.592800  1.0  -0.1172
  C  C68  1  0.935790  0.275600  0.617400  1.0  -0.1262
  C  C69  1  0.923890  0.373430  0.626960  1.0  0.018
  C  C70  1  0.962970  0.441100  0.611230  1.0  -0.1587
  C  C71  1  0.012100  0.409520  0.587020  1.0  -0.0371
  C  C72  1  0.868720  0.400760  0.648940  1.0  0.0096
  C  C73  1  0.846730  0.346460  0.719050  1.0  -0.0789
  C  C74  1  0.793150  0.362620  0.735410  1.0  -0.1603
  C  C75  1  0.762120  0.432270  0.678910  1.0  0.0266
  C  C76  1  0.784930  0.490130  0.613140  1.0  -0.1281
  C  C77  1  0.838830  0.475310  0.599980  1.0  -0.0595
  C  C78  1  0.771480  0.305860  0.815140  1.0  0.7683
  C  C79  1  0.750450  0.567960  0.559190  1.0  0.7402
  C  C80  1  0.574450  0.781710  0.537940  1.0  0.7058
  C  C81  1  0.523390  0.813250  0.575450  1.0  -0.1512
  C  C82  1  0.484910  0.744100  0.592800  1.0  -0.1172
  C  C83  1  0.435790  0.775600  0.617400  1.0  -0.1262
  C  C84  1  0.423890  0.873430  0.626960  1.0  0.018
  C  C85  1  0.462970  0.941100  0.611230  1.0  -0.1587
  C  C86  1  0.512100  0.909520  0.587020  1.0  -0.0371
  C  C87  1  0.368720  0.900760  0.648940  1.0  0.0096
  C  C88  1  0.346730  0.846460  0.719050  1.0  -0.0789
  C  C89  1  0.293150  0.862620  0.735410  1.0  -0.1603
  C  C90  1  0.262120  0.932270  0.678910  1.0  0.0266
  C  C91  1  0.284930  0.990130  0.613140  1.0  -0.1281
  C  C92  1  0.338830  0.975310  0.599980  1.0  -0.0595
  C  C93  1  0.271480  0.805860  0.815140  1.0  0.7683
  C  C94  1  0.250450  0.067960  0.559190  1.0  0.7402
  C  C95  1  0.925550  0.281710  0.962060  1.0  0.7073
  C  C96  1  0.976610  0.313250  0.924550  1.0  -0.1532
  C  C97  1  0.015090  0.244100  0.907200  1.0  -0.1169
  C  C98  1  0.064210  0.275600  0.882600  1.0  -0.1275
  C  C99  1  0.076110  0.373430  0.873040  1.0  0.0188
  C  C100  1  0.037030  0.441100  0.888770  1.0  -0.1584
  C  C101  1  0.987900  0.409520  0.912980  1.0  -0.0365
  C  C102  1  0.131280  0.400760  0.851060  1.0  0.0099
  C  C103  1  0.153270  0.346460  0.780950  1.0  -0.0791
  C  C104  1  0.206850  0.362620  0.764590  1.0  -0.1608
  C  C105  1  0.237880  0.432270  0.821090  1.0  0.0269
  C  C106  1  0.215070  0.490130  0.886860  1.0  -0.1284
  C  C107  1  0.161170  0.475310  0.900020  1.0  -0.0613
  C  C108  1  0.228520  0.305860  0.684860  1.0  0.7677
  C  C109  1  0.249550  0.567960  0.940810  1.0  0.7419
  C  C110  1  0.425550  0.781710  0.962060  1.0  0.7073
  C  C111  1  0.476610  0.813250  0.924550  1.0  -0.1532
  C  C112  1  0.515090  0.744100  0.907200  1.0  -0.1169
  C  C113  1  0.564210  0.775600  0.882600  1.0  -0.1275
  C  C114  1  0.576110  0.873430  0.873040  1.0  0.0188
  C  C115  1  0.537030  0.941100  0.888770  1.0  -0.1584
  C  C116  1  0.487900  0.909520  0.912980  1.0  -0.0365
  C  C117  1  0.631280  0.900760  0.851060  1.0  0.0099
  C  C118  1  0.653270  0.846460  0.780950  1.0  -0.0791
  C  C119  1  0.706850  0.862620  0.764590  1.0  -0.1608
  C  C120  1  0.737880  0.932270  0.821090  1.0  0.0269
  C  C121  1  0.715070  0.990130  0.886860  1.0  -0.1284
  C  C122  1  0.661170  0.975310  0.900020  1.0  -0.0613
  C  C123  1  0.728520  0.805860  0.684860  1.0  0.7677
  C  C124  1  0.749550  0.067960  0.940810  1.0  0.7419
  C  C125  1  0.925550  0.718290  0.462060  1.0  0.7066
  C  C126  1  0.976610  0.686750  0.424550  1.0  -0.1525
  C  C127  1  0.015090  0.755900  0.407200  1.0  -0.1132
  C  C128  1  0.064210  0.724400  0.382600  1.0  -0.1266
  C  C129  1  0.076110  0.626570  0.373040  1.0  0.0191
  C  C130  1  0.037030  0.558900  0.388770  1.0  -0.1579
  C  C131  1  0.987900  0.590480  0.412980  1.0  -0.0359
  C  C132  1  0.131280  0.599240  0.351060  1.0  0.0099
  C  C133  1  0.153270  0.653540  0.280950  1.0  -0.0798
  C  C134  1  0.206850  0.637380  0.264590  1.0  -0.1609
  C  C135  1  0.237880  0.567730  0.321090  1.0  0.027
  C  C136  1  0.215070  0.509870  0.386860  1.0  -0.1286
  C  C137  1  0.161170  0.524690  0.400020  1.0  -0.0616
  C  C138  1  0.228520  0.694140  0.184860  1.0  0.7673
  C  C139  1  0.249550  0.432040  0.440810  1.0  0.7415
  C  C140  1  0.425550  0.218290  0.462060  1.0  0.7066
  C  C141  1  0.476610  0.186750  0.424550  1.0  -0.1525
  C  C142  1  0.515090  0.255900  0.407200  1.0  -0.1132
  C  C143  1  0.564210  0.224400  0.382600  1.0  -0.1266
  C  C144  1  0.576110  0.126570  0.373040  1.0  0.0191
  C  C145  1  0.537030  0.058900  0.388770  1.0  -0.1579
  C  C146  1  0.487900  0.090480  0.412980  1.0  -0.0359
  C  C147  1  0.631280  0.099240  0.351060  1.0  0.0099
  C  C148  1  0.653270  0.153540  0.280950  1.0  -0.0798
  C  C149  1  0.706850  0.137380  0.264590  1.0  -0.1609
  C  C150  1  0.737880  0.067730  0.321090  1.0  0.027
  C  C151  1  0.715070  0.009870  0.386860  1.0  -0.1286
  C  C152  1  0.661170  0.024690  0.400020  1.0  -0.0616
  C  C153  1  0.728520  0.194140  0.184860  1.0  0.7673
  C  C154  1  0.749550  0.932040  0.440810  1.0  0.7415
  C  C155  1  0.074450  0.718290  0.037940  1.0  0.7074
  C  C156  1  0.023390  0.686750  0.075450  1.0  -0.1511
  C  C157  1  0.984910  0.755900  0.092800  1.0  -0.114
  C  C158  1  0.935790  0.724400  0.117400  1.0  -0.1266
  C  C159  1  0.923890  0.626570  0.126960  1.0  0.0177
  C  C160  1  0.962970  0.558900  0.111230  1.0  -0.1583
  C  C161  1  0.012100  0.590480  0.087020  1.0  -0.0359
  C  C162  1  0.868720  0.599240  0.148940  1.0  0.0095
  C  C163  1  0.846730  0.653540  0.219050  1.0  -0.0789
  C  C164  1  0.793150  0.637380  0.235410  1.0  -0.1601
  C  C165  1  0.762120  0.567730  0.178910  1.0  0.0268
  C  C166  1  0.784930  0.509870  0.113140  1.0  -0.1287
  C  C167  1  0.838830  0.524690  0.099980  1.0  -0.0595
  C  C168  1  0.771480  0.694140  0.315140  1.0  0.768
  C  C169  1  0.750450  0.432040  0.059190  1.0  0.7399
  C  C170  1  0.574450  0.218290  0.037940  1.0  0.7074
  C  C171  1  0.523390  0.186750  0.075450  1.0  -0.1511
  C  C172  1  0.484910  0.255900  0.092800  1.0  -0.114
  C  C173  1  0.435790  0.224400  0.117400  1.0  -0.1266
  C  C174  1  0.423890  0.126570  0.126960  1.0  0.0177
  C  C175  1  0.462970  0.058900  0.111230  1.0  -0.1583
  C  C176  1  0.512100  0.090480  0.087020  1.0  -0.0359
  C  C177  1  0.368720  0.099240  0.148940  1.0  0.0095
  C  C178  1  0.346730  0.153540  0.219050  1.0  -0.0789
  C  C179  1  0.293150  0.137380  0.235410  1.0  -0.1601
  C  C180  1  0.262120  0.067730  0.178910  1.0  0.0268
  C  C181  1  0.284930  0.009870  0.113140  1.0  -0.1287
  C  C182  1  0.338830  0.024690  0.099980  1.0  -0.0595
  C  C183  1  0.271480  0.194140  0.315140  1.0  0.768
  C  C184  1  0.250450  0.932040  0.059190  1.0  0.7399
  O  O185  1  0.106470  0.344690  0.515800  1.0  -0.6262
  O  O186  1  0.083200  0.191700  0.528010  1.0  -0.7136
  O  O187  1  0.772210  0.642880  0.529020  1.0  -0.8351
  O  O188  1  0.699430  0.557460  0.544560  1.0  -0.6825
  O  O189  1  0.722770  0.325740  0.827680  1.0  -0.7065
  O  O190  1  0.801510  0.246270  0.861590  1.0  -0.666
  O  O191  1  0.606470  0.844690  0.515800  1.0  -0.6262
  O  O192  1  0.583200  0.691700  0.528010  1.0  -0.7136
  O  O193  1  0.272210  0.142880  0.529020  1.0  -0.8351
  O  O194  1  0.199430  0.057460  0.544560  1.0  -0.6825
  O  O195  1  0.222770  0.825740  0.827680  1.0  -0.7065
  O  O196  1  0.301510  0.746270  0.861590  1.0  -0.666
  O  O197  1  0.893530  0.344690  0.984200  1.0  -0.6253
  O  O198  1  0.916800  0.191700  0.971990  1.0  -0.7146
  O  O199  1  0.227790  0.642880  0.970980  1.0  -0.8352
  O  O200  1  0.300570  0.557460  0.955440  1.0  -0.6856
  O  O201  1  0.277230  0.325740  0.672320  1.0  -0.7063
  O  O202  1  0.198490  0.246270  0.638410  1.0  -0.6657
  O  O203  1  0.393530  0.844690  0.984200  1.0  -0.6253
  O  O204  1  0.416800  0.691700  0.971990  1.0  -0.7146
  O  O205  1  0.727790  0.142880  0.970980  1.0  -0.8352
  O  O206  1  0.800570  0.057460  0.955440  1.0  -0.6856
  O  O207  1  0.777230  0.825740  0.672320  1.0  -0.7063
  O  O208  1  0.698490  0.746270  0.638410  1.0  -0.6657
  O  O209  1  0.893530  0.655310  0.484200  1.0  -0.6257
  O  O210  1  0.916800  0.808300  0.471990  1.0  -0.7136
  O  O211  1  0.227790  0.357120  0.470980  1.0  -0.835
  O  O212  1  0.300570  0.442540  0.455440  1.0  -0.6858
  O  O213  1  0.277230  0.674260  0.172320  1.0  -0.7063
  O  O214  1  0.198490  0.753730  0.138410  1.0  -0.6655
  O  O215  1  0.393530  0.155310  0.484200  1.0  -0.6257
  O  O216  1  0.416800  0.308300  0.471990  1.0  -0.7136
  O  O217  1  0.727790  0.857120  0.470980  1.0  -0.835
  O  O218  1  0.800570  0.942540  0.455440  1.0  -0.6858
  O  O219  1  0.777230  0.174260  0.172320  1.0  -0.7063
  O  O220  1  0.698490  0.253730  0.138410  1.0  -0.6655
  O  O221  1  0.106470  0.655310  0.015800  1.0  -0.6255
  O  O222  1  0.083200  0.808300  0.028010  1.0  -0.7155
  O  O223  1  0.772210  0.357120  0.029020  1.0  -0.8348
  O  O224  1  0.699430  0.442540  0.044560  1.0  -0.6832
  O  O225  1  0.722770  0.674260  0.327680  1.0  -0.7065
  O  O226  1  0.801510  0.753730  0.361590  1.0  -0.6664
  O  O227  1  0.606470  0.155310  0.015800  1.0  -0.6255
  O  O228  1  0.583200  0.308300  0.028010  1.0  -0.7155
  O  O229  1  0.272210  0.857120  0.029020  1.0  -0.8348
  O  O230  1  0.199430  0.942540  0.044560  1.0  -0.6832
  O  O231  1  0.222770  0.174260  0.327680  1.0  -0.7065
  O  O232  1  0.301510  0.253730  0.361590  1.0  -0.6664
