# generated using pymatgen
data_PrH9(C3O)6
_symmetry_space_group_name_H-M   'P 1'
_cell_length_a   13.39200000
_cell_length_b   13.87200000
_cell_length_c   22.21100000
_cell_angle_alpha   74.97700000
_cell_angle_beta   89.01600000
_cell_angle_gamma   76.27600000
_symmetry_Int_Tables_number   1
_chemical_formula_structural   PrH9(C3O)6
_chemical_formula_sum   'Pr6 H54 C108 O36'
_cell_volume   3867.09565824
_cell_formula_units_Z   6
loop_
 _symmetry_equiv_pos_site_id
 _symmetry_equiv_pos_as_xyz
  1  'x, y, z'
loop_
 _atom_site_type_symbol
 _atom_site_label
 _atom_site_symmetry_multiplicity
 _atom_site_fract_x
 _atom_site_fract_y
 _atom_site_fract_z
 _atom_site_occupancy
 _atom_site_charge
  Pr  Pr1  1  0.782660  0.373020  0.741850  1.0  2.2268
  Pr  Pr2  1  0.812260  0.694390  0.723990  1.0  2.2186
  Pr  Pr3  1  0.868540  0.098060  0.675110  1.0  2.2404
  Pr  Pr4  1  0.217340  0.626980  0.258150  1.0  2.2264
  Pr  Pr5  1  0.187740  0.305610  0.276010  1.0  2.2177
  Pr  Pr6  1  0.131460  0.901940  0.324890  1.0  2.2412
  H  H7  1  0.456400  0.494000  0.705000  1.0  0.1095
  H  H8  1  0.277600  0.541600  0.703300  1.0  0.1239
  H  H9  1  0.118000  0.668800  0.713500  1.0  0.1185
  H  H10  1  0.133500  0.952800  0.727800  1.0  0.1103
  H  H11  1  0.312400  0.905000  0.729500  1.0  0.1156
  H  H12  1  0.474000  0.779000  0.714900  1.0  0.1196
  H  H13  1  0.877000  0.613800  0.902900  1.0  0.1299
  H  H14  1  0.094500  0.304600  0.015000  1.0  0.1191
  H  H15  1  0.021600  0.314300  0.920800  1.0  0.1114
  H  H16  1  0.452200  0.318200  0.758300  1.0  0.1241
  H  H17  1  0.263300  0.373800  0.770000  1.0  0.129
  H  H18  1  0.095800  0.358600  0.755100  1.0  0.1105
  H  H19  1  0.205200  0.123600  0.674600  1.0  0.1268
  H  H20  1  0.394800  0.062200  0.667600  1.0  0.1145
  H  H21  1  0.557800  0.080200  0.679100  1.0  0.1067
  H  H22  1  0.121400  0.545600  0.622500  1.0  0.1158
  H  H23  1  0.181300  0.531700  0.525300  1.0  0.1159
  H  H24  1  0.853700  0.483800  0.580100  1.0  0.1031
  H  H25  1  0.911000  0.182500  0.930300  1.0  0.1088
  H  H26  1  0.031400  0.829200  0.965000  1.0  0.1032
  H  H27  1  0.959100  0.924300  0.867600  1.0  0.1265
  H  H28  1  0.605000  0.466600  0.605800  1.0  0.0999
  H  H29  1  0.558900  0.394500  0.415500  1.0  0.1121
  H  H30  1  0.696100  0.298700  0.482000  1.0  0.1232
  H  H31  1  0.670900  0.124500  0.544500  1.0  0.1166
  H  H32  1  0.545100  0.175000  0.464100  1.0  0.0949
  H  H33  1  0.568700  0.856000  0.610300  1.0  0.1011
  H  H34  1  0.543600  0.506000  0.295000  1.0  0.1099
  H  H35  1  0.722400  0.458400  0.296700  1.0  0.1233
  H  H36  1  0.882000  0.331200  0.286500  1.0  0.1182
  H  H37  1  0.866500  0.047200  0.272200  1.0  0.1108
  H  H38  1  0.687600  0.095000  0.270500  1.0  0.1149
  H  H39  1  0.526000  0.221000  0.285100  1.0  0.1176
  H  H40  1  0.123000  0.386200  0.097100  1.0  0.1292
  H  H41  1  0.905500  0.695400  0.985000  1.0  0.1193
  H  H42  1  0.978400  0.685700  0.079200  1.0  0.1115
  H  H43  1  0.547800  0.681800  0.241700  1.0  0.1234
  H  H44  1  0.736700  0.626200  0.230000  1.0  0.1291
  H  H45  1  0.904200  0.641400  0.244900  1.0  0.1112
  H  H46  1  0.794800  0.876400  0.325400  1.0  0.1271
  H  H47  1  0.605200  0.937800  0.332400  1.0  0.114
  H  H48  1  0.442200  0.919800  0.320900  1.0  0.1061
  H  H49  1  0.878600  0.454400  0.377500  1.0  0.1156
  H  H50  1  0.818700  0.468300  0.474700  1.0  0.1154
  H  H51  1  0.146300  0.516200  0.419900  1.0  0.1044
  H  H52  1  0.089000  0.817500  0.069700  1.0  0.1103
  H  H53  1  0.968600  0.170800  0.035000  1.0  0.103
  H  H54  1  0.040900  0.075700  0.132400  1.0  0.126
  H  H55  1  0.395000  0.533400  0.394200  1.0  0.0987
  H  H56  1  0.441100  0.605500  0.584500  1.0  0.1117
  H  H57  1  0.303900  0.701300  0.518000  1.0  0.123
  H  H58  1  0.329100  0.875500  0.455500  1.0  0.1169
  H  H59  1  0.454900  0.825000  0.535900  1.0  0.0947
  H  H60  1  0.431300  0.144000  0.389700  1.0  0.1025
  C  C61  1  0.602000  0.601700  0.705700  1.0  0.7872
  C  C62  1  0.484800  0.633500  0.707500  1.0  -0.1148
  C  C63  1  0.423100  0.562000  0.706200  1.0  -0.0833
  C  C64  1  0.316300  0.589300  0.706600  1.0  -0.145
  C  C65  1  0.265800  0.687800  0.712000  1.0  0.075
  C  C66  1  0.158000  0.715700  0.716100  1.0  -0.0651
  C  C67  1  0.110100  0.812700  0.724000  1.0  -0.1589
  C  C68  1  0.167700  0.885500  0.725800  1.0  -0.046
  C  C69  1  0.273600  0.858100  0.724700  1.0  -0.0749
  C  C70  1  0.325000  0.761400  0.716400  1.0  0.0289
  C  C71  1  0.434300  0.731300  0.713200  1.0  -0.0806
  C  C72  1  0.890800  0.471000  0.841600  1.0  0.7648
  C  C73  1  0.940900  0.465100  0.901200  1.0  -0.1649
  C  C74  1  0.921400  0.550800  0.925300  1.0  -0.0616
  C  C75  1  0.967800  0.542900  0.982500  1.0  -0.0225
  C  C76  1  0.051000  0.367700  0.992100  1.0  -0.1364
  C  C77  1  0.007300  0.373400  0.936500  1.0  -0.0695
  C  C78  1  0.627500  0.226400  0.728700  1.0  0.3408
  C  C79  1  0.520200  0.202600  0.718700  1.0  -0.169
  C  C80  1  0.439600  0.267800  0.739500  1.0  -0.0545
  C  C81  1  0.333800  0.256900  0.731600  1.0  -0.0215
  C  C82  1  0.251400  0.323500  0.750900  1.0  -0.0926
  C  C83  1  0.152500  0.314700  0.741700  1.0  -0.0433
  C  C84  1  0.135600  0.240200  0.712100  1.0  -0.1436
  C  C85  1  0.217500  0.174200  0.693400  1.0  -0.0788
  C  C86  1  0.318900  0.182000  0.702200  1.0  0.0644
  C  C87  1  0.405200  0.115300  0.684800  1.0  -0.1087
  C  C88  1  0.501500  0.125300  0.692000  1.0  -0.0398
  C  C89  1  0.934800  0.537200  0.669600  1.0  0.6858
  C  C90  1  0.979300  0.515700  0.610000  1.0  -0.1108
  C  C91  1  0.079200  0.531200  0.593600  1.0  -0.0447
  C  C92  1  0.113700  0.525000  0.535700  1.0  -0.1147
  C  C93  1  0.951000  0.491000  0.508300  1.0  0.0489
  C  C94  1  0.919300  0.495400  0.568200  1.0  -0.08
  C  C95  1  0.024200  0.237700  0.693400  1.0  0.6623
  C  C96  1  0.874200  0.133700  0.827500  1.0  0.6772
  C  C97  1  0.922500  0.064900  0.889800  1.0  -0.1594
  C  C98  1  0.935600  0.110200  0.937500  1.0  -0.0924
  C  C99  1  0.982200  0.054600  0.994000  1.0  -0.0036
  C  C100  1  0.006900  0.901600  0.957700  1.0  -0.0998
  C  C101  1  0.962700  0.957000  0.899800  1.0  -0.0791
  C  C102  1  0.752700  0.309100  0.591900  1.0  0.675
  C  C103  1  0.663300  0.374500  0.551100  1.0  -0.1546
  C  C104  1  0.594200  0.452600  0.567100  1.0  -0.0785
  C  C105  1  0.507900  0.512800  0.528700  1.0  0.042
  C  C106  1  0.566600  0.408400  0.454700  1.0  -0.0945
  C  C107  1  0.648300  0.352800  0.493400  1.0  -0.0927
  C  C108  1  0.712600  0.946600  0.636400  1.0  0.7282
  C  C109  1  0.630300  0.974200  0.586000  1.0  -0.091
  C  C110  1  0.627400  0.081800  0.539400  1.0  -0.0706
  C  C111  1  0.557200  0.107800  0.491400  1.0  -0.0682
  C  C112  1  0.494700  0.955100  0.519100  1.0  -0.0381
  C  C113  1  0.569100  0.917900  0.579600  1.0  -0.0774
  C  C114  1  0.986600  0.839000  0.726700  1.0  0.7422
  C  C115  1  0.398000  0.398300  0.294300  1.0  0.789
  C  C116  1  0.515200  0.366500  0.292500  1.0  -0.117
  C  C117  1  0.576900  0.438000  0.293800  1.0  -0.0862
  C  C118  1  0.683700  0.410700  0.293400  1.0  -0.1448
  C  C119  1  0.734200  0.312200  0.288000  1.0  0.0763
  C  C120  1  0.842000  0.284300  0.283900  1.0  -0.0653
  C  C121  1  0.889900  0.187300  0.276000  1.0  -0.1584
  C  C122  1  0.832300  0.114500  0.274200  1.0  -0.0447
  C  C123  1  0.726400  0.141900  0.275300  1.0  -0.0737
  C  C124  1  0.675000  0.238600  0.283600  1.0  0.0273
  C  C125  1  0.565700  0.268700  0.286800  1.0  -0.0815
  C  C126  1  0.109200  0.529000  0.158400  1.0  0.7646
  C  C127  1  0.059100  0.534900  0.098800  1.0  -0.1641
  C  C128  1  0.078600  0.449200  0.074700  1.0  -0.0599
  C  C129  1  0.032200  0.457100  0.017500  1.0  -0.0219
  C  C130  1  0.949000  0.632300  0.007900  1.0  -0.1313
  C  C131  1  0.992700  0.626600  0.063500  1.0  -0.0697
  C  C132  1  0.372500  0.773600  0.271300  1.0  0.341
  C  C133  1  0.479800  0.797400  0.281300  1.0  -0.1696
  C  C134  1  0.560400  0.732200  0.260500  1.0  -0.0539
  C  C135  1  0.666200  0.743100  0.268400  1.0  -0.0216
  C  C136  1  0.748600  0.676500  0.249100  1.0  -0.0909
  C  C137  1  0.847500  0.685300  0.258300  1.0  -0.0446
  C  C138  1  0.864400  0.759800  0.287900  1.0  -0.1403
  C  C139  1  0.782500  0.825800  0.306600  1.0  -0.0797
  C  C140  1  0.681100  0.818000  0.297800  1.0  0.0653
  C  C141  1  0.594800  0.884700  0.315200  1.0  -0.1064
  C  C142  1  0.498500  0.874700  0.308000  1.0  -0.0416
  C  C143  1  0.065200  0.462800  0.330400  1.0  0.6874
  C  C144  1  0.020700  0.484300  0.390000  1.0  -0.1106
  C  C145  1  0.920800  0.468800  0.406400  1.0  -0.0431
  C  C146  1  0.886300  0.475000  0.464300  1.0  -0.1118
  C  C147  1  0.049000  0.509000  0.491700  1.0  0.0494
  C  C148  1  0.080700  0.504600  0.431800  1.0  -0.0779
  C  C149  1  0.975800  0.762300  0.306600  1.0  0.6617
  C  C150  1  0.125800  0.866300  0.172500  1.0  0.6774
  C  C151  1  0.077500  0.935100  0.110200  1.0  -0.1589
  C  C152  1  0.064400  0.889800  0.062500  1.0  -0.0972
  C  C153  1  0.017800  0.945400  0.006000  1.0  -0.0049
  C  C154  1  0.993100  0.098400  0.042300  1.0  -0.0986
  C  C155  1  0.037300  0.043000  0.100200  1.0  -0.0799
  C  C156  1  0.247300  0.690900  0.408100  1.0  0.6744
  C  C157  1  0.336700  0.625500  0.448900  1.0  -0.155
  C  C158  1  0.405800  0.547400  0.432900  1.0  -0.0791
  C  C159  1  0.492100  0.487200  0.471300  1.0  0.0408
  C  C160  1  0.433400  0.591600  0.545300  1.0  -0.0936
  C  C161  1  0.351700  0.647200  0.506600  1.0  -0.094
  C  C162  1  0.287400  0.053400  0.363600  1.0  0.7292
  C  C163  1  0.369700  0.025800  0.414000  1.0  -0.0937
  C  C164  1  0.372600  0.918200  0.460600  1.0  -0.0702
  C  C165  1  0.442800  0.892200  0.508600  1.0  -0.0658
  C  C166  1  0.505300  0.044900  0.480900  1.0  -0.0376
  C  C167  1  0.430900  0.082100  0.420400  1.0  -0.0784
  C  C168  1  0.013400  0.161000  0.273300  1.0  0.7393
  O  O169  1  0.636700  0.517700  0.696500  1.0  -0.6662
  O  O170  1  0.643600  0.666400  0.713600  1.0  -0.7103
  O  O171  1  0.902800  0.390300  0.823300  1.0  -0.7164
  O  O172  1  0.835000  0.559500  0.812400  1.0  -0.7696
  O  O173  1  0.636000  0.289100  0.741500  1.0  -0.6512
  O  O174  1  0.846500  0.521700  0.683700  1.0  -0.7459
  O  O175  1  0.956200  0.292800  0.721200  1.0  -0.6794
  O  O176  1  0.014500  0.166000  0.672800  1.0  -0.6035
  O  O177  1  0.818300  0.217400  0.825800  1.0  -0.6525
  O  O178  1  0.895900  0.082700  0.781100  1.0  -0.6678
  O  O179  1  0.980100  0.584300  0.699200  1.0  -0.7177
  O  O180  1  0.775600  0.330000  0.641200  1.0  -0.7742
  O  O181  1  0.802800  0.227900  0.577900  1.0  -0.6934
  O  O182  1  0.717100  0.868600  0.681700  1.0  -0.7527
  O  O183  1  0.698600  0.149700  0.710900  1.0  -0.7052
  O  O184  1  0.770800  0.006900  0.630200  1.0  -0.7322
  O  O185  1  0.949700  0.764400  0.739700  1.0  -0.6548
  O  O186  1  0.953200  0.925600  0.731900  1.0  -0.6834
  O  O187  1  0.363300  0.482300  0.303500  1.0  -0.6659
  O  O188  1  0.356400  0.333600  0.286400  1.0  -0.7101
  O  O189  1  0.097200  0.609700  0.176700  1.0  -0.716
  O  O190  1  0.165000  0.440500  0.187600  1.0  -0.7675
  O  O191  1  0.364000  0.710900  0.258500  1.0  -0.6515
  O  O192  1  0.153500  0.478300  0.316300  1.0  -0.7443
  O  O193  1  0.043800  0.707200  0.278800  1.0  -0.6806
  O  O194  1  0.985500  0.834000  0.327200  1.0  -0.6022
  O  O195  1  0.181700  0.782600  0.174200  1.0  -0.6539
  O  O196  1  0.104100  0.917300  0.218900  1.0  -0.6675
  O  O197  1  0.019900  0.415700  0.300800  1.0  -0.7185
  O  O198  1  0.224400  0.670000  0.358800  1.0  -0.7757
  O  O199  1  0.197200  0.772100  0.422100  1.0  -0.692
  O  O200  1  0.282900  0.131400  0.318300  1.0  -0.7545
  O  O201  1  0.301400  0.850300  0.289100  1.0  -0.7062
  O  O202  1  0.229200  0.993100  0.369800  1.0  -0.7311
  O  O203  1  0.050300  0.235600  0.260300  1.0  -0.6555
  O  O204  1  0.046800  0.074400  0.268100  1.0  -0.6824
