# generated using pymatgen
data_Cd2H7C12NO8
_symmetry_space_group_name_H-M   'P 1'
_cell_length_a   7.89270000
_cell_length_b   10.32600000
_cell_length_c   12.79900000
_cell_angle_alpha   111.00800000
_cell_angle_beta   95.35100000
_cell_angle_gamma   106.17700000
_symmetry_Int_Tables_number   1
_chemical_formula_structural   Cd2H7C12NO8
_chemical_formula_sum   'Cd4 H14 C24 N2 O16'
_cell_volume   913.26946254
_cell_formula_units_Z   2
loop_
 _symmetry_equiv_pos_site_id
 _symmetry_equiv_pos_as_xyz
  1  'x, y, z'
loop_
 _atom_site_type_symbol
 _atom_site_label
 _atom_site_symmetry_multiplicity
 _atom_site_fract_x
 _atom_site_fract_y
 _atom_site_fract_z
 _atom_site_occupancy
 _atom_site_charge
  Cd  Cd1  1  0.317590  0.577970  0.449170  1.0  1.1081
  Cd  Cd2  1  0.612050  0.710780  0.026240  1.0  0.7301
  Cd  Cd3  1  0.682410  0.422030  0.550830  1.0  1.1059
  Cd  Cd4  1  0.387950  0.289220  0.973760  1.0  0.7321
  H  H5  1  0.899400  0.124600  0.305000  1.0  0.1223
  H  H6  1  0.819000  0.721900  0.303900  1.0  0.1296
  H  H7  1  0.308900  0.036200  0.444100  1.0  0.1267
  H  H8  1  0.611800  0.065000  0.310500  1.0  0.1176
  H  H9  1  0.444600  0.949900  0.213500  1.0  0.1203
  H  H10  1  0.557000  0.795000  0.356000  1.0  0.2244
  H  H11  1  0.398000  0.780000  0.271000  1.0  0.117
  H  H12  1  0.100600  0.875400  0.695000  1.0  0.1224
  H  H13  1  0.181000  0.278100  0.696100  1.0  0.1292
  H  H14  1  0.691100  0.963800  0.555900  1.0  0.1262
  H  H15  1  0.388200  0.935000  0.689500  1.0  0.1171
  H  H16  1  0.555400  0.050100  0.786500  1.0  0.1216
  H  H17  1  0.443000  0.205000  0.644000  1.0  0.2264
  H  H18  1  0.602000  0.220000  0.729000  1.0  0.119
  C  C19  1  0.825900  0.915100  0.294950  1.0  0.1081
  C  C20  1  0.122000  0.103300  0.378360  1.0  -0.118
  C  C21  1  0.942600  0.058600  0.323320  1.0  -0.129
  C  C22  1  0.239900  0.260600  0.412250  1.0  0.7219
  C  C23  1  0.894100  0.817900  0.323060  1.0  -0.1403
  C  C24  1  0.144600  0.759100  0.411300  1.0  0.6821
  C  C25  1  0.073600  0.863300  0.379530  1.0  -0.0966
  C  C26  1  0.188900  0.006200  0.407060  1.0  -0.0055
  C  C27  1  0.515600  0.772400  0.281180  1.0  -0.1133
  C  C28  1  0.575500  0.986300  0.234480  1.0  -0.1328
  C  C29  1  0.467600  0.607800  0.216660  1.0  0.7675
  C  C30  1  0.649100  0.047700  0.150410  1.0  0.7759
  C  C31  1  0.174100  0.084900  0.705050  1.0  0.1094
  C  C32  1  0.878000  0.896700  0.621640  1.0  -0.1175
  C  C33  1  0.057400  0.941400  0.676680  1.0  -0.1285
  C  C34  1  0.760100  0.739400  0.587750  1.0  0.7185
  C  C35  1  0.105900  0.182100  0.676940  1.0  -0.1412
  C  C36  1  0.855400  0.240900  0.588700  1.0  0.6805
  C  C37  1  0.926400  0.136700  0.620470  1.0  -0.0956
  C  C38  1  0.811100  0.993800  0.592940  1.0  -0.0051
  C  C39  1  0.484400  0.227600  0.718820  1.0  -0.1139
  C  C40  1  0.424500  0.013700  0.765520  1.0  -0.1321
  C  C41  1  0.532400  0.392200  0.783340  1.0  0.7684
  C  C42  1  0.350900  0.952300  0.849590  1.0  0.7804
  N  N43  1  0.639400  0.866340  0.237340  1.0  -0.1235
  N  N44  1  0.360600  0.133660  0.762660  1.0  -0.1205
  O  O45  1  0.502700  0.555290  0.119400  1.0  -0.6925
  O  O46  1  0.173200  0.340550  0.380650  1.0  -0.6131
  O  O47  1  0.053300  0.622370  0.366840  1.0  -0.6522
  O  O48  1  0.295800  0.808000  0.477570  1.0  -0.5918
  O  O49  1  0.695700  0.967110  0.067760  1.0  -0.6106
  O  O50  1  0.385600  0.531600  0.265700  1.0  -0.6236
  O  O51  1  0.393100  0.302100  0.472200  1.0  -0.6731
  O  O52  1  0.654200  0.177070  0.168790  1.0  -0.5414
  O  O53  1  0.497300  0.444710  0.880600  1.0  -0.6926
  O  O54  1  0.826800  0.659450  0.619350  1.0  -0.6134
  O  O55  1  0.946700  0.377630  0.633160  1.0  -0.6481
  O  O56  1  0.704200  0.192000  0.522430  1.0  -0.5923
  O  O57  1  0.304300  0.032890  0.932240  1.0  -0.611
  O  O58  1  0.614400  0.468400  0.734300  1.0  -0.6266
  O  O59  1  0.606900  0.697900  0.527800  1.0  -0.673
  O  O60  1  0.345800  0.822930  0.831210  1.0  -0.5398
