# generated using pymatgen
data_MgCdH5C10O11
_symmetry_space_group_name_H-M   'P 1'
_cell_length_a   17.61670000
_cell_length_b   9.19460000
_cell_length_c   10.70050000
_cell_angle_alpha   90.00000000
_cell_angle_beta   90.00000000
_cell_angle_gamma   90.00000000
_symmetry_Int_Tables_number   1
_chemical_formula_structural   MgCdH5C10O11
_chemical_formula_sum   'Mg4 Cd4 H20 C40 O44'
_cell_volume   1733.25104433
_cell_formula_units_Z   4
loop_
 _symmetry_equiv_pos_site_id
 _symmetry_equiv_pos_as_xyz
  1  'x, y, z'
loop_
 _atom_site_type_symbol
 _atom_site_label
 _atom_site_symmetry_multiplicity
 _atom_site_fract_x
 _atom_site_fract_y
 _atom_site_fract_z
 _atom_site_occupancy
 _atom_site_charge
  Mg  Mg1  1  0.470990  0.626700  0.707230  1.0  1.5934
  Mg  Mg2  1  0.529010  0.373300  0.207230  1.0  1.5912
  Mg  Mg3  1  0.970990  0.873300  0.707230  1.0  1.5926
  Mg  Mg4  1  0.029010  0.126700  0.207230  1.0  1.5918
  Cd  Cd5  1  0.501040  0.786150  0.239000  1.0  1.11
  Cd  Cd6  1  0.498960  0.213850  0.739000  1.0  1.1106
  Cd  Cd7  1  0.001040  0.713850  0.239000  1.0  1.1105
  Cd  Cd8  1  0.998960  0.286150  0.739000  1.0  1.1101
  H  H9  1  0.746700  0.680700  0.332300  1.0  0.1305
  H  H10  1  0.734400  0.311400  0.621700  1.0  0.1342
  H  H11  1  0.549700  0.785400  0.574700  1.0  0.4059
  H  H12  1  0.438300  0.495600  0.513300  1.0  0.4238
  H  H13  1  0.572600  0.688900  0.857300  1.0  0.4855
  H  H14  1  0.253300  0.319300  0.832300  1.0  0.1303
  H  H15  1  0.265600  0.688600  0.121700  1.0  0.1344
  H  H16  1  0.450300  0.214600  0.074700  1.0  0.4064
  H  H17  1  0.561700  0.504400  0.013300  1.0  0.4246
  H  H18  1  0.427400  0.311100  0.357300  1.0  0.4879
  H  H19  1  0.246700  0.819300  0.332300  1.0  0.1302
  H  H20  1  0.234400  0.188600  0.621700  1.0  0.1345
  H  H21  1  0.049700  0.714600  0.574700  1.0  0.4054
  H  H22  1  0.938300  0.004400  0.513300  1.0  0.4236
  H  H23  1  0.072600  0.811100  0.857300  1.0  0.4855
  H  H24  1  0.753300  0.180700  0.832300  1.0  0.1305
  H  H25  1  0.765600  0.811400  0.121700  1.0  0.1341
  H  H26  1  0.950300  0.285400  0.074700  1.0  0.4073
  H  H27  1  0.061700  0.995600  0.013300  1.0  0.4245
  H  H28  1  0.927400  0.188900  0.357300  1.0  0.4881
  C  C29  1  0.674700  0.559700  0.433300  1.0  -0.0603
  C  C30  1  0.808400  0.436700  0.526000  1.0  -0.0393
  C  C31  1  0.876300  0.366900  0.586000  1.0  0.7382
  C  C32  1  0.670700  0.452100  0.522800  1.0  -0.0527
  C  C33  1  0.744700  0.607300  0.392000  1.0  -0.0065
  C  C34  1  0.812500  0.548600  0.437300  1.0  -0.0531
  C  C35  1  0.737300  0.388300  0.565400  1.0  -0.0398
  C  C36  1  0.885000  0.603300  0.379900  1.0  0.7317
  C  C37  1  0.596500  0.412500  0.586100  1.0  0.7095
  C  C38  1  0.604600  0.629100  0.376700  1.0  0.7018
  C  C39  1  0.325300  0.440300  0.933300  1.0  -0.0602
  C  C40  1  0.191600  0.563300  0.026000  1.0  -0.0392
  C  C41  1  0.123700  0.633100  0.086000  1.0  0.7375
  C  C42  1  0.329300  0.547900  0.022800  1.0  -0.0529
  C  C43  1  0.255300  0.392700  0.892000  1.0  -0.0053
  C  C44  1  0.187500  0.451400  0.937300  1.0  -0.0532
  C  C45  1  0.262700  0.611700  0.065400  1.0  -0.0402
  C  C46  1  0.115000  0.396700  0.879900  1.0  0.7315
  C  C47  1  0.403500  0.587500  0.086100  1.0  0.7099
  C  C48  1  0.395400  0.370900  0.876700  1.0  0.7027
  C  C49  1  0.174700  0.940300  0.433300  1.0  -0.0605
  C  C50  1  0.308400  0.063300  0.526000  1.0  -0.0393
  C  C51  1  0.376300  0.133100  0.586000  1.0  0.7386
  C  C52  1  0.170700  0.047900  0.522800  1.0  -0.0524
  C  C53  1  0.244700  0.892700  0.392000  1.0  -0.0055
  C  C54  1  0.312500  0.951400  0.437300  1.0  -0.0528
  C  C55  1  0.237300  0.111700  0.565400  1.0  -0.0399
  C  C56  1  0.385000  0.896700  0.379900  1.0  0.7315
  C  C57  1  0.096500  0.087500  0.586100  1.0  0.709
  C  C58  1  0.104600  0.870900  0.376700  1.0  0.7013
  C  C59  1  0.825300  0.059700  0.933300  1.0  -0.06
  C  C60  1  0.691600  0.936700  0.026000  1.0  -0.0391
  C  C61  1  0.623700  0.866900  0.086000  1.0  0.7372
  C  C62  1  0.829300  0.952100  0.022800  1.0  -0.0526
  C  C63  1  0.755300  0.107300  0.892000  1.0  -0.0062
  C  C64  1  0.687500  0.048600  0.937300  1.0  -0.0533
  C  C65  1  0.762700  0.888300  0.065400  1.0  -0.0402
  C  C66  1  0.615000  0.103300  0.879900  1.0  0.7315
  C  C67  1  0.903500  0.912500  0.086100  1.0  0.7099
  C  C68  1  0.895400  0.129100  0.876700  1.0  0.7033
  O  O69  1  0.930500  0.447600  0.622200  1.0  -0.5726
  O  O70  1  0.934400  0.515300  0.342200  1.0  -0.5845
  O  O71  1  0.875600  0.233900  0.604400  1.0  -0.5917
  O  O72  1  0.564500  0.513700  0.640300  1.0  -0.6053
  O  O73  1  0.891600  0.738400  0.362800  1.0  -0.5881
  O  O74  1  0.508300  0.803900  0.606000  1.0  -0.7041
  O  O75  1  0.597100  0.764400  0.386200  1.0  -0.5768
  O  O76  1  0.575000  0.283800  0.582700  1.0  -0.558
  O  O77  1  0.556400  0.551100  0.319200  1.0  -0.7168
  O  O78  1  0.411000  0.549700  0.554500  1.0  -0.678
  O  O79  1  0.528900  0.719600  0.855900  1.0  -0.7387
  O  O80  1  0.069500  0.552400  0.122200  1.0  -0.572
  O  O81  1  0.065600  0.484700  0.842200  1.0  -0.5841
  O  O82  1  0.124400  0.766100  0.104400  1.0  -0.5922
  O  O83  1  0.435500  0.486300  0.140300  1.0  -0.6046
  O  O84  1  0.108400  0.261600  0.862800  1.0  -0.5877
  O  O85  1  0.491700  0.196100  0.106000  1.0  -0.7033
  O  O86  1  0.402900  0.235600  0.886200  1.0  -0.5781
  O  O87  1  0.425000  0.716200  0.082700  1.0  -0.5594
  O  O88  1  0.443600  0.448900  0.819200  1.0  -0.7175
  O  O89  1  0.589000  0.450300  0.054500  1.0  -0.6787
  O  O90  1  0.471100  0.280400  0.355900  1.0  -0.7393
  O  O91  1  0.430500  0.052400  0.622200  1.0  -0.5721
  O  O92  1  0.434400  0.984700  0.342200  1.0  -0.5832
  O  O93  1  0.375600  0.266100  0.604400  1.0  -0.5927
  O  O94  1  0.064500  0.986300  0.640300  1.0  -0.6047
  O  O95  1  0.391600  0.761600  0.362800  1.0  -0.587
  O  O96  1  0.008300  0.696100  0.606000  1.0  -0.7042
  O  O97  1  0.097100  0.735600  0.386200  1.0  -0.5781
  O  O98  1  0.075000  0.216200  0.582700  1.0  -0.5572
  O  O99  1  0.056400  0.948900  0.319200  1.0  -0.716
  O  O100  1  0.911000  0.950300  0.554500  1.0  -0.6786
  O  O101  1  0.028900  0.780400  0.855900  1.0  -0.7395
  O  O102  1  0.569500  0.947600  0.122200  1.0  -0.5725
  O  O103  1  0.565600  0.015300  0.842200  1.0  -0.5843
  O  O104  1  0.624400  0.733900  0.104400  1.0  -0.5917
  O  O105  1  0.935500  0.013700  0.140300  1.0  -0.6054
  O  O106  1  0.608400  0.238400  0.862800  1.0  -0.5869
  O  O107  1  0.991700  0.303900  0.106000  1.0  -0.7028
  O  O108  1  0.902900  0.264400  0.886200  1.0  -0.5772
  O  O109  1  0.925000  0.783800  0.082700  1.0  -0.5594
  O  O110  1  0.943600  0.051100  0.819200  1.0  -0.7177
  O  O111  1  0.089000  0.049700  0.054500  1.0  -0.6768
  O  O112  1  0.971100  0.219600  0.355900  1.0  -0.7383
