# generated using pymatgen
data_Zn2H16C45(NO6)3
_symmetry_space_group_name_H-M   'P 1'
_cell_length_a   38.59600000
_cell_length_b   15.27900000
_cell_length_c   23.60000000
_cell_angle_alpha   90.00000000
_cell_angle_beta   101.29000000
_cell_angle_gamma   90.00000000
_symmetry_Int_Tables_number   1
_chemical_formula_structural   Zn2H16C45(NO6)3
_chemical_formula_sum   'Zn16 H128 C360 N24 O144'
_cell_volume   13647.80321066
_cell_formula_units_Z   8
loop_
 _symmetry_equiv_pos_site_id
 _symmetry_equiv_pos_as_xyz
  1  'x, y, z'
loop_
 _atom_site_type_symbol
 _atom_site_label
 _atom_site_symmetry_multiplicity
 _atom_site_fract_x
 _atom_site_fract_y
 _atom_site_fract_z
 _atom_site_occupancy
 _atom_site_charge
  Zn  Zn1  1  0.256030  0.879020  0.371740  1.0  1.1085
  Zn  Zn2  1  0.186820  0.996160  0.304680  1.0  1.1097
  Zn  Zn3  1  0.756030  0.379020  0.371740  1.0  1.1085
  Zn  Zn4  1  0.686820  0.496160  0.304680  1.0  1.1097
  Zn  Zn5  1  0.743970  0.879020  0.128260  1.0  1.1076
  Zn  Zn6  1  0.813180  0.996160  0.195320  1.0  1.1107
  Zn  Zn7  1  0.243970  0.379020  0.128260  1.0  1.1076
  Zn  Zn8  1  0.313180  0.496160  0.195320  1.0  1.1107
  Zn  Zn9  1  0.743970  0.120980  0.628260  1.0  1.1076
  Zn  Zn10  1  0.813180  0.003840  0.695320  1.0  1.1101
  Zn  Zn11  1  0.243970  0.620980  0.628260  1.0  1.1076
  Zn  Zn12  1  0.313180  0.503840  0.695320  1.0  1.1101
  Zn  Zn13  1  0.256030  0.120980  0.871740  1.0  1.1085
  Zn  Zn14  1  0.186820  0.003840  0.804680  1.0  1.1092
  Zn  Zn15  1  0.756030  0.620980  0.871740  1.0  1.1085
  Zn  Zn16  1  0.686820  0.503840  0.804680  1.0  1.1092
  H  H17  1  0.246300  0.689100  0.236000  1.0  0.1149
  H  H18  1  0.179300  0.607800  0.095200  1.0  0.1265
  H  H19  1  0.159800  0.828400  0.171700  1.0  0.1314
  H  H20  1  0.129700  0.894700  0.950100  1.0  0.1298
  H  H21  1  0.079100  0.925100  0.879700  1.0  0.114
  H  H22  1  0.989600  0.661400  0.007800  1.0  0.1259
  H  H23  1  0.039800  0.636300  0.077600  1.0  0.1125
  H  H24  1  0.977500  0.718100  0.779800  1.0  0.1266
  H  H25  1  0.885500  0.811000  0.693400  1.0  0.1119
  H  H26  1  0.929800  0.915200  0.844900  1.0  0.1251
  H  H27  1  0.124100  0.943800  0.428400  1.0  0.1329
  H  H28  1  0.120300  0.796000  0.566700  1.0  0.1243
  H  H29  1  0.205600  0.790800  0.494600  1.0  0.1144
  H  H30  1  0.993300  0.846600  0.393300  1.0  0.1271
  H  H31  1  0.062200  0.087800  0.605800  1.0  0.1048
  H  H32  1  0.906900  0.650900  0.619100  1.0  0.3849
  H  H33  1  0.746300  0.189100  0.236000  1.0  0.1149
  H  H34  1  0.679300  0.107800  0.095200  1.0  0.1265
  H  H35  1  0.659800  0.328400  0.171700  1.0  0.1314
  H  H36  1  0.629700  0.394700  0.950100  1.0  0.1298
  H  H37  1  0.579100  0.425100  0.879700  1.0  0.114
  H  H38  1  0.489600  0.161400  0.007800  1.0  0.1259
  H  H39  1  0.539800  0.136300  0.077600  1.0  0.1125
  H  H40  1  0.477500  0.218100  0.779800  1.0  0.1266
  H  H41  1  0.385500  0.311000  0.693400  1.0  0.1119
  H  H42  1  0.429800  0.415200  0.844900  1.0  0.1251
  H  H43  1  0.624100  0.443800  0.428400  1.0  0.1329
  H  H44  1  0.620300  0.296000  0.566700  1.0  0.1243
  H  H45  1  0.705600  0.290800  0.494600  1.0  0.1144
  H  H46  1  0.493300  0.346600  0.393300  1.0  0.1271
  H  H47  1  0.562200  0.587800  0.605800  1.0  0.1048
  H  H48  1  0.406900  0.150900  0.619100  1.0  0.3849
  H  H49  1  0.753700  0.689100  0.264000  1.0  0.1147
  H  H50  1  0.820700  0.607800  0.404800  1.0  0.1271
  H  H51  1  0.840200  0.828400  0.328300  1.0  0.131
  H  H52  1  0.870300  0.894700  0.549900  1.0  0.1297
  H  H53  1  0.920900  0.925100  0.620300  1.0  0.1131
  H  H54  1  0.010400  0.661400  0.492200  1.0  0.1267
  H  H55  1  0.960200  0.636300  0.422400  1.0  0.1117
  H  H56  1  0.022500  0.718100  0.720200  1.0  0.1262
  H  H57  1  0.114500  0.811000  0.806600  1.0  0.1124
  H  H58  1  0.070200  0.915200  0.655100  1.0  0.1262
  H  H59  1  0.875900  0.943800  0.071600  1.0  0.1328
  H  H60  1  0.879700  0.796000  0.933300  1.0  0.1245
  H  H61  1  0.794400  0.790800  0.005400  1.0  0.1145
  H  H62  1  0.006700  0.846600  0.106700  1.0  0.1276
  H  H63  1  0.937800  0.087800  0.894200  1.0  0.1045
  H  H64  1  0.093100  0.650900  0.880900  1.0  0.3821
  H  H65  1  0.253700  0.189100  0.264000  1.0  0.1147
  H  H66  1  0.320700  0.107800  0.404800  1.0  0.1271
  H  H67  1  0.340200  0.328400  0.328300  1.0  0.131
  H  H68  1  0.370300  0.394700  0.549900  1.0  0.1297
  H  H69  1  0.420900  0.425100  0.620300  1.0  0.1131
  H  H70  1  0.510400  0.161400  0.492200  1.0  0.1267
  H  H71  1  0.460200  0.136300  0.422400  1.0  0.1117
  H  H72  1  0.522500  0.218100  0.720200  1.0  0.1262
  H  H73  1  0.614500  0.311000  0.806600  1.0  0.1124
  H  H74  1  0.570200  0.415200  0.655100  1.0  0.1262
  H  H75  1  0.375900  0.443800  0.071600  1.0  0.1328
  H  H76  1  0.379700  0.296000  0.933300  1.0  0.1245
  H  H77  1  0.294400  0.290800  0.005400  1.0  0.1145
  H  H78  1  0.506700  0.346600  0.106700  1.0  0.1276
  H  H79  1  0.437800  0.587800  0.894200  1.0  0.1045
  H  H80  1  0.593100  0.150900  0.880900  1.0  0.3821
  H  H81  1  0.753700  0.310900  0.764000  1.0  0.1146
  H  H82  1  0.820700  0.392200  0.904800  1.0  0.1266
  H  H83  1  0.840200  0.171600  0.828300  1.0  0.1305
  H  H84  1  0.870300  0.105300  0.049900  1.0  0.1303
  H  H85  1  0.920900  0.074900  0.120300  1.0  0.1126
  H  H86  1  0.010400  0.338600  0.992200  1.0  0.1271
  H  H87  1  0.960200  0.363700  0.922400  1.0  0.1122
  H  H88  1  0.022500  0.281900  0.220200  1.0  0.1264
  H  H89  1  0.114500  0.189000  0.306600  1.0  0.112
  H  H90  1  0.070200  0.084800  0.155100  1.0  0.1262
  H  H91  1  0.875900  0.056200  0.571600  1.0  0.133
  H  H92  1  0.879700  0.204000  0.433300  1.0  0.1243
  H  H93  1  0.794400  0.209200  0.505400  1.0  0.1144
  H  H94  1  0.006700  0.153400  0.606700  1.0  0.1276
  H  H95  1  0.937800  0.912200  0.394200  1.0  0.1042
  H  H96  1  0.093100  0.349100  0.380900  1.0  0.3818
  H  H97  1  0.253700  0.810900  0.764000  1.0  0.1146
  H  H98  1  0.320700  0.892200  0.904800  1.0  0.1266
  H  H99  1  0.340200  0.671600  0.828300  1.0  0.1305
  H  H100  1  0.370300  0.605300  0.049900  1.0  0.1303
  H  H101  1  0.420900  0.574900  0.120300  1.0  0.1126
  H  H102  1  0.510400  0.838600  0.992200  1.0  0.1271
  H  H103  1  0.460200  0.863700  0.922400  1.0  0.1122
  H  H104  1  0.522500  0.781900  0.220200  1.0  0.1264
  H  H105  1  0.614500  0.689000  0.306600  1.0  0.112
  H  H106  1  0.570200  0.584800  0.155100  1.0  0.1262
  H  H107  1  0.375900  0.556200  0.571600  1.0  0.133
  H  H108  1  0.379700  0.704000  0.433300  1.0  0.1243
  H  H109  1  0.294400  0.709200  0.505400  1.0  0.1144
  H  H110  1  0.506700  0.653400  0.606700  1.0  0.1276
  H  H111  1  0.437800  0.412200  0.394200  1.0  0.1042
  H  H112  1  0.593100  0.849100  0.380900  1.0  0.3818
  H  H113  1  0.246300  0.310900  0.736000  1.0  0.1146
  H  H114  1  0.179300  0.392200  0.595200  1.0  0.1263
  H  H115  1  0.159800  0.171600  0.671700  1.0  0.1309
  H  H116  1  0.129700  0.105300  0.450100  1.0  0.1301
  H  H117  1  0.079100  0.074900  0.379700  1.0  0.1133
  H  H118  1  0.989600  0.338600  0.507800  1.0  0.1266
  H  H119  1  0.039800  0.363700  0.577600  1.0  0.1123
  H  H120  1  0.977500  0.281900  0.279800  1.0  0.1264
  H  H121  1  0.885500  0.189000  0.193400  1.0  0.1122
  H  H122  1  0.929800  0.084800  0.344900  1.0  0.1255
  H  H123  1  0.124100  0.056200  0.928400  1.0  0.1332
  H  H124  1  0.120300  0.204000  0.066700  1.0  0.1246
  H  H125  1  0.205600  0.209200  0.994600  1.0  0.1147
  H  H126  1  0.993300  0.153400  0.893300  1.0  0.1274
  H  H127  1  0.062200  0.912200  0.105800  1.0  0.1053
  H  H128  1  0.906900  0.349100  0.119100  1.0  0.3861
  H  H129  1  0.746300  0.810900  0.736000  1.0  0.1146
  H  H130  1  0.679300  0.892200  0.595200  1.0  0.1263
  H  H131  1  0.659800  0.671600  0.671700  1.0  0.1309
  H  H132  1  0.629700  0.605300  0.450100  1.0  0.1301
  H  H133  1  0.579100  0.574900  0.379700  1.0  0.1133
  H  H134  1  0.489600  0.838600  0.507800  1.0  0.1266
  H  H135  1  0.539800  0.863700  0.577600  1.0  0.1123
  H  H136  1  0.477500  0.781900  0.279800  1.0  0.1264
  H  H137  1  0.385500  0.689000  0.193400  1.0  0.1122
  H  H138  1  0.429800  0.584800  0.344900  1.0  0.1255
  H  H139  1  0.624100  0.556200  0.928400  1.0  0.1332
  H  H140  1  0.620300  0.704000  0.066700  1.0  0.1246
  H  H141  1  0.705600  0.709200  0.994600  1.0  0.1147
  H  H142  1  0.493300  0.653400  0.893300  1.0  0.1274
  H  H143  1  0.562200  0.412200  0.105800  1.0  0.1053
  H  H144  1  0.406900  0.849100  0.119100  1.0  0.3861
  C  C145  1  0.204550  0.768100  0.212200  1.0  -0.1508
  C  C146  1  0.225640  0.696700  0.208700  1.0  0.0153
  C  C147  1  0.216460  0.636200  0.165000  1.0  -0.1366
  C  C148  1  0.186060  0.648500  0.124600  1.0  -0.0913
  C  C149  1  0.165900  0.720300  0.127700  1.0  0.2731
  C  C150  1  0.174200  0.780000  0.170400  1.0  -0.0718
  C  C151  1  0.213910  0.832800  0.260500  1.0  0.7416
  C  C152  1  0.238340  0.556500  0.163000  1.0  0.7295
  C  C153  1  0.137570  0.790900  0.038100  1.0  0.4737
  C  C154  1  0.106140  0.810200  0.994400  1.0  -0.1078
  C  C155  1  0.108380  0.867600  0.951700  1.0  -0.0783
  C  C156  1  0.077700  0.886000  0.909400  1.0  -0.0405
  C  C157  1  0.046160  0.846300  0.911900  1.0  -0.1006
  C  C158  1  0.015180  0.861100  0.867000  1.0  0.544
  C  C159  1  0.980930  0.760900  0.915800  1.0  0.5653
  C  C160  1  0.012060  0.745000  0.960700  1.0  -0.0801
  C  C161  1  0.010650  0.689100  0.005200  1.0  -0.0636
  C  C162  1  0.041100  0.673600  0.047000  1.0  -0.0692
  C  C163  1  0.072190  0.711200  0.044100  1.0  -0.0867
  C  C164  1  0.103510  0.689500  0.088400  1.0  0.4984
  C  C165  1  0.074850  0.769400  0.000000  1.0  0.009
  C  C166  1  0.043970  0.787800  0.957300  1.0  0.0084
  C  C167  1  0.956170  0.814500  0.819900  1.0  0.1961
  C  C168  1  0.958280  0.755700  0.776600  1.0  -0.2166
  C  C169  1  0.931620  0.753200  0.728700  1.0  -0.1497
  C  C170  1  0.903890  0.812300  0.725400  1.0  -0.014
  C  C171  1  0.903100  0.871800  0.767800  1.0  -0.1261
  C  C172  1  0.929830  0.874000  0.815900  1.0  -0.1316
  C  C173  1  0.933200  0.691100  0.681500  1.0  0.6528
  C  C174  1  0.873300  0.938500  0.760600  1.0  0.719
  C  C175  1  0.167670  0.869600  0.454000  1.0  -0.1394
  C  C176  1  0.134540  0.902500  0.455400  1.0  -0.136
  C  C177  1  0.117240  0.873000  0.497700  1.0  0.2295
  C  C178  1  0.132390  0.814300  0.538400  1.0  -0.1284
  C  C179  1  0.165720  0.781700  0.537800  1.0  -0.1966
  C  C180  1  0.183010  0.811300  0.495100  1.0  0.0262
  C  C181  1  0.186680  0.901400  0.408600  1.0  0.7616
  C  C182  1  0.183160  0.719500  0.581800  1.0  0.6961
  C  C183  1  0.054000  0.876300  0.459700  1.0  0.4726
  C  C184  1  0.019980  0.916800  0.459300  1.0  -0.0778
  C  C185  1  0.991180  0.889700  0.420200  1.0  -0.0575
  C  C186  1  0.042460  0.071000  0.578600  1.0  -0.038
  C  C187  1  0.045780  0.010600  0.539000  1.0  -0.0837
  C  C188  1  0.081360  0.973600  0.538600  1.0  0.5597
  C  C189  1  0.016510  0.981200  0.499000  1.0  0.0498
  C  C190  1  0.704550  0.268100  0.212200  1.0  -0.1508
  C  C191  1  0.725640  0.196700  0.208700  1.0  0.0153
  C  C192  1  0.716460  0.136200  0.165000  1.0  -0.1366
  C  C193  1  0.686060  0.148500  0.124600  1.0  -0.0913
  C  C194  1  0.665900  0.220300  0.127700  1.0  0.2731
  C  C195  1  0.674200  0.280000  0.170400  1.0  -0.0718
  C  C196  1  0.713910  0.332800  0.260500  1.0  0.7416
  C  C197  1  0.738340  0.056500  0.163000  1.0  0.7295
  C  C198  1  0.637570  0.290900  0.038100  1.0  0.4737
  C  C199  1  0.606140  0.310200  0.994400  1.0  -0.1078
  C  C200  1  0.608380  0.367600  0.951700  1.0  -0.0783
  C  C201  1  0.577700  0.386000  0.909400  1.0  -0.0405
  C  C202  1  0.546160  0.346300  0.911900  1.0  -0.1006
  C  C203  1  0.515180  0.361100  0.867000  1.0  0.544
  C  C204  1  0.480930  0.260900  0.915800  1.0  0.5653
  C  C205  1  0.512060  0.245000  0.960700  1.0  -0.0801
  C  C206  1  0.510650  0.189100  0.005200  1.0  -0.0636
  C  C207  1  0.541100  0.173600  0.047000  1.0  -0.0692
  C  C208  1  0.572190  0.211200  0.044100  1.0  -0.0867
  C  C209  1  0.603510  0.189500  0.088400  1.0  0.4984
  C  C210  1  0.574850  0.269400  0.000000  1.0  0.009
  C  C211  1  0.543970  0.287800  0.957300  1.0  0.0084
  C  C212  1  0.456170  0.314500  0.819900  1.0  0.1961
  C  C213  1  0.458280  0.255700  0.776600  1.0  -0.2166
  C  C214  1  0.431620  0.253200  0.728700  1.0  -0.1497
  C  C215  1  0.403890  0.312300  0.725400  1.0  -0.014
  C  C216  1  0.403100  0.371800  0.767800  1.0  -0.1261
  C  C217  1  0.429830  0.374000  0.815900  1.0  -0.1316
  C  C218  1  0.433200  0.191100  0.681500  1.0  0.6528
  C  C219  1  0.373300  0.438500  0.760600  1.0  0.719
  C  C220  1  0.667670  0.369600  0.454000  1.0  -0.1394
  C  C221  1  0.634540  0.402500  0.455400  1.0  -0.136
  C  C222  1  0.617240  0.373000  0.497700  1.0  0.2295
  C  C223  1  0.632390  0.314300  0.538400  1.0  -0.1284
  C  C224  1  0.665720  0.281700  0.537800  1.0  -0.1966
  C  C225  1  0.683010  0.311300  0.495100  1.0  0.0262
  C  C226  1  0.686680  0.401400  0.408600  1.0  0.7616
  C  C227  1  0.683160  0.219500  0.581800  1.0  0.6961
  C  C228  1  0.554000  0.376300  0.459700  1.0  0.4726
  C  C229  1  0.519980  0.416800  0.459300  1.0  -0.0778
  C  C230  1  0.491180  0.389700  0.420200  1.0  -0.0575
  C  C231  1  0.542460  0.571000  0.578600  1.0  -0.038
  C  C232  1  0.545780  0.510600  0.539000  1.0  -0.0837
  C  C233  1  0.581360  0.473600  0.538600  1.0  0.5597
  C  C234  1  0.516510  0.481200  0.499000  1.0  0.0498
  C  C235  1  0.795450  0.768100  0.287800  1.0  -0.1492
  C  C236  1  0.774360  0.696700  0.291300  1.0  0.0153
  C  C237  1  0.783540  0.636200  0.335000  1.0  -0.1369
  C  C238  1  0.813940  0.648500  0.375400  1.0  -0.0904
  C  C239  1  0.834100  0.720300  0.372300  1.0  0.2739
  C  C240  1  0.825800  0.780000  0.329600  1.0  -0.0704
  C  C241  1  0.786090  0.832800  0.239500  1.0  0.7416
  C  C242  1  0.761660  0.556500  0.337000  1.0  0.7303
  C  C243  1  0.862430  0.790900  0.461900  1.0  0.4738
  C  C244  1  0.893860  0.810200  0.505600  1.0  -0.1079
  C  C245  1  0.891620  0.867600  0.548300  1.0  -0.0786
  C  C246  1  0.922300  0.886000  0.590600  1.0  -0.0407
  C  C247  1  0.953840  0.846300  0.588100  1.0  -0.1001
  C  C248  1  0.984820  0.861100  0.633000  1.0  0.5423
  C  C249  1  0.019070  0.760900  0.584200  1.0  0.5657
  C  C250  1  0.987940  0.745000  0.539300  1.0  -0.0808
  C  C251  1  0.989350  0.689100  0.494800  1.0  -0.0651
  C  C252  1  0.958900  0.673600  0.453000  1.0  -0.0695
  C  C253  1  0.927810  0.711200  0.455900  1.0  -0.0868
  C  C254  1  0.896490  0.689500  0.411600  1.0  0.4969
  C  C255  1  0.925150  0.769400  0.500000  1.0  0.0086
  C  C256  1  0.956030  0.787800  0.542700  1.0  0.0084
  C  C257  1  0.043830  0.814500  0.680100  1.0  0.1962
  C  C258  1  0.041720  0.755700  0.723400  1.0  -0.2158
  C  C259  1  0.068380  0.753200  0.771300  1.0  -0.149
  C  C260  1  0.096110  0.812300  0.774600  1.0  -0.0153
  C  C261  1  0.096900  0.871800  0.732200  1.0  -0.1264
  C  C262  1  0.070170  0.874000  0.684100  1.0  -0.1321
  C  C263  1  0.066800  0.691100  0.818500  1.0  0.6525
  C  C264  1  0.126700  0.938500  0.739400  1.0  0.719
  C  C265  1  0.832330  0.869600  0.046000  1.0  -0.1408
  C  C266  1  0.865460  0.902500  0.044600  1.0  -0.1359
  C  C267  1  0.882760  0.873000  0.002300  1.0  0.229
  C  C268  1  0.867610  0.814300  0.961600  1.0  -0.1264
  C  C269  1  0.834280  0.781700  0.962200  1.0  -0.1957
  C  C270  1  0.816990  0.811300  0.004900  1.0  0.0261
  C  C271  1  0.813320  0.901400  0.091400  1.0  0.7619
  C  C272  1  0.816840  0.719500  0.918200  1.0  0.6952
  C  C273  1  0.946000  0.876300  0.040300  1.0  0.4742
  C  C274  1  0.980020  0.916800  0.040700  1.0  -0.0787
  C  C275  1  0.008820  0.889700  0.079800  1.0  -0.0583
  C  C276  1  0.957540  0.071000  0.921400  1.0  -0.037
  C  C277  1  0.954220  0.010600  0.961000  1.0  -0.0836
  C  C278  1  0.918640  0.973600  0.961400  1.0  0.5623
  C  C279  1  0.983490  0.981200  0.001000  1.0  0.0494
  C  C280  1  0.295450  0.268100  0.287800  1.0  -0.1492
  C  C281  1  0.274360  0.196700  0.291300  1.0  0.0153
  C  C282  1  0.283540  0.136200  0.335000  1.0  -0.1369
  C  C283  1  0.313940  0.148500  0.375400  1.0  -0.0904
  C  C284  1  0.334100  0.220300  0.372300  1.0  0.2739
  C  C285  1  0.325800  0.280000  0.329600  1.0  -0.0704
  C  C286  1  0.286090  0.332800  0.239500  1.0  0.7416
  C  C287  1  0.261660  0.056500  0.337000  1.0  0.7303
  C  C288  1  0.362430  0.290900  0.461900  1.0  0.4738
  C  C289  1  0.393860  0.310200  0.505600  1.0  -0.1079
  C  C290  1  0.391620  0.367600  0.548300  1.0  -0.0786
  C  C291  1  0.422300  0.386000  0.590600  1.0  -0.0407
  C  C292  1  0.453840  0.346300  0.588100  1.0  -0.1001
  C  C293  1  0.484820  0.361100  0.633000  1.0  0.5423
  C  C294  1  0.519070  0.260900  0.584200  1.0  0.5657
  C  C295  1  0.487940  0.245000  0.539300  1.0  -0.0808
  C  C296  1  0.489350  0.189100  0.494800  1.0  -0.0651
  C  C297  1  0.458900  0.173600  0.453000  1.0  -0.0695
  C  C298  1  0.427810  0.211200  0.455900  1.0  -0.0868
  C  C299  1  0.396490  0.189500  0.411600  1.0  0.4969
  C  C300  1  0.425150  0.269400  0.500000  1.0  0.0086
  C  C301  1  0.456030  0.287800  0.542700  1.0  0.0084
  C  C302  1  0.543830  0.314500  0.680100  1.0  0.1962
  C  C303  1  0.541720  0.255700  0.723400  1.0  -0.2158
  C  C304  1  0.568380  0.253200  0.771300  1.0  -0.149
  C  C305  1  0.596110  0.312300  0.774600  1.0  -0.0153
  C  C306  1  0.596900  0.371800  0.732200  1.0  -0.1264
  C  C307  1  0.570170  0.374000  0.684100  1.0  -0.1321
  C  C308  1  0.566800  0.191100  0.818500  1.0  0.6525
  C  C309  1  0.626700  0.438500  0.739400  1.0  0.719
  C  C310  1  0.332330  0.369600  0.046000  1.0  -0.1408
  C  C311  1  0.365460  0.402500  0.044600  1.0  -0.1359
  C  C312  1  0.382760  0.373000  0.002300  1.0  0.229
  C  C313  1  0.367610  0.314300  0.961600  1.0  -0.1264
  C  C314  1  0.334280  0.281700  0.962200  1.0  -0.1957
  C  C315  1  0.316990  0.311300  0.004900  1.0  0.0261
  C  C316  1  0.313320  0.401400  0.091400  1.0  0.7619
  C  C317  1  0.316840  0.219500  0.918200  1.0  0.6952
  C  C318  1  0.446000  0.376300  0.040300  1.0  0.4742
  C  C319  1  0.480020  0.416800  0.040700  1.0  -0.0787
  C  C320  1  0.508820  0.389700  0.079800  1.0  -0.0583
  C  C321  1  0.457540  0.571000  0.921400  1.0  -0.037
  C  C322  1  0.454220  0.510600  0.961000  1.0  -0.0836
  C  C323  1  0.418640  0.473600  0.961400  1.0  0.5623
  C  C324  1  0.483490  0.481200  0.001000  1.0  0.0494
  C  C325  1  0.795450  0.231900  0.787800  1.0  -0.15
  C  C326  1  0.774360  0.303300  0.791300  1.0  0.0151
  C  C327  1  0.783540  0.363800  0.835000  1.0  -0.1365
  C  C328  1  0.813940  0.351500  0.875400  1.0  -0.0911
  C  C329  1  0.834100  0.279700  0.872300  1.0  0.2732
  C  C330  1  0.825800  0.220000  0.829600  1.0  -0.0709
  C  C331  1  0.786090  0.167200  0.739500  1.0  0.7416
  C  C332  1  0.761660  0.443500  0.837000  1.0  0.73
  C  C333  1  0.862430  0.209100  0.961900  1.0  0.4737
  C  C334  1  0.893860  0.189800  0.005600  1.0  -0.1076
  C  C335  1  0.891620  0.132400  0.048300  1.0  -0.0786
  C  C336  1  0.922300  0.114000  0.090600  1.0  -0.04
  C  C337  1  0.953840  0.153700  0.088100  1.0  -0.1
  C  C338  1  0.984820  0.138900  0.133000  1.0  0.5438
  C  C339  1  0.019070  0.239100  0.084200  1.0  0.567
  C  C340  1  0.987940  0.255000  0.039300  1.0  -0.0782
  C  C341  1  0.989350  0.310900  0.994800  1.0  -0.0641
  C  C342  1  0.958900  0.326400  0.953000  1.0  -0.0645
  C  C343  1  0.927810  0.288800  0.955900  1.0  -0.0856
  C  C344  1  0.896490  0.310500  0.911600  1.0  0.4964
  C  C345  1  0.925150  0.230600  0.000000  1.0  0.0095
  C  C346  1  0.956030  0.212200  0.042700  1.0  0.0089
  C  C347  1  0.043830  0.185500  0.180100  1.0  0.1955
  C  C348  1  0.041720  0.244300  0.223400  1.0  -0.2162
  C  C349  1  0.068380  0.246800  0.271300  1.0  -0.149
  C  C350  1  0.096110  0.187700  0.274600  1.0  -0.015
  C  C351  1  0.096900  0.128200  0.232200  1.0  -0.1258
  C  C352  1  0.070170  0.126000  0.184100  1.0  -0.1317
  C  C353  1  0.066800  0.308900  0.318500  1.0  0.6517
  C  C354  1  0.126700  0.061500  0.239400  1.0  0.719
  C  C355  1  0.832330  0.130400  0.546000  1.0  -0.1407
  C  C356  1  0.865460  0.097500  0.544600  1.0  -0.1362
  C  C357  1  0.882760  0.127000  0.502300  1.0  0.2282
  C  C358  1  0.867610  0.185700  0.461600  1.0  -0.1276
  C  C359  1  0.834280  0.218300  0.462200  1.0  -0.1947
  C  C360  1  0.816990  0.188700  0.504900  1.0  0.0255
  C  C361  1  0.813320  0.098600  0.591400  1.0  0.7617
  C  C362  1  0.816840  0.280500  0.418200  1.0  0.6962
  C  C363  1  0.946000  0.123700  0.540300  1.0  0.4714
  C  C364  1  0.980020  0.083200  0.540700  1.0  -0.0793
  C  C365  1  0.008820  0.110300  0.579800  1.0  -0.0587
  C  C366  1  0.957540  0.929000  0.421400  1.0  -0.0365
  C  C367  1  0.954220  0.989400  0.461000  1.0  -0.0835
  C  C368  1  0.918640  0.026400  0.461400  1.0  0.5617
  C  C369  1  0.983490  0.018800  0.501000  1.0  0.0493
  C  C370  1  0.295450  0.731900  0.787800  1.0  -0.15
  C  C371  1  0.274360  0.803300  0.791300  1.0  0.0151
  C  C372  1  0.283540  0.863800  0.835000  1.0  -0.1365
  C  C373  1  0.313940  0.851500  0.875400  1.0  -0.0911
  C  C374  1  0.334100  0.779700  0.872300  1.0  0.2732
  C  C375  1  0.325800  0.720000  0.829600  1.0  -0.0709
  C  C376  1  0.286090  0.667200  0.739500  1.0  0.7416
  C  C377  1  0.261660  0.943500  0.837000  1.0  0.73
  C  C378  1  0.362430  0.709100  0.961900  1.0  0.4737
  C  C379  1  0.393860  0.689800  0.005600  1.0  -0.1076
  C  C380  1  0.391620  0.632400  0.048300  1.0  -0.0786
  C  C381  1  0.422300  0.614000  0.090600  1.0  -0.04
  C  C382  1  0.453840  0.653700  0.088100  1.0  -0.1
  C  C383  1  0.484820  0.638900  0.133000  1.0  0.5438
  C  C384  1  0.519070  0.739100  0.084200  1.0  0.567
  C  C385  1  0.487940  0.755000  0.039300  1.0  -0.0782
  C  C386  1  0.489350  0.810900  0.994800  1.0  -0.0641
  C  C387  1  0.458900  0.826400  0.953000  1.0  -0.0645
  C  C388  1  0.427810  0.788800  0.955900  1.0  -0.0856
  C  C389  1  0.396490  0.810500  0.911600  1.0  0.4964
  C  C390  1  0.425150  0.730600  0.000000  1.0  0.0095
  C  C391  1  0.456030  0.712200  0.042700  1.0  0.0089
  C  C392  1  0.543830  0.685500  0.180100  1.0  0.1955
  C  C393  1  0.541720  0.744300  0.223400  1.0  -0.2162
  C  C394  1  0.568380  0.746800  0.271300  1.0  -0.149
  C  C395  1  0.596110  0.687700  0.274600  1.0  -0.015
  C  C396  1  0.596900  0.628200  0.232200  1.0  -0.1258
  C  C397  1  0.570170  0.626000  0.184100  1.0  -0.1317
  C  C398  1  0.566800  0.808900  0.318500  1.0  0.6517
  C  C399  1  0.626700  0.561500  0.239400  1.0  0.719
  C  C400  1  0.332330  0.630400  0.546000  1.0  -0.1407
  C  C401  1  0.365460  0.597500  0.544600  1.0  -0.1362
  C  C402  1  0.382760  0.627000  0.502300  1.0  0.2282
  C  C403  1  0.367610  0.685700  0.461600  1.0  -0.1276
  C  C404  1  0.334280  0.718300  0.462200  1.0  -0.1947
  C  C405  1  0.316990  0.688700  0.504900  1.0  0.0255
  C  C406  1  0.313320  0.598600  0.591400  1.0  0.7617
  C  C407  1  0.316840  0.780500  0.418200  1.0  0.6962
  C  C408  1  0.446000  0.623700  0.540300  1.0  0.4714
  C  C409  1  0.480020  0.583200  0.540700  1.0  -0.0793
  C  C410  1  0.508820  0.610300  0.579800  1.0  -0.0587
  C  C411  1  0.457540  0.429000  0.421400  1.0  -0.0365
  C  C412  1  0.454220  0.489400  0.461000  1.0  -0.0835
  C  C413  1  0.418640  0.526400  0.461400  1.0  0.5617
  C  C414  1  0.483490  0.518800  0.501000  1.0  0.0493
  C  C415  1  0.204550  0.231900  0.712200  1.0  -0.1507
  C  C416  1  0.225640  0.303300  0.708700  1.0  0.015
  C  C417  1  0.216460  0.363800  0.665000  1.0  -0.1367
  C  C418  1  0.186060  0.351500  0.624600  1.0  -0.0909
  C  C419  1  0.165900  0.279700  0.627700  1.0  0.2725
  C  C420  1  0.174200  0.220000  0.670400  1.0  -0.0717
  C  C421  1  0.213910  0.167200  0.760500  1.0  0.7416
  C  C422  1  0.238340  0.443500  0.663000  1.0  0.7293
  C  C423  1  0.137570  0.209100  0.538100  1.0  0.4727
  C  C424  1  0.106140  0.189800  0.494400  1.0  -0.1076
  C  C425  1  0.108380  0.132400  0.451700  1.0  -0.0779
  C  C426  1  0.077700  0.114000  0.409400  1.0  -0.0396
  C  C427  1  0.046160  0.153700  0.411900  1.0  -0.1006
  C  C428  1  0.015180  0.138900  0.367000  1.0  0.5446
  C  C429  1  0.980930  0.239100  0.415800  1.0  0.5677
  C  C430  1  0.012060  0.255000  0.460700  1.0  -0.0782
  C  C431  1  0.010650  0.310900  0.505200  1.0  -0.0632
  C  C432  1  0.041100  0.326400  0.547000  1.0  -0.066
  C  C433  1  0.072190  0.288800  0.544100  1.0  -0.0848
  C  C434  1  0.103510  0.310500  0.588400  1.0  0.4957
  C  C435  1  0.074850  0.230600  0.500000  1.0  0.0094
  C  C436  1  0.043970  0.212200  0.457300  1.0  0.0091
  C  C437  1  0.956170  0.185500  0.319900  1.0  0.1955
  C  C438  1  0.958280  0.244300  0.276600  1.0  -0.2152
  C  C439  1  0.931620  0.246800  0.228700  1.0  -0.1489
  C  C440  1  0.903890  0.187700  0.225400  1.0  -0.0147
  C  C441  1  0.903100  0.128200  0.267800  1.0  -0.1269
  C  C442  1  0.929830  0.126000  0.315900  1.0  -0.131
  C  C443  1  0.933200  0.308900  0.181500  1.0  0.6522
  C  C444  1  0.873300  0.061500  0.260600  1.0  0.7192
  C  C445  1  0.167670  0.130400  0.954000  1.0  -0.1393
  C  C446  1  0.134540  0.097500  0.955400  1.0  -0.1361
  C  C447  1  0.117240  0.127000  0.997700  1.0  0.2293
  C  C448  1  0.132390  0.185700  0.038400  1.0  -0.1298
  C  C449  1  0.165720  0.218300  0.037800  1.0  -0.1969
  C  C450  1  0.183010  0.188700  0.995100  1.0  0.0258
  C  C451  1  0.186680  0.098600  0.908600  1.0  0.7613
  C  C452  1  0.183160  0.280500  0.081800  1.0  0.6955
  C  C453  1  0.054000  0.123700  0.959700  1.0  0.4729
  C  C454  1  0.019980  0.083200  0.959300  1.0  -0.0774
  C  C455  1  0.991180  0.110300  0.920200  1.0  -0.0551
  C  C456  1  0.042460  0.929000  0.078600  1.0  -0.0377
  C  C457  1  0.045780  0.989400  0.039000  1.0  -0.0839
  C  C458  1  0.081360  0.026400  0.038600  1.0  0.5593
  C  C459  1  0.016510  0.018800  0.999000  1.0  0.0497
  C  C460  1  0.704550  0.731900  0.712200  1.0  -0.1507
  C  C461  1  0.725640  0.803300  0.708700  1.0  0.015
  C  C462  1  0.716460  0.863800  0.665000  1.0  -0.1367
  C  C463  1  0.686060  0.851500  0.624600  1.0  -0.0909
  C  C464  1  0.665900  0.779700  0.627700  1.0  0.2725
  C  C465  1  0.674200  0.720000  0.670400  1.0  -0.0717
  C  C466  1  0.713910  0.667200  0.760500  1.0  0.7416
  C  C467  1  0.738340  0.943500  0.663000  1.0  0.7293
  C  C468  1  0.637570  0.709100  0.538100  1.0  0.4727
  C  C469  1  0.606140  0.689800  0.494400  1.0  -0.1076
  C  C470  1  0.608380  0.632400  0.451700  1.0  -0.0779
  C  C471  1  0.577700  0.614000  0.409400  1.0  -0.0396
  C  C472  1  0.546160  0.653700  0.411900  1.0  -0.1006
  C  C473  1  0.515180  0.638900  0.367000  1.0  0.5446
  C  C474  1  0.480930  0.739100  0.415800  1.0  0.5677
  C  C475  1  0.512060  0.755000  0.460700  1.0  -0.0782
  C  C476  1  0.510650  0.810900  0.505200  1.0  -0.0632
  C  C477  1  0.541100  0.826400  0.547000  1.0  -0.066
  C  C478  1  0.572190  0.788800  0.544100  1.0  -0.0848
  C  C479  1  0.603510  0.810500  0.588400  1.0  0.4957
  C  C480  1  0.574850  0.730600  0.500000  1.0  0.0094
  C  C481  1  0.543970  0.712200  0.457300  1.0  0.0091
  C  C482  1  0.456170  0.685500  0.319900  1.0  0.1955
  C  C483  1  0.458280  0.744300  0.276600  1.0  -0.2152
  C  C484  1  0.431620  0.746800  0.228700  1.0  -0.1489
  C  C485  1  0.403890  0.687700  0.225400  1.0  -0.0147
  C  C486  1  0.403100  0.628200  0.267800  1.0  -0.1269
  C  C487  1  0.429830  0.626000  0.315900  1.0  -0.131
  C  C488  1  0.433200  0.808900  0.181500  1.0  0.6522
  C  C489  1  0.373300  0.561500  0.260600  1.0  0.7192
  C  C490  1  0.667670  0.630400  0.954000  1.0  -0.1393
  C  C491  1  0.634540  0.597500  0.955400  1.0  -0.1361
  C  C492  1  0.617240  0.627000  0.997700  1.0  0.2293
  C  C493  1  0.632390  0.685700  0.038400  1.0  -0.1298
  C  C494  1  0.665720  0.718300  0.037800  1.0  -0.1969
  C  C495  1  0.683010  0.688700  0.995100  1.0  0.0258
  C  C496  1  0.686680  0.598600  0.908600  1.0  0.7613
  C  C497  1  0.683160  0.780500  0.081800  1.0  0.6955
  C  C498  1  0.554000  0.623700  0.959700  1.0  0.4729
  C  C499  1  0.519980  0.583200  0.959300  1.0  -0.0774
  C  C500  1  0.491180  0.610300  0.920200  1.0  -0.0551
  C  C501  1  0.542460  0.429000  0.078600  1.0  -0.0377
  C  C502  1  0.545780  0.489400  0.039000  1.0  -0.0839
  C  C503  1  0.581360  0.526400  0.038600  1.0  0.5593
  C  C504  1  0.516510  0.518800  0.999000  1.0  0.0497
  N  N505  1  0.134210  0.735500  0.083300  1.0  -0.2181
  N  N506  1  0.984960  0.814300  0.870700  1.0  -0.1901
  N  N507  1  0.082420  0.909200  0.499800  1.0  -0.1904
  N  N508  1  0.634210  0.235500  0.083300  1.0  -0.2181
  N  N509  1  0.484960  0.314300  0.870700  1.0  -0.1901
  N  N510  1  0.582420  0.409200  0.499800  1.0  -0.1904
  N  N511  1  0.865790  0.735500  0.416700  1.0  -0.2182
  N  N512  1  0.015040  0.814300  0.629300  1.0  -0.1905
  N  N513  1  0.917580  0.909200  0.000200  1.0  -0.1908
  N  N514  1  0.365790  0.235500  0.416700  1.0  -0.2182
  N  N515  1  0.515040  0.314300  0.629300  1.0  -0.1905
  N  N516  1  0.417580  0.409200  0.000200  1.0  -0.1908
  N  N517  1  0.865790  0.264500  0.916700  1.0  -0.2184
  N  N518  1  0.015040  0.185700  0.129300  1.0  -0.19
  N  N519  1  0.917580  0.090800  0.500200  1.0  -0.1903
  N  N520  1  0.365790  0.764500  0.916700  1.0  -0.2184
  N  N521  1  0.515040  0.685700  0.129300  1.0  -0.19
  N  N522  1  0.417580  0.590800  0.500200  1.0  -0.1903
  N  N523  1  0.134210  0.264500  0.583300  1.0  -0.2181
  N  N524  1  0.984960  0.185700  0.370700  1.0  -0.1897
  N  N525  1  0.082420  0.090800  0.999800  1.0  -0.1896
  N  N526  1  0.634210  0.764500  0.583300  1.0  -0.2181
  N  N527  1  0.484960  0.685700  0.370700  1.0  -0.1897
  N  N528  1  0.582420  0.590800  0.999800  1.0  -0.1896
  O  O529  1  0.241250  0.820700  0.297680  1.0  -0.5997
  O  O530  1  0.192570  0.894700  0.260490  1.0  -0.6355
  O  O531  1  0.223940  0.489900  0.138190  1.0  -0.5884
  O  O532  1  0.270440  0.564000  0.186300  1.0  -0.6076
  O  O533  1  0.959950  0.653800  0.677900  1.0  -0.4665
  O  O534  1  0.904550  0.686400  0.644200  1.0  -0.5126
  O  O535  1  0.847870  0.922100  0.721400  1.0  -0.5838
  O  O536  1  0.875600  0.001800  0.790600  1.0  -0.4783
  O  O537  1  0.103880  0.639200  0.127000  1.0  -0.4297
  O  O538  1  0.165630  0.823100  0.036300  1.0  -0.4628
  O  O539  1  0.015440  0.911900  0.828200  1.0  -0.4784
  O  O540  1  0.952930  0.728300  0.917200  1.0  -0.47
  O  O541  1  0.216460  0.870200  0.409310  1.0  -0.6395
  O  O542  1  0.172530  0.957300  0.373700  1.0  -0.5751
  O  O543  1  0.214110  0.698500  0.579490  1.0  -0.577
  O  O544  1  0.167650  0.691300  0.618500  1.0  -0.4348
  O  O545  1  0.107630  0.000300  0.569200  1.0  -0.4992
  O  O546  1  0.057960  0.819900  0.426800  1.0  -0.4416
  O  O547  1  0.741250  0.320700  0.297680  1.0  -0.5997
  O  O548  1  0.692570  0.394700  0.260490  1.0  -0.6355
  O  O549  1  0.723940  0.989900  0.138190  1.0  -0.5884
  O  O550  1  0.770440  0.064000  0.186300  1.0  -0.6076
  O  O551  1  0.459950  0.153800  0.677900  1.0  -0.4665
  O  O552  1  0.404550  0.186400  0.644200  1.0  -0.5126
  O  O553  1  0.347870  0.422100  0.721400  1.0  -0.5838
  O  O554  1  0.375600  0.501800  0.790600  1.0  -0.4783
  O  O555  1  0.603880  0.139200  0.127000  1.0  -0.4297
  O  O556  1  0.665630  0.323100  0.036300  1.0  -0.4628
  O  O557  1  0.515440  0.411900  0.828200  1.0  -0.4784
  O  O558  1  0.452930  0.228300  0.917200  1.0  -0.47
  O  O559  1  0.716460  0.370200  0.409310  1.0  -0.6395
  O  O560  1  0.672530  0.457300  0.373700  1.0  -0.5751
  O  O561  1  0.714110  0.198500  0.579490  1.0  -0.577
  O  O562  1  0.667650  0.191300  0.618500  1.0  -0.4348
  O  O563  1  0.607630  0.500300  0.569200  1.0  -0.4992
  O  O564  1  0.557960  0.319900  0.426800  1.0  -0.4416
  O  O565  1  0.758750  0.820700  0.202320  1.0  -0.599
  O  O566  1  0.807430  0.894700  0.239510  1.0  -0.636
  O  O567  1  0.776060  0.489900  0.361810  1.0  -0.5888
  O  O568  1  0.729560  0.564000  0.313700  1.0  -0.6063
  O  O569  1  0.040050  0.653800  0.822100  1.0  -0.4667
  O  O570  1  0.095450  0.686400  0.855800  1.0  -0.5116
  O  O571  1  0.152130  0.922100  0.778600  1.0  -0.5824
  O  O572  1  0.124400  0.001800  0.709400  1.0  -0.4781
  O  O573  1  0.896120  0.639200  0.373000  1.0  -0.428
  O  O574  1  0.834370  0.823100  0.463700  1.0  -0.4635
  O  O575  1  0.984560  0.911900  0.671800  1.0  -0.4771
  O  O576  1  0.047070  0.728300  0.582800  1.0  -0.4709
  O  O577  1  0.783540  0.870200  0.090690  1.0  -0.6398
  O  O578  1  0.827470  0.957300  0.126300  1.0  -0.5759
  O  O579  1  0.785890  0.698500  0.920510  1.0  -0.5774
  O  O580  1  0.832350  0.691300  0.881500  1.0  -0.4347
  O  O581  1  0.892370  0.000300  0.930800  1.0  -0.4975
  O  O582  1  0.942040  0.819900  0.073200  1.0  -0.4413
  O  O583  1  0.258750  0.320700  0.202320  1.0  -0.599
  O  O584  1  0.307430  0.394700  0.239510  1.0  -0.636
  O  O585  1  0.276060  0.989900  0.361810  1.0  -0.5888
  O  O586  1  0.229560  0.064000  0.313700  1.0  -0.6063
  O  O587  1  0.540050  0.153800  0.822100  1.0  -0.4667
  O  O588  1  0.595450  0.186400  0.855800  1.0  -0.5116
  O  O589  1  0.652130  0.422100  0.778600  1.0  -0.5824
  O  O590  1  0.624400  0.501800  0.709400  1.0  -0.4781
  O  O591  1  0.396120  0.139200  0.373000  1.0  -0.428
  O  O592  1  0.334370  0.323100  0.463700  1.0  -0.4635
  O  O593  1  0.484560  0.411900  0.671800  1.0  -0.4771
  O  O594  1  0.547070  0.228300  0.582800  1.0  -0.4709
  O  O595  1  0.283540  0.370200  0.090690  1.0  -0.6398
  O  O596  1  0.327470  0.457300  0.126300  1.0  -0.5759
  O  O597  1  0.285890  0.198500  0.920510  1.0  -0.5774
  O  O598  1  0.332350  0.191300  0.881500  1.0  -0.4347
  O  O599  1  0.392370  0.500300  0.930800  1.0  -0.4975
  O  O600  1  0.442040  0.319900  0.073200  1.0  -0.4413
  O  O601  1  0.758750  0.179300  0.702320  1.0  -0.5987
  O  O602  1  0.807430  0.105300  0.739510  1.0  -0.6358
  O  O603  1  0.776060  0.510100  0.861810  1.0  -0.5906
  O  O604  1  0.729560  0.436000  0.813700  1.0  -0.6061
  O  O605  1  0.040050  0.346200  0.322100  1.0  -0.4678
  O  O606  1  0.095450  0.313600  0.355800  1.0  -0.5138
  O  O607  1  0.152130  0.077900  0.278600  1.0  -0.5827
  O  O608  1  0.124400  0.998200  0.209400  1.0  -0.4792
  O  O609  1  0.896120  0.360800  0.873000  1.0  -0.4292
  O  O610  1  0.834370  0.176900  0.963700  1.0  -0.463
  O  O611  1  0.984560  0.088100  0.171800  1.0  -0.4782
  O  O612  1  0.047070  0.271700  0.082800  1.0  -0.4695
  O  O613  1  0.783540  0.129800  0.590690  1.0  -0.6396
  O  O614  1  0.827470  0.042700  0.626300  1.0  -0.5737
  O  O615  1  0.785890  0.301500  0.420510  1.0  -0.5773
  O  O616  1  0.832350  0.308700  0.381500  1.0  -0.435
  O  O617  1  0.892370  0.999700  0.430800  1.0  -0.4974
  O  O618  1  0.942040  0.180100  0.573200  1.0  -0.4407
  O  O619  1  0.258750  0.679300  0.702320  1.0  -0.5987
  O  O620  1  0.307430  0.605300  0.739510  1.0  -0.6358
  O  O621  1  0.276060  0.010100  0.861810  1.0  -0.5906
  O  O622  1  0.229560  0.936000  0.813700  1.0  -0.6061
  O  O623  1  0.540050  0.846200  0.322100  1.0  -0.4678
  O  O624  1  0.595450  0.813600  0.355800  1.0  -0.5138
  O  O625  1  0.652130  0.577900  0.278600  1.0  -0.5827
  O  O626  1  0.624400  0.498200  0.209400  1.0  -0.4792
  O  O627  1  0.396120  0.860800  0.873000  1.0  -0.4292
  O  O628  1  0.334370  0.676900  0.963700  1.0  -0.463
  O  O629  1  0.484560  0.588100  0.171800  1.0  -0.4782
  O  O630  1  0.547070  0.771700  0.082800  1.0  -0.4695
  O  O631  1  0.283540  0.629800  0.590690  1.0  -0.6396
  O  O632  1  0.327470  0.542700  0.626300  1.0  -0.5737
  O  O633  1  0.285890  0.801500  0.420510  1.0  -0.5773
  O  O634  1  0.332350  0.808700  0.381500  1.0  -0.435
  O  O635  1  0.392370  0.499700  0.430800  1.0  -0.4974
  O  O636  1  0.442040  0.680100  0.573200  1.0  -0.4407
  O  O637  1  0.241250  0.179300  0.797680  1.0  -0.5997
  O  O638  1  0.192570  0.105300  0.760490  1.0  -0.6354
  O  O639  1  0.223940  0.510100  0.638190  1.0  -0.5898
  O  O640  1  0.270440  0.436000  0.686300  1.0  -0.6069
  O  O641  1  0.959950  0.346200  0.177900  1.0  -0.4673
  O  O642  1  0.904550  0.313600  0.144200  1.0  -0.5144
  O  O643  1  0.847870  0.077900  0.221400  1.0  -0.584
  O  O644  1  0.875600  0.998200  0.290600  1.0  -0.4794
  O  O645  1  0.103880  0.360800  0.627000  1.0  -0.429
  O  O646  1  0.165630  0.176900  0.536300  1.0  -0.464
  O  O647  1  0.015440  0.088100  0.328200  1.0  -0.4792
  O  O648  1  0.952930  0.271700  0.417200  1.0  -0.4694
  O  O649  1  0.216460  0.129800  0.909310  1.0  -0.6393
  O  O650  1  0.172530  0.042700  0.873700  1.0  -0.5724
  O  O651  1  0.214110  0.301500  0.079490  1.0  -0.5771
  O  O652  1  0.167650  0.308700  0.118500  1.0  -0.4361
  O  O653  1  0.107630  0.999700  0.069200  1.0  -0.4989
  O  O654  1  0.057960  0.180100  0.926800  1.0  -0.4416
  O  O655  1  0.741250  0.679300  0.797680  1.0  -0.5997
  O  O656  1  0.692570  0.605300  0.760490  1.0  -0.6354
  O  O657  1  0.723940  0.010100  0.638190  1.0  -0.5898
  O  O658  1  0.770440  0.936000  0.686300  1.0  -0.6069
  O  O659  1  0.459950  0.846200  0.177900  1.0  -0.4673
  O  O660  1  0.404550  0.813600  0.144200  1.0  -0.5144
  O  O661  1  0.347870  0.577900  0.221400  1.0  -0.584
  O  O662  1  0.375600  0.498200  0.290600  1.0  -0.4794
  O  O663  1  0.603880  0.860800  0.627000  1.0  -0.429
  O  O664  1  0.665630  0.676900  0.536300  1.0  -0.464
  O  O665  1  0.515440  0.588100  0.328200  1.0  -0.4792
  O  O666  1  0.452930  0.771700  0.417200  1.0  -0.4694
  O  O667  1  0.716460  0.629800  0.909310  1.0  -0.6393
  O  O668  1  0.672530  0.542700  0.873700  1.0  -0.5724
  O  O669  1  0.714110  0.801500  0.079490  1.0  -0.5771
  O  O670  1  0.667650  0.808700  0.118500  1.0  -0.4361
  O  O671  1  0.607630  0.499700  0.069200  1.0  -0.4989
  O  O672  1  0.557960  0.680100  0.926800  1.0  -0.4416
