# generated using pymatgen
data_Cd3H14(C5O2)6
_symmetry_space_group_name_H-M   'P 1'
_cell_length_a   29.77800000
_cell_length_b   6.67540000
_cell_length_c   19.47820000
_cell_angle_alpha   90.00000000
_cell_angle_beta   113.62300000
_cell_angle_gamma   90.00000000
_symmetry_Int_Tables_number   1
_chemical_formula_structural   Cd3H14(C5O2)6
_chemical_formula_sum   'Cd12 H56 C120 O48'
_cell_volume   3547.42196151
_cell_formula_units_Z   4
loop_
 _symmetry_equiv_pos_site_id
 _symmetry_equiv_pos_as_xyz
  1  'x, y, z'
loop_
 _atom_site_type_symbol
 _atom_site_label
 _atom_site_symmetry_multiplicity
 _atom_site_fract_x
 _atom_site_fract_y
 _atom_site_fract_z
 _atom_site_occupancy
 _atom_site_charge
  Cd  Cd1  1  0.103380  0.958540  0.353270  1.0  0.9345
  Cd  Cd2  1  0.896620  0.958540  0.146730  1.0  0.9317
  Cd  Cd3  1  0.396620  0.541460  0.646730  1.0  0.9313
  Cd  Cd4  1  0.603380  0.541460  0.853270  1.0  0.9345
  Cd  Cd5  1  0.500000  0.962230  0.250000  1.0  1.0816
  Cd  Cd6  1  0.000000  0.537770  0.750000  1.0  1.0814
  Cd  Cd7  1  0.603380  0.458540  0.353270  1.0  0.9345
  Cd  Cd8  1  0.396620  0.458540  0.146730  1.0  0.9317
  Cd  Cd9  1  0.896620  0.041460  0.646730  1.0  0.9313
  Cd  Cd10  1  0.103380  0.041460  0.853270  1.0  0.9345
  Cd  Cd11  1  0.000000  0.462230  0.250000  1.0  1.0816
  Cd  Cd12  1  0.500000  0.037770  0.750000  1.0  1.0814
  H  H13  1  0.238900  0.048100  0.588800  1.0  0.1272
  H  H14  1  0.277600  0.952100  0.417800  1.0  0.1267
  H  H15  1  0.320800  0.079100  0.669000  1.0  0.1327
  H  H16  1  0.358700  0.696300  0.444900  1.0  0.1118
  H  H17  1  0.412600  0.684600  0.386800  1.0  0.1175
  H  H18  1  0.452100  0.250700  0.447000  1.0  0.1181
  H  H19  1  0.402200  0.256300  0.512200  1.0  0.1175
  H  H20  1  0.761100  0.048100  0.911200  1.0  0.1272
  H  H21  1  0.722400  0.952100  0.082200  1.0  0.1252
  H  H22  1  0.679200  0.079100  0.831000  1.0  0.1334
  H  H23  1  0.641300  0.696300  0.055100  1.0  0.1123
  H  H24  1  0.587400  0.684600  0.113200  1.0  0.1177
  H  H25  1  0.547900  0.250700  0.053000  1.0  0.1184
  H  H26  1  0.597800  0.256300  0.987800  1.0  0.1172
  H  H27  1  0.261100  0.451900  0.411200  1.0  0.1271
  H  H28  1  0.222400  0.547900  0.582200  1.0  0.125
  H  H29  1  0.179200  0.420900  0.331000  1.0  0.1332
  H  H30  1  0.141300  0.803700  0.555100  1.0  0.1121
  H  H31  1  0.087400  0.815400  0.613200  1.0  0.1177
  H  H32  1  0.047900  0.249300  0.553000  1.0  0.1185
  H  H33  1  0.097800  0.243700  0.487800  1.0  0.1171
  H  H34  1  0.738900  0.451900  0.088800  1.0  0.1273
  H  H35  1  0.777600  0.547900  0.917800  1.0  0.1267
  H  H36  1  0.820800  0.420900  0.169000  1.0  0.1328
  H  H37  1  0.858700  0.803700  0.944900  1.0  0.1126
  H  H38  1  0.912600  0.815400  0.886800  1.0  0.1179
  H  H39  1  0.952100  0.249300  0.947000  1.0  0.1181
  H  H40  1  0.902200  0.243700  0.012200  1.0  0.1176
  H  H41  1  0.738900  0.548100  0.588800  1.0  0.1272
  H  H42  1  0.777600  0.452100  0.417800  1.0  0.1267
  H  H43  1  0.820800  0.579100  0.669000  1.0  0.1327
  H  H44  1  0.858700  0.196300  0.444900  1.0  0.1118
  H  H45  1  0.912600  0.184600  0.386800  1.0  0.1175
  H  H46  1  0.952100  0.750700  0.447000  1.0  0.1181
  H  H47  1  0.902200  0.756300  0.512200  1.0  0.1175
  H  H48  1  0.261100  0.548100  0.911200  1.0  0.1272
  H  H49  1  0.222400  0.452100  0.082200  1.0  0.1252
  H  H50  1  0.179200  0.579100  0.831000  1.0  0.1334
  H  H51  1  0.141300  0.196300  0.055100  1.0  0.1123
  H  H52  1  0.087400  0.184600  0.113200  1.0  0.1177
  H  H53  1  0.047900  0.750700  0.053000  1.0  0.1184
  H  H54  1  0.097800  0.756300  0.987800  1.0  0.1172
  H  H55  1  0.761100  0.951900  0.411200  1.0  0.1271
  H  H56  1  0.722400  0.047900  0.582200  1.0  0.125
  H  H57  1  0.679200  0.920900  0.331000  1.0  0.1332
  H  H58  1  0.641300  0.303700  0.555100  1.0  0.1121
  H  H59  1  0.587400  0.315400  0.613200  1.0  0.1177
  H  H60  1  0.547900  0.749300  0.553000  1.0  0.1185
  H  H61  1  0.597800  0.743700  0.487800  1.0  0.1171
  H  H62  1  0.238900  0.951900  0.088800  1.0  0.1273
  H  H63  1  0.277600  0.047900  0.917800  1.0  0.1267
  H  H64  1  0.320800  0.920900  0.169000  1.0  0.1328
  H  H65  1  0.358700  0.303700  0.944900  1.0  0.1126
  H  H66  1  0.412600  0.315400  0.886800  1.0  0.1179
  H  H67  1  0.452100  0.749300  0.947000  1.0  0.1181
  H  H68  1  0.402200  0.743700  0.012200  1.0  0.1176
  C  C69  1  0.400530  0.038900  0.646300  1.0  0.7247
  C  C70  1  0.348300  0.031100  0.591700  1.0  -0.094
  C  C71  1  0.263100  0.034200  0.570400  1.0  -0.02
  C  C72  1  0.250400  0.995600  0.495500  1.0  -0.1168
  C  C73  1  0.286400  0.976800  0.468500  1.0  -0.0333
  C  C74  1  0.335900  0.994000  0.515800  1.0  0.0396
  C  C75  1  0.197610  0.980200  0.442900  1.0  0.6526
  C  C76  1  0.312200  0.052400  0.618500  1.0  -0.1058
  C  C77  1  0.373400  0.979500  0.483100  1.0  0.0573
  C  C78  1  0.377600  0.808100  0.446000  1.0  -0.1307
  C  C79  1  0.409700  0.801700  0.410700  1.0  -0.0534
  C  C80  1  0.437600  0.966700  0.410400  1.0  -0.1163
  C  C81  1  0.433800  0.137900  0.447400  1.0  -0.0526
  C  C82  1  0.403000  0.142700  0.485100  1.0  -0.0581
  C  C83  1  0.466170  0.965700  0.362300  1.0  0.6786
  C  C84  1  0.599470  0.038900  0.853700  1.0  0.7245
  C  C85  1  0.651700  0.031100  0.908300  1.0  -0.0935
  C  C86  1  0.736900  0.034200  0.929600  1.0  -0.0198
  C  C87  1  0.749600  0.995600  0.004500  1.0  -0.1179
  C  C88  1  0.713600  0.976800  0.031500  1.0  -0.0348
  C  C89  1  0.664100  0.994000  0.984200  1.0  0.0374
  C  C90  1  0.802390  0.980200  0.057100  1.0  0.6543
  C  C91  1  0.687800  0.052400  0.881500  1.0  -0.1005
  C  C92  1  0.626600  0.979500  0.016900  1.0  0.055
  C  C93  1  0.622400  0.808100  0.054000  1.0  -0.1321
  C  C94  1  0.590300  0.801700  0.089300  1.0  -0.0534
  C  C95  1  0.562400  0.966700  0.089600  1.0  -0.1158
  C  C96  1  0.566200  0.137900  0.052600  1.0  -0.0527
  C  C97  1  0.597000  0.142700  0.014900  1.0  -0.0576
  C  C98  1  0.533830  0.965700  0.137700  1.0  0.679
  C  C99  1  0.099470  0.461100  0.353700  1.0  0.7245
  C  C100  1  0.151700  0.468900  0.408300  1.0  -0.0935
  C  C101  1  0.236900  0.465800  0.429600  1.0  -0.02
  C  C102  1  0.249600  0.504400  0.504500  1.0  -0.1179
  C  C103  1  0.213600  0.523200  0.531500  1.0  -0.0349
  C  C104  1  0.164100  0.506000  0.484200  1.0  0.0374
  C  C105  1  0.302390  0.519800  0.557100  1.0  0.6544
  C  C106  1  0.187800  0.447600  0.381500  1.0  -0.1001
  C  C107  1  0.126600  0.520500  0.516900  1.0  0.0551
  C  C108  1  0.122400  0.691900  0.554000  1.0  -0.1332
  C  C109  1  0.090300  0.698300  0.589300  1.0  -0.0531
  C  C110  1  0.062400  0.533300  0.589600  1.0  -0.1157
  C  C111  1  0.066200  0.362100  0.552600  1.0  -0.0525
  C  C112  1  0.097000  0.357300  0.514900  1.0  -0.058
  C  C113  1  0.033830  0.534300  0.637700  1.0  0.679
  C  C114  1  0.900530  0.461100  0.146300  1.0  0.7247
  C  C115  1  0.848300  0.468900  0.091700  1.0  -0.0938
  C  C116  1  0.763100  0.465800  0.070400  1.0  -0.0202
  C  C117  1  0.750400  0.504400  0.995500  1.0  -0.1168
  C  C118  1  0.786400  0.523200  0.968500  1.0  -0.034
  C  C119  1  0.835900  0.506000  0.015800  1.0  0.0397
  C  C120  1  0.697610  0.519800  0.942900  1.0  0.6526
  C  C121  1  0.812200  0.447600  0.118500  1.0  -0.106
  C  C122  1  0.873400  0.520500  0.983100  1.0  0.0574
  C  C123  1  0.877600  0.691900  0.946000  1.0  -0.1317
  C  C124  1  0.909700  0.698300  0.910700  1.0  -0.0536
  C  C125  1  0.937600  0.533300  0.910400  1.0  -0.1162
  C  C126  1  0.933800  0.362100  0.947400  1.0  -0.053
  C  C127  1  0.903000  0.357300  0.985100  1.0  -0.0583
  C  C128  1  0.966170  0.534300  0.862300  1.0  0.6786
  C  C129  1  0.900530  0.538900  0.646300  1.0  0.7247
  C  C130  1  0.848300  0.531100  0.591700  1.0  -0.094
  C  C131  1  0.763100  0.534200  0.570400  1.0  -0.02
  C  C132  1  0.750400  0.495600  0.495500  1.0  -0.1168
  C  C133  1  0.786400  0.476800  0.468500  1.0  -0.0333
  C  C134  1  0.835900  0.494000  0.515800  1.0  0.0396
  C  C135  1  0.697610  0.480200  0.442900  1.0  0.6526
  C  C136  1  0.812200  0.552400  0.618500  1.0  -0.1058
  C  C137  1  0.873400  0.479500  0.483100  1.0  0.0573
  C  C138  1  0.877600  0.308100  0.446000  1.0  -0.1307
  C  C139  1  0.909700  0.301700  0.410700  1.0  -0.0534
  C  C140  1  0.937600  0.466700  0.410400  1.0  -0.1163
  C  C141  1  0.933800  0.637900  0.447400  1.0  -0.0526
  C  C142  1  0.903000  0.642700  0.485100  1.0  -0.0581
  C  C143  1  0.966170  0.465700  0.362300  1.0  0.6786
  C  C144  1  0.099470  0.538900  0.853700  1.0  0.7245
  C  C145  1  0.151700  0.531100  0.908300  1.0  -0.0935
  C  C146  1  0.236900  0.534200  0.929600  1.0  -0.0198
  C  C147  1  0.249600  0.495600  0.004500  1.0  -0.1179
  C  C148  1  0.213600  0.476800  0.031500  1.0  -0.0348
  C  C149  1  0.164100  0.494000  0.984200  1.0  0.0374
  C  C150  1  0.302390  0.480200  0.057100  1.0  0.6543
  C  C151  1  0.187800  0.552400  0.881500  1.0  -0.1005
  C  C152  1  0.126600  0.479500  0.016900  1.0  0.055
  C  C153  1  0.122400  0.308100  0.054000  1.0  -0.1321
  C  C154  1  0.090300  0.301700  0.089300  1.0  -0.0534
  C  C155  1  0.062400  0.466700  0.089600  1.0  -0.1158
  C  C156  1  0.066200  0.637900  0.052600  1.0  -0.0527
  C  C157  1  0.097000  0.642700  0.014900  1.0  -0.0576
  C  C158  1  0.033830  0.465700  0.137700  1.0  0.679
  C  C159  1  0.599470  0.961100  0.353700  1.0  0.7245
  C  C160  1  0.651700  0.968900  0.408300  1.0  -0.0935
  C  C161  1  0.736900  0.965800  0.429600  1.0  -0.02
  C  C162  1  0.749600  0.004400  0.504500  1.0  -0.1179
  C  C163  1  0.713600  0.023200  0.531500  1.0  -0.0349
  C  C164  1  0.664100  0.006000  0.484200  1.0  0.0374
  C  C165  1  0.802390  0.019800  0.557100  1.0  0.6544
  C  C166  1  0.687800  0.947600  0.381500  1.0  -0.1001
  C  C167  1  0.626600  0.020500  0.516900  1.0  0.0551
  C  C168  1  0.622400  0.191900  0.554000  1.0  -0.1332
  C  C169  1  0.590300  0.198300  0.589300  1.0  -0.0531
  C  C170  1  0.562400  0.033300  0.589600  1.0  -0.1157
  C  C171  1  0.566200  0.862100  0.552600  1.0  -0.0525
  C  C172  1  0.597000  0.857300  0.514900  1.0  -0.058
  C  C173  1  0.533830  0.034300  0.637700  1.0  0.679
  C  C174  1  0.400530  0.961100  0.146300  1.0  0.7247
  C  C175  1  0.348300  0.968900  0.091700  1.0  -0.0938
  C  C176  1  0.263100  0.965800  0.070400  1.0  -0.0202
  C  C177  1  0.250400  0.004400  0.995500  1.0  -0.1168
  C  C178  1  0.286400  0.023200  0.968500  1.0  -0.034
  C  C179  1  0.335900  0.006000  0.015800  1.0  0.0397
  C  C180  1  0.197610  0.019800  0.942900  1.0  0.6526
  C  C181  1  0.312200  0.947600  0.118500  1.0  -0.106
  C  C182  1  0.373400  0.020500  0.983100  1.0  0.0574
  C  C183  1  0.377600  0.191900  0.946000  1.0  -0.1317
  C  C184  1  0.409700  0.198300  0.910700  1.0  -0.0536
  C  C185  1  0.437600  0.033300  0.910400  1.0  -0.1162
  C  C186  1  0.433800  0.862100  0.947400  1.0  -0.053
  C  C187  1  0.403000  0.857300  0.985100  1.0  -0.0583
  C  C188  1  0.466170  0.034300  0.862300  1.0  0.6786
  O  O189  1  0.423630  0.877000  0.667800  1.0  -0.6759
  O  O190  1  0.420710  0.203200  0.672200  1.0  -0.7009
  O  O191  1  0.476950  0.130900  0.341000  1.0  -0.5797
  O  O192  1  0.477080  0.801500  0.341000  1.0  -0.5975
  O  O193  1  0.186290  0.949500  0.374600  1.0  -0.5742
  O  O194  1  0.165060  0.000200  0.468500  1.0  -0.5679
  O  O195  1  0.576370  0.877000  0.832200  1.0  -0.6765
  O  O196  1  0.579290  0.203200  0.827800  1.0  -0.7006
  O  O197  1  0.523050  0.130900  0.159000  1.0  -0.5804
  O  O198  1  0.522920  0.801500  0.159000  1.0  -0.5973
  O  O199  1  0.813710  0.949500  0.125400  1.0  -0.5744
  O  O200  1  0.834940  0.000200  0.031500  1.0  -0.5675
  O  O201  1  0.076370  0.623000  0.332200  1.0  -0.6767
  O  O202  1  0.079290  0.296800  0.327800  1.0  -0.7004
  O  O203  1  0.023050  0.369100  0.659000  1.0  -0.5781
  O  O204  1  0.022920  0.698500  0.659000  1.0  -0.5993
  O  O205  1  0.313710  0.550500  0.625400  1.0  -0.5743
  O  O206  1  0.334940  0.499800  0.531500  1.0  -0.5674
  O  O207  1  0.923630  0.623000  0.167800  1.0  -0.6763
  O  O208  1  0.920710  0.296800  0.172200  1.0  -0.7002
  O  O209  1  0.976950  0.369100  0.841000  1.0  -0.578
  O  O210  1  0.977080  0.698500  0.841000  1.0  -0.5996
  O  O211  1  0.686290  0.550500  0.874600  1.0  -0.5739
  O  O212  1  0.665060  0.499800  0.968500  1.0  -0.5675
  O  O213  1  0.923630  0.377000  0.667800  1.0  -0.6751
  O  O214  1  0.920710  0.703200  0.672200  1.0  -0.7018
  O  O215  1  0.976950  0.630900  0.341000  1.0  -0.5797
  O  O216  1  0.977080  0.301500  0.341000  1.0  -0.5977
  O  O217  1  0.686290  0.449500  0.374600  1.0  -0.5742
  O  O218  1  0.665060  0.500200  0.468500  1.0  -0.5679
  O  O219  1  0.076370  0.377000  0.832200  1.0  -0.6764
  O  O220  1  0.079290  0.703200  0.827800  1.0  -0.7018
  O  O221  1  0.023050  0.630900  0.159000  1.0  -0.5804
  O  O222  1  0.022920  0.301500  0.159000  1.0  -0.5976
  O  O223  1  0.313710  0.449500  0.125400  1.0  -0.5744
  O  O224  1  0.334940  0.500200  0.031500  1.0  -0.5675
  O  O225  1  0.576370  0.123000  0.332200  1.0  -0.6764
  O  O226  1  0.579290  0.796800  0.327800  1.0  -0.7014
  O  O227  1  0.523050  0.869100  0.659000  1.0  -0.5781
  O  O228  1  0.522920  0.198500  0.659000  1.0  -0.5995
  O  O229  1  0.813710  0.050500  0.625400  1.0  -0.5743
  O  O230  1  0.834940  0.999800  0.531500  1.0  -0.5674
  O  O231  1  0.423630  0.123000  0.167800  1.0  -0.6763
  O  O232  1  0.420710  0.796800  0.172200  1.0  -0.701
  O  O233  1  0.476950  0.869100  0.841000  1.0  -0.578
  O  O234  1  0.477080  0.198500  0.841000  1.0  -0.5999
  O  O235  1  0.186290  0.050500  0.874600  1.0  -0.5739
  O  O236  1  0.165060  0.999800  0.968500  1.0  -0.5675
