# generated using pymatgen
data_Zn2H8C15O7
_symmetry_space_group_name_H-M   'P 1'
_cell_length_a   6.57160000
_cell_length_b   20.21930000
_cell_length_c   27.93500000
_cell_angle_alpha   90.00000000
_cell_angle_beta   90.00000000
_cell_angle_gamma   90.00000000
_symmetry_Int_Tables_number   1
_chemical_formula_structural   Zn2H8C15O7
_chemical_formula_sum   'Zn16 H64 C120 O56'
_cell_volume   3711.81149777
_cell_formula_units_Z   8
loop_
 _symmetry_equiv_pos_site_id
 _symmetry_equiv_pos_as_xyz
  1  'x, y, z'
loop_
 _atom_site_type_symbol
 _atom_site_label
 _atom_site_symmetry_multiplicity
 _atom_site_fract_x
 _atom_site_fract_y
 _atom_site_fract_z
 _atom_site_occupancy
 _atom_site_charge
  Zn  Zn1  1  0.514030  0.778680  0.832250  1.0  1.0703
  Zn  Zn2  1  0.189650  0.876690  0.871490  1.0  1.0106
  Zn  Zn3  1  0.310350  0.376690  0.128510  1.0  1.016
  Zn  Zn4  1  0.310350  0.876690  0.371490  1.0  1.0159
  Zn  Zn5  1  0.985970  0.778680  0.332250  1.0  1.07
  Zn  Zn6  1  0.689650  0.623310  0.871490  1.0  1.014
  Zn  Zn7  1  0.189650  0.376690  0.628510  1.0  1.0159
  Zn  Zn8  1  0.689650  0.123310  0.628510  1.0  1.0157
  Zn  Zn9  1  0.485970  0.721320  0.332250  1.0  1.0714
  Zn  Zn10  1  0.485970  0.221320  0.167750  1.0  1.0701
  Zn  Zn11  1  0.514030  0.278680  0.667750  1.0  1.0694
  Zn  Zn12  1  0.810350  0.123310  0.128510  1.0  1.0158
  Zn  Zn13  1  0.014030  0.721320  0.832250  1.0  1.0713
  Zn  Zn14  1  0.014030  0.221320  0.667750  1.0  1.0702
  Zn  Zn15  1  0.985970  0.278680  0.167750  1.0  1.0689
  Zn  Zn16  1  0.810350  0.623310  0.371490  1.0  1.0158
  H  H17  1  0.286400  0.256300  0.608400  1.0  0.384
  H  H18  1  0.465100  0.005500  0.159100  1.0  0.1186
  H  H19  1  0.826300  0.372000  0.020000  1.0  0.1517
  H  H20  1  0.034900  0.005500  0.659100  1.0  0.1186
  H  H21  1  0.034900  0.505500  0.840900  1.0  0.1185
  H  H22  1  0.926900  0.536700  0.236400  1.0  0.1097
  H  H23  1  0.673700  0.372000  0.520000  1.0  0.1515
  H  H24  1  0.426900  0.963300  0.236400  1.0  0.1101
  H  H25  1  0.201500  0.052800  0.457900  1.0  0.1134
  H  H26  1  0.320100  0.908100  0.550500  1.0  0.1291
  H  H27  1  0.926900  0.036700  0.263600  1.0  0.1098
  H  H28  1  0.786400  0.743700  0.891600  1.0  0.3844
  H  H29  1  0.298500  0.552800  0.542100  1.0  0.1126
  H  H30  1  0.889100  0.885200  0.198400  1.0  0.1247
  H  H31  1  0.110900  0.614800  0.698400  1.0  0.1249
  H  H32  1  0.201500  0.552800  0.042100  1.0  0.1124
  H  H33  1  0.889100  0.385200  0.301600  1.0  0.1248
  H  H34  1  0.820100  0.591900  0.550500  1.0  0.1282
  H  H35  1  0.389100  0.614800  0.198400  1.0  0.1255
  H  H36  1  0.701500  0.447200  0.457900  1.0  0.1135
  H  H37  1  0.713600  0.743700  0.391600  1.0  0.3838
  H  H38  1  0.072000  0.073000  0.877800  1.0  0.1195
  H  H39  1  0.534900  0.994500  0.840900  1.0  0.1185
  H  H40  1  0.786400  0.243700  0.608400  1.0  0.384
  H  H41  1  0.679900  0.091900  0.449500  1.0  0.1275
  H  H42  1  0.179900  0.908100  0.050500  1.0  0.1288
  H  H43  1  0.673700  0.872000  0.980000  1.0  0.1521
  H  H44  1  0.426900  0.463300  0.263600  1.0  0.1099
  H  H45  1  0.572000  0.927000  0.622200  1.0  0.1205
  H  H46  1  0.713600  0.243700  0.108400  1.0  0.3836
  H  H47  1  0.110900  0.114800  0.801600  1.0  0.1253
  H  H48  1  0.534900  0.494500  0.659100  1.0  0.1188
  H  H49  1  0.173700  0.628000  0.980000  1.0  0.1503
  H  H50  1  0.326300  0.628000  0.480000  1.0  0.1502
  H  H51  1  0.073100  0.463300  0.763600  1.0  0.1097
  H  H52  1  0.928000  0.427000  0.377800  1.0  0.1209
  H  H53  1  0.965100  0.994500  0.340900  1.0  0.1184
  H  H54  1  0.389100  0.114800  0.301600  1.0  0.1259
  H  H55  1  0.826300  0.872000  0.480000  1.0  0.1523
  H  H56  1  0.610900  0.885200  0.698400  1.0  0.1242
  H  H57  1  0.072000  0.573000  0.622200  1.0  0.1202
  H  H58  1  0.798500  0.947200  0.542100  1.0  0.1122
  H  H59  1  0.965100  0.494500  0.159100  1.0  0.1187
  H  H60  1  0.573100  0.536700  0.736400  1.0  0.1095
  H  H61  1  0.286400  0.756300  0.891600  1.0  0.3841
  H  H62  1  0.173700  0.128000  0.520000  1.0  0.1508
  H  H63  1  0.073100  0.963300  0.736400  1.0  0.1098
  H  H64  1  0.465100  0.505500  0.340900  1.0  0.1183
  H  H65  1  0.320100  0.408100  0.949500  1.0  0.1288
  H  H66  1  0.213600  0.256300  0.108400  1.0  0.3836
  H  H67  1  0.213600  0.756300  0.391600  1.0  0.3836
  H  H68  1  0.572000  0.427000  0.877800  1.0  0.1209
  H  H69  1  0.298500  0.052800  0.957900  1.0  0.1135
  H  H70  1  0.798500  0.447200  0.957900  1.0  0.1139
  H  H71  1  0.179900  0.408100  0.449500  1.0  0.1286
  H  H72  1  0.428000  0.573000  0.122200  1.0  0.1201
  H  H73  1  0.820100  0.091900  0.949500  1.0  0.1274
  H  H74  1  0.679900  0.591900  0.050500  1.0  0.1281
  H  H75  1  0.928000  0.927000  0.122200  1.0  0.1202
  H  H76  1  0.326300  0.128000  0.020000  1.0  0.1505
  H  H77  1  0.701500  0.947200  0.042100  1.0  0.1121
  H  H78  1  0.610900  0.385200  0.801600  1.0  0.1242
  H  H79  1  0.573100  0.036700  0.763600  1.0  0.1097
  H  H80  1  0.428000  0.073000  0.377800  1.0  0.1193
  C  C81  1  0.505300  0.590800  0.190600  1.0  -0.0301
  C  C82  1  0.656600  0.580600  0.225010  1.0  -0.1384
  C  C83  1  0.722500  0.386000  0.612480  1.0  0.6996
  C  C84  1  0.708900  0.047600  0.455530  1.0  -0.0639
  C  C85  1  0.826600  0.044300  0.286640  1.0  0.0042
  C  C86  1  0.137600  0.887500  0.273520  1.0  0.6854
  C  C87  1  0.720500  0.961300  0.010720  1.0  -0.0315
  C  C88  1  0.208900  0.452400  0.455530  1.0  -0.063
  C  C89  1  0.302500  0.471500  0.867040  1.0  0.0008
  C  C90  1  0.203700  0.584000  0.973600  1.0  -0.0955
  C  C91  1  0.173400  0.955700  0.713360  1.0  0.0047
  C  C92  1  0.362400  0.387500  0.726480  1.0  0.6843
  C  C93  1  0.764700  0.026600  0.002130  1.0  -0.1441
  C  C94  1  0.767500  0.437500  0.073680  1.0  -0.0841
  C  C95  1  0.732500  0.437500  0.573680  1.0  -0.0841
  C  C96  1  0.708900  0.547600  0.044470  1.0  -0.0627
  C  C97  1  0.716800  0.074900  0.542460  1.0  0.6657
  C  C98  1  0.775100  0.003500  0.917370  1.0  0.0091
  C  C99  1  0.173400  0.455700  0.786640  1.0  0.0046
  C  C100  1  0.279500  0.038700  0.989280  1.0  -0.0318
  C  C101  1  0.802500  0.028500  0.867040  1.0  0.0012
  C  C102  1  0.291100  0.952400  0.544470  1.0  -0.0591
  C  C103  1  0.005300  0.909200  0.190600  1.0  -0.0298
  C  C104  1  0.779500  0.961300  0.510720  1.0  -0.0313
  C  C105  1  0.277500  0.614000  0.387520  1.0  0.6995
  C  C106  1  0.156600  0.919400  0.225010  1.0  -0.138
  C  C107  1  0.222500  0.614000  0.887520  1.0  0.6987
  C  C108  1  0.302500  0.971500  0.632960  1.0  0.001
  C  C109  1  0.151000  0.481600  0.832930  1.0  -0.0846
  C  C110  1  0.005300  0.409200  0.309400  1.0  -0.0293
  C  C111  1  0.722500  0.886000  0.887520  1.0  0.699
  C  C112  1  0.203700  0.084000  0.526400  1.0  -0.0954
  C  C113  1  0.777500  0.386000  0.112480  1.0  0.6993
  C  C114  1  0.703700  0.416000  0.526400  1.0  -0.093
  C  C115  1  0.843400  0.080600  0.774990  1.0  -0.138
  C  C116  1  0.232500  0.562500  0.926320  1.0  -0.0837
  C  C117  1  0.326600  0.455700  0.286640  1.0  0.0038
  C  C118  1  0.528200  0.565300  0.145080  1.0  -0.1279
  C  C119  1  0.777500  0.886000  0.387520  1.0  0.6987
  C  C120  1  0.716800  0.574900  0.957540  1.0  0.6661
  C  C121  1  0.862400  0.112500  0.726480  1.0  0.6864
  C  C122  1  0.264700  0.973400  0.497870  1.0  -0.1445
  C  C123  1  0.220500  0.538700  0.010720  1.0  -0.0321
  C  C124  1  0.208900  0.952400  0.044470  1.0  -0.0623
  C  C125  1  0.791100  0.047600  0.955530  1.0  -0.0639
  C  C126  1  0.735300  0.526600  0.997870  1.0  -0.1436
  C  C127  1  0.235300  0.473400  0.502130  1.0  -0.1437
  C  C128  1  0.028200  0.934700  0.145080  1.0  -0.1285
  C  C129  1  0.296300  0.084000  0.026400  1.0  -0.0943
  C  C130  1  0.216800  0.425100  0.542460  1.0  0.6646
  C  C131  1  0.505300  0.090800  0.309400  1.0  -0.0305
  C  C132  1  0.279500  0.538700  0.510720  1.0  -0.0315
  C  C133  1  0.528200  0.065300  0.354920  1.0  -0.1281
  C  C134  1  0.028200  0.434700  0.354920  1.0  -0.1283
  C  C135  1  0.775100  0.503500  0.582630  1.0  0.0098
  C  C136  1  0.494700  0.909200  0.690600  1.0  -0.0311
  C  C137  1  0.275100  0.496500  0.917370  1.0  0.009
  C  C138  1  0.277500  0.114000  0.112480  1.0  0.6998
  C  C139  1  0.637600  0.112500  0.226480  1.0  0.6865
  C  C140  1  0.343400  0.419400  0.774990  1.0  -0.1378
  C  C141  1  0.849000  0.518400  0.167070  1.0  -0.0851
  C  C142  1  0.343400  0.919400  0.725010  1.0  -0.1381
  C  C143  1  0.224900  0.996500  0.082630  1.0  0.0102
  C  C144  1  0.197500  0.971500  0.132960  1.0  0.0012
  C  C145  1  0.283200  0.925100  0.457540  1.0  0.6654
  C  C146  1  0.232500  0.062500  0.573680  1.0  -0.0845
  C  C147  1  0.224900  0.496500  0.417370  1.0  0.0093
  C  C148  1  0.151000  0.981600  0.667070  1.0  -0.0822
  C  C149  1  0.732500  0.937500  0.926320  1.0  -0.0835
  C  C150  1  0.349000  0.481600  0.332930  1.0  -0.0855
  C  C151  1  0.791100  0.547600  0.544470  1.0  -0.0624
  C  C152  1  0.724900  0.003500  0.417370  1.0  0.0092
  C  C153  1  0.156600  0.419400  0.274990  1.0  -0.1377
  C  C154  1  0.471800  0.434700  0.854920  1.0  -0.1299
  C  C155  1  0.656600  0.080600  0.274990  1.0  -0.1378
  C  C156  1  0.764700  0.526600  0.497870  1.0  -0.144
  C  C157  1  0.703700  0.916000  0.973600  1.0  -0.1006
  C  C158  1  0.267500  0.562500  0.426320  1.0  -0.0839
  C  C159  1  0.471800  0.934700  0.645080  1.0  -0.1287
  C  C160  1  0.326600  0.955700  0.213360  1.0  0.0041
  C  C161  1  0.697500  0.528500  0.132960  1.0  0.0013
  C  C162  1  0.673400  0.544300  0.713360  1.0  0.0042
  C  C163  1  0.697500  0.028500  0.367040  1.0  0.0013
  C  C164  1  0.291100  0.452400  0.955530  1.0  -0.0609
  C  C165  1  0.994700  0.090800  0.809400  1.0  -0.0297
  C  C166  1  0.802500  0.528500  0.632960  1.0  0.0011
  C  C167  1  0.197500  0.471500  0.367040  1.0  0.001
  C  C168  1  0.267500  0.062500  0.073680  1.0  -0.0846
  C  C169  1  0.862400  0.612500  0.773520  1.0  0.6869
  C  C170  1  0.843400  0.580600  0.725010  1.0  -0.1386
  C  C171  1  0.651000  0.018400  0.832930  1.0  -0.0831
  C  C172  1  0.220500  0.038700  0.489280  1.0  -0.032
  C  C173  1  0.349000  0.981600  0.167070  1.0  -0.0838
  C  C174  1  0.720500  0.461300  0.489280  1.0  -0.0303
  C  C175  1  0.235300  0.973400  0.997870  1.0  -0.144
  C  C176  1  0.222500  0.114000  0.612480  1.0  0.6987
  C  C177  1  0.735300  0.026600  0.502130  1.0  -0.1437
  C  C178  1  0.779500  0.461300  0.989280  1.0  -0.0305
  C  C179  1  0.826600  0.544300  0.213360  1.0  0.0041
  C  C180  1  0.283200  0.425100  0.042460  1.0  0.6649
  C  C181  1  0.724900  0.503500  0.082630  1.0  0.0099
  C  C182  1  0.494700  0.409200  0.809400  1.0  -0.0308
  C  C183  1  0.637600  0.612500  0.273520  1.0  0.687
  C  C184  1  0.137600  0.387500  0.226480  1.0  0.6845
  C  C185  1  0.971800  0.565300  0.645080  1.0  -0.1269
  C  C186  1  0.783200  0.074900  0.042460  1.0  0.6652
  C  C187  1  0.849000  0.018400  0.332930  1.0  -0.084
  C  C188  1  0.216800  0.925100  0.957540  1.0  0.6653
  C  C189  1  0.994700  0.590800  0.690600  1.0  -0.029
  C  C190  1  0.362400  0.887500  0.773520  1.0  0.6852
  C  C191  1  0.783200  0.574900  0.457540  1.0  0.6661
  C  C192  1  0.264700  0.473400  0.002130  1.0  -0.1442
  C  C193  1  0.796300  0.416000  0.026400  1.0  -0.0926
  C  C194  1  0.651000  0.518400  0.667070  1.0  -0.0844
  C  C195  1  0.767500  0.937500  0.426320  1.0  -0.0836
  C  C196  1  0.296300  0.584000  0.473600  1.0  -0.0931
  C  C197  1  0.275100  0.996500  0.582630  1.0  0.01
  C  C198  1  0.971800  0.065300  0.854920  1.0  -0.1292
  C  C199  1  0.796300  0.916000  0.473600  1.0  -0.0987
  C  C200  1  0.673400  0.044300  0.786640  1.0  0.0041
  O  O201  1  0.731800  0.550900  0.915480  1.0  -0.5747
  O  O202  1  0.508300  0.158180  0.222010  1.0  -0.6087
  O  O203  1  0.226200  0.778280  0.863040  1.0  -0.9517
  O  O204  1  0.380100  0.125380  0.637770  1.0  -0.6194
  O  O205  1  0.187900  0.365300  0.534920  1.0  -0.5929
  O  O206  1  0.619900  0.374620  0.137770  1.0  -0.6202
  O  O207  1  0.812100  0.134700  0.034920  1.0  -0.5914
  O  O208  1  0.726200  0.721720  0.863040  1.0  -0.9515
  O  O209  1  0.119900  0.125380  0.137770  1.0  -0.6199
  O  O210  1  0.726200  0.221720  0.636960  1.0  -0.9512
  O  O211  1  0.312100  0.365300  0.034920  1.0  -0.5918
  O  O212  1  0.255500  0.908070  0.305870  1.0  -0.6009
  O  O213  1  0.755500  0.091930  0.194130  1.0  -0.6028
  O  O214  1  0.755500  0.591930  0.305870  1.0  -0.602
  O  O215  1  0.268200  0.449100  0.084520  1.0  -0.5753
  O  O216  1  0.119900  0.625380  0.362230  1.0  -0.6185
  O  O217  1  0.187900  0.865300  0.965080  1.0  -0.5914
  O  O218  1  0.060800  0.145500  0.617910  1.0  -0.6535
  O  O219  1  0.880100  0.374620  0.637770  1.0  -0.62
  O  O220  1  0.687900  0.634700  0.965080  1.0  -0.592
  O  O221  1  0.744500  0.091930  0.694130  1.0  -0.6018
  O  O222  1  0.939200  0.854500  0.382090  1.0  -0.6536
  O  O223  1  0.273800  0.278280  0.136960  1.0  -0.9516
  O  O224  1  0.687900  0.134700  0.534920  1.0  -0.5932
  O  O225  1  0.619900  0.874620  0.362230  1.0  -0.619
  O  O226  1  0.773800  0.221720  0.136960  1.0  -0.9518
  O  O227  1  0.939200  0.354500  0.117910  1.0  -0.6555
  O  O228  1  0.991700  0.158180  0.722010  1.0  -0.6084
  O  O229  1  0.060800  0.645500  0.882090  1.0  -0.653
  O  O230  1  0.744500  0.591930  0.805870  1.0  -0.6019
  O  O231  1  0.244500  0.408070  0.694130  1.0  -0.6012
  O  O232  1  0.231800  0.949100  0.915480  1.0  -0.575
  O  O233  1  0.508300  0.658180  0.277990  1.0  -0.6078
  O  O234  1  0.731800  0.050900  0.584520  1.0  -0.5752
  O  O235  1  0.812100  0.634700  0.465080  1.0  -0.5913
  O  O236  1  0.008300  0.841820  0.277990  1.0  -0.609
  O  O237  1  0.439200  0.645500  0.382090  1.0  -0.6534
  O  O238  1  0.560800  0.854500  0.882090  1.0  -0.6545
  O  O239  1  0.491700  0.841820  0.777990  1.0  -0.609
  O  O240  1  0.008300  0.341820  0.222010  1.0  -0.6093
  O  O241  1  0.560800  0.354500  0.617910  1.0  -0.654
  O  O242  1  0.773800  0.721720  0.363040  1.0  -0.9525
  O  O243  1  0.312100  0.865300  0.465080  1.0  -0.5913
  O  O244  1  0.380100  0.625380  0.862230  1.0  -0.6183
  O  O245  1  0.768200  0.050900  0.084520  1.0  -0.5753
  O  O246  1  0.991700  0.658180  0.777990  1.0  -0.6082
  O  O247  1  0.268200  0.949100  0.415480  1.0  -0.5753
  O  O248  1  0.880100  0.874620  0.862230  1.0  -0.6187
  O  O249  1  0.768200  0.550900  0.415480  1.0  -0.5749
  O  O250  1  0.231800  0.449100  0.584520  1.0  -0.575
  O  O251  1  0.244500  0.908070  0.805870  1.0  -0.6009
  O  O252  1  0.255500  0.408070  0.194130  1.0  -0.6018
  O  O253  1  0.226200  0.278280  0.636960  1.0  -0.951
  O  O254  1  0.273800  0.778280  0.363040  1.0  -0.9528
  O  O255  1  0.439200  0.145500  0.117910  1.0  -0.6549
  O  O256  1  0.491700  0.341820  0.722010  1.0  -0.6102
