# generated using pymatgen
data_NaMnH16C14(NO2)2
_symmetry_space_group_name_H-M   'P 1'
_cell_length_a   10.82810000
_cell_length_b   10.82810000
_cell_length_c   19.04300000
_cell_angle_alpha   90.00000000
_cell_angle_beta   90.00000000
_cell_angle_gamma   90.00000000
_symmetry_Int_Tables_number   1
_chemical_formula_structural   NaMnH16C14(NO2)2
_chemical_formula_sum   'Na4 Mn4 H64 C56 N8 O16'
_cell_volume   2232.74889582
_cell_formula_units_Z   4
loop_
 _symmetry_equiv_pos_site_id
 _symmetry_equiv_pos_as_xyz
  1  'x, y, z'
loop_
 _atom_site_type_symbol
 _atom_site_label
 _atom_site_symmetry_multiplicity
 _atom_site_fract_x
 _atom_site_fract_y
 _atom_site_fract_z
 _atom_site_occupancy
 _atom_site_charge
  Na  Na1  1  0.481600  0.182700  0.056100  1.0  0.9447
  Na  Na2  1  0.518400  0.817300  0.556100  1.0  0.9461
  Na  Na3  1  0.817300  0.481600  0.306100  1.0  0.9457
  Na  Na4  1  0.182700  0.518400  0.806100  1.0  0.9504
  Mn  Mn5  1  0.397290  0.022900  0.894770  1.0  1.0543
  Mn  Mn6  1  0.602710  0.977100  0.394770  1.0  1.0546
  Mn  Mn7  1  0.977100  0.397290  0.144770  1.0  1.049
  Mn  Mn8  1  0.022900  0.602710  0.644770  1.0  1.056
  H  H9  1  0.143800  0.204900  0.733400  1.0  0.1151
  H  H10  1  0.007200  0.084300  0.671200  1.0  0.0995
  H  H11  1  0.991200  0.877000  0.693900  1.0  0.0869
  H  H12  1  0.115100  0.784800  0.776900  1.0  0.0963
  H  H13  1  0.563000  0.273400  0.833200  1.0  0.1168
  H  H14  1  0.506200  0.406100  0.839200  1.0  0.1136
  H  H15  1  0.587800  0.353500  0.900300  1.0  0.128
  H  H16  1  0.414900  0.385900  0.987800  1.0  0.1131
  H  H17  1  0.339900  0.446300  0.926300  1.0  0.1079
  H  H18  1  0.282500  0.337100  0.969400  1.0  0.1187
  H  H19  1  0.570500  0.695200  0.953200  1.0  0.1249
  H  H20  1  0.482500  0.622100  0.902700  1.0  0.1164
  H  H21  1  0.547700  0.742800  0.876500  1.0  0.1156
  H  H22  1  0.281600  0.779300  0.024100  1.0  0.1213
  H  H23  1  0.307900  0.646200  0.995300  1.0  0.1178
  H  H24  1  0.406700  0.713400  0.041800  1.0  0.1226
  H  H25  1  0.856200  0.795100  0.233400  1.0  0.1149
  H  H26  1  0.992800  0.915700  0.171200  1.0  0.0995
  H  H27  1  0.008800  0.123000  0.193900  1.0  0.0872
  H  H28  1  0.884900  0.215200  0.276900  1.0  0.0963
  H  H29  1  0.437000  0.726600  0.333200  1.0  0.1167
  H  H30  1  0.493800  0.593900  0.339200  1.0  0.1134
  H  H31  1  0.412200  0.646500  0.400300  1.0  0.1272
  H  H32  1  0.585100  0.614100  0.487800  1.0  0.113
  H  H33  1  0.660100  0.553700  0.426300  1.0  0.1066
  H  H34  1  0.717500  0.662900  0.469400  1.0  0.119
  H  H35  1  0.429500  0.304800  0.453200  1.0  0.1248
  H  H36  1  0.517500  0.377900  0.402700  1.0  0.1162
  H  H37  1  0.452300  0.257200  0.376500  1.0  0.1159
  H  H38  1  0.718400  0.220700  0.524100  1.0  0.1216
  H  H39  1  0.692100  0.353800  0.495300  1.0  0.1178
  H  H40  1  0.593300  0.286600  0.541800  1.0  0.123
  H  H41  1  0.795100  0.143800  0.983400  1.0  0.1167
  H  H42  1  0.915700  0.007200  0.921200  1.0  0.0984
  H  H43  1  0.123000  0.991200  0.943900  1.0  0.0863
  H  H44  1  0.215200  0.115100  0.026900  1.0  0.0958
  H  H45  1  0.726600  0.563000  0.083200  1.0  0.1169
  H  H46  1  0.593900  0.506200  0.089200  1.0  0.1103
  H  H47  1  0.646500  0.587800  0.150300  1.0  0.1264
  H  H48  1  0.614100  0.414900  0.237800  1.0  0.1127
  H  H49  1  0.553700  0.339900  0.176300  1.0  0.1046
  H  H50  1  0.662900  0.282500  0.219400  1.0  0.1161
  H  H51  1  0.304800  0.570500  0.203200  1.0  0.1248
  H  H52  1  0.377900  0.482500  0.152700  1.0  0.1149
  H  H53  1  0.257200  0.547700  0.126500  1.0  0.1142
  H  H54  1  0.220700  0.281600  0.274100  1.0  0.1225
  H  H55  1  0.353800  0.307900  0.245300  1.0  0.1168
  H  H56  1  0.286600  0.406700  0.291800  1.0  0.1246
  H  H57  1  0.204900  0.856200  0.483400  1.0  0.1152
  H  H58  1  0.084300  0.992800  0.421200  1.0  0.099
  H  H59  1  0.877000  0.008800  0.443900  1.0  0.0865
  H  H60  1  0.784800  0.884900  0.526900  1.0  0.0947
  H  H61  1  0.273400  0.437000  0.583200  1.0  0.1167
  H  H62  1  0.406100  0.493800  0.589200  1.0  0.1113
  H  H63  1  0.353500  0.412200  0.650300  1.0  0.1272
  H  H64  1  0.385900  0.585100  0.737800  1.0  0.1135
  H  H65  1  0.446300  0.660100  0.676300  1.0  0.1062
  H  H66  1  0.337100  0.717500  0.719400  1.0  0.1163
  H  H67  1  0.695200  0.429500  0.703200  1.0  0.1245
  H  H68  1  0.622100  0.517500  0.652700  1.0  0.1142
  H  H69  1  0.742800  0.452300  0.626500  1.0  0.1151
  H  H70  1  0.779300  0.718400  0.774100  1.0  0.1216
  H  H71  1  0.646200  0.692100  0.745300  1.0  0.1155
  H  H72  1  0.713400  0.593300  0.791800  1.0  0.1241
  C  C73  1  0.208800  0.938000  0.803750  1.0  0.1782
  C  C74  1  0.215900  0.065900  0.791580  1.0  0.173
  C  C75  1  0.139300  0.120400  0.741800  1.0  -0.1645
  C  C76  1  0.057200  0.048500  0.705200  1.0  -0.0966
  C  C77  1  0.048300  0.924300  0.718500  1.0  -0.0906
  C  C78  1  0.122800  0.868800  0.767900  1.0  -0.1622
  C  C79  1  0.319200  0.248000  0.843420  1.0  0.5531
  C  C80  1  0.413300  0.278900  0.899400  1.0  0.3171
  C  C81  1  0.528200  0.333000  0.864800  1.0  -0.3968
  C  C82  1  0.357600  0.370400  0.950400  1.0  -0.3942
  C  C83  1  0.304500  0.784000  0.883040  1.0  0.5575
  C  C84  1  0.401200  0.779100  0.942050  1.0  0.3106
  C  C85  1  0.510600  0.702700  0.916200  1.0  -0.3894
  C  C86  1  0.344200  0.724600  0.006600  1.0  -0.397
  C  C87  1  0.791200  0.062000  0.303750  1.0  0.1781
  C  C88  1  0.784100  0.934100  0.291580  1.0  0.173
  C  C89  1  0.860700  0.879600  0.241800  1.0  -0.1661
  C  C90  1  0.942800  0.951500  0.205200  1.0  -0.0965
  C  C91  1  0.951700  0.075700  0.218500  1.0  -0.0908
  C  C92  1  0.877200  0.131200  0.267900  1.0  -0.1608
  C  C93  1  0.680800  0.752000  0.343420  1.0  0.5521
  C  C94  1  0.586700  0.721100  0.399400  1.0  0.3172
  C  C95  1  0.471800  0.667000  0.364800  1.0  -0.3963
  C  C96  1  0.642400  0.629600  0.450400  1.0  -0.3954
  C  C97  1  0.695500  0.216000  0.383040  1.0  0.5595
  C  C98  1  0.598800  0.220900  0.442050  1.0  0.3107
  C  C99  1  0.489400  0.297300  0.416200  1.0  -0.3907
  C  C100  1  0.655800  0.275400  0.506600  1.0  -0.3986
  C  C101  1  0.062000  0.208800  0.053750  1.0  0.1776
  C  C102  1  0.934100  0.215900  0.041580  1.0  0.1725
  C  C103  1  0.879600  0.139300  0.991800  1.0  -0.1646
  C  C104  1  0.951500  0.057200  0.955200  1.0  -0.0952
  C  C105  1  0.075700  0.048300  0.968500  1.0  -0.0889
  C  C106  1  0.131200  0.122800  0.017900  1.0  -0.1607
  C  C107  1  0.752000  0.319200  0.093420  1.0  0.5532
  C  C108  1  0.721100  0.413300  0.149400  1.0  0.317
  C  C109  1  0.667000  0.528200  0.114800  1.0  -0.3969
  C  C110  1  0.629600  0.357600  0.200400  1.0  -0.3933
  C  C111  1  0.216000  0.304500  0.133040  1.0  0.5581
  C  C112  1  0.220900  0.401200  0.192050  1.0  0.3123
  C  C113  1  0.297300  0.510600  0.166200  1.0  -0.3902
  C  C114  1  0.275400  0.344200  0.256600  1.0  -0.3975
  C  C115  1  0.938000  0.791200  0.553750  1.0  0.1781
  C  C116  1  0.065900  0.784100  0.541580  1.0  0.1725
  C  C117  1  0.120400  0.860700  0.491800  1.0  -0.1614
  C  C118  1  0.048500  0.942800  0.455200  1.0  -0.0956
  C  C119  1  0.924300  0.951700  0.468500  1.0  -0.087
  C  C120  1  0.868800  0.877200  0.517900  1.0  -0.1604
  C  C121  1  0.248000  0.680800  0.593420  1.0  0.5531
  C  C122  1  0.278900  0.586700  0.649400  1.0  0.3176
  C  C123  1  0.333000  0.471800  0.614800  1.0  -0.3957
  C  C124  1  0.370400  0.642400  0.700400  1.0  -0.3939
  C  C125  1  0.784000  0.695500  0.633040  1.0  0.558
  C  C126  1  0.779100  0.598800  0.692050  1.0  0.3115
  C  C127  1  0.702700  0.489400  0.666200  1.0  -0.3895
  C  C128  1  0.724600  0.655800  0.756600  1.0  -0.3987
  N  N129  1  0.302400  0.126900  0.834670  1.0  -0.5424
  N  N130  1  0.292300  0.897200  0.855570  1.0  -0.5514
  N  N131  1  0.697600  0.873100  0.334670  1.0  -0.543
  N  N132  1  0.707700  0.102800  0.355570  1.0  -0.5514
  N  N133  1  0.873100  0.302400  0.084670  1.0  -0.5445
  N  N134  1  0.102800  0.292300  0.105570  1.0  -0.5518
  N  N135  1  0.126900  0.697600  0.584670  1.0  -0.5446
  N  N136  1  0.897200  0.707700  0.605570  1.0  -0.5545
  O  O137  1  0.446700  0.169850  0.937270  1.0  -0.7407
  O  O138  1  0.266600  0.331400  0.810070  1.0  -0.6651
  O  O139  1  0.443100  0.900230  0.957740  1.0  -0.6516
  O  O140  1  0.248000  0.689620  0.864880  1.0  -0.6626
  O  O141  1  0.553300  0.830150  0.437270  1.0  -0.7298
  O  O142  1  0.733400  0.668600  0.310070  1.0  -0.6642
  O  O143  1  0.556900  0.099770  0.457740  1.0  -0.6485
  O  O144  1  0.752000  0.310380  0.364880  1.0  -0.6628
  O  O145  1  0.830150  0.446700  0.187270  1.0  -0.7386
  O  O146  1  0.668600  0.266600  0.060070  1.0  -0.6623
  O  O147  1  0.099770  0.443100  0.207740  1.0  -0.6503
  O  O148  1  0.310380  0.248000  0.114880  1.0  -0.6614
  O  O149  1  0.169850  0.553300  0.687270  1.0  -0.7374
  O  O150  1  0.331400  0.733400  0.560070  1.0  -0.6632
  O  O151  1  0.900230  0.556900  0.707740  1.0  -0.6525
  O  O152  1  0.689620  0.752000  0.614880  1.0  -0.6631
