# generated using pymatgen
data_Cd2H11C15N7O5
_symmetry_space_group_name_H-M   'P 1'
_cell_length_a   16.64600000
_cell_length_b   29.78300000
_cell_length_c   17.27400000
_cell_angle_alpha   90.00000000
_cell_angle_beta   90.00000000
_cell_angle_gamma   90.00000000
_symmetry_Int_Tables_number   1
_chemical_formula_structural   Cd2H11C15N7O5
_chemical_formula_sum   'Cd32 H176 C240 N112 O80'
_cell_volume   8563.89328813
_cell_formula_units_Z   16
loop_
 _symmetry_equiv_pos_site_id
 _symmetry_equiv_pos_as_xyz
  1  'x, y, z'
loop_
 _atom_site_type_symbol
 _atom_site_label
 _atom_site_symmetry_multiplicity
 _atom_site_fract_x
 _atom_site_fract_y
 _atom_site_fract_z
 _atom_site_occupancy
 _atom_site_charge
  Cd  Cd1  1  0.495830  0.249830  0.884060  1.0  0.9843
  Cd  Cd2  1  0.249550  0.003560  0.134230  1.0  1.016
  Cd  Cd3  1  0.276870  0.245610  0.735110  1.0  0.9871
  Cd  Cd4  1  0.995830  0.749830  0.884060  1.0  0.9843
  Cd  Cd5  1  0.749550  0.503560  0.134230  1.0  1.016
  Cd  Cd6  1  0.776870  0.745610  0.735110  1.0  0.9871
  Cd  Cd7  1  0.504170  0.750170  0.384060  1.0  0.9848
  Cd  Cd8  1  0.750450  0.996440  0.634230  1.0  1.0159
  Cd  Cd9  1  0.723130  0.754390  0.235110  1.0  0.9879
  Cd  Cd10  1  0.004170  0.250170  0.384060  1.0  0.9848
  Cd  Cd11  1  0.250450  0.496440  0.634230  1.0  1.0159
  Cd  Cd12  1  0.223130  0.254390  0.235110  1.0  0.9879
  Cd  Cd13  1  0.504170  0.249830  0.615940  1.0  0.9838
  Cd  Cd14  1  0.750450  0.003560  0.365770  1.0  1.0161
  Cd  Cd15  1  0.723130  0.245610  0.764890  1.0  0.9878
  Cd  Cd16  1  0.004170  0.749830  0.615940  1.0  0.9838
  Cd  Cd17  1  0.250450  0.503560  0.365770  1.0  1.0161
  Cd  Cd18  1  0.223130  0.745610  0.764890  1.0  0.9878
  Cd  Cd19  1  0.495830  0.750170  0.115940  1.0  0.9841
  Cd  Cd20  1  0.249550  0.996440  0.865770  1.0  1.0161
  Cd  Cd21  1  0.276870  0.754390  0.264890  1.0  0.9874
  Cd  Cd22  1  0.995830  0.250170  0.115940  1.0  0.9841
  Cd  Cd23  1  0.749550  0.496440  0.865770  1.0  1.0161
  Cd  Cd24  1  0.776870  0.254390  0.264890  1.0  0.9874
  Cd  Cd25  1  0.471690  0.000000  0.000000  1.0  0.8541
  Cd  Cd26  1  0.025450  0.000000  0.000000  1.0  0.866
  Cd  Cd27  1  0.971690  0.500000  0.000000  1.0  0.8541
  Cd  Cd28  1  0.525450  0.500000  0.000000  1.0  0.866
  Cd  Cd29  1  0.528310  0.000000  0.500000  1.0  0.8526
  Cd  Cd30  1  0.974550  0.000000  0.500000  1.0  0.8689
  Cd  Cd31  1  0.028310  0.500000  0.500000  1.0  0.8526
  Cd  Cd32  1  0.474550  0.500000  0.500000  1.0  0.8689
  H  H33  1  0.055800  0.178600  0.948400  1.0  0.0897
  H  H34  1  0.479400  0.072600  0.872100  1.0  0.0649
  H  H35  1  0.221000  0.293400  0.919200  1.0  0.1131
  H  H36  1  0.216100  0.241300  0.929800  1.0  0.1122
  H  H37  1  0.234800  0.181600  0.110300  1.0  0.0715
  H  H38  1  0.187500  0.149800  0.326000  1.0  0.1112
  H  H39  1  0.014500  0.072000  0.127200  1.0  0.0659
  H  H40  1  0.433200  0.178500  0.050600  1.0  0.0932
  H  H41  1  0.426000  0.104500  0.082700  1.0  0.0706
  H  H42  1  0.062900  0.104700  0.915900  1.0  0.0791
  H  H43  1  0.251800  0.304300  0.040700  1.0  0.1132
  H  H44  1  0.272900  0.253700  0.053800  1.0  0.101
  H  H45  1  0.008700  0.219600  0.681800  1.0  0.1196
  H  H46  1  0.009100  0.272200  0.682000  1.0  0.1221
  H  H47  1  0.192100  0.075900  0.293600  1.0  0.0701
  H  H48  1  0.261800  0.176700  0.864800  1.0  0.0906
  H  H49  1  0.319200  0.140600  0.653400  1.0  0.0966
  H  H50  1  0.314300  0.065600  0.691400  1.0  0.0814
  H  H51  1  0.972000  0.004900  0.185600  1.0  0.1201
  H  H52  1  0.985400  0.952900  0.187100  1.0  0.128
  H  H53  1  0.518700  0.050400  0.183000  1.0  0.1207
  H  H54  1  0.530100  0.997900  0.182500  1.0  0.1189
  H  H55  1  0.555800  0.678600  0.948400  1.0  0.0897
  H  H56  1  0.979400  0.572600  0.872100  1.0  0.0649
  H  H57  1  0.721000  0.793400  0.919200  1.0  0.1131
  H  H58  1  0.716100  0.741300  0.929800  1.0  0.1122
  H  H59  1  0.734800  0.681600  0.110300  1.0  0.0715
  H  H60  1  0.687500  0.649800  0.326000  1.0  0.1112
  H  H61  1  0.514500  0.572000  0.127200  1.0  0.0659
  H  H62  1  0.933200  0.678500  0.050600  1.0  0.0932
  H  H63  1  0.926000  0.604500  0.082700  1.0  0.0706
  H  H64  1  0.562900  0.604700  0.915900  1.0  0.0791
  H  H65  1  0.751800  0.804300  0.040700  1.0  0.1132
  H  H66  1  0.772900  0.753700  0.053800  1.0  0.101
  H  H67  1  0.508700  0.719600  0.681800  1.0  0.1196
  H  H68  1  0.509100  0.772200  0.682000  1.0  0.1221
  H  H69  1  0.692100  0.575900  0.293600  1.0  0.0701
  H  H70  1  0.761800  0.676700  0.864800  1.0  0.0906
  H  H71  1  0.819200  0.640600  0.653400  1.0  0.0966
  H  H72  1  0.814300  0.565600  0.691400  1.0  0.0814
  H  H73  1  0.472000  0.504900  0.185600  1.0  0.1201
  H  H74  1  0.485400  0.452900  0.187100  1.0  0.128
  H  H75  1  0.018700  0.550400  0.183000  1.0  0.1207
  H  H76  1  0.030100  0.497900  0.182500  1.0  0.1189
  H  H77  1  0.944200  0.821400  0.448400  1.0  0.0898
  H  H78  1  0.520600  0.927400  0.372100  1.0  0.0656
  H  H79  1  0.779000  0.706600  0.419200  1.0  0.1128
  H  H80  1  0.783900  0.758700  0.429800  1.0  0.1123
  H  H81  1  0.765200  0.818400  0.610300  1.0  0.0725
  H  H82  1  0.812500  0.850200  0.826000  1.0  0.1115
  H  H83  1  0.985500  0.928000  0.627200  1.0  0.0658
  H  H84  1  0.566800  0.821500  0.550600  1.0  0.0935
  H  H85  1  0.574000  0.895500  0.582700  1.0  0.0709
  H  H86  1  0.937100  0.895300  0.415900  1.0  0.0794
  H  H87  1  0.748200  0.695700  0.540700  1.0  0.1104
  H  H88  1  0.727100  0.746300  0.553800  1.0  0.1017
  H  H89  1  0.991300  0.780400  0.181800  1.0  0.1189
  H  H90  1  0.990900  0.727800  0.182000  1.0  0.1221
  H  H91  1  0.807900  0.924100  0.793600  1.0  0.07
  H  H92  1  0.738200  0.823300  0.364800  1.0  0.0906
  H  H93  1  0.680800  0.859400  0.153400  1.0  0.0968
  H  H94  1  0.685700  0.934400  0.191400  1.0  0.0815
  H  H95  1  0.028000  0.995100  0.685600  1.0  0.1206
  H  H96  1  0.014600  0.047100  0.687100  1.0  0.1274
  H  H97  1  0.481300  0.949600  0.683000  1.0  0.1211
  H  H98  1  0.469900  0.002100  0.682500  1.0  0.1184
  H  H99  1  0.444200  0.321400  0.448400  1.0  0.0898
  H  H100  1  0.020600  0.427400  0.372100  1.0  0.0656
  H  H101  1  0.279000  0.206600  0.419200  1.0  0.1128
  H  H102  1  0.283900  0.258700  0.429800  1.0  0.1123
  H  H103  1  0.265200  0.318400  0.610300  1.0  0.0725
  H  H104  1  0.312500  0.350200  0.826000  1.0  0.1115
  H  H105  1  0.485500  0.428000  0.627200  1.0  0.0658
  H  H106  1  0.066800  0.321500  0.550600  1.0  0.0935
  H  H107  1  0.074000  0.395500  0.582700  1.0  0.0709
  H  H108  1  0.437100  0.395300  0.415900  1.0  0.0794
  H  H109  1  0.248200  0.195700  0.540700  1.0  0.1104
  H  H110  1  0.227100  0.246300  0.553800  1.0  0.1017
  H  H111  1  0.491300  0.280400  0.181800  1.0  0.1189
  H  H112  1  0.490900  0.227800  0.182000  1.0  0.1221
  H  H113  1  0.307900  0.424100  0.793600  1.0  0.07
  H  H114  1  0.238200  0.323300  0.364800  1.0  0.0906
  H  H115  1  0.180800  0.359400  0.153400  1.0  0.0968
  H  H116  1  0.185700  0.434400  0.191400  1.0  0.0815
  H  H117  1  0.528000  0.495100  0.685600  1.0  0.1206
  H  H118  1  0.514600  0.547100  0.687100  1.0  0.1274
  H  H119  1  0.981300  0.449600  0.683000  1.0  0.1211
  H  H120  1  0.969900  0.502100  0.682500  1.0  0.1184
  H  H121  1  0.944200  0.178600  0.551600  1.0  0.0894
  H  H122  1  0.520600  0.072600  0.627900  1.0  0.0657
  H  H123  1  0.779000  0.293400  0.580800  1.0  0.1116
  H  H124  1  0.783900  0.241300  0.570200  1.0  0.1125
  H  H125  1  0.765200  0.181600  0.389700  1.0  0.0714
  H  H126  1  0.812500  0.149800  0.174000  1.0  0.1109
  H  H127  1  0.985500  0.072000  0.372800  1.0  0.0673
  H  H128  1  0.566800  0.178500  0.449400  1.0  0.0937
  H  H129  1  0.574000  0.104500  0.417300  1.0  0.0711
  H  H130  1  0.937100  0.104700  0.584100  1.0  0.0772
  H  H131  1  0.748200  0.304300  0.459300  1.0  0.1133
  H  H132  1  0.727100  0.253700  0.446200  1.0  0.102
  H  H133  1  0.991300  0.219600  0.818200  1.0  0.1196
  H  H134  1  0.990900  0.272200  0.818000  1.0  0.1214
  H  H135  1  0.807900  0.075900  0.206400  1.0  0.0695
  H  H136  1  0.738200  0.176700  0.635200  1.0  0.0906
  H  H137  1  0.680800  0.140600  0.846600  1.0  0.0967
  H  H138  1  0.685700  0.065600  0.808600  1.0  0.0812
  H  H139  1  0.028000  0.004900  0.314400  1.0  0.1176
  H  H140  1  0.014600  0.952900  0.312900  1.0  0.1284
  H  H141  1  0.481300  0.050400  0.317000  1.0  0.1209
  H  H142  1  0.469900  0.997900  0.317500  1.0  0.1188
  H  H143  1  0.444200  0.678600  0.551600  1.0  0.0894
  H  H144  1  0.020600  0.572600  0.627900  1.0  0.0657
  H  H145  1  0.279000  0.793400  0.580800  1.0  0.1116
  H  H146  1  0.283900  0.741300  0.570200  1.0  0.1125
  H  H147  1  0.265200  0.681600  0.389700  1.0  0.0714
  H  H148  1  0.312500  0.649800  0.174000  1.0  0.1109
  H  H149  1  0.485500  0.572000  0.372800  1.0  0.0673
  H  H150  1  0.066800  0.678500  0.449400  1.0  0.0937
  H  H151  1  0.074000  0.604500  0.417300  1.0  0.0711
  H  H152  1  0.437100  0.604700  0.584100  1.0  0.0772
  H  H153  1  0.248200  0.804300  0.459300  1.0  0.1133
  H  H154  1  0.227100  0.753700  0.446200  1.0  0.102
  H  H155  1  0.491300  0.719600  0.818200  1.0  0.1196
  H  H156  1  0.490900  0.772200  0.818000  1.0  0.1214
  H  H157  1  0.307900  0.575900  0.206400  1.0  0.0695
  H  H158  1  0.238200  0.676700  0.635200  1.0  0.0906
  H  H159  1  0.180800  0.640600  0.846600  1.0  0.0967
  H  H160  1  0.185700  0.565600  0.808600  1.0  0.0812
  H  H161  1  0.528000  0.504900  0.314400  1.0  0.1176
  H  H162  1  0.514600  0.452900  0.312900  1.0  0.1284
  H  H163  1  0.981300  0.550400  0.317000  1.0  0.1209
  H  H164  1  0.969900  0.497900  0.317500  1.0  0.1188
  H  H165  1  0.055800  0.821400  0.051600  1.0  0.0903
  H  H166  1  0.479400  0.927400  0.127900  1.0  0.0646
  H  H167  1  0.221000  0.706600  0.080800  1.0  0.1131
  H  H168  1  0.216100  0.758700  0.070200  1.0  0.1128
  H  H169  1  0.234800  0.818400  0.889700  1.0  0.0721
  H  H170  1  0.187500  0.850200  0.674000  1.0  0.1102
  H  H171  1  0.014500  0.928000  0.872800  1.0  0.0678
  H  H172  1  0.433200  0.821500  0.949400  1.0  0.094
  H  H173  1  0.426000  0.895500  0.917300  1.0  0.0714
  H  H174  1  0.062900  0.895300  0.084100  1.0  0.0774
  H  H175  1  0.251800  0.695700  0.959300  1.0  0.1102
  H  H176  1  0.272900  0.746300  0.946200  1.0  0.101
  H  H177  1  0.008700  0.780400  0.318200  1.0  0.1177
  H  H178  1  0.009100  0.727800  0.318000  1.0  0.1233
  H  H179  1  0.192100  0.924100  0.706400  1.0  0.0701
  H  H180  1  0.261800  0.823300  0.135200  1.0  0.0902
  H  H181  1  0.319200  0.859400  0.346600  1.0  0.0968
  H  H182  1  0.314300  0.934400  0.308600  1.0  0.0816
  H  H183  1  0.972000  0.995100  0.814400  1.0  0.1205
  H  H184  1  0.985400  0.047100  0.812900  1.0  0.1273
  H  H185  1  0.518700  0.949600  0.817000  1.0  0.1215
  H  H186  1  0.530100  0.002100  0.817500  1.0  0.1163
  H  H187  1  0.555800  0.321400  0.051600  1.0  0.0903
  H  H188  1  0.979400  0.427400  0.127900  1.0  0.0646
  H  H189  1  0.721000  0.206600  0.080800  1.0  0.1131
  H  H190  1  0.716100  0.258700  0.070200  1.0  0.1128
  H  H191  1  0.734800  0.318400  0.889700  1.0  0.0721
  H  H192  1  0.687500  0.350200  0.674000  1.0  0.1102
  H  H193  1  0.514500  0.428000  0.872800  1.0  0.0678
  H  H194  1  0.933200  0.321500  0.949400  1.0  0.094
  H  H195  1  0.926000  0.395500  0.917300  1.0  0.0714
  H  H196  1  0.562900  0.395300  0.084100  1.0  0.0774
  H  H197  1  0.751800  0.195700  0.959300  1.0  0.1102
  H  H198  1  0.772900  0.246300  0.946200  1.0  0.101
  H  H199  1  0.508700  0.280400  0.318200  1.0  0.1177
  H  H200  1  0.509100  0.227800  0.318000  1.0  0.1233
  H  H201  1  0.692100  0.424100  0.706400  1.0  0.0701
  H  H202  1  0.761800  0.323300  0.135200  1.0  0.0902
  H  H203  1  0.819200  0.359400  0.346600  1.0  0.0968
  H  H204  1  0.814300  0.434400  0.308600  1.0  0.0816
  H  H205  1  0.472000  0.495100  0.814400  1.0  0.1205
  H  H206  1  0.485400  0.547100  0.812900  1.0  0.1273
  H  H207  1  0.018700  0.449600  0.817000  1.0  0.1215
  H  H208  1  0.030100  0.502100  0.817500  1.0  0.1163
  C  C209  1  0.008300  0.151400  0.192100  1.0  0.3614
  C  C210  1  0.473100  0.138100  0.889700  1.0  0.163
  C  C211  1  0.048100  0.156900  0.986500  1.0  0.1383
  C  C212  1  0.470500  0.094000  0.910500  1.0  0.1902
  C  C213  1  0.245600  0.268000  0.945100  1.0  -0.2859
  C  C214  1  0.329700  0.263500  0.916600  1.0  0.6717
  C  C215  1  0.153900  0.265900  0.058200  1.0  0.66
  C  C216  1  0.259300  0.097700  0.931100  1.0  0.2812
  C  C217  1  0.273900  0.110100  0.850900  1.0  0.1571
  C  C218  1  0.224400  0.160400  0.148500  1.0  0.1456
  C  C219  1  0.021400  0.138300  0.110200  1.0  0.2109
  C  C220  1  0.239600  0.099400  0.052000  1.0  0.2587
  C  C221  1  0.224700  0.115800  0.129200  1.0  0.1653
  C  C222  1  0.197600  0.141600  0.275000  1.0  0.1263
  C  C223  1  0.023400  0.093400  0.089000  1.0  0.1689
  C  C224  1  0.442600  0.156900  0.012700  1.0  0.1267
  C  C225  1  0.439800  0.112400  0.032300  1.0  0.1526
  C  C226  1  0.489800  0.150400  0.805500  1.0  0.4412
  C  C227  1  0.051000  0.112300  0.966800  1.0  0.1552
  C  C228  1  0.112400  0.245600  0.723500  1.0  0.7601
  C  C229  1  0.236100  0.273900  0.027600  1.0  -0.2887
  C  C230  1  0.023700  0.245800  0.711700  1.0  -0.3297
  C  C231  1  0.200300  0.097100  0.255000  1.0  0.1735
  C  C232  1  0.273500  0.154600  0.828600  1.0  0.1266
  C  C233  1  0.306300  0.133300  0.704300  1.0  0.1328
  C  C234  1  0.304000  0.087900  0.727800  1.0  0.1497
  C  C235  1  0.005200  0.981200  0.207300  1.0  -0.3284
  C  C236  1  0.497800  0.022300  0.203200  1.0  -0.3241
  C  C237  1  0.092500  0.988000  0.178800  1.0  0.6689
  C  C238  1  0.408000  0.016300  0.178300  1.0  0.6773
  C  C239  1  0.508300  0.651400  0.192100  1.0  0.3614
  C  C240  1  0.973100  0.638100  0.889700  1.0  0.163
  C  C241  1  0.548100  0.656900  0.986500  1.0  0.1383
  C  C242  1  0.970500  0.594000  0.910500  1.0  0.1902
  C  C243  1  0.745600  0.768000  0.945100  1.0  -0.2859
  C  C244  1  0.829700  0.763500  0.916600  1.0  0.6717
  C  C245  1  0.653900  0.765900  0.058200  1.0  0.66
  C  C246  1  0.759300  0.597700  0.931100  1.0  0.2812
  C  C247  1  0.773900  0.610100  0.850900  1.0  0.1571
  C  C248  1  0.724400  0.660400  0.148500  1.0  0.1456
  C  C249  1  0.521400  0.638300  0.110200  1.0  0.2109
  C  C250  1  0.739600  0.599400  0.052000  1.0  0.2587
  C  C251  1  0.724700  0.615800  0.129200  1.0  0.1653
  C  C252  1  0.697600  0.641600  0.275000  1.0  0.1263
  C  C253  1  0.523400  0.593400  0.089000  1.0  0.1689
  C  C254  1  0.942600  0.656900  0.012700  1.0  0.1267
  C  C255  1  0.939800  0.612400  0.032300  1.0  0.1526
  C  C256  1  0.989800  0.650400  0.805500  1.0  0.4412
  C  C257  1  0.551000  0.612300  0.966800  1.0  0.1552
  C  C258  1  0.612400  0.745600  0.723500  1.0  0.7601
  C  C259  1  0.736100  0.773900  0.027600  1.0  -0.2887
  C  C260  1  0.523700  0.745800  0.711700  1.0  -0.3297
  C  C261  1  0.700300  0.597100  0.255000  1.0  0.1735
  C  C262  1  0.773500  0.654600  0.828600  1.0  0.1266
  C  C263  1  0.806300  0.633300  0.704300  1.0  0.1328
  C  C264  1  0.804000  0.587900  0.727800  1.0  0.1497
  C  C265  1  0.505200  0.481200  0.207300  1.0  -0.3284
  C  C266  1  0.997800  0.522300  0.203200  1.0  -0.3241
  C  C267  1  0.592500  0.488000  0.178800  1.0  0.6689
  C  C268  1  0.908000  0.516300  0.178300  1.0  0.6773
  C  C269  1  0.991700  0.848600  0.692100  1.0  0.3614
  C  C270  1  0.526900  0.861900  0.389700  1.0  0.1628
  C  C271  1  0.951900  0.843100  0.486500  1.0  0.1378
  C  C272  1  0.529500  0.906000  0.410500  1.0  0.1907
  C  C273  1  0.754400  0.732000  0.445100  1.0  -0.2858
  C  C274  1  0.670300  0.736500  0.416600  1.0  0.6734
  C  C275  1  0.846100  0.734100  0.558200  1.0  0.6595
  C  C276  1  0.740700  0.902300  0.431100  1.0  0.2808
  C  C277  1  0.726100  0.889900  0.350900  1.0  0.1573
  C  C278  1  0.775600  0.839600  0.648500  1.0  0.144
  C  C279  1  0.978600  0.861700  0.610200  1.0  0.2114
  C  C280  1  0.760400  0.900600  0.552000  1.0  0.2596
  C  C281  1  0.775300  0.884200  0.629200  1.0  0.1654
  C  C282  1  0.802400  0.858400  0.775000  1.0  0.1267
  C  C283  1  0.976600  0.906600  0.589000  1.0  0.168
  C  C284  1  0.557400  0.843100  0.512700  1.0  0.1271
  C  C285  1  0.560200  0.887600  0.532300  1.0  0.1535
  C  C286  1  0.510200  0.849600  0.305500  1.0  0.4406
  C  C287  1  0.949000  0.887700  0.466800  1.0  0.1549
  C  C288  1  0.887600  0.754400  0.223500  1.0  0.7608
  C  C289  1  0.763900  0.726100  0.527600  1.0  -0.2909
  C  C290  1  0.976300  0.754200  0.211700  1.0  -0.3301
  C  C291  1  0.799700  0.902900  0.755000  1.0  0.1726
  C  C292  1  0.726500  0.845400  0.328600  1.0  0.1276
  C  C293  1  0.693700  0.866700  0.204300  1.0  0.1325
  C  C294  1  0.696000  0.912100  0.227800  1.0  0.1492
  C  C295  1  0.994800  0.018800  0.707300  1.0  -0.3267
  C  C296  1  0.502200  0.977700  0.703200  1.0  -0.3239
  C  C297  1  0.907500  0.012000  0.678800  1.0  0.6676
  C  C298  1  0.592000  0.983700  0.678300  1.0  0.6779
  C  C299  1  0.491700  0.348600  0.692100  1.0  0.3614
  C  C300  1  0.026900  0.361900  0.389700  1.0  0.1628
  C  C301  1  0.451900  0.343100  0.486500  1.0  0.1378
  C  C302  1  0.029500  0.406000  0.410500  1.0  0.1907
  C  C303  1  0.254400  0.232000  0.445100  1.0  -0.2858
  C  C304  1  0.170300  0.236500  0.416600  1.0  0.6734
  C  C305  1  0.346100  0.234100  0.558200  1.0  0.6595
  C  C306  1  0.240700  0.402300  0.431100  1.0  0.2808
  C  C307  1  0.226100  0.389900  0.350900  1.0  0.1573
  C  C308  1  0.275600  0.339600  0.648500  1.0  0.144
  C  C309  1  0.478600  0.361700  0.610200  1.0  0.2114
  C  C310  1  0.260400  0.400600  0.552000  1.0  0.2596
  C  C311  1  0.275300  0.384200  0.629200  1.0  0.1654
  C  C312  1  0.302400  0.358400  0.775000  1.0  0.1267
  C  C313  1  0.476600  0.406600  0.589000  1.0  0.168
  C  C314  1  0.057400  0.343100  0.512700  1.0  0.1271
  C  C315  1  0.060200  0.387600  0.532300  1.0  0.1535
  C  C316  1  0.010200  0.349600  0.305500  1.0  0.4406
  C  C317  1  0.449000  0.387700  0.466800  1.0  0.1549
  C  C318  1  0.387600  0.254400  0.223500  1.0  0.7608
  C  C319  1  0.263900  0.226100  0.527600  1.0  -0.2909
  C  C320  1  0.476300  0.254200  0.211700  1.0  -0.3301
  C  C321  1  0.299700  0.402900  0.755000  1.0  0.1726
  C  C322  1  0.226500  0.345400  0.328600  1.0  0.1276
  C  C323  1  0.193700  0.366700  0.204300  1.0  0.1325
  C  C324  1  0.196000  0.412100  0.227800  1.0  0.1492
  C  C325  1  0.494800  0.518800  0.707300  1.0  -0.3267
  C  C326  1  0.002200  0.477700  0.703200  1.0  -0.3239
  C  C327  1  0.407500  0.512000  0.678800  1.0  0.6676
  C  C328  1  0.092000  0.483700  0.678300  1.0  0.6779
  C  C329  1  0.991700  0.151400  0.307900  1.0  0.3621
  C  C330  1  0.526900  0.138100  0.610300  1.0  0.1637
  C  C331  1  0.951900  0.156900  0.513500  1.0  0.1377
  C  C332  1  0.529500  0.094000  0.589500  1.0  0.1909
  C  C333  1  0.754400  0.268000  0.554900  1.0  -0.2858
  C  C334  1  0.670300  0.263500  0.583400  1.0  0.6737
  C  C335  1  0.846100  0.265900  0.441800  1.0  0.659
  C  C336  1  0.740700  0.097700  0.568900  1.0  0.2806
  C  C337  1  0.726100  0.110100  0.649100  1.0  0.1576
  C  C338  1  0.775600  0.160400  0.351500  1.0  0.1445
  C  C339  1  0.978600  0.138300  0.389800  1.0  0.2109
  C  C340  1  0.760400  0.099400  0.448000  1.0  0.2607
  C  C341  1  0.775300  0.115800  0.370800  1.0  0.1648
  C  C342  1  0.802400  0.141600  0.225000  1.0  0.1264
  C  C343  1  0.976600  0.093400  0.411000  1.0  0.1684
  C  C344  1  0.557400  0.156900  0.487300  1.0  0.1263
  C  C345  1  0.560200  0.112400  0.467700  1.0  0.1521
  C  C346  1  0.510200  0.150400  0.694500  1.0  0.4405
  C  C347  1  0.949000  0.112300  0.533200  1.0  0.155
  C  C348  1  0.887600  0.245600  0.776500  1.0  0.761
  C  C349  1  0.763900  0.273900  0.472400  1.0  -0.2894
  C  C350  1  0.976300  0.245800  0.788300  1.0  -0.3324
  C  C351  1  0.799700  0.097100  0.245000  1.0  0.1732
  C  C352  1  0.726500  0.154600  0.671400  1.0  0.1279
  C  C353  1  0.693700  0.133300  0.795700  1.0  0.1311
  C  C354  1  0.696000  0.087900  0.772200  1.0  0.1501
  C  C355  1  0.994800  0.981200  0.292700  1.0  -0.3307
  C  C356  1  0.502200  0.022300  0.296800  1.0  -0.3294
  C  C357  1  0.907500  0.988000  0.321200  1.0  0.6684
  C  C358  1  0.592000  0.016300  0.321700  1.0  0.6776
  C  C359  1  0.491700  0.651400  0.307900  1.0  0.3621
  C  C360  1  0.026900  0.638100  0.610300  1.0  0.1637
  C  C361  1  0.451900  0.656900  0.513500  1.0  0.1377
  C  C362  1  0.029500  0.594000  0.589500  1.0  0.1909
  C  C363  1  0.254400  0.768000  0.554900  1.0  -0.2858
  C  C364  1  0.170300  0.763500  0.583400  1.0  0.6737
  C  C365  1  0.346100  0.765900  0.441800  1.0  0.659
  C  C366  1  0.240700  0.597700  0.568900  1.0  0.2806
  C  C367  1  0.226100  0.610100  0.649100  1.0  0.1576
  C  C368  1  0.275600  0.660400  0.351500  1.0  0.1445
  C  C369  1  0.478600  0.638300  0.389800  1.0  0.2109
  C  C370  1  0.260400  0.599400  0.448000  1.0  0.2607
  C  C371  1  0.275300  0.615800  0.370800  1.0  0.1648
  C  C372  1  0.302400  0.641600  0.225000  1.0  0.1264
  C  C373  1  0.476600  0.593400  0.411000  1.0  0.1684
  C  C374  1  0.057400  0.656900  0.487300  1.0  0.1263
  C  C375  1  0.060200  0.612400  0.467700  1.0  0.1521
  C  C376  1  0.010200  0.650400  0.694500  1.0  0.4405
  C  C377  1  0.449000  0.612300  0.533200  1.0  0.155
  C  C378  1  0.387600  0.745600  0.776500  1.0  0.761
  C  C379  1  0.263900  0.773900  0.472400  1.0  -0.2894
  C  C380  1  0.476300  0.745800  0.788300  1.0  -0.3324
  C  C381  1  0.299700  0.597100  0.245000  1.0  0.1732
  C  C382  1  0.226500  0.654600  0.671400  1.0  0.1279
  C  C383  1  0.193700  0.633300  0.795700  1.0  0.1311
  C  C384  1  0.196000  0.587900  0.772200  1.0  0.1501
  C  C385  1  0.494800  0.481200  0.292700  1.0  -0.3307
  C  C386  1  0.002200  0.522300  0.296800  1.0  -0.3294
  C  C387  1  0.407500  0.488000  0.321200  1.0  0.6684
  C  C388  1  0.092000  0.516300  0.321700  1.0  0.6776
  C  C389  1  0.008300  0.848600  0.807900  1.0  0.3619
  C  C390  1  0.473100  0.861900  0.110300  1.0  0.164
  C  C391  1  0.048100  0.843100  0.013500  1.0  0.1384
  C  C392  1  0.470500  0.906000  0.089500  1.0  0.1909
  C  C393  1  0.245600  0.732000  0.054900  1.0  -0.2877
  C  C394  1  0.329700  0.736500  0.083400  1.0  0.6731
  C  C395  1  0.153900  0.734100  0.941800  1.0  0.6607
  C  C396  1  0.259300  0.902300  0.068900  1.0  0.2808
  C  C397  1  0.273900  0.889900  0.149100  1.0  0.1566
  C  C398  1  0.224400  0.839600  0.851500  1.0  0.1468
  C  C399  1  0.021400  0.861700  0.889800  1.0  0.2101
  C  C400  1  0.239600  0.900600  0.948000  1.0  0.2596
  C  C401  1  0.224700  0.884200  0.870800  1.0  0.165
  C  C402  1  0.197600  0.858400  0.725000  1.0  0.1265
  C  C403  1  0.023400  0.906600  0.911000  1.0  0.1678
  C  C404  1  0.442600  0.843100  0.987300  1.0  0.1273
  C  C405  1  0.439800  0.887600  0.967700  1.0  0.1518
  C  C406  1  0.489800  0.849600  0.194500  1.0  0.4407
  C  C407  1  0.051000  0.887700  0.033200  1.0  0.1557
  C  C408  1  0.112400  0.754400  0.276500  1.0  0.7602
  C  C409  1  0.236100  0.726100  0.972400  1.0  -0.2887
  C  C410  1  0.023700  0.754200  0.288300  1.0  -0.3327
  C  C411  1  0.200300  0.902900  0.745000  1.0  0.1734
  C  C412  1  0.273500  0.845400  0.171400  1.0  0.1278
  C  C413  1  0.306300  0.866700  0.295700  1.0  0.1324
  C  C414  1  0.304000  0.912100  0.272200  1.0  0.1487
  C  C415  1  0.005200  0.018800  0.792700  1.0  -0.3315
  C  C416  1  0.497800  0.977700  0.796800  1.0  -0.3297
  C  C417  1  0.092500  0.012000  0.821200  1.0  0.669
  C  C418  1  0.408000  0.983700  0.821700  1.0  0.6774
  C  C419  1  0.508300  0.348600  0.807900  1.0  0.3619
  C  C420  1  0.973100  0.361900  0.110300  1.0  0.164
  C  C421  1  0.548100  0.343100  0.013500  1.0  0.1384
  C  C422  1  0.970500  0.406000  0.089500  1.0  0.1909
  C  C423  1  0.745600  0.232000  0.054900  1.0  -0.2877
  C  C424  1  0.829700  0.236500  0.083400  1.0  0.6731
  C  C425  1  0.653900  0.234100  0.941800  1.0  0.6607
  C  C426  1  0.759300  0.402300  0.068900  1.0  0.2808
  C  C427  1  0.773900  0.389900  0.149100  1.0  0.1566
  C  C428  1  0.724400  0.339600  0.851500  1.0  0.1468
  C  C429  1  0.521400  0.361700  0.889800  1.0  0.2101
  C  C430  1  0.739600  0.400600  0.948000  1.0  0.2596
  C  C431  1  0.724700  0.384200  0.870800  1.0  0.165
  C  C432  1  0.697600  0.358400  0.725000  1.0  0.1265
  C  C433  1  0.523400  0.406600  0.911000  1.0  0.1678
  C  C434  1  0.942600  0.343100  0.987300  1.0  0.1273
  C  C435  1  0.939800  0.387600  0.967700  1.0  0.1518
  C  C436  1  0.989800  0.349600  0.194500  1.0  0.4407
  C  C437  1  0.551000  0.387700  0.033200  1.0  0.1557
  C  C438  1  0.612400  0.254400  0.276500  1.0  0.7602
  C  C439  1  0.736100  0.226100  0.972400  1.0  -0.2887
  C  C440  1  0.523700  0.254200  0.288300  1.0  -0.3327
  C  C441  1  0.700300  0.402900  0.745000  1.0  0.1734
  C  C442  1  0.773500  0.345400  0.171400  1.0  0.1278
  C  C443  1  0.806300  0.366700  0.295700  1.0  0.1324
  C  C444  1  0.804000  0.412100  0.272200  1.0  0.1487
  C  C445  1  0.505200  0.518800  0.792700  1.0  -0.3315
  C  C446  1  0.997800  0.477700  0.796800  1.0  -0.3297
  C  C447  1  0.592500  0.512000  0.821200  1.0  0.669
  C  C448  1  0.908000  0.483700  0.821700  1.0  0.6774
  N  N449  1  0.491600  0.193700  0.789100  1.0  -0.3561
  N  N450  1  0.034400  0.170100  0.059900  1.0  -0.434
  N  N451  1  0.006900  0.194500  0.211000  1.0  -0.3228
  N  N452  1  0.458900  0.170300  0.938400  1.0  -0.4209
  N  N453  1  0.245100  0.055400  0.032900  1.0  -0.2624
  N  N454  1  0.213700  0.082800  0.184100  1.0  -0.3984
  N  N455  1  0.255600  0.053800  0.955000  1.0  -0.298
  N  N456  1  0.209600  0.174100  0.220200  1.0  -0.3634
  N  N457  1  0.249400  0.127400  0.989300  1.0  -0.4871
  N  N458  1  0.037300  0.079400  0.018000  1.0  -0.3693
  N  N459  1  0.287600  0.076100  0.800300  1.0  -0.4218
  N  N460  1  0.456100  0.079500  0.981200  1.0  -0.3722
  N  N461  1  0.289700  0.166300  0.755400  1.0  -0.3625
  N  N462  1  0.991600  0.693700  0.789100  1.0  -0.3561
  N  N463  1  0.534400  0.670100  0.059900  1.0  -0.434
  N  N464  1  0.506900  0.694500  0.211000  1.0  -0.3228
  N  N465  1  0.958900  0.670300  0.938400  1.0  -0.4209
  N  N466  1  0.745100  0.555400  0.032900  1.0  -0.2624
  N  N467  1  0.713700  0.582800  0.184100  1.0  -0.3984
  N  N468  1  0.755600  0.553800  0.955000  1.0  -0.298
  N  N469  1  0.709600  0.674100  0.220200  1.0  -0.3634
  N  N470  1  0.749400  0.627400  0.989300  1.0  -0.4871
  N  N471  1  0.537300  0.579400  0.018000  1.0  -0.3693
  N  N472  1  0.787600  0.576100  0.800300  1.0  -0.4218
  N  N473  1  0.956100  0.579500  0.981200  1.0  -0.3722
  N  N474  1  0.789700  0.666300  0.755400  1.0  -0.3625
  N  N475  1  0.508400  0.806300  0.289100  1.0  -0.3555
  N  N476  1  0.965600  0.829900  0.559900  1.0  -0.4328
  N  N477  1  0.993100  0.805500  0.711000  1.0  -0.3231
  N  N478  1  0.541100  0.829700  0.438400  1.0  -0.4193
  N  N479  1  0.754900  0.944600  0.532900  1.0  -0.2624
  N  N480  1  0.786300  0.917200  0.684100  1.0  -0.399
  N  N481  1  0.744400  0.946200  0.455000  1.0  -0.2966
  N  N482  1  0.790400  0.825900  0.720200  1.0  -0.3627
  N  N483  1  0.750600  0.872600  0.489300  1.0  -0.4857
  N  N484  1  0.962700  0.920600  0.518000  1.0  -0.3683
  N  N485  1  0.712400  0.923900  0.300300  1.0  -0.4214
  N  N486  1  0.543900  0.920500  0.481200  1.0  -0.3732
  N  N487  1  0.710300  0.833700  0.255400  1.0  -0.3625
  N  N488  1  0.008400  0.306300  0.289100  1.0  -0.3555
  N  N489  1  0.465600  0.329900  0.559900  1.0  -0.4328
  N  N490  1  0.493100  0.305500  0.711000  1.0  -0.3231
  N  N491  1  0.041100  0.329700  0.438400  1.0  -0.4193
  N  N492  1  0.254900  0.444600  0.532900  1.0  -0.2624
  N  N493  1  0.286300  0.417200  0.684100  1.0  -0.399
  N  N494  1  0.244400  0.446200  0.455000  1.0  -0.2966
  N  N495  1  0.290400  0.325900  0.720200  1.0  -0.3627
  N  N496  1  0.250600  0.372600  0.489300  1.0  -0.4857
  N  N497  1  0.462700  0.420600  0.518000  1.0  -0.3683
  N  N498  1  0.212400  0.423900  0.300300  1.0  -0.4214
  N  N499  1  0.043900  0.420500  0.481200  1.0  -0.3732
  N  N500  1  0.210300  0.333700  0.255400  1.0  -0.3625
  N  N501  1  0.508400  0.193700  0.710900  1.0  -0.3555
  N  N502  1  0.965600  0.170100  0.440100  1.0  -0.4341
  N  N503  1  0.993100  0.194500  0.289000  1.0  -0.3225
  N  N504  1  0.541100  0.170300  0.561600  1.0  -0.4216
  N  N505  1  0.754900  0.055400  0.467100  1.0  -0.2622
  N  N506  1  0.786300  0.082800  0.315900  1.0  -0.3977
  N  N507  1  0.744400  0.053800  0.545000  1.0  -0.2984
  N  N508  1  0.790400  0.174100  0.279800  1.0  -0.3617
  N  N509  1  0.750600  0.127400  0.510700  1.0  -0.4878
  N  N510  1  0.962700  0.079400  0.482000  1.0  -0.3686
  N  N511  1  0.712400  0.076100  0.699700  1.0  -0.4216
  N  N512  1  0.543900  0.079500  0.518800  1.0  -0.3715
  N  N513  1  0.710300  0.166300  0.744600  1.0  -0.3635
  N  N514  1  0.008400  0.693700  0.710900  1.0  -0.3555
  N  N515  1  0.465600  0.670100  0.440100  1.0  -0.4341
  N  N516  1  0.493100  0.694500  0.289000  1.0  -0.3225
  N  N517  1  0.041100  0.670300  0.561600  1.0  -0.4216
  N  N518  1  0.254900  0.555400  0.467100  1.0  -0.2622
  N  N519  1  0.286300  0.582800  0.315900  1.0  -0.3977
  N  N520  1  0.244400  0.553800  0.545000  1.0  -0.2984
  N  N521  1  0.290400  0.674100  0.279800  1.0  -0.3617
  N  N522  1  0.250600  0.627400  0.510700  1.0  -0.4878
  N  N523  1  0.462700  0.579400  0.482000  1.0  -0.3686
  N  N524  1  0.212400  0.576100  0.699700  1.0  -0.4216
  N  N525  1  0.043900  0.579500  0.518800  1.0  -0.3715
  N  N526  1  0.210300  0.666300  0.744600  1.0  -0.3635
  N  N527  1  0.491600  0.806300  0.210900  1.0  -0.3554
  N  N528  1  0.034400  0.829900  0.940100  1.0  -0.4335
  N  N529  1  0.006900  0.805500  0.789000  1.0  -0.3231
  N  N530  1  0.458900  0.829700  0.061600  1.0  -0.4191
  N  N531  1  0.245100  0.944600  0.967100  1.0  -0.2614
  N  N532  1  0.213700  0.917200  0.815900  1.0  -0.3979
  N  N533  1  0.255600  0.946200  0.045000  1.0  -0.2979
  N  N534  1  0.209600  0.825900  0.779800  1.0  -0.3619
  N  N535  1  0.249400  0.872600  0.010700  1.0  -0.4856
  N  N536  1  0.037300  0.920600  0.982000  1.0  -0.37
  N  N537  1  0.287600  0.923900  0.199700  1.0  -0.4211
  N  N538  1  0.456100  0.920500  0.018800  1.0  -0.372
  N  N539  1  0.289700  0.833700  0.244600  1.0  -0.363
  N  N540  1  0.991600  0.306300  0.210900  1.0  -0.3554
  N  N541  1  0.534400  0.329900  0.940100  1.0  -0.4335
  N  N542  1  0.506900  0.305500  0.789000  1.0  -0.3231
  N  N543  1  0.958900  0.329700  0.061600  1.0  -0.4191
  N  N544  1  0.745100  0.444600  0.967100  1.0  -0.2614
  N  N545  1  0.713700  0.417200  0.815900  1.0  -0.3979
  N  N546  1  0.755600  0.446200  0.045000  1.0  -0.2979
  N  N547  1  0.709600  0.325900  0.779800  1.0  -0.3619
  N  N548  1  0.749400  0.372600  0.010700  1.0  -0.4856
  N  N549  1  0.537300  0.420600  0.982000  1.0  -0.37
  N  N550  1  0.787600  0.423900  0.199700  1.0  -0.4211
  N  N551  1  0.956100  0.420500  0.018800  1.0  -0.372
  N  N552  1  0.789700  0.333700  0.244600  1.0  -0.363
  N  N553  1  0.000000  0.122600  0.250000  1.0  -0.4405
  N  N554  1  0.500000  0.622600  0.250000  1.0  -0.4405
  N  N555  1  0.000000  0.877400  0.750000  1.0  -0.4398
  N  N556  1  0.500000  0.377400  0.750000  1.0  -0.4398
  N  N557  1  0.500000  0.121900  0.750000  1.0  -0.3976
  N  N558  1  0.000000  0.621900  0.750000  1.0  -0.3976
  N  N559  1  0.500000  0.878100  0.250000  1.0  -0.3961
  N  N560  1  0.000000  0.378100  0.250000  1.0  -0.3961
  O  O561  1  0.344400  0.254500  0.846400  1.0  -0.6973
  O  O562  1  0.092300  0.265000  0.015600  1.0  -0.6353
  O  O563  1  0.388800  0.268200  0.962600  1.0  -0.6233
  O  O564  1  0.351700  0.021800  0.223100  1.0  -0.5568
  O  O565  1  0.148300  0.988400  0.223100  1.0  -0.5635
  O  O566  1  0.142000  0.261300  0.130600  1.0  -0.6881
  O  O567  1  0.399700  0.007500  0.105500  1.0  -0.6908
  O  O568  1  0.099200  0.995100  0.103800  1.0  -0.6883
  O  O569  1  0.145100  0.224900  0.780900  1.0  -0.6667
  O  O570  1  0.154600  0.265300  0.675600  1.0  -0.6043
  O  O571  1  0.844400  0.754500  0.846400  1.0  -0.6973
  O  O572  1  0.592300  0.765000  0.015600  1.0  -0.6353
  O  O573  1  0.888800  0.768200  0.962600  1.0  -0.6233
  O  O574  1  0.851700  0.521800  0.223100  1.0  -0.5568
  O  O575  1  0.648300  0.488400  0.223100  1.0  -0.5635
  O  O576  1  0.642000  0.761300  0.130600  1.0  -0.6881
  O  O577  1  0.899700  0.507500  0.105500  1.0  -0.6908
  O  O578  1  0.599200  0.495100  0.103800  1.0  -0.6883
  O  O579  1  0.645100  0.724900  0.780900  1.0  -0.6667
  O  O580  1  0.654600  0.765300  0.675600  1.0  -0.6043
  O  O581  1  0.655600  0.745500  0.346400  1.0  -0.6973
  O  O582  1  0.907700  0.735000  0.515600  1.0  -0.6367
  O  O583  1  0.611200  0.731800  0.462600  1.0  -0.6229
  O  O584  1  0.648300  0.978200  0.723100  1.0  -0.5562
  O  O585  1  0.851700  0.011600  0.723100  1.0  -0.5651
  O  O586  1  0.858000  0.738700  0.630600  1.0  -0.6874
  O  O587  1  0.600300  0.992500  0.605500  1.0  -0.6929
  O  O588  1  0.900800  0.004900  0.603800  1.0  -0.6884
  O  O589  1  0.854900  0.775100  0.280900  1.0  -0.6671
  O  O590  1  0.845400  0.734700  0.175600  1.0  -0.6039
  O  O591  1  0.155600  0.245500  0.346400  1.0  -0.6973
  O  O592  1  0.407700  0.235000  0.515600  1.0  -0.6367
  O  O593  1  0.111200  0.231800  0.462600  1.0  -0.6229
  O  O594  1  0.148300  0.478200  0.723100  1.0  -0.5562
  O  O595  1  0.351700  0.511600  0.723100  1.0  -0.5651
  O  O596  1  0.358000  0.238700  0.630600  1.0  -0.6874
  O  O597  1  0.100300  0.492500  0.605500  1.0  -0.6929
  O  O598  1  0.400800  0.504900  0.603800  1.0  -0.6884
  O  O599  1  0.354900  0.275100  0.280900  1.0  -0.6671
  O  O600  1  0.345400  0.234700  0.175600  1.0  -0.6039
  O  O601  1  0.655600  0.254500  0.653600  1.0  -0.6974
  O  O602  1  0.907700  0.265000  0.484400  1.0  -0.636
  O  O603  1  0.611200  0.268200  0.537400  1.0  -0.623
  O  O604  1  0.648300  0.021800  0.276900  1.0  -0.5566
  O  O605  1  0.851700  0.988400  0.276900  1.0  -0.5643
  O  O606  1  0.858000  0.261300  0.369400  1.0  -0.6898
  O  O607  1  0.600300  0.007500  0.394500  1.0  -0.6939
  O  O608  1  0.900800  0.995100  0.396200  1.0  -0.6881
  O  O609  1  0.854900  0.224900  0.719100  1.0  -0.6669
  O  O610  1  0.845400  0.265300  0.824400  1.0  -0.6033
  O  O611  1  0.155600  0.754500  0.653600  1.0  -0.6974
  O  O612  1  0.407700  0.765000  0.484400  1.0  -0.636
  O  O613  1  0.111200  0.768200  0.537400  1.0  -0.623
  O  O614  1  0.148300  0.521800  0.276900  1.0  -0.5566
  O  O615  1  0.351700  0.488400  0.276900  1.0  -0.5643
  O  O616  1  0.358000  0.761300  0.369400  1.0  -0.6898
  O  O617  1  0.100300  0.507500  0.394500  1.0  -0.6939
  O  O618  1  0.400800  0.495100  0.396200  1.0  -0.6881
  O  O619  1  0.354900  0.724900  0.719100  1.0  -0.6669
  O  O620  1  0.345400  0.765300  0.824400  1.0  -0.6033
  O  O621  1  0.344400  0.745500  0.153600  1.0  -0.6969
  O  O622  1  0.092300  0.735000  0.984400  1.0  -0.6358
  O  O623  1  0.388800  0.731800  0.037400  1.0  -0.6244
  O  O624  1  0.351700  0.978200  0.776900  1.0  -0.5564
  O  O625  1  0.148300  0.011600  0.776900  1.0  -0.5629
  O  O626  1  0.142000  0.738700  0.869400  1.0  -0.6905
  O  O627  1  0.399700  0.992500  0.894500  1.0  -0.6924
  O  O628  1  0.099200  0.004900  0.896200  1.0  -0.6885
  O  O629  1  0.145100  0.775100  0.219100  1.0  -0.6673
  O  O630  1  0.154600  0.734700  0.324400  1.0  -0.6045
  O  O631  1  0.844400  0.245500  0.153600  1.0  -0.6969
  O  O632  1  0.592300  0.235000  0.984400  1.0  -0.6358
  O  O633  1  0.888800  0.231800  0.037400  1.0  -0.6244
  O  O634  1  0.851700  0.478200  0.776900  1.0  -0.5564
  O  O635  1  0.648300  0.511600  0.776900  1.0  -0.5629
  O  O636  1  0.642000  0.238700  0.869400  1.0  -0.6905
  O  O637  1  0.899700  0.492500  0.894500  1.0  -0.6924
  O  O638  1  0.599200  0.504900  0.896200  1.0  -0.6885
  O  O639  1  0.645100  0.275100  0.219100  1.0  -0.6673
  O  O640  1  0.654600  0.234700  0.324400  1.0  -0.6045
