# generated using pymatgen
data_Cu3H14C28(NO5)4
_symmetry_space_group_name_H-M   'P 1'
_cell_length_a   15.34800000
_cell_length_b   32.86600000
_cell_length_c   10.11220000
_cell_angle_alpha   90.00000000
_cell_angle_beta   106.64200000
_cell_angle_gamma   90.00000000
_symmetry_Int_Tables_number   1
_chemical_formula_structural   Cu3H14C28(NO5)4
_chemical_formula_sum   'Cu12 H56 C112 N16 O80'
_cell_volume   4887.20974301
_cell_formula_units_Z   4
loop_
 _symmetry_equiv_pos_site_id
 _symmetry_equiv_pos_as_xyz
  1  'x, y, z'
loop_
 _atom_site_type_symbol
 _atom_site_label
 _atom_site_symmetry_multiplicity
 _atom_site_fract_x
 _atom_site_fract_y
 _atom_site_fract_z
 _atom_site_occupancy
 _atom_site_charge
  Cu  Cu1  1  0.154880  0.274670  0.460820  1.0  1.0303
  Cu  Cu2  1  0.008230  0.217210  0.483990  1.0  1.0602
  Cu  Cu3  1  0.081220  0.216670  0.225640  1.0  0.9236
  Cu  Cu4  1  0.845120  0.774670  0.039180  1.0  1.0315
  Cu  Cu5  1  0.991770  0.717210  0.016010  1.0  1.0605
  Cu  Cu6  1  0.918780  0.716670  0.274360  1.0  0.9238
  Cu  Cu7  1  0.845120  0.725330  0.539180  1.0  1.0319
  Cu  Cu8  1  0.991770  0.782790  0.516010  1.0  1.0601
  Cu  Cu9  1  0.918780  0.783330  0.774360  1.0  0.9242
  Cu  Cu10  1  0.154880  0.225330  0.960820  1.0  1.0307
  Cu  Cu11  1  0.008230  0.282790  0.983990  1.0  1.0595
  Cu  Cu12  1  0.081220  0.283330  0.725640  1.0  0.9242
  H  H13  1  0.158900  0.200900  0.464500  1.0  0.5045
  H  H14  1  0.005200  0.208200  0.985900  1.0  0.5021
  H  H15  1  0.058000  0.082800  0.204500  1.0  0.1473
  H  H16  1  0.020400  0.015300  0.181000  1.0  0.1535
  H  H17  1  0.866700  0.101900  0.391100  1.0  0.1518
  H  H18  1  0.813000  0.905200  0.000500  1.0  0.1644
  H  H19  1  0.947000  0.886600  0.396600  1.0  0.1431
  H  H20  1  0.960200  0.956000  0.432300  1.0  0.1472
  H  H21  1  0.400600  0.300800  0.373700  1.0  0.1661
  H  H22  1  0.491300  0.198700  0.128600  1.0  0.1494
  H  H23  1  0.350600  0.196200  0.165200  1.0  0.1549
  H  H24  1  0.668400  0.202000  0.294200  1.0  0.1419
  H  H25  1  0.814000  0.204500  0.277600  1.0  0.1565
  H  H26  1  0.749600  0.304600  0.043800  1.0  0.1528
  H  H27  1  0.841100  0.700900  0.035500  1.0  0.5036
  H  H28  1  0.994800  0.708200  0.514100  1.0  0.5022
  H  H29  1  0.942000  0.582800  0.295500  1.0  0.1478
  H  H30  1  0.979600  0.515300  0.319000  1.0  0.1533
  H  H31  1  0.133300  0.601900  0.108900  1.0  0.1514
  H  H32  1  0.187000  0.405200  0.499500  1.0  0.1643
  H  H33  1  0.053000  0.386600  0.103400  1.0  0.1425
  H  H34  1  0.039800  0.456000  0.067700  1.0  0.1467
  H  H35  1  0.599400  0.800800  0.126300  1.0  0.1663
  H  H36  1  0.508700  0.698700  0.371400  1.0  0.1495
  H  H37  1  0.649400  0.696200  0.334800  1.0  0.1548
  H  H38  1  0.331600  0.702000  0.205800  1.0  0.1414
  H  H39  1  0.186000  0.704500  0.222400  1.0  0.1566
  H  H40  1  0.250400  0.804600  0.456200  1.0  0.1526
  H  H41  1  0.841100  0.799100  0.535500  1.0  0.502
  H  H42  1  0.994800  0.791800  0.014100  1.0  0.5027
  H  H43  1  0.942000  0.917200  0.795500  1.0  0.1478
  H  H44  1  0.979600  0.984700  0.819000  1.0  0.153
  H  H45  1  0.133300  0.898100  0.608900  1.0  0.1508
  H  H46  1  0.187000  0.094800  0.999500  1.0  0.1642
  H  H47  1  0.053000  0.113400  0.603400  1.0  0.1425
  H  H48  1  0.039800  0.044000  0.567700  1.0  0.1467
  H  H49  1  0.599400  0.699200  0.626300  1.0  0.166
  H  H50  1  0.508700  0.801300  0.871400  1.0  0.1494
  H  H51  1  0.649400  0.803800  0.834800  1.0  0.1553
  H  H52  1  0.331600  0.798000  0.705800  1.0  0.1411
  H  H53  1  0.186000  0.795500  0.722400  1.0  0.1569
  H  H54  1  0.250400  0.695400  0.956200  1.0  0.1523
  H  H55  1  0.158900  0.299100  0.964500  1.0  0.5047
  H  H56  1  0.005200  0.291800  0.485900  1.0  0.5024
  H  H57  1  0.058000  0.417200  0.704500  1.0  0.1472
  H  H58  1  0.020400  0.484700  0.681000  1.0  0.1534
  H  H59  1  0.866700  0.398100  0.891100  1.0  0.1515
  H  H60  1  0.813000  0.594800  0.500500  1.0  0.1644
  H  H61  1  0.947000  0.613400  0.896600  1.0  0.1426
  H  H62  1  0.960200  0.544000  0.932300  1.0  0.147
  H  H63  1  0.400600  0.199200  0.873700  1.0  0.1661
  H  H64  1  0.491300  0.301300  0.628600  1.0  0.1498
  H  H65  1  0.350600  0.303800  0.665200  1.0  0.1556
  H  H66  1  0.668400  0.298000  0.794200  1.0  0.1416
  H  H67  1  0.814000  0.295500  0.777600  1.0  0.1567
  H  H68  1  0.749600  0.195400  0.543800  1.0  0.1525
  C  C69  1  0.992900  0.143770  0.317000  1.0  0.7426
  C  C70  1  0.966100  0.099780  0.300000  1.0  -0.0407
  C  C71  1  0.010900  0.073200  0.236900  1.0  -0.004
  C  C72  1  0.987300  0.032700  0.220700  1.0  -0.0785
  C  C73  1  0.915500  0.017400  0.262200  1.0  0.0982
  C  C74  1  0.870700  0.044900  0.325100  1.0  0.1181
  C  C75  1  0.896700  0.084800  0.345500  1.0  -0.0837
  C  C76  1  0.892900  0.973000  0.239800  1.0  0.0478
  C  C77  1  0.850700  0.956400  0.110400  1.0  0.0987
  C  C78  1  0.842000  0.915100  0.088200  1.0  0.0088
  C  C79  1  0.876100  0.888600  0.194700  1.0  -0.1064
  C  C80  1  0.921600  0.904300  0.323800  1.0  -0.0005
  C  C81  1  0.929600  0.946100  0.345200  1.0  -0.0809
  C  C82  1  0.871000  0.843300  0.171000  1.0  0.7319
  C  C83  1  0.269500  0.247670  0.296700  1.0  0.7347
  C  C84  1  0.360600  0.248300  0.270400  1.0  -0.1034
  C  C85  1  0.418200  0.280500  0.322900  1.0  -0.0558
  C  C86  1  0.502300  0.282000  0.298800  1.0  0.0862
  C  C87  1  0.531700  0.252200  0.221800  1.0  0.0906
  C  C88  1  0.473300  0.219800  0.176000  1.0  -0.09
  C  C89  1  0.388800  0.218100  0.198900  1.0  -0.0058
  C  C90  1  0.621500  0.253400  0.190700  1.0  0.1102
  C  C91  1  0.685200  0.223500  0.247000  1.0  -0.083
  C  C92  1  0.772600  0.224500  0.235400  1.0  -0.0348
  C  C93  1  0.798800  0.255200  0.161300  1.0  -0.1155
  C  C94  1  0.734000  0.284400  0.097100  1.0  -0.0664
  C  C95  1  0.648200  0.283400  0.111600  1.0  0.0339
  C  C96  1  0.893800  0.257940  0.149700  1.0  0.727
  C  C97  1  0.007100  0.643770  0.183000  1.0  0.7422
  C  C98  1  0.033900  0.599780  0.200000  1.0  -0.0407
  C  C99  1  0.989100  0.573200  0.263100  1.0  -0.0028
  C  C100  1  0.012700  0.532700  0.279300  1.0  -0.0782
  C  C101  1  0.084500  0.517400  0.237800  1.0  0.0989
  C  C102  1  0.129300  0.544900  0.174900  1.0  0.1211
  C  C103  1  0.103300  0.584800  0.154500  1.0  -0.0832
  C  C104  1  0.107100  0.473000  0.260200  1.0  0.048
  C  C105  1  0.149300  0.456400  0.389600  1.0  0.0967
  C  C106  1  0.158000  0.415100  0.411800  1.0  0.0084
  C  C107  1  0.123900  0.388600  0.305300  1.0  -0.105
  C  C108  1  0.078400  0.404300  0.176200  1.0  -0.0008
  C  C109  1  0.070400  0.446100  0.154800  1.0  -0.0811
  C  C110  1  0.129000  0.343300  0.329000  1.0  0.7322
  C  C111  1  0.730500  0.747670  0.203300  1.0  0.7357
  C  C112  1  0.639400  0.748300  0.229600  1.0  -0.1025
  C  C113  1  0.581800  0.780500  0.177100  1.0  -0.0559
  C  C114  1  0.497700  0.782000  0.201200  1.0  0.0872
  C  C115  1  0.468300  0.752200  0.278200  1.0  0.091
  C  C116  1  0.526700  0.719800  0.324000  1.0  -0.0906
  C  C117  1  0.611200  0.718100  0.301100  1.0  -0.0074
  C  C118  1  0.378500  0.753400  0.309300  1.0  0.109
  C  C119  1  0.314800  0.723500  0.253000  1.0  -0.0828
  C  C120  1  0.227400  0.724500  0.264600  1.0  -0.0331
  C  C121  1  0.201200  0.755200  0.338700  1.0  -0.1178
  C  C122  1  0.266000  0.784400  0.402900  1.0  -0.0661
  C  C123  1  0.351800  0.783400  0.388400  1.0  0.0342
  C  C124  1  0.106200  0.757940  0.350300  1.0  0.7266
  C  C125  1  0.007100  0.856230  0.683000  1.0  0.7417
  C  C126  1  0.033900  0.900220  0.700000  1.0  -0.0414
  C  C127  1  0.989100  0.926800  0.763100  1.0  -0.0019
  C  C128  1  0.012700  0.967300  0.779300  1.0  -0.0783
  C  C129  1  0.084500  0.982600  0.737800  1.0  0.099
  C  C130  1  0.129300  0.955100  0.674900  1.0  0.1211
  C  C131  1  0.103300  0.915200  0.654500  1.0  -0.0829
  C  C132  1  0.107100  0.027000  0.760200  1.0  0.0483
  C  C133  1  0.149300  0.043600  0.889600  1.0  0.0966
  C  C134  1  0.158000  0.084900  0.911800  1.0  0.008
  C  C135  1  0.123900  0.111400  0.805300  1.0  -0.1059
  C  C136  1  0.078400  0.095700  0.676200  1.0  -0.0009
  C  C137  1  0.070400  0.053900  0.654800  1.0  -0.0813
  C  C138  1  0.129000  0.156700  0.829000  1.0  0.7313
  C  C139  1  0.730500  0.752330  0.703300  1.0  0.7355
  C  C140  1  0.639400  0.751700  0.729600  1.0  -0.1025
  C  C141  1  0.581800  0.719500  0.677100  1.0  -0.055
  C  C142  1  0.497700  0.718000  0.701200  1.0  0.0868
  C  C143  1  0.468300  0.747800  0.778200  1.0  0.0911
  C  C144  1  0.526700  0.780200  0.824000  1.0  -0.0913
  C  C145  1  0.611200  0.781900  0.801100  1.0  -0.0081
  C  C146  1  0.378500  0.746600  0.809300  1.0  0.109
  C  C147  1  0.314800  0.776500  0.753000  1.0  -0.082
  C  C148  1  0.227400  0.775500  0.764600  1.0  -0.0339
  C  C149  1  0.201200  0.744800  0.838700  1.0  -0.1179
  C  C150  1  0.266000  0.715600  0.902900  1.0  -0.0651
  C  C151  1  0.351800  0.716600  0.888400  1.0  0.0337
  C  C152  1  0.106200  0.742060  0.850300  1.0  0.7271
  C  C153  1  0.992900  0.356230  0.817000  1.0  0.742
  C  C154  1  0.966100  0.400220  0.800000  1.0  -0.0423
  C  C155  1  0.010900  0.426800  0.736900  1.0  -0.0035
  C  C156  1  0.987300  0.467300  0.720700  1.0  -0.0788
  C  C157  1  0.915500  0.482600  0.762200  1.0  0.0983
  C  C158  1  0.870700  0.455100  0.825100  1.0  0.1184
  C  C159  1  0.896700  0.415200  0.845500  1.0  -0.0827
  C  C160  1  0.892900  0.527000  0.739800  1.0  0.0479
  C  C161  1  0.850700  0.543600  0.610400  1.0  0.098
  C  C162  1  0.842000  0.584900  0.588200  1.0  0.009
  C  C163  1  0.876100  0.611400  0.694700  1.0  -0.1062
  C  C164  1  0.921600  0.595700  0.823800  1.0  -0.0011
  C  C165  1  0.929600  0.553900  0.845200  1.0  -0.081
  C  C166  1  0.871000  0.656700  0.671000  1.0  0.7309
  C  C167  1  0.269500  0.252330  0.796700  1.0  0.7343
  C  C168  1  0.360600  0.251700  0.770400  1.0  -0.1032
  C  C169  1  0.418200  0.219500  0.822900  1.0  -0.0542
  C  C170  1  0.502300  0.218000  0.798800  1.0  0.0859
  C  C171  1  0.531700  0.247800  0.721800  1.0  0.0907
  C  C172  1  0.473300  0.280200  0.676000  1.0  -0.0904
  C  C173  1  0.388800  0.281900  0.698900  1.0  -0.0073
  C  C174  1  0.621500  0.246600  0.690700  1.0  0.1104
  C  C175  1  0.685200  0.276500  0.747000  1.0  -0.0825
  C  C176  1  0.772600  0.275500  0.735400  1.0  -0.0356
  C  C177  1  0.798800  0.244800  0.661300  1.0  -0.1152
  C  C178  1  0.734000  0.215600  0.597100  1.0  -0.0662
  C  C179  1  0.648200  0.216600  0.611600  1.0  0.0327
  C  C180  1  0.893800  0.242060  0.649700  1.0  0.7274
  N  N181  1  0.791700  0.032600  0.370400  1.0  0.2447
  N  N182  1  0.563700  0.315300  0.362800  1.0  0.2373
  N  N183  1  0.584300  0.314100  0.037900  1.0  0.6261
  N  N184  1  0.812300  0.983500  0.993000  1.0  0.6298
  N  N185  1  0.208300  0.532600  0.129600  1.0  0.2406
  N  N186  1  0.436300  0.815300  0.137200  1.0  0.2381
  N  N187  1  0.415700  0.814100  0.462100  1.0  0.6237
  N  N188  1  0.187700  0.483500  0.507000  1.0  0.629
  N  N189  1  0.208300  0.967400  0.629600  1.0  0.24
  N  N190  1  0.436300  0.684700  0.637200  1.0  0.241
  N  N191  1  0.415700  0.685900  0.962100  1.0  0.6269
  N  N192  1  0.187700  0.016500  0.007000  1.0  0.6301
  N  N193  1  0.791700  0.467400  0.870400  1.0  0.2447
  N  N194  1  0.563700  0.184700  0.862800  1.0  0.24
  N  N195  1  0.584300  0.185900  0.537900  1.0  0.6269
  N  N196  1  0.812300  0.516500  0.493000  1.0  0.6295
  O  O197  1  0.118700  0.218280  0.425400  1.0  -0.9053
  O  O198  1  0.033000  0.157840  0.235300  1.0  -0.5472
  O  O199  1  0.973100  0.162480  0.415000  1.0  -0.5459
  O  O200  1  0.206700  0.228300  0.213200  1.0  -0.5815
  O  O201  1  0.263600  0.267130  0.401200  1.0  -0.5345
  O  O202  1  0.045300  0.225090  0.028900  1.0  -0.9241
  O  O203  1  0.538600  0.340400  0.429100  1.0  -0.4364
  O  O204  1  0.645700  0.307800  0.401400  1.0  -0.5185
  O  O205  1  0.503600  0.309700  0.019000  1.0  -0.4037
  O  O206  1  0.611800  0.340800  0.977000  1.0  -0.3459
  O  O207  1  0.757900  0.999900  0.342200  1.0  -0.3691
  O  O208  1  0.801000  0.040100  0.490800  1.0  -0.3711
  O  O209  1  0.779900  0.015400  0.018400  1.0  -0.3881
  O  O210  1  0.814300  0.971400  0.880600  1.0  -0.357
  O  O211  1  0.902300  0.278690  0.048800  1.0  -0.5436
  O  O212  1  0.955600  0.239740  0.236700  1.0  -0.5756
  O  O213  1  0.900500  0.819480  0.268300  1.0  -0.5375
  O  O214  1  0.836100  0.832670  0.046500  1.0  -0.5364
  O  O215  1  0.597300  0.337300  0.295000  1.0  -0.4775
  O  O216  1  0.739100  0.058300  0.389000  1.0  -0.3746
  O  O217  1  0.881300  0.718280  0.074600  1.0  -0.9036
  O  O218  1  0.967000  0.657840  0.264700  1.0  -0.5471
  O  O219  1  0.026900  0.662480  0.085000  1.0  -0.5467
  O  O220  1  0.793300  0.728300  0.286800  1.0  -0.5824
  O  O221  1  0.736400  0.767130  0.098800  1.0  -0.5337
  O  O222  1  0.954700  0.725090  0.471100  1.0  -0.9246
  O  O223  1  0.461400  0.840400  0.070900  1.0  -0.4345
  O  O224  1  0.354300  0.807800  0.098600  1.0  -0.5222
  O  O225  1  0.496400  0.809700  0.481000  1.0  -0.4011
  O  O226  1  0.388200  0.840800  0.523000  1.0  -0.3451
  O  O227  1  0.242100  0.499900  0.157800  1.0  -0.3686
  O  O228  1  0.199000  0.540100  0.009200  1.0  -0.3698
  O  O229  1  0.220100  0.515400  0.481600  1.0  -0.3876
  O  O230  1  0.185700  0.471400  0.619400  1.0  -0.3617
  O  O231  1  0.097700  0.778690  0.451200  1.0  -0.543
  O  O232  1  0.044400  0.739740  0.263300  1.0  -0.5747
  O  O233  1  0.099500  0.319480  0.231700  1.0  -0.5371
  O  O234  1  0.163900  0.332670  0.453500  1.0  -0.5343
  O  O235  1  0.402700  0.837300  0.205000  1.0  -0.4736
  O  O236  1  0.260900  0.558300  0.111000  1.0  -0.368
  O  O237  1  0.881300  0.781720  0.574600  1.0  -0.9026
  O  O238  1  0.967000  0.842160  0.764700  1.0  -0.547
  O  O239  1  0.026900  0.837520  0.585000  1.0  -0.5474
  O  O240  1  0.793300  0.771700  0.786800  1.0  -0.5823
  O  O241  1  0.736400  0.732870  0.598800  1.0  -0.5346
  O  O242  1  0.954700  0.774910  0.971100  1.0  -0.9241
  O  O243  1  0.461400  0.659600  0.570900  1.0  -0.438
  O  O244  1  0.354300  0.692200  0.598600  1.0  -0.5196
  O  O245  1  0.496400  0.690300  0.981000  1.0  -0.4025
  O  O246  1  0.388200  0.659200  0.023000  1.0  -0.3457
  O  O247  1  0.242100  0.000100  0.657800  1.0  -0.3666
  O  O248  1  0.199000  0.959900  0.509200  1.0  -0.3694
  O  O249  1  0.220100  0.984600  0.981600  1.0  -0.3892
  O  O250  1  0.185700  0.028600  0.119400  1.0  -0.3614
  O  O251  1  0.097700  0.721310  0.951200  1.0  -0.5428
  O  O252  1  0.044400  0.760260  0.763300  1.0  -0.5751
  O  O253  1  0.099500  0.180520  0.731700  1.0  -0.5375
  O  O254  1  0.163900  0.167330  0.953500  1.0  -0.5338
  O  O255  1  0.402700  0.662700  0.705000  1.0  -0.4714
  O  O256  1  0.260900  0.941700  0.611000  1.0  -0.3666
  O  O257  1  0.118700  0.281720  0.925400  1.0  -0.9046
  O  O258  1  0.033000  0.342160  0.735300  1.0  -0.5473
  O  O259  1  0.973100  0.337520  0.915000  1.0  -0.5465
  O  O260  1  0.206700  0.271700  0.713200  1.0  -0.5811
  O  O261  1  0.263600  0.232870  0.901200  1.0  -0.5343
  O  O262  1  0.045300  0.274910  0.528900  1.0  -0.923
  O  O263  1  0.538600  0.159600  0.929100  1.0  -0.4404
  O  O264  1  0.645700  0.192200  0.901400  1.0  -0.5192
  O  O265  1  0.503600  0.190300  0.519000  1.0  -0.4021
  O  O266  1  0.611800  0.159200  0.477000  1.0  -0.3465
  O  O267  1  0.757900  0.500100  0.842200  1.0  -0.3707
  O  O268  1  0.801000  0.459900  0.990800  1.0  -0.3712
  O  O269  1  0.779900  0.484600  0.518400  1.0  -0.3871
  O  O270  1  0.814300  0.528600  0.380600  1.0  -0.3567
  O  O271  1  0.902300  0.221310  0.548800  1.0  -0.5428
  O  O272  1  0.955600  0.260260  0.736700  1.0  -0.5759
  O  O273  1  0.900500  0.680520  0.768300  1.0  -0.5369
  O  O274  1  0.836100  0.667330  0.546500  1.0  -0.5364
  O  O275  1  0.597300  0.162700  0.795000  1.0  -0.4761
  O  O276  1  0.739100  0.441700  0.889000  1.0  -0.3733
