# generated using pymatgen
data_CuH8C6N6ClO4
_symmetry_space_group_name_H-M   'P 1'
_cell_length_a   7.21580000
_cell_length_b   9.89740000
_cell_length_c   10.81160000
_cell_angle_alpha   112.95000000
_cell_angle_beta   103.92900000
_cell_angle_gamma   101.72100000
_symmetry_Int_Tables_number   1
_chemical_formula_structural   CuH8C6N6ClO4
_chemical_formula_sum   'Cu2 H16 C12 N12 Cl2 O8'
_cell_volume   650.89378097
_cell_formula_units_Z   2
loop_
 _symmetry_equiv_pos_site_id
 _symmetry_equiv_pos_as_xyz
  1  'x, y, z'
loop_
 _atom_site_type_symbol
 _atom_site_label
 _atom_site_symmetry_multiplicity
 _atom_site_fract_x
 _atom_site_fract_y
 _atom_site_fract_z
 _atom_site_occupancy
 _atom_site_charge
  Cu  Cu1  1  0.228310  0.978310  0.956620  1.0  0.3829
  Cu  Cu2  1  0.771690  0.021690  0.043380  1.0  0.383
  H  H3  1  0.968700  0.664700  0.665400  1.0  0.1136
  H  H4  1  0.510000  0.672600  0.799800  1.0  0.1072
  H  H5  1  0.472700  0.406400  0.570200  1.0  0.0994
  H  H6  1  0.645900  0.423200  0.505000  1.0  0.0943
  H  H7  1  0.196700  0.000700  0.665400  1.0  0.1159
  H  H8  1  0.789800  0.127200  0.799800  1.0  0.1086
  H  H9  1  0.597500  0.163800  0.570200  1.0  0.0989
  H  H10  1  0.359100  0.081800  0.505000  1.0  0.0934
  H  H11  1  0.031300  0.335300  0.334600  1.0  0.1134
  H  H12  1  0.490000  0.327400  0.200200  1.0  0.108
  H  H13  1  0.527300  0.593600  0.429800  1.0  0.0991
  H  H14  1  0.354100  0.576800  0.495000  1.0  0.0954
  H  H15  1  0.803300  0.999300  0.334600  1.0  0.1147
  H  H16  1  0.210200  0.872800  0.200200  1.0  0.1085
  H  H17  1  0.402500  0.836200  0.429800  1.0  0.0985
  H  H18  1  0.640900  0.918200  0.495000  1.0  0.0943
  C  C19  1  0.889020  0.694720  0.721440  1.0  0.1581
  C  C20  1  0.639640  0.699440  0.794880  1.0  0.1765
  C  C21  1  0.562310  0.477410  0.550220  1.0  0.0136
  C  C22  1  0.332420  0.026720  0.721440  1.0  0.1559
  C  C23  1  0.655240  0.095440  0.794880  1.0  0.1716
  C  C24  1  0.487910  0.072810  0.550220  1.0  0.0143
  C  C25  1  0.110980  0.305280  0.278560  1.0  0.1581
  C  C26  1  0.360360  0.300560  0.205120  1.0  0.179
  C  C27  1  0.437690  0.522590  0.449780  1.0  0.0139
  C  C28  1  0.667580  0.973280  0.278560  1.0  0.1551
  C  C29  1  0.344760  0.904560  0.205120  1.0  0.1712
  C  C30  1  0.512090  0.927190  0.449780  1.0  0.0131
  N  N31  1  0.952960  0.818560  0.845400  1.0  -0.223
  N  N32  1  0.791530  0.821730  0.892740  1.0  -0.2504
  N  N33  1  0.692920  0.616120  0.685240  1.0  0.0382
  N  N34  1  0.392440  0.026840  0.845400  1.0  -0.2206
  N  N35  1  0.601210  0.071010  0.892740  1.0  -0.2492
  N  N36  1  0.492320  0.069120  0.685240  1.0  0.0401
  N  N37  1  0.047040  0.181440  0.154600  1.0  -0.2224
  N  N38  1  0.208470  0.178270  0.107260  1.0  -0.2514
  N  N39  1  0.307080  0.383880  0.314760  1.0  0.0381
  N  N40  1  0.607560  0.973160  0.154600  1.0  -0.2186
  N  N41  1  0.398790  0.928990  0.107260  1.0  -0.2486
  N  N42  1  0.507680  0.930880  0.314760  1.0  0.0417
  Cl  Cl43  1  0.069680  0.319680  0.639360  1.0  1.5641
  Cl  Cl44  1  0.930320  0.680320  0.360640  1.0  1.564
  O  O45  1  0.891100  0.318600  0.531000  1.0  -0.6868
  O  O46  1  0.006900  0.276900  0.721400  1.0  -0.6166
  O  O47  1  0.139900  0.212400  0.531000  1.0  -0.6846
  O  O48  1  0.214500  0.444500  0.721400  1.0  -0.618
  O  O49  1  0.108900  0.681400  0.469000  1.0  -0.6865
  O  O50  1  0.993100  0.723100  0.278600  1.0  -0.6149
  O  O51  1  0.860100  0.787600  0.469000  1.0  -0.6855
  O  O52  1  0.785500  0.555500  0.278600  1.0  -0.6181
