# generated using pymatgen
data_CdH16(CN)12
_symmetry_space_group_name_H-M   'P 1'
_cell_length_a   8.23350000
_cell_length_b   17.87510000
_cell_length_c   14.20610000
_cell_angle_alpha   90.00000000
_cell_angle_beta   90.00000000
_cell_angle_gamma   90.00000000
_symmetry_Int_Tables_number   1
_chemical_formula_structural   CdH16(CN)12
_chemical_formula_sum   'Cd4 H64 C48 N48'
_cell_volume   2090.77759435
_cell_formula_units_Z   4
loop_
 _symmetry_equiv_pos_site_id
 _symmetry_equiv_pos_as_xyz
  1  'x, y, z'
loop_
 _atom_site_type_symbol
 _atom_site_label
 _atom_site_symmetry_multiplicity
 _atom_site_fract_x
 _atom_site_fract_y
 _atom_site_fract_z
 _atom_site_occupancy
 _atom_site_charge
  Cd  Cd1  1  0.208280  0.250000  0.250920  1.0  0.7308
  Cd  Cd2  1  0.291720  0.750000  0.750920  1.0  0.729
  Cd  Cd3  1  0.791720  0.750000  0.749080  1.0  0.7294
  Cd  Cd4  1  0.708280  0.250000  0.249080  1.0  0.7312
  H  H5  1  0.053700  0.205700  0.849900  1.0  0.0597
  H  H6  1  0.769300  0.205500  0.828600  1.0  0.0411
  H  H7  1  0.897800  0.359700  0.676500  1.0  0.066
  H  H8  1  0.198700  0.413900  0.373200  1.0  0.0705
  H  H9  1  0.720900  0.414800  0.380400  1.0  0.0665
  H  H10  1  0.855300  0.528800  0.457800  1.0  0.0666
  H  H11  1  0.032900  0.545800  0.419700  1.0  0.0645
  H  H12  1  0.446300  0.794300  0.349900  1.0  0.0592
  H  H13  1  0.730700  0.794500  0.328600  1.0  0.0404
  H  H14  1  0.602200  0.640300  0.176500  1.0  0.0673
  H  H15  1  0.301300  0.586100  0.873200  1.0  0.0711
  H  H16  1  0.779100  0.585200  0.880400  1.0  0.0664
  H  H17  1  0.644700  0.471200  0.957800  1.0  0.0671
  H  H18  1  0.467100  0.454200  0.919700  1.0  0.0647
  H  H19  1  0.946300  0.705700  0.150100  1.0  0.0603
  H  H20  1  0.230700  0.705500  0.171400  1.0  0.0404
  H  H21  1  0.102200  0.859700  0.323500  1.0  0.0667
  H  H22  1  0.801300  0.913900  0.626800  1.0  0.071
  H  H23  1  0.279100  0.914800  0.619600  1.0  0.0668
  H  H24  1  0.144700  0.028800  0.542200  1.0  0.067
  H  H25  1  0.967100  0.045800  0.580300  1.0  0.0639
  H  H26  1  0.553700  0.294300  0.650100  1.0  0.0584
  H  H27  1  0.269300  0.294500  0.671400  1.0  0.0406
  H  H28  1  0.397800  0.140300  0.823500  1.0  0.067
  H  H29  1  0.698700  0.086100  0.126800  1.0  0.0708
  H  H30  1  0.220900  0.085200  0.119600  1.0  0.0669
  H  H31  1  0.355300  0.971200  0.042200  1.0  0.0667
  H  H32  1  0.532900  0.954200  0.080300  1.0  0.0646
  H  H33  1  0.946300  0.794300  0.150100  1.0  0.0591
  H  H34  1  0.230700  0.794500  0.171400  1.0  0.0401
  H  H35  1  0.102200  0.640300  0.323500  1.0  0.0673
  H  H36  1  0.801300  0.586100  0.626800  1.0  0.0715
  H  H37  1  0.279100  0.585200  0.619600  1.0  0.0667
  H  H38  1  0.144700  0.471200  0.542200  1.0  0.0668
  H  H39  1  0.967100  0.454200  0.580300  1.0  0.0644
  H  H40  1  0.553700  0.205700  0.650100  1.0  0.06
  H  H41  1  0.269300  0.205500  0.671400  1.0  0.0405
  H  H42  1  0.397800  0.359700  0.823500  1.0  0.0662
  H  H43  1  0.698700  0.413900  0.126800  1.0  0.0707
  H  H44  1  0.220900  0.414800  0.119600  1.0  0.0667
  H  H45  1  0.355300  0.528800  0.042200  1.0  0.0664
  H  H46  1  0.532900  0.545800  0.080300  1.0  0.0639
  H  H47  1  0.053700  0.294300  0.849900  1.0  0.0583
  H  H48  1  0.769300  0.294500  0.828600  1.0  0.0408
  H  H49  1  0.897800  0.140300  0.676500  1.0  0.0672
  H  H50  1  0.198700  0.086100  0.373200  1.0  0.0707
  H  H51  1  0.720900  0.085200  0.380400  1.0  0.0667
  H  H52  1  0.855300  0.971200  0.457800  1.0  0.0666
  H  H53  1  0.032900  0.954200  0.419700  1.0  0.0643
  H  H54  1  0.446300  0.705700  0.349900  1.0  0.0601
  H  H55  1  0.730700  0.705500  0.328600  1.0  0.041
  H  H56  1  0.602200  0.859700  0.176500  1.0  0.0664
  H  H57  1  0.301300  0.913900  0.873200  1.0  0.0712
  H  H58  1  0.779100  0.914800  0.880400  1.0  0.0666
  H  H59  1  0.644700  0.028800  0.957800  1.0  0.0676
  H  H60  1  0.467100  0.045800  0.919700  1.0  0.0651
  H  H61  1  0.202200  0.250000  0.014600  1.0  0.0703
  H  H62  1  0.726400  0.250000  0.999500  1.0  0.0649
  H  H63  1  0.297800  0.750000  0.514600  1.0  0.0692
  H  H64  1  0.773600  0.750000  0.499500  1.0  0.065
  H  H65  1  0.797800  0.750000  0.985400  1.0  0.0691
  H  H66  1  0.273600  0.750000  0.000500  1.0  0.0646
  H  H67  1  0.702200  0.250000  0.485400  1.0  0.0704
  H  H68  1  0.226400  0.250000  0.500500  1.0  0.064
  C  C69  1  0.908800  0.309610  0.657300  1.0  0.0999
  C  C70  1  0.089700  0.400230  0.363800  1.0  0.1084
  C  C71  1  0.828900  0.400980  0.367800  1.0  0.0952
  C  C72  1  0.965300  0.508420  0.451520  1.0  -0.0686
  C  C73  1  0.591200  0.690390  0.157300  1.0  0.1017
  C  C74  1  0.410300  0.599770  0.863800  1.0  0.1083
  C  C75  1  0.671100  0.599020  0.867800  1.0  0.0964
  C  C76  1  0.534700  0.491580  0.951520  1.0  -0.0701
  C  C77  1  0.091200  0.809610  0.342700  1.0  0.1006
  C  C78  1  0.910300  0.900230  0.636200  1.0  0.1085
  C  C79  1  0.171100  0.900980  0.632200  1.0  0.0971
  C  C80  1  0.034700  0.008420  0.548480  1.0  -0.0679
  C  C81  1  0.408800  0.190390  0.842700  1.0  0.1019
  C  C82  1  0.589700  0.099770  0.136200  1.0  0.1086
  C  C83  1  0.328900  0.099020  0.132200  1.0  0.0962
  C  C84  1  0.465300  0.991580  0.048480  1.0  -0.0693
  C  C85  1  0.091200  0.690390  0.342700  1.0  0.1021
  C  C86  1  0.910300  0.599770  0.636200  1.0  0.1088
  C  C87  1  0.171100  0.599020  0.632200  1.0  0.0975
  C  C88  1  0.034700  0.491580  0.548480  1.0  -0.0689
  C  C89  1  0.408800  0.309610  0.842700  1.0  0.1003
  C  C90  1  0.589700  0.400230  0.136200  1.0  0.1087
  C  C91  1  0.328900  0.400980  0.132200  1.0  0.096
  C  C92  1  0.465300  0.508420  0.048480  1.0  -0.0683
  C  C93  1  0.908800  0.190390  0.657300  1.0  0.1014
  C  C94  1  0.089700  0.099770  0.363800  1.0  0.109
  C  C95  1  0.828900  0.099020  0.367800  1.0  0.0952
  C  C96  1  0.965300  0.991580  0.451520  1.0  -0.0696
  C  C97  1  0.591200  0.809610  0.157300  1.0  0.1003
  C  C98  1  0.410300  0.900230  0.863800  1.0  0.1084
  C  C99  1  0.671100  0.900980  0.867800  1.0  0.0963
  C  C100  1  0.534700  0.008420  0.951520  1.0  -0.0694
  C  C101  1  0.091800  0.250000  0.031600  1.0  0.1259
  C  C102  1  0.833000  0.250000  0.023200  1.0  0.1269
  C  C103  1  0.990600  0.250000  0.867800  1.0  -0.083
  C  C104  1  0.833500  0.250000  0.813200  1.0  -0.0004
  C  C105  1  0.408200  0.750000  0.531600  1.0  0.1255
  C  C106  1  0.667000  0.750000  0.523200  1.0  0.1274
  C  C107  1  0.509400  0.750000  0.367800  1.0  -0.0864
  C  C108  1  0.666500  0.750000  0.313200  1.0  -0.0017
  C  C109  1  0.908200  0.750000  0.968400  1.0  0.1244
  C  C110  1  0.167000  0.750000  0.976800  1.0  0.125
  C  C111  1  0.009400  0.750000  0.132200  1.0  -0.0869
  C  C112  1  0.166500  0.750000  0.186800  1.0  -0.0018
  C  C113  1  0.591800  0.250000  0.468400  1.0  0.1247
  C  C114  1  0.333000  0.250000  0.476800  1.0  0.1246
  C  C115  1  0.490600  0.250000  0.632200  1.0  -0.0833
  C  C116  1  0.333500  0.250000  0.686800  1.0  -0.0005
  N  N117  1  0.956600  0.289150  0.574110  1.0  -0.3422
  N  N118  1  0.042300  0.340820  0.318060  1.0  -0.2777
  N  N119  1  0.873100  0.341220  0.320200  1.0  -0.2811
  N  N120  1  0.960700  0.439270  0.395750  1.0  -0.0074
  N  N121  1  0.543400  0.710850  0.074110  1.0  -0.3426
  N  N122  1  0.457700  0.659180  0.818060  1.0  -0.278
  N  N123  1  0.626900  0.658780  0.820200  1.0  -0.2814
  N  N124  1  0.539300  0.560730  0.895750  1.0  -0.008
  N  N125  1  0.043400  0.789150  0.425890  1.0  -0.3443
  N  N126  1  0.957700  0.840820  0.681940  1.0  -0.2786
  N  N127  1  0.126900  0.841220  0.679800  1.0  -0.2817
  N  N128  1  0.039300  0.939270  0.604250  1.0  -0.0078
  N  N129  1  0.456600  0.210850  0.925890  1.0  -0.3422
  N  N130  1  0.542300  0.159180  0.181940  1.0  -0.2793
  N  N131  1  0.373100  0.158780  0.179800  1.0  -0.2814
  N  N132  1  0.460700  0.060730  0.104250  1.0  -0.0071
  N  N133  1  0.043400  0.710850  0.425890  1.0  -0.3431
  N  N134  1  0.957700  0.659180  0.681940  1.0  -0.2794
  N  N135  1  0.126900  0.658780  0.679800  1.0  -0.2812
  N  N136  1  0.039300  0.560730  0.604250  1.0  -0.0076
  N  N137  1  0.456600  0.289150  0.925890  1.0  -0.3438
  N  N138  1  0.542300  0.340820  0.181940  1.0  -0.2786
  N  N139  1  0.373100  0.341220  0.179800  1.0  -0.2813
  N  N140  1  0.460700  0.439270  0.104250  1.0  -0.0076
  N  N141  1  0.956600  0.210850  0.574110  1.0  -0.3417
  N  N142  1  0.042300  0.159180  0.318060  1.0  -0.2786
  N  N143  1  0.873100  0.158780  0.320200  1.0  -0.2807
  N  N144  1  0.960700  0.060730  0.395750  1.0  -0.0074
  N  N145  1  0.543400  0.789150  0.074110  1.0  -0.3429
  N  N146  1  0.457700  0.840820  0.818060  1.0  -0.2776
  N  N147  1  0.626900  0.841220  0.820200  1.0  -0.2817
  N  N148  1  0.539300  0.939270  0.895750  1.0  -0.0079
  N  N149  1  0.038400  0.250000  0.118500  1.0  -0.272
  N  N150  1  0.871600  0.250000  0.113200  1.0  -0.2669
  N  N151  1  0.968600  0.250000  0.970000  1.0  -0.0154
  N  N152  1  0.876600  0.250000  0.713100  1.0  -0.0021
  N  N153  1  0.461600  0.750000  0.618500  1.0  -0.2717
  N  N154  1  0.628400  0.750000  0.613200  1.0  -0.2673
  N  N155  1  0.531400  0.750000  0.470000  1.0  -0.0154
  N  N156  1  0.623400  0.750000  0.213100  1.0  -0.0014
  N  N157  1  0.961600  0.750000  0.881500  1.0  -0.2694
  N  N158  1  0.128400  0.750000  0.886800  1.0  -0.2661
  N  N159  1  0.031400  0.750000  0.030000  1.0  -0.0147
  N  N160  1  0.123400  0.750000  0.286900  1.0  -0.0014
  N  N161  1  0.538400  0.250000  0.381500  1.0  -0.2698
  N  N162  1  0.371600  0.250000  0.386800  1.0  -0.2659
  N  N163  1  0.468600  0.250000  0.530000  1.0  -0.0146
  N  N164  1  0.376600  0.250000  0.786900  1.0  -0.0024
