# generated using pymatgen
data_ZnH16(CN)12
_symmetry_space_group_name_H-M   'P 1'
_cell_length_a   8.01350000
_cell_length_b   17.65800000
_cell_length_c   13.88410000
_cell_angle_alpha   90.00000000
_cell_angle_beta   90.00000000
_cell_angle_gamma   90.00000000
_symmetry_Int_Tables_number   1
_chemical_formula_structural   ZnH16(CN)12
_chemical_formula_sum   'Zn4 H64 C48 N48'
_cell_volume   1964.63323581
_cell_formula_units_Z   4
loop_
 _symmetry_equiv_pos_site_id
 _symmetry_equiv_pos_as_xyz
  1  'x, y, z'
loop_
 _atom_site_type_symbol
 _atom_site_label
 _atom_site_symmetry_multiplicity
 _atom_site_fract_x
 _atom_site_fract_y
 _atom_site_fract_z
 _atom_site_occupancy
 _atom_site_charge
  Zn  Zn1  1  0.214390  0.250000  0.252020  1.0  0.6187
  Zn  Zn2  1  0.285610  0.750000  0.752020  1.0  0.6185
  Zn  Zn3  1  0.785610  0.750000  0.747980  1.0  0.6191
  Zn  Zn4  1  0.714390  0.250000  0.247980  1.0  0.6192
  H  H5  1  0.064600  0.205200  0.854400  1.0  0.0662
  H  H6  1  0.772400  0.204900  0.832200  1.0  0.0394
  H  H7  1  0.907600  0.361100  0.678100  1.0  0.0724
  H  H8  1  0.211600  0.408700  0.375100  1.0  0.0727
  H  H9  1  0.720200  0.410500  0.374300  1.0  0.0775
  H  H10  1  0.853900  0.527400  0.451900  1.0  0.065
  H  H11  1  0.038600  0.543500  0.415800  1.0  0.0619
  H  H12  1  0.435400  0.794800  0.354400  1.0  0.0654
  H  H13  1  0.727600  0.795100  0.332200  1.0  0.0379
  H  H14  1  0.592400  0.638900  0.178100  1.0  0.0727
  H  H15  1  0.288400  0.591300  0.875100  1.0  0.0732
  H  H16  1  0.779800  0.589500  0.874300  1.0  0.0778
  H  H17  1  0.646100  0.472600  0.951900  1.0  0.064
  H  H18  1  0.461400  0.456500  0.915800  1.0  0.0622
  H  H19  1  0.935400  0.705200  0.145600  1.0  0.0665
  H  H20  1  0.227600  0.704900  0.167800  1.0  0.039
  H  H21  1  0.092400  0.861100  0.321900  1.0  0.073
  H  H22  1  0.788400  0.908700  0.624900  1.0  0.073
  H  H23  1  0.279800  0.910500  0.625700  1.0  0.0779
  H  H24  1  0.146100  0.027400  0.548100  1.0  0.0636
  H  H25  1  0.961400  0.043500  0.584200  1.0  0.0615
  H  H26  1  0.564600  0.294800  0.645600  1.0  0.0651
  H  H27  1  0.272400  0.295100  0.667800  1.0  0.038
  H  H28  1  0.407600  0.138900  0.821900  1.0  0.0723
  H  H29  1  0.711600  0.091300  0.124900  1.0  0.073
  H  H30  1  0.220200  0.089500  0.125700  1.0  0.0778
  H  H31  1  0.353900  0.972600  0.048100  1.0  0.0651
  H  H32  1  0.538600  0.956500  0.084200  1.0  0.0614
  H  H33  1  0.935400  0.794800  0.145600  1.0  0.0657
  H  H34  1  0.227600  0.795100  0.167800  1.0  0.0376
  H  H35  1  0.092400  0.638900  0.321900  1.0  0.0724
  H  H36  1  0.788400  0.591300  0.624900  1.0  0.0732
  H  H37  1  0.279800  0.589500  0.625700  1.0  0.0778
  H  H38  1  0.146100  0.472600  0.548100  1.0  0.0638
  H  H39  1  0.961400  0.456500  0.584200  1.0  0.0616
  H  H40  1  0.564600  0.205200  0.645600  1.0  0.0666
  H  H41  1  0.272400  0.204900  0.667800  1.0  0.039
  H  H42  1  0.407600  0.361100  0.821900  1.0  0.0729
  H  H43  1  0.711600  0.408700  0.124900  1.0  0.0726
  H  H44  1  0.220200  0.410500  0.125700  1.0  0.0777
  H  H45  1  0.353900  0.527400  0.048100  1.0  0.0648
  H  H46  1  0.538600  0.543500  0.084200  1.0  0.0611
  H  H47  1  0.064600  0.294800  0.854400  1.0  0.0649
  H  H48  1  0.772400  0.295100  0.832200  1.0  0.0382
  H  H49  1  0.907600  0.138900  0.678100  1.0  0.0726
  H  H50  1  0.211600  0.091300  0.375100  1.0  0.0728
  H  H51  1  0.720200  0.089500  0.374300  1.0  0.0778
  H  H52  1  0.853900  0.972600  0.451900  1.0  0.065
  H  H53  1  0.038600  0.956500  0.415800  1.0  0.0613
  H  H54  1  0.435400  0.705200  0.354400  1.0  0.0662
  H  H55  1  0.727600  0.704900  0.332200  1.0  0.0395
  H  H56  1  0.592400  0.861100  0.178100  1.0  0.0725
  H  H57  1  0.288400  0.908700  0.875100  1.0  0.0732
  H  H58  1  0.779800  0.910500  0.874300  1.0  0.0778
  H  H59  1  0.646100  0.027400  0.951900  1.0  0.064
  H  H60  1  0.461400  0.043500  0.915800  1.0  0.0629
  H  H61  1  0.217900  0.250000  0.022700  1.0  0.0604
  H  H62  1  0.727600  0.250000  0.008700  1.0  0.0634
  H  H63  1  0.282100  0.750000  0.522700  1.0  0.0596
  H  H64  1  0.772400  0.750000  0.508700  1.0  0.0633
  H  H65  1  0.782100  0.750000  0.977300  1.0  0.0595
  H  H66  1  0.272400  0.750000  0.991300  1.0  0.0633
  H  H67  1  0.717900  0.250000  0.477300  1.0  0.0604
  H  H68  1  0.227600  0.250000  0.491300  1.0  0.0633
  C  C69  1  0.916400  0.310400  0.658100  1.0  0.0937
  C  C70  1  0.099800  0.395130  0.364000  1.0  0.1015
  C  C71  1  0.831600  0.396160  0.363600  1.0  0.1018
  C  C72  1  0.967300  0.506690  0.449000  1.0  -0.0573
  C  C73  1  0.583600  0.689600  0.158100  1.0  0.0948
  C  C74  1  0.400200  0.604870  0.864000  1.0  0.1015
  C  C75  1  0.668400  0.603840  0.863600  1.0  0.1014
  C  C76  1  0.532700  0.493310  0.949000  1.0  -0.0587
  C  C77  1  0.083600  0.810400  0.341900  1.0  0.0942
  C  C78  1  0.900200  0.895130  0.636000  1.0  0.1028
  C  C79  1  0.168400  0.896160  0.636400  1.0  0.1038
  C  C80  1  0.032700  0.006690  0.551000  1.0  -0.0566
  C  C81  1  0.416400  0.189600  0.841900  1.0  0.095
  C  C82  1  0.599800  0.104870  0.136000  1.0  0.1027
  C  C83  1  0.331600  0.103840  0.136400  1.0  0.104
  C  C84  1  0.467300  0.993310  0.051000  1.0  -0.058
  C  C85  1  0.083600  0.689600  0.341900  1.0  0.095
  C  C86  1  0.900200  0.604870  0.636000  1.0  0.1026
  C  C87  1  0.168400  0.603840  0.636400  1.0  0.1035
  C  C88  1  0.032700  0.493310  0.551000  1.0  -0.0576
  C  C89  1  0.416400  0.310400  0.841900  1.0  0.0942
  C  C90  1  0.599800  0.395130  0.136000  1.0  0.1024
  C  C91  1  0.331600  0.396160  0.136400  1.0  0.1041
  C  C92  1  0.467300  0.506690  0.051000  1.0  -0.0568
  C  C93  1  0.916400  0.189600  0.658100  1.0  0.0948
  C  C94  1  0.099800  0.104870  0.364000  1.0  0.1012
  C  C95  1  0.831600  0.103840  0.363600  1.0  0.1017
  C  C96  1  0.967300  0.993310  0.449000  1.0  -0.0582
  C  C97  1  0.583600  0.810400  0.158100  1.0  0.0938
  C  C98  1  0.400200  0.895130  0.864000  1.0  0.1013
  C  C99  1  0.668400  0.896160  0.863600  1.0  0.1018
  C  C100  1  0.532700  0.006690  0.949000  1.0  -0.0582
  C  C101  1  0.104700  0.250000  0.040500  1.0  0.1384
  C  C102  1  0.837200  0.250000  0.032700  1.0  0.1174
  C  C103  1  0.999700  0.250000  0.872600  1.0  -0.0906
  C  C104  1  0.838400  0.250000  0.816600  1.0  0.0089
  C  C105  1  0.395300  0.750000  0.540500  1.0  0.1378
  C  C106  1  0.662800  0.750000  0.532700  1.0  0.1175
  C  C107  1  0.500300  0.750000  0.372600  1.0  -0.0932
  C  C108  1  0.661600  0.750000  0.316600  1.0  0.0074
  C  C109  1  0.895300  0.750000  0.959500  1.0  0.1374
  C  C110  1  0.162800  0.750000  0.967300  1.0  0.1163
  C  C111  1  0.000300  0.750000  0.127400  1.0  -0.094
  C  C112  1  0.161600  0.750000  0.183400  1.0  0.007
  C  C113  1  0.604700  0.250000  0.459500  1.0  0.1379
  C  C114  1  0.337200  0.250000  0.467300  1.0  0.116
  C  C115  1  0.499700  0.250000  0.627400  1.0  -0.0908
  C  C116  1  0.338400  0.250000  0.683400  1.0  0.0088
  N  N117  1  0.962700  0.288900  0.571700  1.0  -0.3376
  N  N118  1  0.052000  0.334980  0.315780  1.0  -0.2717
  N  N119  1  0.878100  0.335640  0.315420  1.0  -0.2851
  N  N120  1  0.966200  0.434940  0.395490  1.0  0.0011
  N  N121  1  0.537300  0.711100  0.071700  1.0  -0.3381
  N  N122  1  0.448000  0.665020  0.815780  1.0  -0.2723
  N  N123  1  0.621900  0.664360  0.815420  1.0  -0.2844
  N  N124  1  0.533800  0.565060  0.895490  1.0  0.0006
  N  N125  1  0.037300  0.788900  0.428300  1.0  -0.3374
  N  N126  1  0.948000  0.834980  0.684220  1.0  -0.2726
  N  N127  1  0.121900  0.835640  0.684580  1.0  -0.2849
  N  N128  1  0.033800  0.934940  0.604510  1.0  0.0006
  N  N129  1  0.462700  0.211100  0.928300  1.0  -0.3361
  N  N130  1  0.552000  0.165020  0.184220  1.0  -0.2717
  N  N131  1  0.378100  0.164360  0.184580  1.0  -0.2851
  N  N132  1  0.466200  0.065060  0.104510  1.0  0.0007
  N  N133  1  0.037300  0.711100  0.428300  1.0  -0.3362
  N  N134  1  0.948000  0.665020  0.684220  1.0  -0.2726
  N  N135  1  0.121900  0.664360  0.684580  1.0  -0.2844
  N  N136  1  0.033800  0.565060  0.604510  1.0  0.0006
  N  N137  1  0.462700  0.288900  0.928300  1.0  -0.3375
  N  N138  1  0.552000  0.334980  0.184220  1.0  -0.272
  N  N139  1  0.378100  0.335640  0.184580  1.0  -0.2854
  N  N140  1  0.466200  0.434940  0.104510  1.0  0.0005
  N  N141  1  0.962700  0.211100  0.571700  1.0  -0.3379
  N  N142  1  0.052000  0.165020  0.315780  1.0  -0.2715
  N  N143  1  0.878100  0.164360  0.315420  1.0  -0.2848
  N  N144  1  0.966200  0.065060  0.395490  1.0  0.0006
  N  N145  1  0.537300  0.788900  0.071700  1.0  -0.3374
  N  N146  1  0.448000  0.834980  0.815780  1.0  -0.2724
  N  N147  1  0.621900  0.835640  0.815420  1.0  -0.2846
  N  N148  1  0.533800  0.934940  0.895490  1.0  0.0012
  N  N149  1  0.051500  0.250000  0.128100  1.0  -0.2468
  N  N150  1  0.876400  0.250000  0.123700  1.0  -0.2543
  N  N151  1  0.976400  0.250000  0.977800  1.0  -0.0225
  N  N152  1  0.883200  0.250000  0.714400  1.0  0.0064
  N  N153  1  0.448500  0.750000  0.628100  1.0  -0.2464
  N  N154  1  0.623600  0.750000  0.623700  1.0  -0.2539
  N  N155  1  0.523600  0.750000  0.477800  1.0  -0.0224
  N  N156  1  0.616800  0.750000  0.214400  1.0  0.0067
  N  N157  1  0.948500  0.750000  0.871900  1.0  -0.246
  N  N158  1  0.123600  0.750000  0.876300  1.0  -0.2537
  N  N159  1  0.023600  0.750000  0.022200  1.0  -0.0227
  N  N160  1  0.116800  0.750000  0.285600  1.0  0.0066
  N  N161  1  0.551500  0.250000  0.371900  1.0  -0.2463
  N  N162  1  0.376400  0.250000  0.376300  1.0  -0.254
  N  N163  1  0.476400  0.250000  0.522200  1.0  -0.0227
  N  N164  1  0.383200  0.250000  0.785600  1.0  0.006
