# generated using pymatgen
data_ZnSiH24C48N8(O4F3)2
_symmetry_space_group_name_H-M   'P 1'
_cell_length_a   19.73900000
_cell_length_b   19.73900000
_cell_length_c   7.47680000
_cell_angle_alpha   90.00000000
_cell_angle_beta   90.00000000
_cell_angle_gamma   90.00000000
_symmetry_Int_Tables_number   1
_chemical_formula_structural   ZnSiH24C48N8(O4F3)2
_chemical_formula_sum   'Zn1 Si1 H24 C48 N8 O8 F6'
_cell_volume   2913.17153509
_cell_formula_units_Z   1
loop_
 _symmetry_equiv_pos_site_id
 _symmetry_equiv_pos_as_xyz
  1  'x, y, z'
loop_
 _atom_site_type_symbol
 _atom_site_label
 _atom_site_symmetry_multiplicity
 _atom_site_fract_x
 _atom_site_fract_y
 _atom_site_fract_z
 _atom_site_occupancy
 _atom_site_charge
  Zn  Zn1  1  0.000000  0.000000  0.000000  1.0  0.8256
  Si  Si2  1  0.000000  0.000000  0.500000  1.0  1.6982
  H  H3  1  0.440400  0.162900  0.000000  1.0  0.0976
  H  H4  1  0.559600  0.837100  0.000000  1.0  0.097
  H  H5  1  0.837100  0.440400  0.000000  1.0  0.0979
  H  H6  1  0.162900  0.559600  0.000000  1.0  0.0981
  H  H7  1  0.559600  0.162900  0.000000  1.0  0.0978
  H  H8  1  0.440400  0.837100  0.000000  1.0  0.0968
  H  H9  1  0.162900  0.440400  0.000000  1.0  0.0976
  H  H10  1  0.837100  0.559600  0.000000  1.0  0.0979
  H  H11  1  0.120500  0.000000  0.743700  1.0  0.0577
  H  H12  1  0.236900  0.000000  0.735400  1.0  0.1064
  H  H13  1  0.879500  0.000000  0.743700  1.0  0.0568
  H  H14  1  0.763100  0.000000  0.735400  1.0  0.1059
  H  H15  1  0.000000  0.120500  0.743700  1.0  0.0562
  H  H16  1  0.000000  0.236900  0.735400  1.0  0.1054
  H  H17  1  0.000000  0.879500  0.743700  1.0  0.0565
  H  H18  1  0.000000  0.763100  0.735400  1.0  0.1057
  H  H19  1  0.879500  0.000000  0.256300  1.0  0.0571
  H  H20  1  0.763100  0.000000  0.264600  1.0  0.1063
  H  H21  1  0.120500  0.000000  0.256300  1.0  0.0578
  H  H22  1  0.236900  0.000000  0.264600  1.0  0.106
  H  H23  1  0.000000  0.120500  0.256300  1.0  0.0561
  H  H24  1  0.000000  0.236900  0.264600  1.0  0.1055
  H  H25  1  0.000000  0.879500  0.256300  1.0  0.0567
  H  H26  1  0.000000  0.763100  0.264600  1.0  0.1055
  C  C27  1  0.354600  0.062500  0.000000  1.0  0.5654
  C  C28  1  0.429700  0.062800  0.000000  1.0  -0.1128
  C  C29  1  0.464200  0.121100  0.000000  1.0  -0.0788
  C  C30  1  0.645400  0.937500  0.000000  1.0  0.5677
  C  C31  1  0.570300  0.937200  0.000000  1.0  -0.1114
  C  C32  1  0.535800  0.878900  0.000000  1.0  -0.0809
  C  C33  1  0.937500  0.354600  0.000000  1.0  0.5691
  C  C34  1  0.937200  0.429700  0.000000  1.0  -0.1121
  C  C35  1  0.878900  0.464200  0.000000  1.0  -0.0788
  C  C36  1  0.062500  0.645400  0.000000  1.0  0.5679
  C  C37  1  0.062800  0.570300  0.000000  1.0  -0.1113
  C  C38  1  0.121100  0.535800  0.000000  1.0  -0.0793
  C  C39  1  0.645400  0.062500  0.000000  1.0  0.5675
  C  C40  1  0.570300  0.062800  0.000000  1.0  -0.1078
  C  C41  1  0.535800  0.121100  0.000000  1.0  -0.0799
  C  C42  1  0.354600  0.937500  0.000000  1.0  0.5661
  C  C43  1  0.429700  0.937200  0.000000  1.0  -0.1114
  C  C44  1  0.464200  0.878900  0.000000  1.0  -0.0808
  C  C45  1  0.062500  0.354600  0.000000  1.0  0.5676
  C  C46  1  0.062800  0.429700  0.000000  1.0  -0.1093
  C  C47  1  0.121100  0.464200  0.000000  1.0  -0.0799
  C  C48  1  0.937500  0.645400  0.000000  1.0  0.5691
  C  C49  1  0.937200  0.570300  0.000000  1.0  -0.1078
  C  C50  1  0.878900  0.535800  0.000000  1.0  -0.0791
  C  C51  1  0.249100  0.000000  0.000000  1.0  0.1964
  C  C52  1  0.464300  0.000000  0.000000  1.0  0.0841
  C  C53  1  0.750900  0.000000  0.000000  1.0  0.1961
  C  C54  1  0.535700  0.000000  0.000000  1.0  0.0845
  C  C55  1  0.000000  0.249100  0.000000  1.0  0.1967
  C  C56  1  0.000000  0.464300  0.000000  1.0  0.0844
  C  C57  1  0.000000  0.750900  0.000000  1.0  0.1964
  C  C58  1  0.000000  0.535700  0.000000  1.0  0.0846
  C  C59  1  0.144500  0.000000  0.853800  1.0  0.1613
  C  C60  1  0.214100  0.000000  0.847200  1.0  -0.1678
  C  C61  1  0.855500  0.000000  0.853800  1.0  0.1603
  C  C62  1  0.785900  0.000000  0.847200  1.0  -0.1676
  C  C63  1  0.000000  0.144500  0.853800  1.0  0.1592
  C  C64  1  0.000000  0.214100  0.847200  1.0  -0.1658
  C  C65  1  0.000000  0.855500  0.853800  1.0  0.1603
  C  C66  1  0.000000  0.785900  0.847200  1.0  -0.1659
  C  C67  1  0.855500  0.000000  0.146200  1.0  0.1601
  C  C68  1  0.785900  0.000000  0.152800  1.0  -0.1683
  C  C69  1  0.144500  0.000000  0.146200  1.0  0.1614
  C  C70  1  0.214100  0.000000  0.152800  1.0  -0.168
  C  C71  1  0.000000  0.144500  0.146200  1.0  0.1592
  C  C72  1  0.000000  0.214100  0.152800  1.0  -0.1664
  C  C73  1  0.000000  0.855500  0.146200  1.0  0.1604
  C  C74  1  0.000000  0.785900  0.152800  1.0  -0.166
  N  N75  1  0.109600  0.000000  0.000000  1.0  -0.2929
  N  N76  1  0.322600  0.000000  0.000000  1.0  -0.2649
  N  N77  1  0.890400  0.000000  0.000000  1.0  -0.2918
  N  N78  1  0.677400  0.000000  0.000000  1.0  -0.2649
  N  N79  1  0.000000  0.109600  0.000000  1.0  -0.298
  N  N80  1  0.000000  0.322600  0.000000  1.0  -0.2647
  N  N81  1  0.000000  0.890400  0.000000  1.0  -0.2965
  N  N82  1  0.000000  0.677400  0.000000  1.0  -0.2649
  O  O83  1  0.321700  0.114900  0.000000  1.0  -0.4364
  O  O84  1  0.678300  0.885100  0.000000  1.0  -0.437
  O  O85  1  0.885100  0.321700  0.000000  1.0  -0.4352
  O  O86  1  0.114900  0.678300  0.000000  1.0  -0.4358
  O  O87  1  0.678300  0.114900  0.000000  1.0  -0.4373
  O  O88  1  0.321700  0.885100  0.000000  1.0  -0.4373
  O  O89  1  0.114900  0.321700  0.000000  1.0  -0.4369
  O  O90  1  0.885100  0.678300  0.000000  1.0  -0.4342
  F  F91  1  0.000000  0.000000  0.271500  1.0  -0.5122
  F  F92  1  0.000000  0.000000  0.728500  1.0  -0.5118
  F  F93  1  0.059820  0.059820  0.500000  1.0  -0.4857
  F  F94  1  0.940180  0.940180  0.500000  1.0  -0.4847
  F  F95  1  0.940180  0.059820  0.500000  1.0  -0.4853
  F  F96  1  0.059820  0.940180  0.500000  1.0  -0.4863
