# generated using pymatgen
data_NdH5C7NO5
_symmetry_space_group_name_H-M   'P 1'
_cell_length_a   30.51400000
_cell_length_b   15.67150000
_cell_length_c   22.00300000
_cell_angle_alpha   90.00000000
_cell_angle_beta   133.02500000
_cell_angle_gamma   90.00000000
_symmetry_Int_Tables_number   1
_chemical_formula_structural   NdH5C7NO5
_chemical_formula_sum   'Nd16 H80 C112 N16 O80'
_cell_volume   7692.05331333
_cell_formula_units_Z   16
loop_
 _symmetry_equiv_pos_site_id
 _symmetry_equiv_pos_as_xyz
  1  'x, y, z'
loop_
 _atom_site_type_symbol
 _atom_site_label
 _atom_site_symmetry_multiplicity
 _atom_site_fract_x
 _atom_site_fract_y
 _atom_site_fract_z
 _atom_site_occupancy
 _atom_site_charge
  Nd  Nd1  1  0.890010  0.636190  0.325910  1.0  2.185
  Nd  Nd2  1  0.830780  0.627950  0.985480  1.0  2.043
  Nd  Nd3  1  0.390010  0.136190  0.325910  1.0  2.185
  Nd  Nd4  1  0.330780  0.127950  0.985480  1.0  2.043
  Nd  Nd5  1  0.109990  0.636190  0.174090  1.0  2.1857
  Nd  Nd6  1  0.169220  0.627950  0.514520  1.0  2.0422
  Nd  Nd7  1  0.609990  0.136190  0.174090  1.0  2.1857
  Nd  Nd8  1  0.669220  0.127950  0.514520  1.0  2.0422
  Nd  Nd9  1  0.109990  0.363810  0.674090  1.0  2.1847
  Nd  Nd10  1  0.169220  0.372050  0.014520  1.0  2.0433
  Nd  Nd11  1  0.609990  0.863810  0.674090  1.0  2.1847
  Nd  Nd12  1  0.669220  0.872050  0.014520  1.0  2.0433
  Nd  Nd13  1  0.890010  0.363810  0.825910  1.0  2.1838
  Nd  Nd14  1  0.830780  0.372050  0.485480  1.0  2.0438
  Nd  Nd15  1  0.390010  0.863810  0.825910  1.0  2.1838
  Nd  Nd16  1  0.330780  0.872050  0.485480  1.0  2.0438
  H  H17  1  0.856900  0.750600  0.371300  1.0  0.3743
  H  H18  1  0.803400  0.711400  0.333400  1.0  0.3685
  H  H19  1  0.830800  0.795000  0.232500  1.0  0.3752
  H  H20  1  0.886200  0.802300  0.311300  1.0  0.3511
  H  H21  1  0.759400  0.345500  0.223400  1.0  0.0643
  H  H22  1  0.727400  0.334300  0.092900  1.0  0.08
  H  H23  1  0.780600  0.416000  0.069600  1.0  0.0668
  H  H24  1  0.683500  0.562500  0.147000  1.0  0.0849
  H  H25  1  0.580900  0.536200  0.057500  1.0  0.0586
  H  H26  1  0.511800  0.639700  0.960800  1.0  0.0832
  H  H27  1  0.356900  0.250600  0.371300  1.0  0.3743
  H  H28  1  0.303400  0.211400  0.333400  1.0  0.3685
  H  H29  1  0.330800  0.295000  0.232500  1.0  0.3752
  H  H30  1  0.386200  0.302300  0.311300  1.0  0.3511
  H  H31  1  0.259400  0.845500  0.223400  1.0  0.0643
  H  H32  1  0.227400  0.834300  0.092900  1.0  0.0799
  H  H33  1  0.280600  0.916000  0.069600  1.0  0.0668
  H  H34  1  0.183500  0.062500  0.147000  1.0  0.0849
  H  H35  1  0.080900  0.036200  0.057500  1.0  0.0606
  H  H36  1  0.011800  0.139700  0.960800  1.0  0.0832
  H  H37  1  0.143100  0.750600  0.128700  1.0  0.3745
  H  H38  1  0.196600  0.711400  0.166600  1.0  0.3706
  H  H39  1  0.169200  0.795000  0.267500  1.0  0.3726
  H  H40  1  0.113800  0.802300  0.188700  1.0  0.3533
  H  H41  1  0.240600  0.345500  0.276600  1.0  0.0641
  H  H42  1  0.272600  0.334300  0.407100  1.0  0.0796
  H  H43  1  0.219400  0.416000  0.430400  1.0  0.0671
  H  H44  1  0.316500  0.562500  0.353000  1.0  0.0838
  H  H45  1  0.419100  0.536200  0.442500  1.0  0.0593
  H  H46  1  0.488200  0.639700  0.539200  1.0  0.0817
  H  H47  1  0.643100  0.250600  0.128700  1.0  0.3745
  H  H48  1  0.696600  0.211400  0.166600  1.0  0.3706
  H  H49  1  0.669200  0.295000  0.267500  1.0  0.3726
  H  H50  1  0.613800  0.302300  0.188700  1.0  0.3533
  H  H51  1  0.740600  0.845500  0.276600  1.0  0.0641
  H  H52  1  0.772600  0.834300  0.407100  1.0  0.0796
  H  H53  1  0.719400  0.916000  0.430400  1.0  0.0671
  H  H54  1  0.816500  0.062500  0.353000  1.0  0.0838
  H  H55  1  0.919100  0.036200  0.442500  1.0  0.0593
  H  H56  1  0.988200  0.139700  0.539200  1.0  0.0817
  H  H57  1  0.143100  0.249400  0.628700  1.0  0.3733
  H  H58  1  0.196600  0.288600  0.666667  1.0  0.3699
  H  H59  1  0.169200  0.205000  0.767500  1.0  0.3731
  H  H60  1  0.113800  0.197700  0.688700  1.0  0.353
  H  H61  1  0.240600  0.654500  0.776600  1.0  0.0639
  H  H62  1  0.272600  0.665700  0.907100  1.0  0.0793
  H  H63  1  0.219400  0.584000  0.930400  1.0  0.067
  H  H64  1  0.316500  0.437500  0.853000  1.0  0.084
  H  H65  1  0.419100  0.463800  0.942500  1.0  0.0585
  H  H66  1  0.488200  0.360300  0.039200  1.0  0.0819
  H  H67  1  0.643100  0.749400  0.628700  1.0  0.3733
  H  H68  1  0.696600  0.788600  0.666667  1.0  0.3699
  H  H69  1  0.669200  0.705000  0.767500  1.0  0.3731
  H  H70  1  0.613800  0.697700  0.688700  1.0  0.353
  H  H71  1  0.740600  0.154500  0.776600  1.0  0.0639
  H  H72  1  0.772600  0.165700  0.907100  1.0  0.079
  H  H73  1  0.719400  0.084000  0.930400  1.0  0.067
  H  H74  1  0.816500  0.937500  0.853000  1.0  0.084
  H  H75  1  0.919100  0.963800  0.942500  1.0  0.0605
  H  H76  1  0.988200  0.860300  0.039200  1.0  0.0819
  H  H77  1  0.856900  0.249400  0.871300  1.0  0.3728
  H  H78  1  0.803400  0.288600  0.833400  1.0  0.3689
  H  H79  1  0.830800  0.205000  0.732500  1.0  0.3753
  H  H80  1  0.886200  0.197700  0.811300  1.0  0.3505
  H  H81  1  0.759400  0.654500  0.723400  1.0  0.0639
  H  H82  1  0.727400  0.665700  0.592900  1.0  0.0798
  H  H83  1  0.780600  0.584000  0.569600  1.0  0.0667
  H  H84  1  0.683500  0.437500  0.647000  1.0  0.0845
  H  H85  1  0.580900  0.463800  0.557500  1.0  0.0589
  H  H86  1  0.511800  0.360300  0.460800  1.0  0.0828
  H  H87  1  0.356900  0.749400  0.871300  1.0  0.3728
  H  H88  1  0.303400  0.788600  0.833400  1.0  0.3689
  H  H89  1  0.330800  0.705000  0.732500  1.0  0.3753
  H  H90  1  0.386200  0.697700  0.811300  1.0  0.3505
  H  H91  1  0.259400  0.154500  0.723400  1.0  0.0639
  H  H92  1  0.227400  0.165700  0.592900  1.0  0.0798
  H  H93  1  0.280600  0.084000  0.569600  1.0  0.0667
  H  H94  1  0.183500  0.937500  0.647000  1.0  0.0845
  H  H95  1  0.080900  0.963800  0.557500  1.0  0.0589
  H  H96  1  0.011800  0.860300  0.460800  1.0  0.0828
  C  C97  1  0.838000  0.460500  0.347100  1.0  0.6405
  C  C98  1  0.814700  0.444400  0.261700  1.0  0.0722
  C  C99  1  0.774700  0.381800  0.208200  1.0  -0.1418
  C  C100  1  0.757200  0.372600  0.132400  1.0  -0.1762
  C  C101  1  0.787200  0.424800  0.117100  1.0  -0.135
  C  C102  1  0.825900  0.488300  0.172600  1.0  0.1613
  C  C103  1  0.849400  0.553600  0.153400  1.0  0.6777
  C  C104  1  0.737700  0.699100  0.146800  1.0  0.663
  C  C105  1  0.673800  0.678100  0.093200  1.0  0.0751
  C  C106  1  0.655600  0.601200  0.105600  1.0  -0.1561
  C  C107  1  0.594400  0.587000  0.053200  1.0  -0.1331
  C  C108  1  0.552800  0.647500  0.994400  1.0  -0.1663
  C  C109  1  0.576500  0.721100  0.988600  1.0  0.0683
  C  C110  1  0.535700  0.792500  0.929100  1.0  0.6515
  C  C111  1  0.338000  0.960500  0.347100  1.0  0.6405
  C  C112  1  0.314700  0.944400  0.261700  1.0  0.0722
  C  C113  1  0.274700  0.881800  0.208200  1.0  -0.1418
  C  C114  1  0.257200  0.872600  0.132400  1.0  -0.1762
  C  C115  1  0.287200  0.924800  0.117100  1.0  -0.135
  C  C116  1  0.325900  0.988300  0.172600  1.0  0.1613
  C  C117  1  0.349400  0.053600  0.153400  1.0  0.6777
  C  C118  1  0.237700  0.199100  0.146800  1.0  0.663
  C  C119  1  0.173800  0.178100  0.093200  1.0  0.0751
  C  C120  1  0.155600  0.101200  0.105600  1.0  -0.1561
  C  C121  1  0.094400  0.087000  0.053200  1.0  -0.1331
  C  C122  1  0.052800  0.147500  0.994400  1.0  -0.1663
  C  C123  1  0.076500  0.221100  0.988600  1.0  0.0683
  C  C124  1  0.035700  0.292500  0.929100  1.0  0.6515
  C  C125  1  0.162000  0.460500  0.152900  1.0  0.6414
  C  C126  1  0.185300  0.444400  0.238300  1.0  0.0706
  C  C127  1  0.225300  0.381800  0.291800  1.0  -0.1419
  C  C128  1  0.242800  0.372600  0.367600  1.0  -0.1758
  C  C129  1  0.212800  0.424800  0.382900  1.0  -0.1355
  C  C130  1  0.174100  0.488300  0.327400  1.0  0.1613
  C  C131  1  0.150600  0.553600  0.346600  1.0  0.6778
  C  C132  1  0.262300  0.699100  0.353200  1.0  0.6612
  C  C133  1  0.326200  0.678100  0.406800  1.0  0.0734
  C  C134  1  0.344400  0.601200  0.394400  1.0  -0.1567
  C  C135  1  0.405600  0.587000  0.446800  1.0  -0.1333
  C  C136  1  0.447200  0.647500  0.505600  1.0  -0.164
  C  C137  1  0.423500  0.721100  0.511400  1.0  0.0699
  C  C138  1  0.464300  0.792500  0.570900  1.0  0.6522
  C  C139  1  0.662000  0.960500  0.152900  1.0  0.6414
  C  C140  1  0.685300  0.944400  0.238300  1.0  0.0706
  C  C141  1  0.725300  0.881800  0.291800  1.0  -0.1419
  C  C142  1  0.742800  0.872600  0.367600  1.0  -0.1758
  C  C143  1  0.712800  0.924800  0.382900  1.0  -0.1355
  C  C144  1  0.674100  0.988300  0.327400  1.0  0.1613
  C  C145  1  0.650600  0.053600  0.346600  1.0  0.6778
  C  C146  1  0.762300  0.199100  0.353200  1.0  0.6612
  C  C147  1  0.826200  0.178100  0.406800  1.0  0.0734
  C  C148  1  0.844400  0.101200  0.394400  1.0  -0.1567
  C  C149  1  0.905600  0.087000  0.446800  1.0  -0.1333
  C  C150  1  0.947200  0.147500  0.505600  1.0  -0.164
  C  C151  1  0.923500  0.221100  0.511400  1.0  0.0699
  C  C152  1  0.964300  0.292500  0.570900  1.0  0.6522
  C  C153  1  0.162000  0.539500  0.652900  1.0  0.6411
  C  C154  1  0.185300  0.555600  0.738300  1.0  0.0704
  C  C155  1  0.225300  0.618200  0.791800  1.0  -0.1411
  C  C156  1  0.242800  0.627400  0.867600  1.0  -0.1758
  C  C157  1  0.212800  0.575200  0.882900  1.0  -0.1338
  C  C158  1  0.174100  0.511700  0.827400  1.0  0.1619
  C  C159  1  0.150600  0.446400  0.846600  1.0  0.679
  C  C160  1  0.262300  0.300900  0.853200  1.0  0.6631
  C  C161  1  0.326200  0.321900  0.906800  1.0  0.0736
  C  C162  1  0.344400  0.398800  0.894400  1.0  -0.1583
  C  C163  1  0.405600  0.413000  0.946800  1.0  -0.1349
  C  C164  1  0.447200  0.352500  0.005600  1.0  -0.1639
  C  C165  1  0.423500  0.278900  0.011400  1.0  0.0703
  C  C166  1  0.464300  0.207500  0.070900  1.0  0.6537
  C  C167  1  0.662000  0.039500  0.652900  1.0  0.6411
  C  C168  1  0.685300  0.055600  0.738300  1.0  0.0704
  C  C169  1  0.725300  0.118200  0.791800  1.0  -0.1411
  C  C170  1  0.742800  0.127400  0.867600  1.0  -0.1758
  C  C171  1  0.712800  0.075200  0.882900  1.0  -0.1338
  C  C172  1  0.674100  0.011700  0.827400  1.0  0.1619
  C  C173  1  0.650600  0.946400  0.846600  1.0  0.679
  C  C174  1  0.762300  0.800900  0.853200  1.0  0.6631
  C  C175  1  0.826200  0.821900  0.906800  1.0  0.0736
  C  C176  1  0.844400  0.898800  0.894400  1.0  -0.1583
  C  C177  1  0.905600  0.913000  0.946800  1.0  -0.1349
  C  C178  1  0.947200  0.852500  0.005600  1.0  -0.1639
  C  C179  1  0.923500  0.778900  0.011400  1.0  0.0703
  C  C180  1  0.964300  0.707500  0.070900  1.0  0.6537
  C  C181  1  0.838000  0.539500  0.847100  1.0  0.6408
  C  C182  1  0.814700  0.555600  0.761700  1.0  0.0717
  C  C183  1  0.774700  0.618200  0.708200  1.0  -0.1421
  C  C184  1  0.757200  0.627400  0.632400  1.0  -0.1762
  C  C185  1  0.787200  0.575200  0.617100  1.0  -0.1358
  C  C186  1  0.825900  0.511700  0.672600  1.0  0.1614
  C  C187  1  0.849400  0.446400  0.653400  1.0  0.6773
  C  C188  1  0.737700  0.300900  0.646800  1.0  0.6633
  C  C189  1  0.673800  0.321900  0.593200  1.0  0.0749
  C  C190  1  0.655600  0.398800  0.605600  1.0  -0.1583
  C  C191  1  0.594400  0.413000  0.553200  1.0  -0.1341
  C  C192  1  0.552800  0.352500  0.494400  1.0  -0.1666
  C  C193  1  0.576500  0.278900  0.488600  1.0  0.0677
  C  C194  1  0.535700  0.207500  0.429100  1.0  0.652
  C  C195  1  0.338000  0.039500  0.847100  1.0  0.6408
  C  C196  1  0.314700  0.055600  0.761700  1.0  0.0717
  C  C197  1  0.274700  0.118200  0.708200  1.0  -0.1421
  C  C198  1  0.257200  0.127400  0.632400  1.0  -0.1762
  C  C199  1  0.287200  0.075200  0.617100  1.0  -0.1358
  C  C200  1  0.325900  0.011700  0.672600  1.0  0.1614
  C  C201  1  0.349400  0.946400  0.653400  1.0  0.6773
  C  C202  1  0.237700  0.800900  0.646800  1.0  0.6633
  C  C203  1  0.173800  0.821900  0.593200  1.0  0.0749
  C  C204  1  0.155600  0.898800  0.605600  1.0  -0.1583
  C  C205  1  0.094400  0.913000  0.553200  1.0  -0.1341
  C  C206  1  0.052800  0.852500  0.494400  1.0  -0.1666
  C  C207  1  0.076500  0.778900  0.488600  1.0  0.0677
  C  C208  1  0.035700  0.707500  0.429100  1.0  0.652
  N  N209  1  0.838100  0.497400  0.241800  1.0  -0.4515
  N  N210  1  0.634000  0.734200  0.035800  1.0  -0.4882
  N  N211  1  0.338100  0.997400  0.241800  1.0  -0.4515
  N  N212  1  0.134000  0.234200  0.035800  1.0  -0.4882
  N  N213  1  0.161900  0.497400  0.258200  1.0  -0.4492
  N  N214  1  0.366000  0.734200  0.464200  1.0  -0.4883
  N  N215  1  0.661900  0.997400  0.258200  1.0  -0.4492
  N  N216  1  0.866000  0.234200  0.464200  1.0  -0.4883
  N  N217  1  0.161900  0.502600  0.758200  1.0  -0.4495
  N  N218  1  0.366000  0.265800  0.964200  1.0  -0.4885
  N  N219  1  0.661900  0.002600  0.758200  1.0  -0.4495
  N  N220  1  0.866000  0.765800  0.964200  1.0  -0.4885
  N  N221  1  0.838100  0.502600  0.741800  1.0  -0.4516
  N  N222  1  0.634000  0.265800  0.535800  1.0  -0.4887
  N  N223  1  0.338100  0.002600  0.741800  1.0  -0.4516
  N  N224  1  0.134000  0.765800  0.535800  1.0  -0.4887
  O  O225  1  0.866900  0.530300  0.382800  1.0  -0.7188
  O  O226  1  0.828100  0.404100  0.375500  1.0  -0.7717
  O  O227  1  0.876200  0.615400  0.203400  1.0  -0.7013
  O  O228  1  0.840400  0.547500  0.088800  1.0  -0.82
  O  O229  1  0.749000  0.768700  0.129100  1.0  -0.6613
  O  O230  1  0.777200  0.653100  0.204100  1.0  -0.6531
  O  O231  1  0.560000  0.855800  0.930300  1.0  -0.686
  O  O232  1  0.481000  0.784800  0.888000  1.0  -0.716
  O  O233  1  0.841200  0.704200  0.368500  1.0  -0.7815
  O  O234  1  0.867500  0.781000  0.263600  1.0  -0.784
  O  O235  1  0.366900  0.030300  0.382800  1.0  -0.7188
  O  O236  1  0.328100  0.904100  0.375500  1.0  -0.7717
  O  O237  1  0.376200  0.115400  0.203400  1.0  -0.7013
  O  O238  1  0.340400  0.047500  0.088800  1.0  -0.82
  O  O239  1  0.249000  0.268700  0.129100  1.0  -0.6613
  O  O240  1  0.277200  0.153100  0.204100  1.0  -0.6531
  O  O241  1  0.060000  0.355800  0.930300  1.0  -0.686
  O  O242  1  0.981000  0.284800  0.888000  1.0  -0.716
  O  O243  1  0.341200  0.204200  0.368500  1.0  -0.7815
  O  O244  1  0.367500  0.281000  0.263600  1.0  -0.784
  O  O245  1  0.133100  0.530300  0.117200  1.0  -0.721
  O  O246  1  0.171900  0.404100  0.124500  1.0  -0.7727
  O  O247  1  0.123800  0.615400  0.296600  1.0  -0.7004
  O  O248  1  0.159600  0.547500  0.411200  1.0  -0.8237
  O  O249  1  0.251000  0.768700  0.370900  1.0  -0.6588
  O  O250  1  0.222800  0.653100  0.295900  1.0  -0.6528
  O  O251  1  0.440000  0.855800  0.569700  1.0  -0.6855
  O  O252  1  0.519000  0.784800  0.612000  1.0  -0.7167
  O  O253  1  0.158800  0.704200  0.131500  1.0  -0.784
  O  O254  1  0.132500  0.781000  0.236400  1.0  -0.7827
  O  O255  1  0.633100  0.030300  0.117200  1.0  -0.721
  O  O256  1  0.671900  0.904100  0.124500  1.0  -0.7727
  O  O257  1  0.623800  0.115400  0.296600  1.0  -0.7004
  O  O258  1  0.659600  0.047500  0.411200  1.0  -0.8237
  O  O259  1  0.751000  0.268700  0.370900  1.0  -0.6588
  O  O260  1  0.722800  0.153100  0.295900  1.0  -0.6528
  O  O261  1  0.940000  0.355800  0.569700  1.0  -0.6855
  O  O262  1  0.019000  0.284800  0.612000  1.0  -0.7167
  O  O263  1  0.658800  0.204200  0.131500  1.0  -0.784
  O  O264  1  0.632500  0.281000  0.236400  1.0  -0.7827
  O  O265  1  0.133100  0.469700  0.617200  1.0  -0.7204
  O  O266  1  0.171900  0.595900  0.624500  1.0  -0.773
  O  O267  1  0.123800  0.384600  0.796600  1.0  -0.7
  O  O268  1  0.159600  0.452500  0.911200  1.0  -0.8241
  O  O269  1  0.251000  0.231300  0.870900  1.0  -0.6597
  O  O270  1  0.222800  0.346900  0.795900  1.0  -0.6525
  O  O271  1  0.440000  0.144200  0.069700  1.0  -0.6853
  O  O272  1  0.519000  0.215200  0.112000  1.0  -0.7166
  O  O273  1  0.158800  0.295800  0.631500  1.0  -0.7846
  O  O274  1  0.132500  0.219000  0.736400  1.0  -0.7823
  O  O275  1  0.633100  0.969700  0.617200  1.0  -0.7204
  O  O276  1  0.671900  0.095900  0.624500  1.0  -0.773
  O  O277  1  0.623800  0.884600  0.796600  1.0  -0.7
  O  O278  1  0.659600  0.952500  0.911200  1.0  -0.8241
  O  O279  1  0.751000  0.731300  0.870900  1.0  -0.6597
  O  O280  1  0.722800  0.846900  0.795900  1.0  -0.6525
  O  O281  1  0.940000  0.644200  0.069700  1.0  -0.6853
  O  O282  1  0.019000  0.715200  0.112000  1.0  -0.7166
  O  O283  1  0.658800  0.795800  0.631500  1.0  -0.7846
  O  O284  1  0.632500  0.719000  0.736400  1.0  -0.7823
  O  O285  1  0.866900  0.469700  0.882800  1.0  -0.7197
  O  O286  1  0.828100  0.595900  0.875500  1.0  -0.7716
  O  O287  1  0.876200  0.384600  0.703400  1.0  -0.7008
  O  O288  1  0.840400  0.452500  0.588800  1.0  -0.82
  O  O289  1  0.749000  0.231300  0.629100  1.0  -0.6597
  O  O290  1  0.777200  0.346900  0.704100  1.0  -0.6531
  O  O291  1  0.560000  0.144200  0.430300  1.0  -0.6852
  O  O292  1  0.481000  0.215200  0.388000  1.0  -0.7161
  O  O293  1  0.841200  0.295800  0.868500  1.0  -0.7805
  O  O294  1  0.867500  0.219000  0.763600  1.0  -0.7851
  O  O295  1  0.366900  0.969700  0.882800  1.0  -0.7197
  O  O296  1  0.328100  0.095900  0.875500  1.0  -0.7716
  O  O297  1  0.376200  0.884600  0.703400  1.0  -0.7008
  O  O298  1  0.340400  0.952500  0.588800  1.0  -0.82
  O  O299  1  0.249000  0.731300  0.629100  1.0  -0.6597
  O  O300  1  0.277200  0.846900  0.704100  1.0  -0.6531
  O  O301  1  0.060000  0.644200  0.430300  1.0  -0.6852
  O  O302  1  0.981000  0.715200  0.388000  1.0  -0.7161
  O  O303  1  0.341200  0.795800  0.868500  1.0  -0.7805
  O  O304  1  0.367500  0.719000  0.763600  1.0  -0.7851
