# generated using pymatgen
data_CeH3C7NO4
_symmetry_space_group_name_H-M   'P 1'
_cell_length_a   30.75300000
_cell_length_b   15.72850000
_cell_length_c   22.11900000
_cell_angle_alpha   90.00000000
_cell_angle_beta   133.11800000
_cell_angle_gamma   90.00000000
_symmetry_Int_Tables_number   1
_chemical_formula_structural   CeH3C7NO4
_chemical_formula_sum   'Ce16 H48 C112 N16 O64'
_cell_volume   7809.65697846
_cell_formula_units_Z   16
loop_
 _symmetry_equiv_pos_site_id
 _symmetry_equiv_pos_as_xyz
  1  'x, y, z'
loop_
 _atom_site_type_symbol
 _atom_site_label
 _atom_site_symmetry_multiplicity
 _atom_site_fract_x
 _atom_site_fract_y
 _atom_site_fract_z
 _atom_site_occupancy
 _atom_site_charge
  Ce  Ce1  1  0.890050  0.636920  0.327430  1.0  1.9697
  Ce  Ce2  1  0.830610  0.628470  0.985770  1.0  2.0078
  Ce  Ce3  1  0.390050  0.136920  0.327430  1.0  1.9697
  Ce  Ce4  1  0.330610  0.128470  0.985770  1.0  2.0078
  Ce  Ce5  1  0.109950  0.636920  0.172570  1.0  1.9703
  Ce  Ce6  1  0.169390  0.628470  0.514230  1.0  2.0085
  Ce  Ce7  1  0.609950  0.136920  0.172570  1.0  1.9703
  Ce  Ce8  1  0.669390  0.128470  0.514230  1.0  2.0085
  Ce  Ce9  1  0.109950  0.363080  0.672570  1.0  1.9712
  Ce  Ce10  1  0.169390  0.371530  0.014230  1.0  2.0091
  Ce  Ce11  1  0.609950  0.863080  0.672570  1.0  1.9712
  Ce  Ce12  1  0.669390  0.871530  0.014230  1.0  2.0091
  Ce  Ce13  1  0.890050  0.363080  0.827430  1.0  1.9704
  Ce  Ce14  1  0.830610  0.371530  0.485770  1.0  2.0084
  Ce  Ce15  1  0.390050  0.863080  0.827430  1.0  1.9704
  Ce  Ce16  1  0.330610  0.871530  0.485770  1.0  2.0084
  H  H17  1  0.760300  0.345800  0.223300  1.0  0.0908
  H  H18  1  0.727500  0.334700  0.091800  1.0  0.1013
  H  H19  1  0.778900  0.415300  0.068600  1.0  0.094
  H  H20  1  0.683400  0.560300  0.145600  1.0  0.1075
  H  H21  1  0.582800  0.536000  0.060800  1.0  0.0847
  H  H22  1  0.512500  0.637600  0.960700  1.0  0.1069
  H  H23  1  0.260300  0.845800  0.223300  1.0  0.0908
  H  H24  1  0.227500  0.834700  0.091800  1.0  0.1034
  H  H25  1  0.278900  0.915300  0.068600  1.0  0.094
  H  H26  1  0.183400  0.060300  0.145600  1.0  0.1075
  H  H27  1  0.082800  0.036000  0.060800  1.0  0.0859
  H  H28  1  0.012500  0.137600  0.960700  1.0  0.1069
  H  H29  1  0.239700  0.345800  0.276700  1.0  0.0905
  H  H30  1  0.272500  0.334700  0.408200  1.0  0.1022
  H  H31  1  0.221100  0.415300  0.431400  1.0  0.0943
  H  H32  1  0.316600  0.560300  0.354400  1.0  0.1076
  H  H33  1  0.417200  0.536000  0.439200  1.0  0.0846
  H  H34  1  0.487500  0.637600  0.539300  1.0  0.1061
  H  H35  1  0.739700  0.845800  0.276700  1.0  0.0905
  H  H36  1  0.772500  0.834700  0.408200  1.0  0.1022
  H  H37  1  0.721100  0.915300  0.431400  1.0  0.0943
  H  H38  1  0.816600  0.060300  0.354400  1.0  0.1076
  H  H39  1  0.917200  0.036000  0.439200  1.0  0.0846
  H  H40  1  0.987500  0.137600  0.539300  1.0  0.1061
  H  H41  1  0.239700  0.654200  0.776700  1.0  0.0905
  H  H42  1  0.272500  0.665300  0.908200  1.0  0.1015
  H  H43  1  0.221100  0.584700  0.931400  1.0  0.0942
  H  H44  1  0.316600  0.439700  0.854400  1.0  0.1076
  H  H45  1  0.417200  0.464000  0.939200  1.0  0.085
  H  H46  1  0.487500  0.362400  0.039300  1.0  0.1062
  H  H47  1  0.739700  0.154200  0.776700  1.0  0.0905
  H  H48  1  0.772500  0.165300  0.908200  1.0  0.103
  H  H49  1  0.721100  0.084700  0.931400  1.0  0.0942
  H  H50  1  0.816600  0.939700  0.854400  1.0  0.1076
  H  H51  1  0.917200  0.964000  0.939200  1.0  0.0855
  H  H52  1  0.987500  0.862400  0.039300  1.0  0.1062
  H  H53  1  0.760300  0.654200  0.723300  1.0  0.0905
  H  H54  1  0.727500  0.665300  0.591800  1.0  0.1022
  H  H55  1  0.778900  0.584700  0.568600  1.0  0.094
  H  H56  1  0.683400  0.439700  0.645600  1.0  0.107
  H  H57  1  0.582800  0.464000  0.560800  1.0  0.0842
  H  H58  1  0.512500  0.362400  0.460700  1.0  0.1066
  H  H59  1  0.260300  0.154200  0.723300  1.0  0.0905
  H  H60  1  0.227500  0.165300  0.591800  1.0  0.1022
  H  H61  1  0.278900  0.084700  0.568600  1.0  0.094
  H  H62  1  0.183400  0.939700  0.645600  1.0  0.107
  H  H63  1  0.082800  0.964000  0.560800  1.0  0.0842
  H  H64  1  0.012500  0.862400  0.460700  1.0  0.1066
  C  C65  1  0.838600  0.460000  0.346300  1.0  0.6065
  C  C66  1  0.815000  0.442800  0.261800  1.0  0.078
  C  C67  1  0.775600  0.382000  0.208300  1.0  -0.1068
  C  C68  1  0.757300  0.372700  0.131200  1.0  -0.1278
  C  C69  1  0.786200  0.423500  0.116500  1.0  -0.1208
  C  C70  1  0.825900  0.486500  0.172200  1.0  0.0981
  C  C71  1  0.848900  0.551900  0.153600  1.0  0.6927
  C  C72  1  0.737500  0.698500  0.146700  1.0  0.6929
  C  C73  1  0.674500  0.676300  0.095900  1.0  0.0317
  C  C74  1  0.655800  0.600000  0.105800  1.0  -0.1393
  C  C75  1  0.595800  0.586100  0.055200  1.0  -0.0983
  C  C76  1  0.553300  0.646100  0.994800  1.0  -0.1199
  C  C77  1  0.576600  0.719100  0.989700  1.0  0.104
  C  C78  1  0.535200  0.789800  0.930700  1.0  0.6914
  C  C79  1  0.338600  0.960000  0.346300  1.0  0.6065
  C  C80  1  0.315000  0.942800  0.261800  1.0  0.078
  C  C81  1  0.275600  0.882000  0.208300  1.0  -0.1068
  C  C82  1  0.257300  0.872700  0.131200  1.0  -0.1278
  C  C83  1  0.286200  0.923500  0.116500  1.0  -0.1208
  C  C84  1  0.325900  0.986500  0.172200  1.0  0.0981
  C  C85  1  0.348900  0.051900  0.153600  1.0  0.6927
  C  C86  1  0.237500  0.198500  0.146700  1.0  0.6929
  C  C87  1  0.174500  0.176300  0.095900  1.0  0.0317
  C  C88  1  0.155800  0.100000  0.105800  1.0  -0.1393
  C  C89  1  0.095800  0.086100  0.055200  1.0  -0.0983
  C  C90  1  0.053300  0.146100  0.994800  1.0  -0.1199
  C  C91  1  0.076600  0.219100  0.989700  1.0  0.104
  C  C92  1  0.035200  0.289800  0.930700  1.0  0.6914
  C  C93  1  0.161400  0.460000  0.153700  1.0  0.6062
  C  C94  1  0.185000  0.442800  0.238200  1.0  0.0775
  C  C95  1  0.224400  0.382000  0.291700  1.0  -0.1065
  C  C96  1  0.242700  0.372700  0.368800  1.0  -0.1269
  C  C97  1  0.213800  0.423500  0.383500  1.0  -0.1216
  C  C98  1  0.174100  0.486500  0.327800  1.0  0.0975
  C  C99  1  0.151100  0.551900  0.346400  1.0  0.6916
  C  C100  1  0.262500  0.698500  0.353300  1.0  0.6898
  C  C101  1  0.325500  0.676300  0.404100  1.0  0.0325
  C  C102  1  0.344200  0.600000  0.394200  1.0  -0.1406
  C  C103  1  0.404200  0.586100  0.444800  1.0  -0.0994
  C  C104  1  0.446700  0.646100  0.505200  1.0  -0.1162
  C  C105  1  0.423400  0.719100  0.510300  1.0  0.1042
  C  C106  1  0.464800  0.789800  0.569300  1.0  0.6903
  C  C107  1  0.661400  0.960000  0.153700  1.0  0.6062
  C  C108  1  0.685000  0.942800  0.238200  1.0  0.0775
  C  C109  1  0.724400  0.882000  0.291700  1.0  -0.1065
  C  C110  1  0.742700  0.872700  0.368800  1.0  -0.1269
  C  C111  1  0.713800  0.923500  0.383500  1.0  -0.1216
  C  C112  1  0.674100  0.986500  0.327800  1.0  0.0975
  C  C113  1  0.651100  0.051900  0.346400  1.0  0.6916
  C  C114  1  0.762500  0.198500  0.353300  1.0  0.6898
  C  C115  1  0.825500  0.176300  0.404100  1.0  0.0325
  C  C116  1  0.844200  0.100000  0.394200  1.0  -0.1406
  C  C117  1  0.904200  0.086100  0.444800  1.0  -0.0994
  C  C118  1  0.946700  0.146100  0.505200  1.0  -0.1162
  C  C119  1  0.923400  0.219100  0.510300  1.0  0.1042
  C  C120  1  0.964800  0.289800  0.569300  1.0  0.6903
  C  C121  1  0.161400  0.540000  0.653700  1.0  0.6066
  C  C122  1  0.185000  0.557200  0.738200  1.0  0.0771
  C  C123  1  0.224400  0.618000  0.791700  1.0  -0.1068
  C  C124  1  0.242700  0.627300  0.868800  1.0  -0.1256
  C  C125  1  0.213800  0.576500  0.883500  1.0  -0.1203
  C  C126  1  0.174100  0.513500  0.827800  1.0  0.0978
  C  C127  1  0.151100  0.448100  0.846400  1.0  0.6928
  C  C128  1  0.262500  0.301500  0.853300  1.0  0.6907
  C  C129  1  0.325500  0.323700  0.904100  1.0  0.0324
  C  C130  1  0.344200  0.400000  0.894200  1.0  -0.1422
  C  C131  1  0.404200  0.413900  0.944800  1.0  -0.0997
  C  C132  1  0.446700  0.353900  0.005200  1.0  -0.1168
  C  C133  1  0.423400  0.280900  0.010300  1.0  0.1051
  C  C134  1  0.464800  0.210200  0.069300  1.0  0.6942
  C  C135  1  0.661400  0.040000  0.653700  1.0  0.6066
  C  C136  1  0.685000  0.057200  0.738200  1.0  0.0771
  C  C137  1  0.724400  0.118000  0.791700  1.0  -0.1068
  C  C138  1  0.742700  0.127300  0.868800  1.0  -0.1256
  C  C139  1  0.713800  0.076500  0.883500  1.0  -0.1203
  C  C140  1  0.674100  0.013500  0.827800  1.0  0.0978
  C  C141  1  0.651100  0.948100  0.846400  1.0  0.6928
  C  C142  1  0.762500  0.801500  0.853300  1.0  0.6907
  C  C143  1  0.825500  0.823700  0.904100  1.0  0.0324
  C  C144  1  0.844200  0.900000  0.894200  1.0  -0.1422
  C  C145  1  0.904200  0.913900  0.944800  1.0  -0.0997
  C  C146  1  0.946700  0.853900  0.005200  1.0  -0.1168
  C  C147  1  0.923400  0.780900  0.010300  1.0  0.1051
  C  C148  1  0.964800  0.710200  0.069300  1.0  0.6942
  C  C149  1  0.838600  0.540000  0.846300  1.0  0.6071
  C  C150  1  0.815000  0.557200  0.761800  1.0  0.0772
  C  C151  1  0.775600  0.618000  0.708300  1.0  -0.1081
  C  C152  1  0.757300  0.627300  0.631200  1.0  -0.1267
  C  C153  1  0.786200  0.576500  0.616500  1.0  -0.1213
  C  C154  1  0.825900  0.513500  0.672200  1.0  0.0976
  C  C155  1  0.848900  0.448100  0.653600  1.0  0.6927
  C  C156  1  0.737500  0.301500  0.646700  1.0  0.6943
  C  C157  1  0.674500  0.323700  0.595900  1.0  0.0318
  C  C158  1  0.655800  0.400000  0.605800  1.0  -0.1411
  C  C159  1  0.595800  0.413900  0.555200  1.0  -0.0976
  C  C160  1  0.553300  0.353900  0.494800  1.0  -0.1204
  C  C161  1  0.576600  0.280900  0.489700  1.0  0.1034
  C  C162  1  0.535200  0.210200  0.430700  1.0  0.6902
  C  C163  1  0.338600  0.040000  0.846300  1.0  0.6071
  C  C164  1  0.315000  0.057200  0.761800  1.0  0.0772
  C  C165  1  0.275600  0.118000  0.708300  1.0  -0.1081
  C  C166  1  0.257300  0.127300  0.631200  1.0  -0.1267
  C  C167  1  0.286200  0.076500  0.616500  1.0  -0.1213
  C  C168  1  0.325900  0.013500  0.672200  1.0  0.0976
  C  C169  1  0.348900  0.948100  0.653600  1.0  0.6927
  C  C170  1  0.237500  0.801500  0.646700  1.0  0.6943
  C  C171  1  0.174500  0.823700  0.595900  1.0  0.0318
  C  C172  1  0.155800  0.900000  0.605800  1.0  -0.1411
  C  C173  1  0.095800  0.913900  0.555200  1.0  -0.0976
  C  C174  1  0.053300  0.853900  0.494800  1.0  -0.1204
  C  C175  1  0.076600  0.780900  0.489700  1.0  0.1034
  C  C176  1  0.035200  0.710200  0.430700  1.0  0.6902
  N  N177  1  0.838600  0.496400  0.242700  1.0  -0.4909
  N  N178  1  0.633400  0.731400  0.035400  1.0  -0.4641
  N  N179  1  0.338600  0.996400  0.242700  1.0  -0.4909
  N  N180  1  0.133400  0.231400  0.035400  1.0  -0.4641
  N  N181  1  0.161400  0.496400  0.257300  1.0  -0.4887
  N  N182  1  0.366600  0.731400  0.464600  1.0  -0.4632
  N  N183  1  0.661400  0.996400  0.257300  1.0  -0.4887
  N  N184  1  0.866600  0.231400  0.464600  1.0  -0.4632
  N  N185  1  0.161400  0.503600  0.757300  1.0  -0.489
  N  N186  1  0.366600  0.268600  0.964600  1.0  -0.4632
  N  N187  1  0.661400  0.003600  0.757300  1.0  -0.489
  N  N188  1  0.866600  0.768600  0.964600  1.0  -0.4632
  N  N189  1  0.838600  0.503600  0.742700  1.0  -0.4904
  N  N190  1  0.633400  0.268600  0.535400  1.0  -0.4642
  N  N191  1  0.338600  0.003600  0.742700  1.0  -0.4904
  N  N192  1  0.133400  0.768600  0.535400  1.0  -0.4642
  O  O193  1  0.865500  0.527200  0.381500  1.0  -0.6522
  O  O194  1  0.826100  0.402600  0.373900  1.0  -0.7502
  O  O195  1  0.875800  0.615400  0.203300  1.0  -0.7281
  O  O196  1  0.840500  0.546800  0.090400  1.0  -0.799
  O  O197  1  0.747600  0.766200  0.127400  1.0  -0.7579
  O  O198  1  0.777000  0.650800  0.205800  1.0  -0.7148
  O  O199  1  0.559400  0.853700  0.931100  1.0  -0.7313
  O  O200  1  0.481000  0.782000  0.887800  1.0  -0.7592
  O  O201  1  0.365500  0.027200  0.381500  1.0  -0.6522
  O  O202  1  0.326100  0.902600  0.373900  1.0  -0.7502
  O  O203  1  0.375800  0.115400  0.203300  1.0  -0.7281
  O  O204  1  0.340500  0.046800  0.090400  1.0  -0.799
  O  O205  1  0.247600  0.266200  0.127400  1.0  -0.7579
  O  O206  1  0.277000  0.150800  0.205800  1.0  -0.7148
  O  O207  1  0.059400  0.353700  0.931100  1.0  -0.7313
  O  O208  1  0.981000  0.282000  0.887800  1.0  -0.7592
  O  O209  1  0.134500  0.527200  0.118500  1.0  -0.6515
  O  O210  1  0.173900  0.402600  0.126100  1.0  -0.7516
  O  O211  1  0.124200  0.615400  0.296700  1.0  -0.7288
  O  O212  1  0.159500  0.546800  0.409600  1.0  -0.801
  O  O213  1  0.252400  0.766200  0.372600  1.0  -0.7586
  O  O214  1  0.223000  0.650800  0.294200  1.0  -0.7146
  O  O215  1  0.440600  0.853700  0.568900  1.0  -0.7306
  O  O216  1  0.519000  0.782000  0.612200  1.0  -0.7591
  O  O217  1  0.634500  0.027200  0.118500  1.0  -0.6515
  O  O218  1  0.673900  0.902600  0.126100  1.0  -0.7516
  O  O219  1  0.624200  0.115400  0.296700  1.0  -0.7288
  O  O220  1  0.659500  0.046800  0.409600  1.0  -0.801
  O  O221  1  0.752400  0.266200  0.372600  1.0  -0.7586
  O  O222  1  0.723000  0.150800  0.294200  1.0  -0.7146
  O  O223  1  0.940600  0.353700  0.568900  1.0  -0.7306
  O  O224  1  0.019000  0.282000  0.612200  1.0  -0.7591
  O  O225  1  0.134500  0.472800  0.618500  1.0  -0.6504
  O  O226  1  0.173900  0.597400  0.626100  1.0  -0.7519
  O  O227  1  0.124200  0.384600  0.796700  1.0  -0.7274
  O  O228  1  0.159500  0.453200  0.909600  1.0  -0.8004
  O  O229  1  0.252400  0.233800  0.872600  1.0  -0.7561
  O  O230  1  0.223000  0.349200  0.794200  1.0  -0.7142
  O  O231  1  0.440600  0.146300  0.068900  1.0  -0.7308
  O  O232  1  0.519000  0.218000  0.112200  1.0  -0.7592
  O  O233  1  0.634500  0.972800  0.618500  1.0  -0.6504
  O  O234  1  0.673900  0.097400  0.626100  1.0  -0.7519
  O  O235  1  0.624200  0.884600  0.796700  1.0  -0.7274
  O  O236  1  0.659500  0.953200  0.909600  1.0  -0.8004
  O  O237  1  0.752400  0.733800  0.872600  1.0  -0.7561
  O  O238  1  0.723000  0.849200  0.794200  1.0  -0.7142
  O  O239  1  0.940600  0.646300  0.068900  1.0  -0.7308
  O  O240  1  0.019000  0.718000  0.112200  1.0  -0.7592
  O  O241  1  0.865500  0.472800  0.881500  1.0  -0.6523
  O  O242  1  0.826100  0.597400  0.873900  1.0  -0.7499
  O  O243  1  0.875800  0.384600  0.703300  1.0  -0.7278
  O  O244  1  0.840500  0.453200  0.590400  1.0  -0.7986
  O  O245  1  0.747600  0.233800  0.627400  1.0  -0.7576
  O  O246  1  0.777000  0.349200  0.705800  1.0  -0.7137
  O  O247  1  0.559400  0.146300  0.431100  1.0  -0.7315
  O  O248  1  0.481000  0.218000  0.387800  1.0  -0.7592
  O  O249  1  0.365500  0.972800  0.881500  1.0  -0.6523
  O  O250  1  0.326100  0.097400  0.873900  1.0  -0.7499
  O  O251  1  0.375800  0.884600  0.703300  1.0  -0.7278
  O  O252  1  0.340500  0.953200  0.590400  1.0  -0.7986
  O  O253  1  0.247600  0.733800  0.627400  1.0  -0.7576
  O  O254  1  0.277000  0.849200  0.705800  1.0  -0.7137
  O  O255  1  0.059400  0.646300  0.431100  1.0  -0.7315
  O  O256  1  0.981000  0.718000  0.387800  1.0  -0.7592
