# generated using pymatgen
data_LaH3C7NO4
_symmetry_space_group_name_H-M   'P 1'
_cell_length_a   30.86300000
_cell_length_b   15.74250000
_cell_length_c   22.19200000
_cell_angle_alpha   90.00000000
_cell_angle_beta   133.17300000
_cell_angle_gamma   90.00000000
_symmetry_Int_Tables_number   1
_chemical_formula_structural   LaH3C7NO4
_chemical_formula_sum   'La16 H48 C112 N16 O64'
_cell_volume   7863.37915751
_cell_formula_units_Z   16
loop_
 _symmetry_equiv_pos_site_id
 _symmetry_equiv_pos_as_xyz
  1  'x, y, z'
loop_
 _atom_site_type_symbol
 _atom_site_label
 _atom_site_symmetry_multiplicity
 _atom_site_fract_x
 _atom_site_fract_y
 _atom_site_fract_z
 _atom_site_occupancy
 _atom_site_charge
  La  La1  1  0.890080  0.862840  0.328310  1.0  1.8844
  La  La2  1  0.830520  0.128950  0.485940  1.0  1.956
  La  La3  1  0.390080  0.362840  0.328310  1.0  1.8844
  La  La4  1  0.330520  0.628950  0.485940  1.0  1.956
  La  La5  1  0.109920  0.862840  0.171690  1.0  1.884
  La  La6  1  0.169480  0.128950  0.014060  1.0  1.9563
  La  La7  1  0.609920  0.362840  0.171690  1.0  1.884
  La  La8  1  0.669480  0.628950  0.014060  1.0  1.9563
  La  La9  1  0.109920  0.137160  0.671690  1.0  1.8837
  La  La10  1  0.169480  0.871050  0.514060  1.0  1.9572
  La  La11  1  0.609920  0.637160  0.671690  1.0  1.8837
  La  La12  1  0.669480  0.371050  0.514060  1.0  1.9572
  La  La13  1  0.890080  0.137160  0.828310  1.0  1.8844
  La  La14  1  0.830520  0.871050  0.985940  1.0  1.9564
  La  La15  1  0.390080  0.637160  0.828310  1.0  1.8844
  La  La16  1  0.330520  0.371050  0.985940  1.0  1.9564
  H  H17  1  0.778700  0.082800  0.068400  1.0  0.094
  H  H18  1  0.730700  0.168800  0.094300  1.0  0.1031
  H  H19  1  0.759000  0.154200  0.221500  1.0  0.1001
  H  H20  1  0.013400  0.637700  0.464500  1.0  0.1038
  H  H21  1  0.081000  0.533500  0.558300  1.0  0.0902
  H  H22  1  0.183800  0.561100  0.647100  1.0  0.1021
  H  H23  1  0.278700  0.582800  0.068400  1.0  0.094
  H  H24  1  0.230700  0.668800  0.094300  1.0  0.1034
  H  H25  1  0.259000  0.654200  0.221500  1.0  0.1001
  H  H26  1  0.513400  0.137700  0.464500  1.0  0.1038
  H  H27  1  0.581000  0.033500  0.558300  1.0  0.0902
  H  H28  1  0.683800  0.061100  0.647100  1.0  0.1021
  H  H29  1  0.221300  0.082800  0.431600  1.0  0.0938
  H  H30  1  0.269300  0.168800  0.405700  1.0  0.1009
  H  H31  1  0.241000  0.154200  0.278500  1.0  0.1003
  H  H32  1  0.986600  0.637700  0.035500  1.0  0.1032
  H  H33  1  0.919000  0.533500  0.941700  1.0  0.0891
  H  H34  1  0.816200  0.561100  0.852900  1.0  0.1018
  H  H35  1  0.721300  0.582800  0.431600  1.0  0.0938
  H  H36  1  0.769300  0.668800  0.405700  1.0  0.1009
  H  H37  1  0.741000  0.654200  0.278500  1.0  0.1003
  H  H38  1  0.486600  0.137700  0.035500  1.0  0.1032
  H  H39  1  0.419000  0.033500  0.941700  1.0  0.0896
  H  H40  1  0.316200  0.061100  0.852900  1.0  0.1018
  H  H41  1  0.221300  0.917200  0.931600  1.0  0.0941
  H  H42  1  0.269300  0.831200  0.905700  1.0  0.103
  H  H43  1  0.241000  0.845800  0.778500  1.0  0.0998
  H  H44  1  0.986600  0.362300  0.535500  1.0  0.1033
  H  H45  1  0.919000  0.466500  0.441700  1.0  0.0901
  H  H46  1  0.816200  0.438900  0.352900  1.0  0.1019
  H  H47  1  0.721300  0.417200  0.931600  1.0  0.0941
  H  H48  1  0.769300  0.331200  0.905700  1.0  0.1035
  H  H49  1  0.741000  0.345800  0.778500  1.0  0.0998
  H  H50  1  0.486600  0.862300  0.535500  1.0  0.1033
  H  H51  1  0.419000  0.966500  0.441700  1.0  0.0901
  H  H52  1  0.316200  0.938900  0.352900  1.0  0.1019
  H  H53  1  0.778700  0.917200  0.568400  1.0  0.094
  H  H54  1  0.730700  0.831200  0.594300  1.0  0.1015
  H  H55  1  0.759000  0.845800  0.721500  1.0  0.1002
  H  H56  1  0.013400  0.362300  0.964500  1.0  0.1037
  H  H57  1  0.081000  0.466500  0.058300  1.0  0.0889
  H  H58  1  0.183800  0.438900  0.147100  1.0  0.1016
  H  H59  1  0.278700  0.417200  0.568400  1.0  0.094
  H  H60  1  0.230700  0.331200  0.594300  1.0  0.1015
  H  H61  1  0.259000  0.345800  0.721500  1.0  0.1002
  H  H62  1  0.513400  0.862300  0.964500  1.0  0.1037
  H  H63  1  0.581000  0.966500  0.058300  1.0  0.0894
  H  H64  1  0.683800  0.938900  0.147100  1.0  0.1016
  C  C65  1  0.849800  0.947800  0.154800  1.0  0.7251
  C  C66  1  0.825200  0.013200  0.171900  1.0  0.122
  C  C67  1  0.786500  0.075700  0.116700  1.0  -0.1204
  C  C68  1  0.758800  0.128700  0.132600  1.0  -0.1392
  C  C69  1  0.775000  0.118800  0.207400  1.0  -0.1076
  C  C70  1  0.814800  0.056800  0.261100  1.0  0.0733
  C  C71  1  0.837200  0.042500  0.345700  1.0  0.6581
  C  C72  1  0.035000  0.788700  0.431000  1.0  0.6967
  C  C73  1  0.076200  0.718400  0.489200  1.0  0.1125
  C  C74  1  0.054000  0.645000  0.496900  1.0  -0.1352
  C  C75  1  0.094400  0.584100  0.554100  1.0  -0.1015
  C  C76  1  0.155600  0.599300  0.605900  1.0  -0.1121
  C  C77  1  0.172300  0.674000  0.592800  1.0  0.1115
  C  C78  1  0.236100  0.697200  0.645100  1.0  0.6623
  C  C79  1  0.349800  0.447800  0.154800  1.0  0.7251
  C  C80  1  0.325200  0.513200  0.171900  1.0  0.122
  C  C81  1  0.286500  0.575700  0.116700  1.0  -0.1204
  C  C82  1  0.258800  0.628700  0.132600  1.0  -0.1392
  C  C83  1  0.275000  0.618800  0.207400  1.0  -0.1076
  C  C84  1  0.314800  0.556800  0.261100  1.0  0.0733
  C  C85  1  0.337200  0.542500  0.345700  1.0  0.6581
  C  C86  1  0.535000  0.288700  0.431000  1.0  0.6967
  C  C87  1  0.576200  0.218400  0.489200  1.0  0.1125
  C  C88  1  0.554000  0.145000  0.496900  1.0  -0.1352
  C  C89  1  0.594400  0.084100  0.554100  1.0  -0.1015
  C  C90  1  0.655600  0.099300  0.605900  1.0  -0.1121
  C  C91  1  0.672300  0.174000  0.592800  1.0  0.1115
  C  C92  1  0.736100  0.197200  0.645100  1.0  0.6623
  C  C93  1  0.150200  0.947800  0.345200  1.0  0.7251
  C  C94  1  0.174800  0.013200  0.328100  1.0  0.1219
  C  C95  1  0.213500  0.075700  0.383300  1.0  -0.1197
  C  C96  1  0.241200  0.128700  0.367400  1.0  -0.1382
  C  C97  1  0.225000  0.118800  0.292600  1.0  -0.1061
  C  C98  1  0.185200  0.056800  0.238900  1.0  0.0742
  C  C99  1  0.162800  0.042500  0.154300  1.0  0.6579
  C  C100  1  0.965000  0.788700  0.069000  1.0  0.6958
  C  C101  1  0.923800  0.718400  0.010800  1.0  0.1146
  C  C102  1  0.946000  0.645000  0.003100  1.0  -0.1345
  C  C103  1  0.905600  0.584100  0.945900  1.0  -0.1019
  C  C104  1  0.844400  0.599300  0.894100  1.0  -0.1128
  C  C105  1  0.827700  0.674000  0.907200  1.0  0.1107
  C  C106  1  0.763900  0.697200  0.854900  1.0  0.6602
  C  C107  1  0.650200  0.447800  0.345200  1.0  0.7251
  C  C108  1  0.674800  0.513200  0.328100  1.0  0.1219
  C  C109  1  0.713500  0.575700  0.383300  1.0  -0.1197
  C  C110  1  0.741200  0.628700  0.367400  1.0  -0.1382
  C  C111  1  0.725000  0.618800  0.292600  1.0  -0.1061
  C  C112  1  0.685200  0.556800  0.238900  1.0  0.0742
  C  C113  1  0.662800  0.542500  0.154300  1.0  0.6579
  C  C114  1  0.465000  0.288700  0.069000  1.0  0.6958
  C  C115  1  0.423800  0.218400  0.010800  1.0  0.1146
  C  C116  1  0.446000  0.145000  0.003100  1.0  -0.1345
  C  C117  1  0.405600  0.084100  0.945900  1.0  -0.1019
  C  C118  1  0.344400  0.099300  0.894100  1.0  -0.1128
  C  C119  1  0.327700  0.174000  0.907200  1.0  0.1107
  C  C120  1  0.263900  0.197200  0.854900  1.0  0.6602
  C  C121  1  0.150200  0.052200  0.845200  1.0  0.7235
  C  C122  1  0.174800  0.986800  0.828100  1.0  0.1216
  C  C123  1  0.213500  0.924300  0.883300  1.0  -0.1195
  C  C124  1  0.241200  0.871300  0.867400  1.0  -0.1414
  C  C125  1  0.225000  0.881200  0.792600  1.0  -0.107
  C  C126  1  0.185200  0.943200  0.738900  1.0  0.0738
  C  C127  1  0.162800  0.957500  0.654300  1.0  0.6577
  C  C128  1  0.965000  0.211300  0.569000  1.0  0.6976
  C  C129  1  0.923800  0.281600  0.510800  1.0  0.1157
  C  C130  1  0.946000  0.355000  0.503100  1.0  -0.1345
  C  C131  1  0.905600  0.415900  0.445900  1.0  -0.1008
  C  C132  1  0.844400  0.400700  0.394100  1.0  -0.1135
  C  C133  1  0.827700  0.326000  0.407200  1.0  0.1107
  C  C134  1  0.763900  0.302800  0.354900  1.0  0.6605
  C  C135  1  0.650200  0.552200  0.845200  1.0  0.7235
  C  C136  1  0.674800  0.486800  0.828100  1.0  0.1216
  C  C137  1  0.713500  0.424300  0.883300  1.0  -0.1195
  C  C138  1  0.741200  0.371300  0.867400  1.0  -0.1414
  C  C139  1  0.725000  0.381200  0.792600  1.0  -0.107
  C  C140  1  0.685200  0.443200  0.738900  1.0  0.0738
  C  C141  1  0.662800  0.457500  0.654300  1.0  0.6577
  C  C142  1  0.465000  0.711300  0.569000  1.0  0.6976
  C  C143  1  0.423800  0.781600  0.510800  1.0  0.1157
  C  C144  1  0.446000  0.855000  0.503100  1.0  -0.1345
  C  C145  1  0.405600  0.915900  0.445900  1.0  -0.1008
  C  C146  1  0.344400  0.900700  0.394100  1.0  -0.1135
  C  C147  1  0.327700  0.826000  0.407200  1.0  0.1107
  C  C148  1  0.263900  0.802800  0.354900  1.0  0.6605
  C  C149  1  0.849800  0.052200  0.654800  1.0  0.7253
  C  C150  1  0.825200  0.986800  0.671900  1.0  0.1222
  C  C151  1  0.786500  0.924300  0.616700  1.0  -0.1193
  C  C152  1  0.758800  0.871300  0.632600  1.0  -0.1423
  C  C153  1  0.775000  0.881200  0.707400  1.0  -0.1076
  C  C154  1  0.814800  0.943200  0.761100  1.0  0.0732
  C  C155  1  0.837200  0.957500  0.845700  1.0  0.6568
  C  C156  1  0.035000  0.211300  0.931000  1.0  0.6963
  C  C157  1  0.076200  0.281600  0.989200  1.0  0.1121
  C  C158  1  0.054000  0.355000  0.996900  1.0  -0.1358
  C  C159  1  0.094400  0.415900  0.054100  1.0  -0.1002
  C  C160  1  0.155600  0.400700  0.105900  1.0  -0.1133
  C  C161  1  0.172300  0.326000  0.092800  1.0  0.1115
  C  C162  1  0.236100  0.302800  0.145100  1.0  0.663
  C  C163  1  0.349800  0.552200  0.654800  1.0  0.7253
  C  C164  1  0.325200  0.486800  0.671900  1.0  0.1222
  C  C165  1  0.286500  0.424300  0.616700  1.0  -0.1193
  C  C166  1  0.258800  0.371300  0.632600  1.0  -0.1423
  C  C167  1  0.275000  0.381200  0.707400  1.0  -0.1076
  C  C168  1  0.314800  0.443200  0.761100  1.0  0.0732
  C  C169  1  0.337200  0.457500  0.845700  1.0  0.6568
  C  C170  1  0.535000  0.711300  0.931000  1.0  0.6963
  C  C171  1  0.576200  0.781600  0.989200  1.0  0.1121
  C  C172  1  0.554000  0.855000  0.996900  1.0  -0.1358
  C  C173  1  0.594400  0.915900  0.054100  1.0  -0.1002
  C  C174  1  0.655600  0.900700  0.105900  1.0  -0.1133
  C  C175  1  0.672300  0.826000  0.092800  1.0  0.1115
  C  C176  1  0.736100  0.802800  0.145100  1.0  0.663
  N  N177  1  0.837900  0.004100  0.241900  1.0  -0.4997
  N  N178  1  0.133200  0.730800  0.535900  1.0  -0.4667
  N  N179  1  0.337900  0.504100  0.241900  1.0  -0.4997
  N  N180  1  0.633200  0.230800  0.535900  1.0  -0.4667
  N  N181  1  0.162100  0.004100  0.258100  1.0  -0.4986
  N  N182  1  0.866800  0.730800  0.964100  1.0  -0.4686
  N  N183  1  0.662100  0.504100  0.258100  1.0  -0.4986
  N  N184  1  0.366800  0.230800  0.964100  1.0  -0.4686
  N  N185  1  0.162100  0.995900  0.758100  1.0  -0.498
  N  N186  1  0.866800  0.269200  0.464100  1.0  -0.468
  N  N187  1  0.662100  0.495900  0.758100  1.0  -0.498
  N  N188  1  0.366800  0.769200  0.464100  1.0  -0.468
  N  N189  1  0.837900  0.995900  0.741900  1.0  -0.5007
  N  N190  1  0.133200  0.269200  0.035900  1.0  -0.4666
  N  N191  1  0.337900  0.495900  0.741900  1.0  -0.5007
  N  N192  1  0.633200  0.769200  0.035900  1.0  -0.4666
  O  O193  1  0.875700  0.885800  0.203300  1.0  -0.7242
  O  O194  1  0.840900  0.954900  0.091100  1.0  -0.7954
  O  O195  1  0.866300  0.973900  0.382800  1.0  -0.7318
  O  O196  1  0.825300  0.098400  0.372400  1.0  -0.7255
  O  O197  1  0.059600  0.852100  0.431600  1.0  -0.7323
  O  O198  1  0.980800  0.780800  0.389800  1.0  -0.7875
  O  O199  1  0.247100  0.764500  0.626700  1.0  -0.703
  O  O200  1  0.276100  0.650400  0.705800  1.0  -0.7131
  O  O201  1  0.375700  0.385800  0.203300  1.0  -0.7242
  O  O202  1  0.340900  0.454900  0.091100  1.0  -0.7954
  O  O203  1  0.366300  0.473900  0.382800  1.0  -0.7318
  O  O204  1  0.325300  0.598400  0.372400  1.0  -0.7255
  O  O205  1  0.559600  0.352100  0.431600  1.0  -0.7323
  O  O206  1  0.480800  0.280800  0.389800  1.0  -0.7875
  O  O207  1  0.747100  0.264500  0.626700  1.0  -0.703
  O  O208  1  0.776100  0.150400  0.705800  1.0  -0.7131
  O  O209  1  0.124300  0.885800  0.296700  1.0  -0.7229
  O  O210  1  0.159100  0.954900  0.408900  1.0  -0.7976
  O  O211  1  0.133700  0.973900  0.117200  1.0  -0.7273
  O  O212  1  0.174700  0.098400  0.127600  1.0  -0.725
  O  O213  1  0.940400  0.852100  0.068400  1.0  -0.7333
  O  O214  1  0.019200  0.780800  0.110200  1.0  -0.7857
  O  O215  1  0.752900  0.764500  0.873300  1.0  -0.7055
  O  O216  1  0.723900  0.650400  0.794200  1.0  -0.7129
  O  O217  1  0.624300  0.385800  0.296700  1.0  -0.7229
  O  O218  1  0.659100  0.454900  0.408900  1.0  -0.7976
  O  O219  1  0.633700  0.473900  0.117200  1.0  -0.7273
  O  O220  1  0.674700  0.598400  0.127600  1.0  -0.725
  O  O221  1  0.440400  0.352100  0.068400  1.0  -0.7333
  O  O222  1  0.519200  0.280800  0.110200  1.0  -0.7857
  O  O223  1  0.252900  0.264500  0.873300  1.0  -0.7055
  O  O224  1  0.223900  0.150400  0.794200  1.0  -0.7129
  O  O225  1  0.124300  0.114200  0.796700  1.0  -0.7222
  O  O226  1  0.159100  0.045100  0.908900  1.0  -0.7977
  O  O227  1  0.133700  0.026100  0.617200  1.0  -0.7282
  O  O228  1  0.174700  0.901600  0.627600  1.0  -0.7256
  O  O229  1  0.940400  0.147900  0.568400  1.0  -0.7329
  O  O230  1  0.019200  0.219200  0.610200  1.0  -0.7859
  O  O231  1  0.752900  0.235500  0.373300  1.0  -0.703
  O  O232  1  0.723900  0.349600  0.294200  1.0  -0.7124
  O  O233  1  0.624300  0.614200  0.796700  1.0  -0.7222
  O  O234  1  0.659100  0.545100  0.908900  1.0  -0.7977
  O  O235  1  0.633700  0.526100  0.617200  1.0  -0.7282
  O  O236  1  0.674700  0.401600  0.627600  1.0  -0.7256
  O  O237  1  0.440400  0.647900  0.568400  1.0  -0.7329
  O  O238  1  0.519200  0.719200  0.610200  1.0  -0.7859
  O  O239  1  0.252900  0.735500  0.373300  1.0  -0.703
  O  O240  1  0.223900  0.849600  0.294200  1.0  -0.7124
  O  O241  1  0.875700  0.114200  0.703300  1.0  -0.7229
  O  O242  1  0.840900  0.045100  0.591100  1.0  -0.7949
  O  O243  1  0.866300  0.026100  0.882800  1.0  -0.7302
  O  O244  1  0.825300  0.901600  0.872400  1.0  -0.7259
  O  O245  1  0.059600  0.147900  0.931600  1.0  -0.7323
  O  O246  1  0.980800  0.219200  0.889800  1.0  -0.7878
  O  O247  1  0.247100  0.235500  0.126700  1.0  -0.7031
  O  O248  1  0.276100  0.349600  0.205800  1.0  -0.7117
  O  O249  1  0.375700  0.614200  0.703300  1.0  -0.7229
  O  O250  1  0.340900  0.545100  0.591100  1.0  -0.7949
  O  O251  1  0.366300  0.526100  0.882800  1.0  -0.7302
  O  O252  1  0.325300  0.401600  0.872400  1.0  -0.7259
  O  O253  1  0.559600  0.647900  0.931600  1.0  -0.7323
  O  O254  1  0.480800  0.719200  0.889800  1.0  -0.7878
  O  O255  1  0.747100  0.735500  0.126700  1.0  -0.7031
  O  O256  1  0.776100  0.849600  0.205800  1.0  -0.7117
