# generated using pymatgen
data_CeH3C7NO4
_symmetry_space_group_name_H-M   'P 1'
_cell_length_a   30.72700000
_cell_length_b   15.76900000
_cell_length_c   22.11000000
_cell_angle_alpha   90.00000000
_cell_angle_beta   133.08000000
_cell_angle_gamma   90.00000000
_symmetry_Int_Tables_number   1
_chemical_formula_structural   CeH3C7NO4
_chemical_formula_sum   'Ce16 H48 C112 N16 O64'
_cell_volume   7824.81828044
_cell_formula_units_Z   16
loop_
 _symmetry_equiv_pos_site_id
 _symmetry_equiv_pos_as_xyz
  1  'x, y, z'
loop_
 _atom_site_type_symbol
 _atom_site_label
 _atom_site_symmetry_multiplicity
 _atom_site_fract_x
 _atom_site_fract_y
 _atom_site_fract_z
 _atom_site_occupancy
 _atom_site_charge
  Ce  Ce1  1  0.669450  0.371800  0.014420  1.0  1.9979
  Ce  Ce2  1  0.889970  0.136890  0.327090  1.0  1.9748
  Ce  Ce3  1  0.169450  0.871800  0.014420  1.0  1.9979
  Ce  Ce4  1  0.389970  0.636890  0.327090  1.0  1.9748
  Ce  Ce5  1  0.330550  0.371800  0.485580  1.0  1.9959
  Ce  Ce6  1  0.110030  0.136890  0.172910  1.0  1.9754
  Ce  Ce7  1  0.830550  0.871800  0.485580  1.0  1.9959
  Ce  Ce8  1  0.610030  0.636890  0.172910  1.0  1.9754
  Ce  Ce9  1  0.330550  0.628200  0.985580  1.0  1.9957
  Ce  Ce10  1  0.110030  0.863110  0.672910  1.0  1.9759
  Ce  Ce11  1  0.830550  0.128200  0.985580  1.0  1.9957
  Ce  Ce12  1  0.610030  0.363110  0.672910  1.0  1.9759
  Ce  Ce13  1  0.669450  0.628200  0.514420  1.0  1.9971
  Ce  Ce14  1  0.889970  0.863110  0.827090  1.0  1.9754
  Ce  Ce15  1  0.169450  0.128200  0.514420  1.0  1.9971
  Ce  Ce16  1  0.389970  0.363110  0.827090  1.0  1.9754
  H  H17  1  0.513300  0.139300  0.963100  1.0  0.0909
  H  H18  1  0.580800  0.034800  0.058500  1.0  0.091
  H  H19  1  0.684000  0.062100  0.145300  1.0  0.0847
  H  H20  1  0.743800  0.349500  0.280400  1.0  0.1126
  H  H21  1  0.767300  0.332800  0.403300  1.0  0.0812
  H  H22  1  0.723600  0.417000  0.433500  1.0  0.1101
  H  H23  1  0.013300  0.639300  0.963100  1.0  0.0909
  H  H24  1  0.080800  0.534800  0.058500  1.0  0.0915
  H  H25  1  0.184000  0.562100  0.145300  1.0  0.0847
  H  H26  1  0.243800  0.849500  0.280400  1.0  0.1126
  H  H27  1  0.267300  0.832800  0.403300  1.0  0.0812
  H  H28  1  0.223600  0.917000  0.433500  1.0  0.1101
  H  H29  1  0.486700  0.139300  0.536900  1.0  0.0899
  H  H30  1  0.419200  0.034800  0.441500  1.0  0.09
  H  H31  1  0.316000  0.062100  0.354700  1.0  0.0841
  H  H32  1  0.256200  0.349500  0.219600  1.0  0.1128
  H  H33  1  0.232700  0.332800  0.096700  1.0  0.0804
  H  H34  1  0.276400  0.417000  0.066500  1.0  0.1092
  H  H35  1  0.986700  0.639300  0.536900  1.0  0.0899
  H  H36  1  0.919200  0.534800  0.441500  1.0  0.09
  H  H37  1  0.816000  0.562100  0.354700  1.0  0.0841
  H  H38  1  0.756200  0.849500  0.219600  1.0  0.1128
  H  H39  1  0.732700  0.832800  0.096700  1.0  0.0808
  H  H40  1  0.776400  0.917000  0.066500  1.0  0.1092
  H  H41  1  0.486700  0.860700  0.036900  1.0  0.0899
  H  H42  1  0.419200  0.965200  0.941500  1.0  0.0902
  H  H43  1  0.316000  0.937900  0.854700  1.0  0.0843
  H  H44  1  0.256200  0.650500  0.719600  1.0  0.1127
  H  H45  1  0.232700  0.667200  0.596700  1.0  0.0815
  H  H46  1  0.276400  0.583000  0.566500  1.0  0.1094
  H  H47  1  0.986700  0.360700  0.036900  1.0  0.0899
  H  H48  1  0.919200  0.465200  0.941500  1.0  0.0913
  H  H49  1  0.816000  0.437900  0.854700  1.0  0.0843
  H  H50  1  0.756200  0.150500  0.719600  1.0  0.1127
  H  H51  1  0.732700  0.167200  0.596700  1.0  0.0815
  H  H52  1  0.776400  0.083000  0.566500  1.0  0.1094
  H  H53  1  0.513300  0.860700  0.463100  1.0  0.091
  H  H54  1  0.580800  0.965200  0.558500  1.0  0.0903
  H  H55  1  0.684000  0.937900  0.645300  1.0  0.0843
  H  H56  1  0.743800  0.650500  0.780400  1.0  0.113
  H  H57  1  0.767300  0.667200  0.903300  1.0  0.0804
  H  H58  1  0.723600  0.583000  0.933500  1.0  0.1099
  H  H59  1  0.013300  0.360700  0.463100  1.0  0.091
  H  H60  1  0.080800  0.465200  0.558500  1.0  0.0903
  H  H61  1  0.184000  0.437900  0.645300  1.0  0.0843
  H  H62  1  0.243800  0.150500  0.780400  1.0  0.113
  H  H63  1  0.267300  0.167200  0.903300  1.0  0.0808
  H  H64  1  0.223600  0.083000  0.933500  1.0  0.1099
  C  C65  1  0.535300  0.291900  0.930700  1.0  0.6932
  C  C66  1  0.575900  0.220100  0.988700  1.0  0.0854
  C  C67  1  0.554000  0.146700  0.996200  1.0  -0.1159
  C  C68  1  0.594100  0.085000  0.053800  1.0  -0.144
  C  C69  1  0.655900  0.101100  0.105100  1.0  -0.1049
  C  C70  1  0.673600  0.176200  0.094200  1.0  0.0369
  C  C71  1  0.737800  0.199700  0.147300  1.0  0.6956
  C  C72  1  0.662200  0.459800  0.153400  1.0  0.6501
  C  C73  1  0.684000  0.444000  0.238000  1.0  0.0425
  C  C74  1  0.725900  0.383000  0.292900  1.0  -0.1697
  C  C75  1  0.740000  0.374100  0.365700  1.0  -0.1189
  C  C76  1  0.714700  0.424600  0.384400  1.0  -0.1381
  C  C77  1  0.675500  0.487600  0.329300  1.0  0.0973
  C  C78  1  0.650100  0.553600  0.345400  1.0  0.7056
  C  C79  1  0.035300  0.791900  0.930700  1.0  0.6932
  C  C80  1  0.075900  0.720100  0.988700  1.0  0.0854
  C  C81  1  0.054000  0.646700  0.996200  1.0  -0.1159
  C  C82  1  0.094100  0.585000  0.053800  1.0  -0.144
  C  C83  1  0.155900  0.601100  0.105100  1.0  -0.1049
  C  C84  1  0.173600  0.676200  0.094200  1.0  0.0369
  C  C85  1  0.237800  0.699700  0.147300  1.0  0.6956
  C  C86  1  0.162200  0.959800  0.153400  1.0  0.6501
  C  C87  1  0.184000  0.944000  0.238000  1.0  0.0425
  C  C88  1  0.225900  0.883000  0.292900  1.0  -0.1697
  C  C89  1  0.240000  0.874100  0.365700  1.0  -0.1189
  C  C90  1  0.214700  0.924600  0.384400  1.0  -0.1381
  C  C91  1  0.175500  0.987600  0.329300  1.0  0.0973
  C  C92  1  0.150100  0.053600  0.345400  1.0  0.7056
  C  C93  1  0.464700  0.291900  0.569300  1.0  0.6919
  C  C94  1  0.424100  0.220100  0.511300  1.0  0.0862
  C  C95  1  0.446000  0.146700  0.503800  1.0  -0.1144
  C  C96  1  0.405900  0.085000  0.446200  1.0  -0.1437
  C  C97  1  0.344100  0.101100  0.394900  1.0  -0.1045
  C  C98  1  0.326400  0.176200  0.405800  1.0  0.0371
  C  C99  1  0.262200  0.199700  0.352700  1.0  0.6935
  C  C100  1  0.337800  0.459800  0.346600  1.0  0.6498
  C  C101  1  0.316000  0.444000  0.262000  1.0  0.042
  C  C102  1  0.274100  0.383000  0.207100  1.0  -0.1704
  C  C103  1  0.260000  0.374100  0.134300  1.0  -0.1194
  C  C104  1  0.285300  0.424600  0.115600  1.0  -0.1379
  C  C105  1  0.324500  0.487600  0.170700  1.0  0.0977
  C  C106  1  0.349900  0.553600  0.154600  1.0  0.707
  C  C107  1  0.964700  0.791900  0.569300  1.0  0.6919
  C  C108  1  0.924100  0.720100  0.511300  1.0  0.0862
  C  C109  1  0.946000  0.646700  0.503800  1.0  -0.1144
  C  C110  1  0.905900  0.585000  0.446200  1.0  -0.1437
  C  C111  1  0.844100  0.601100  0.394900  1.0  -0.1045
  C  C112  1  0.826400  0.676200  0.405800  1.0  0.0371
  C  C113  1  0.762200  0.699700  0.352700  1.0  0.6935
  C  C114  1  0.837800  0.959800  0.346600  1.0  0.6498
  C  C115  1  0.816000  0.944000  0.262000  1.0  0.042
  C  C116  1  0.774100  0.883000  0.207100  1.0  -0.1704
  C  C117  1  0.760000  0.874100  0.134300  1.0  -0.1194
  C  C118  1  0.785300  0.924600  0.115600  1.0  -0.1379
  C  C119  1  0.824500  0.987600  0.170700  1.0  0.0977
  C  C120  1  0.849900  0.053600  0.154600  1.0  0.707
  C  C121  1  0.464700  0.708100  0.069300  1.0  0.6932
  C  C122  1  0.424100  0.779900  0.011300  1.0  0.0869
  C  C123  1  0.446000  0.853300  0.003800  1.0  -0.1142
  C  C124  1  0.405900  0.915000  0.946200  1.0  -0.1421
  C  C125  1  0.344100  0.898900  0.894900  1.0  -0.1046
  C  C126  1  0.326400  0.823800  0.905800  1.0  0.037
  C  C127  1  0.262200  0.800300  0.852700  1.0  0.6938
  C  C128  1  0.337800  0.540200  0.846600  1.0  0.6509
  C  C129  1  0.316000  0.556000  0.762000  1.0  0.0417
  C  C130  1  0.274100  0.617000  0.707100  1.0  -0.171
  C  C131  1  0.260000  0.625900  0.634300  1.0  -0.1168
  C  C132  1  0.285300  0.575400  0.615600  1.0  -0.1384
  C  C133  1  0.324500  0.512400  0.670700  1.0  0.0971
  C  C134  1  0.349900  0.446400  0.654600  1.0  0.7069
  C  C135  1  0.964700  0.208100  0.069300  1.0  0.6932
  C  C136  1  0.924100  0.279900  0.011300  1.0  0.0869
  C  C137  1  0.946000  0.353300  0.003800  1.0  -0.1142
  C  C138  1  0.905900  0.415000  0.946200  1.0  -0.1421
  C  C139  1  0.844100  0.398900  0.894900  1.0  -0.1046
  C  C140  1  0.826400  0.323800  0.905800  1.0  0.037
  C  C141  1  0.762200  0.300300  0.852700  1.0  0.6938
  C  C142  1  0.837800  0.040200  0.846600  1.0  0.6509
  C  C143  1  0.816000  0.056000  0.762000  1.0  0.0417
  C  C144  1  0.774100  0.117000  0.707100  1.0  -0.171
  C  C145  1  0.760000  0.125900  0.634300  1.0  -0.1168
  C  C146  1  0.785300  0.075400  0.615600  1.0  -0.1384
  C  C147  1  0.824500  0.012400  0.670700  1.0  0.0971
  C  C148  1  0.849900  0.946400  0.654600  1.0  0.7069
  C  C149  1  0.535300  0.708100  0.430700  1.0  0.6933
  C  C150  1  0.575900  0.779900  0.488700  1.0  0.0848
  C  C151  1  0.554000  0.853300  0.496200  1.0  -0.1165
  C  C152  1  0.594100  0.915000  0.553800  1.0  -0.1422
  C  C153  1  0.655900  0.898900  0.605100  1.0  -0.1053
  C  C154  1  0.673600  0.823800  0.594200  1.0  0.0369
  C  C155  1  0.737800  0.800300  0.647300  1.0  0.6962
  C  C156  1  0.662200  0.540200  0.653400  1.0  0.6507
  C  C157  1  0.684000  0.556000  0.738000  1.0  0.0431
  C  C158  1  0.725900  0.617000  0.792900  1.0  -0.1693
  C  C159  1  0.740000  0.625900  0.865700  1.0  -0.1166
  C  C160  1  0.714700  0.575400  0.884400  1.0  -0.1384
  C  C161  1  0.675500  0.512400  0.829300  1.0  0.0975
  C  C162  1  0.650100  0.446400  0.845400  1.0  0.7068
  C  C163  1  0.035300  0.208100  0.430700  1.0  0.6933
  C  C164  1  0.075900  0.279900  0.488700  1.0  0.0848
  C  C165  1  0.054000  0.353300  0.496200  1.0  -0.1165
  C  C166  1  0.094100  0.415000  0.553800  1.0  -0.1422
  C  C167  1  0.155900  0.398900  0.605100  1.0  -0.1053
  C  C168  1  0.173600  0.323800  0.594200  1.0  0.0369
  C  C169  1  0.237800  0.300300  0.647300  1.0  0.6962
  C  C170  1  0.162200  0.040200  0.653400  1.0  0.6507
  C  C171  1  0.184000  0.056000  0.738000  1.0  0.0431
  C  C172  1  0.225900  0.117000  0.792900  1.0  -0.1693
  C  C173  1  0.240000  0.125900  0.865700  1.0  -0.1166
  C  C174  1  0.214700  0.075400  0.884400  1.0  -0.1384
  C  C175  1  0.175500  0.012400  0.829300  1.0  0.0975
  C  C176  1  0.150100  0.946400  0.845400  1.0  0.7068
  N  N177  1  0.632900  0.232600  0.035600  1.0  -0.4203
  N  N178  1  0.662500  0.497600  0.259200  1.0  -0.5017
  N  N179  1  0.132900  0.732600  0.035600  1.0  -0.4203
  N  N180  1  0.162500  0.997600  0.259200  1.0  -0.5017
  N  N181  1  0.367100  0.232600  0.464400  1.0  -0.4204
  N  N182  1  0.337500  0.497600  0.240800  1.0  -0.5054
  N  N183  1  0.867100  0.732600  0.464400  1.0  -0.4204
  N  N184  1  0.837500  0.997600  0.240800  1.0  -0.5054
  N  N185  1  0.367100  0.767400  0.964400  1.0  -0.4201
  N  N186  1  0.337500  0.502400  0.740800  1.0  -0.5044
  N  N187  1  0.867100  0.267400  0.964400  1.0  -0.4201
  N  N188  1  0.837500  0.002400  0.740800  1.0  -0.5044
  N  N189  1  0.632900  0.767400  0.535600  1.0  -0.4201
  N  N190  1  0.662500  0.502400  0.759200  1.0  -0.5023
  N  N191  1  0.132900  0.267400  0.535600  1.0  -0.4201
  N  N192  1  0.162500  0.002400  0.759200  1.0  -0.5023
  O  O193  1  0.559700  0.353600  0.931200  1.0  -0.6785
  O  O194  1  0.480800  0.282100  0.888300  1.0  -0.7875
  O  O195  1  0.747000  0.266400  0.127000  1.0  -0.6684
  O  O196  1  0.776500  0.150300  0.205100  1.0  -0.6883
  O  O197  1  0.633600  0.528600  0.117100  1.0  -0.7369
  O  O198  1  0.673700  0.403400  0.126800  1.0  -0.725
  O  O199  1  0.624200  0.615500  0.296000  1.0  -0.7304
  O  O200  1  0.659000  0.547100  0.409600  1.0  -0.82
  O  O201  1  0.059700  0.853600  0.931200  1.0  -0.6785
  O  O202  1  0.980800  0.782100  0.888300  1.0  -0.7875
  O  O203  1  0.247000  0.766400  0.127000  1.0  -0.6684
  O  O204  1  0.276500  0.650300  0.205100  1.0  -0.6883
  O  O205  1  0.133600  0.028600  0.117100  1.0  -0.7369
  O  O206  1  0.173700  0.903400  0.126800  1.0  -0.725
  O  O207  1  0.124200  0.115500  0.296000  1.0  -0.7304
  O  O208  1  0.159000  0.047100  0.409600  1.0  -0.82
  O  O209  1  0.440300  0.353600  0.568800  1.0  -0.6783
  O  O210  1  0.519200  0.282100  0.611700  1.0  -0.7871
  O  O211  1  0.253000  0.266400  0.373000  1.0  -0.6717
  O  O212  1  0.223500  0.150300  0.294900  1.0  -0.6879
  O  O213  1  0.366400  0.528600  0.382900  1.0  -0.7371
  O  O214  1  0.326300  0.403400  0.373200  1.0  -0.7244
  O  O215  1  0.375800  0.615500  0.204000  1.0  -0.7296
  O  O216  1  0.341000  0.547100  0.090400  1.0  -0.8165
  O  O217  1  0.940300  0.853600  0.568800  1.0  -0.6783
  O  O218  1  0.019200  0.782100  0.611700  1.0  -0.7871
  O  O219  1  0.753000  0.766400  0.373000  1.0  -0.6717
  O  O220  1  0.723500  0.650300  0.294900  1.0  -0.6879
  O  O221  1  0.866400  0.028600  0.382900  1.0  -0.7371
  O  O222  1  0.826300  0.903400  0.373200  1.0  -0.7244
  O  O223  1  0.875800  0.115500  0.204000  1.0  -0.7296
  O  O224  1  0.841000  0.047100  0.090400  1.0  -0.8165
  O  O225  1  0.440300  0.646400  0.068800  1.0  -0.6804
  O  O226  1  0.519200  0.717900  0.111700  1.0  -0.7883
  O  O227  1  0.253000  0.733600  0.873000  1.0  -0.6699
  O  O228  1  0.223500  0.849700  0.794900  1.0  -0.6878
  O  O229  1  0.366400  0.471400  0.882900  1.0  -0.7393
  O  O230  1  0.326300  0.596600  0.873200  1.0  -0.7241
  O  O231  1  0.375800  0.384500  0.704000  1.0  -0.7294
  O  O232  1  0.341000  0.452900  0.590400  1.0  -0.8163
  O  O233  1  0.940300  0.146400  0.068800  1.0  -0.6804
  O  O234  1  0.019200  0.217900  0.111700  1.0  -0.7883
  O  O235  1  0.753000  0.233600  0.873000  1.0  -0.6699
  O  O236  1  0.723500  0.349700  0.794900  1.0  -0.6878
  O  O237  1  0.866400  0.971400  0.882900  1.0  -0.7393
  O  O238  1  0.826300  0.096600  0.873200  1.0  -0.7241
  O  O239  1  0.875800  0.884500  0.704000  1.0  -0.7294
  O  O240  1  0.841000  0.952900  0.590400  1.0  -0.8163
  O  O241  1  0.559700  0.646400  0.431200  1.0  -0.68
  O  O242  1  0.480800  0.717900  0.388300  1.0  -0.7889
  O  O243  1  0.747000  0.733600  0.627000  1.0  -0.6698
  O  O244  1  0.776500  0.849700  0.705100  1.0  -0.6875
  O  O245  1  0.633600  0.471400  0.617100  1.0  -0.7361
  O  O246  1  0.673700  0.596600  0.626800  1.0  -0.7251
  O  O247  1  0.624200  0.384500  0.796000  1.0  -0.7297
  O  O248  1  0.659000  0.452900  0.909600  1.0  -0.8196
  O  O249  1  0.059700  0.146400  0.431200  1.0  -0.68
  O  O250  1  0.980800  0.217900  0.388300  1.0  -0.7889
  O  O251  1  0.247000  0.233600  0.627000  1.0  -0.6698
  O  O252  1  0.276500  0.349700  0.705100  1.0  -0.6875
  O  O253  1  0.133600  0.971400  0.617100  1.0  -0.7361
  O  O254  1  0.173700  0.096600  0.626800  1.0  -0.7251
  O  O255  1  0.124200  0.884500  0.796000  1.0  -0.7297
  O  O256  1  0.159000  0.952900  0.909600  1.0  -0.8196
