# generated using pymatgen
data_La4H14C28N4O17
_symmetry_space_group_name_H-M   'P 1'
_cell_length_a   30.84600000
_cell_length_b   15.77300000
_cell_length_c   22.18900000
_cell_angle_alpha   90.00000000
_cell_angle_beta   133.13400000
_cell_angle_gamma   90.00000000
_symmetry_Int_Tables_number   1
_chemical_formula_structural   La4H14C28N4O17
_chemical_formula_sum   'La16 H56 C112 N16 O68'
_cell_volume   7878.23570231
_cell_formula_units_Z   4
loop_
 _symmetry_equiv_pos_site_id
 _symmetry_equiv_pos_as_xyz
  1  'x, y, z'
loop_
 _atom_site_type_symbol
 _atom_site_label
 _atom_site_symmetry_multiplicity
 _atom_site_fract_x
 _atom_site_fract_y
 _atom_site_fract_z
 _atom_site_occupancy
 _atom_site_charge
  La  La1  1  0.627900  0.363640  0.892850  1.0  1.9754
  La  La2  1  0.686600  0.628390  0.734050  1.0  1.972
  La  La3  1  0.847390  0.129420  0.205440  1.0  1.991
  La  La4  1  0.908240  0.137480  0.549180  1.0  2.0807
  La  La5  1  0.127900  0.863640  0.892850  1.0  1.9754
  La  La6  1  0.186600  0.128390  0.734050  1.0  1.972
  La  La7  1  0.347390  0.629420  0.205440  1.0  1.991
  La  La8  1  0.408240  0.637480  0.549180  1.0  2.0807
  La  La9  1  0.627900  0.636360  0.392850  1.0  1.9764
  La  La10  1  0.686600  0.371610  0.234050  1.0  1.9725
  La  La11  1  0.847390  0.870580  0.705440  1.0  1.9916
  La  La12  1  0.908240  0.862520  0.049180  1.0  2.0808
  La  La13  1  0.127900  0.136360  0.392850  1.0  1.9764
  La  La14  1  0.186600  0.871610  0.234050  1.0  1.9725
  La  La15  1  0.347390  0.370580  0.705440  1.0  1.9916
  La  La16  1  0.408240  0.362520  0.049180  1.0  2.0808
  H  H17  1  0.981200  0.178400  0.720500  1.0  0.4328
  H  H18  1  0.961400  0.096700  0.705700  1.0  0.4229
  H  H19  1  0.754700  0.660000  0.996000  1.0  0.0923
  H  H20  1  0.793100  0.661200  0.130800  1.0  0.09
  H  H21  1  0.736600  0.589000  0.148500  1.0  0.0829
  H  H22  1  0.700300  0.938300  0.863600  1.0  0.0815
  H  H23  1  0.599300  0.963200  0.785500  1.0  0.0884
  H  H24  1  0.531700  0.864400  0.686100  1.0  0.0868
  H  H25  1  0.835400  0.441100  0.075200  1.0  0.103
  H  H26  1  0.935900  0.463900  0.164400  1.0  0.07
  H  H27  1  0.005300  0.364600  0.262200  1.0  0.0978
  H  H28  1  0.792400  0.920300  0.284600  1.0  0.091
  H  H29  1  0.759200  0.822300  0.325700  1.0  0.0844
  H  H30  1  0.773800  0.854300  0.442000  1.0  0.0906
  H  H31  1  0.481200  0.678400  0.720500  1.0  0.4345
  H  H32  1  0.461400  0.596700  0.705700  1.0  0.424
  H  H33  1  0.254700  0.160000  0.996000  1.0  0.0923
  H  H34  1  0.293100  0.161200  0.130800  1.0  0.09
  H  H35  1  0.236600  0.089000  0.148500  1.0  0.0829
  H  H36  1  0.200300  0.438300  0.863600  1.0  0.0815
  H  H37  1  0.099300  0.463200  0.785500  1.0  0.0884
  H  H38  1  0.031700  0.364400  0.686100  1.0  0.0868
  H  H39  1  0.335400  0.941100  0.075200  1.0  0.103
  H  H40  1  0.435900  0.963900  0.164400  1.0  0.07
  H  H41  1  0.505300  0.864600  0.262200  1.0  0.0978
  H  H42  1  0.292400  0.420300  0.284600  1.0  0.091
  H  H43  1  0.259200  0.322300  0.325700  1.0  0.0844
  H  H44  1  0.273800  0.354300  0.442000  1.0  0.0906
  H  H45  1  0.981200  0.821600  0.220500  1.0  0.4394
  H  H46  1  0.961400  0.903300  0.205700  1.0  0.4244
  H  H47  1  0.754700  0.340000  0.496000  1.0  0.0925
  H  H48  1  0.793100  0.338800  0.630800  1.0  0.0904
  H  H49  1  0.736600  0.411000  0.648500  1.0  0.0831
  H  H50  1  0.700300  0.061700  0.363600  1.0  0.082
  H  H51  1  0.599300  0.036800  0.285500  1.0  0.0877
  H  H52  1  0.531700  0.135600  0.186100  1.0  0.0865
  H  H53  1  0.835400  0.558900  0.575200  1.0  0.1029
  H  H54  1  0.935900  0.536100  0.664400  1.0  0.069
  H  H55  1  0.005300  0.635400  0.762200  1.0  0.0978
  H  H56  1  0.792400  0.079700  0.784600  1.0  0.091
  H  H57  1  0.759200  0.177700  0.825700  1.0  0.0833
  H  H58  1  0.773800  0.145700  0.942000  1.0  0.09
  H  H59  1  0.481200  0.321600  0.220500  1.0  0.4394
  H  H60  1  0.461400  0.403300  0.205700  1.0  0.4255
  H  H61  1  0.254700  0.840000  0.496000  1.0  0.0925
  H  H62  1  0.293100  0.838800  0.630800  1.0  0.0904
  H  H63  1  0.236600  0.911000  0.648500  1.0  0.0831
  H  H64  1  0.200300  0.561700  0.363600  1.0  0.082
  H  H65  1  0.099300  0.536800  0.285500  1.0  0.0887
  H  H66  1  0.031700  0.635600  0.186100  1.0  0.0867
  H  H67  1  0.335400  0.058900  0.575200  1.0  0.1029
  H  H68  1  0.435900  0.036100  0.664400  1.0  0.069
  H  H69  1  0.505300  0.135400  0.762200  1.0  0.0978
  H  H70  1  0.292400  0.579700  0.784600  1.0  0.091
  H  H71  1  0.259200  0.677700  0.825700  1.0  0.0833
  H  H72  1  0.273800  0.645700  0.942000  1.0  0.09
  C  C73  1  0.680600  0.543000  0.874900  1.0  0.6635
  C  C74  1  0.702400  0.555100  0.959900  1.0  0.1352
  C  C75  1  0.742100  0.621200  0.012900  1.0  -0.1353
  C  C76  1  0.761400  0.626600  0.089700  1.0  -0.1236
  C  C77  1  0.731500  0.578400  0.102800  1.0  -0.1192
  C  C78  1  0.693800  0.514000  0.048600  1.0  0.0516
  C  C79  1  0.667500  0.447400  0.066200  1.0  0.6875
  C  C80  1  0.753900  0.800500  0.866000  1.0  0.6603
  C  C81  1  0.689000  0.827400  0.810400  1.0  0.0737
  C  C82  1  0.671900  0.899600  0.823700  1.0  -0.1429
  C  C83  1  0.611900  0.914900  0.777200  1.0  -0.1256
  C  C84  1  0.572300  0.856200  0.719000  1.0  -0.1445
  C  C85  1  0.593400  0.782000  0.708800  1.0  0.0698
  C  C86  1  0.552200  0.712100  0.649000  1.0  0.6711
  C  C87  1  0.779500  0.304000  0.072600  1.0  0.6538
  C  C88  1  0.843400  0.325000  0.122000  1.0  0.0399
  C  C89  1  0.862200  0.400700  0.114600  1.0  -0.183
  C  C90  1  0.922500  0.413100  0.168100  1.0  -0.136
  C  C91  1  0.964700  0.354900  0.227400  1.0  -0.1497
  C  C92  1  0.942000  0.281400  0.230900  1.0  0.092
  C  C93  1  0.981400  0.211500  0.287300  1.0  0.6162
  C  C94  1  0.867900  0.052300  0.374300  1.0  0.639
  C  C95  1  0.842200  0.988100  0.390200  1.0  0.1039
  C  C96  1  0.803500  0.925400  0.335400  1.0  -0.11
  C  C97  1  0.781400  0.869300  0.358200  1.0  -0.1148
  C  C98  1  0.793100  0.885000  0.430500  1.0  -0.1093
  C  C99  1  0.832400  0.944700  0.482300  1.0  0.0575
  C  C100  1  0.854900  0.958200  0.565300  1.0  0.6629
  C  C101  1  0.180600  0.043000  0.874900  1.0  0.6635
  C  C102  1  0.202400  0.055100  0.959900  1.0  0.1352
  C  C103  1  0.242100  0.121200  0.012900  1.0  -0.1353
  C  C104  1  0.261400  0.126600  0.089700  1.0  -0.1236
  C  C105  1  0.231500  0.078400  0.102800  1.0  -0.1192
  C  C106  1  0.193800  0.014000  0.048600  1.0  0.0516
  C  C107  1  0.167500  0.947400  0.066200  1.0  0.6875
  C  C108  1  0.253900  0.300500  0.866000  1.0  0.6603
  C  C109  1  0.189000  0.327400  0.810400  1.0  0.0737
  C  C110  1  0.171900  0.399600  0.823700  1.0  -0.1429
  C  C111  1  0.111900  0.414900  0.777200  1.0  -0.1256
  C  C112  1  0.072300  0.356200  0.719000  1.0  -0.1445
  C  C113  1  0.093400  0.282000  0.708800  1.0  0.0698
  C  C114  1  0.052200  0.212100  0.649000  1.0  0.6711
  C  C115  1  0.279500  0.804000  0.072600  1.0  0.6538
  C  C116  1  0.343400  0.825000  0.122000  1.0  0.0399
  C  C117  1  0.362200  0.900700  0.114600  1.0  -0.183
  C  C118  1  0.422500  0.913100  0.168100  1.0  -0.136
  C  C119  1  0.464700  0.854900  0.227400  1.0  -0.1497
  C  C120  1  0.442000  0.781400  0.230900  1.0  0.092
  C  C121  1  0.481400  0.711500  0.287300  1.0  0.6162
  C  C122  1  0.367900  0.552300  0.374300  1.0  0.639
  C  C123  1  0.342200  0.488100  0.390200  1.0  0.1039
  C  C124  1  0.303500  0.425400  0.335400  1.0  -0.11
  C  C125  1  0.281400  0.369300  0.358200  1.0  -0.1148
  C  C126  1  0.293100  0.385000  0.430500  1.0  -0.1093
  C  C127  1  0.332400  0.444700  0.482300  1.0  0.0575
  C  C128  1  0.354900  0.458200  0.565300  1.0  0.6629
  C  C129  1  0.680600  0.457000  0.374900  1.0  0.6639
  C  C130  1  0.702400  0.444900  0.459900  1.0  0.1352
  C  C131  1  0.742100  0.378800  0.512900  1.0  -0.1354
  C  C132  1  0.761400  0.373400  0.589700  1.0  -0.124
  C  C133  1  0.731500  0.421600  0.602800  1.0  -0.1193
  C  C134  1  0.693800  0.486000  0.548600  1.0  0.051
  C  C135  1  0.667500  0.552600  0.566200  1.0  0.6861
  C  C136  1  0.753900  0.199500  0.366000  1.0  0.6599
  C  C137  1  0.689000  0.172600  0.310400  1.0  0.0737
  C  C138  1  0.671900  0.100400  0.323700  1.0  -0.1411
  C  C139  1  0.611900  0.085100  0.277200  1.0  -0.1273
  C  C140  1  0.572300  0.143800  0.219000  1.0  -0.1445
  C  C141  1  0.593400  0.218000  0.208800  1.0  0.0696
  C  C142  1  0.552200  0.287900  0.149000  1.0  0.6705
  C  C143  1  0.779500  0.696000  0.572600  1.0  0.6532
  C  C144  1  0.843400  0.675000  0.622000  1.0  0.04
  C  C145  1  0.862200  0.599300  0.614600  1.0  -0.1824
  C  C146  1  0.922500  0.586900  0.668100  1.0  -0.1361
  C  C147  1  0.964700  0.645100  0.727400  1.0  -0.1498
  C  C148  1  0.942000  0.718600  0.730900  1.0  0.0907
  C  C149  1  0.981400  0.788500  0.787300  1.0  0.6159
  C  C150  1  0.867900  0.947700  0.874300  1.0  0.6396
  C  C151  1  0.842200  0.011900  0.890200  1.0  0.1055
  C  C152  1  0.803500  0.074600  0.835400  1.0  -0.1081
  C  C153  1  0.781400  0.130700  0.858200  1.0  -0.1139
  C  C154  1  0.793100  0.115000  0.930500  1.0  -0.1109
  C  C155  1  0.832400  0.055300  0.982300  1.0  0.0572
  C  C156  1  0.854900  0.041800  0.065300  1.0  0.663
  C  C157  1  0.180600  0.957000  0.374900  1.0  0.6639
  C  C158  1  0.202400  0.944900  0.459900  1.0  0.1352
  C  C159  1  0.242100  0.878800  0.512900  1.0  -0.1354
  C  C160  1  0.261400  0.873400  0.589700  1.0  -0.124
  C  C161  1  0.231500  0.921600  0.602800  1.0  -0.1193
  C  C162  1  0.193800  0.986000  0.548600  1.0  0.051
  C  C163  1  0.167500  0.052600  0.566200  1.0  0.6861
  C  C164  1  0.253900  0.699500  0.366000  1.0  0.6599
  C  C165  1  0.189000  0.672600  0.310400  1.0  0.0737
  C  C166  1  0.171900  0.600400  0.323700  1.0  -0.1411
  C  C167  1  0.111900  0.585100  0.277200  1.0  -0.1273
  C  C168  1  0.072300  0.643800  0.219000  1.0  -0.1445
  C  C169  1  0.093400  0.718000  0.208800  1.0  0.0696
  C  C170  1  0.052200  0.787900  0.149000  1.0  0.6705
  C  C171  1  0.279500  0.196000  0.572600  1.0  0.6532
  C  C172  1  0.343400  0.175000  0.622000  1.0  0.04
  C  C173  1  0.362200  0.099300  0.614600  1.0  -0.1824
  C  C174  1  0.422500  0.086900  0.668100  1.0  -0.1361
  C  C175  1  0.464700  0.145100  0.727400  1.0  -0.1498
  C  C176  1  0.442000  0.218600  0.730900  1.0  0.0907
  C  C177  1  0.481400  0.288500  0.787300  1.0  0.6159
  C  C178  1  0.367900  0.447700  0.874300  1.0  0.6396
  C  C179  1  0.342200  0.511900  0.890200  1.0  0.103
  C  C180  1  0.303500  0.574600  0.835400  1.0  -0.1104
  C  C181  1  0.281400  0.630700  0.858200  1.0  -0.1139
  C  C182  1  0.293100  0.615000  0.930500  1.0  -0.1109
  C  C183  1  0.332400  0.555300  0.982300  1.0  0.0572
  C  C184  1  0.354900  0.541800  0.065300  1.0  0.663
  N  N185  1  0.680100  0.505000  0.976900  1.0  -0.4071
  N  N186  1  0.650400  0.768600  0.756100  1.0  -0.5168
  N  N187  1  0.883100  0.269100  0.182700  1.0  -0.4488
  N  N188  1  0.857800  0.997000  0.463200  1.0  -0.529
  N  N189  1  0.180100  0.005000  0.976900  1.0  -0.4071
  N  N190  1  0.150400  0.268600  0.756100  1.0  -0.5168
  N  N191  1  0.383100  0.769100  0.182700  1.0  -0.4488
  N  N192  1  0.357800  0.497000  0.463200  1.0  -0.529
  N  N193  1  0.680100  0.495000  0.476900  1.0  -0.4072
  N  N194  1  0.650400  0.231400  0.256100  1.0  -0.5161
  N  N195  1  0.883100  0.730900  0.682700  1.0  -0.4509
  N  N196  1  0.857800  0.003000  0.963200  1.0  -0.5282
  N  N197  1  0.180100  0.995000  0.476900  1.0  -0.4072
  N  N198  1  0.150400  0.731400  0.256100  1.0  -0.5161
  N  N199  1  0.383100  0.230900  0.682700  1.0  -0.4509
  N  N200  1  0.357800  0.503000  0.963200  1.0  -0.5282
  O  O201  1  0.650500  0.476000  0.837800  1.0  -0.7541
  O  O202  1  0.689300  0.596200  0.844600  1.0  -0.7459
  O  O203  1  0.644000  0.387500  0.020500  1.0  -0.6413
  O  O204  1  0.676100  0.456200  0.127800  1.0  -0.7484
  O  O205  1  0.764400  0.734300  0.847700  1.0  -0.681
  O  O206  1  0.791500  0.848900  0.923700  1.0  -0.7095
  O  O207  1  0.577200  0.648500  0.651400  1.0  -0.722
  O  O208  1  0.497700  0.718500  0.610500  1.0  -0.7883
  O  O209  1  0.770200  0.234600  0.092700  1.0  -0.7652
  O  O210  1  0.740100  0.349600  0.013000  1.0  -0.6839
  O  O211  1  0.957400  0.145300  0.288200  1.0  -0.7126
  O  O212  1  0.035500  0.219400  0.331700  1.0  -0.6955
  O  O213  1  0.896700  0.115000  0.427700  1.0  -0.6814
  O  O214  1  0.858300  0.045900  0.309200  1.0  -0.772
  O  O215  1  0.883800  0.025700  0.602500  1.0  -0.7093
  O  O216  1  0.840800  0.901200  0.590000  1.0  -0.7133
  O  O217  1  0.985200  0.129100  0.709400  1.0  -0.7895
  O  O218  1  0.150500  0.976000  0.837800  1.0  -0.7541
  O  O219  1  0.189300  0.096200  0.844600  1.0  -0.7459
  O  O220  1  0.144000  0.887500  0.020500  1.0  -0.6413
  O  O221  1  0.176100  0.956200  0.127800  1.0  -0.7484
  O  O222  1  0.264400  0.234300  0.847700  1.0  -0.681
  O  O223  1  0.291500  0.348900  0.923700  1.0  -0.7095
  O  O224  1  0.077200  0.148500  0.651400  1.0  -0.722
  O  O225  1  0.997700  0.218500  0.610500  1.0  -0.7883
  O  O226  1  0.270200  0.734600  0.092700  1.0  -0.7652
  O  O227  1  0.240100  0.849600  0.013000  1.0  -0.6839
  O  O228  1  0.457400  0.645300  0.288200  1.0  -0.7126
  O  O229  1  0.535500  0.719400  0.331700  1.0  -0.6955
  O  O230  1  0.396700  0.615000  0.427700  1.0  -0.6814
  O  O231  1  0.358300  0.545900  0.309200  1.0  -0.772
  O  O232  1  0.383800  0.525700  0.602500  1.0  -0.7093
  O  O233  1  0.340800  0.401200  0.590000  1.0  -0.7133
  O  O234  1  0.485200  0.629100  0.709400  1.0  -0.7895
  O  O235  1  0.650500  0.524000  0.337800  1.0  -0.7569
  O  O236  1  0.689300  0.403800  0.344600  1.0  -0.7462
  O  O237  1  0.644000  0.612500  0.520500  1.0  -0.6424
  O  O238  1  0.676100  0.543800  0.627800  1.0  -0.7479
  O  O239  1  0.764400  0.265700  0.347700  1.0  -0.6802
  O  O240  1  0.791500  0.151100  0.423700  1.0  -0.7103
  O  O241  1  0.577200  0.351500  0.151400  1.0  -0.7226
  O  O242  1  0.497700  0.281500  0.110500  1.0  -0.7883
  O  O243  1  0.770200  0.765400  0.592700  1.0  -0.7689
  O  O244  1  0.740100  0.650400  0.513000  1.0  -0.6849
  O  O245  1  0.957400  0.854700  0.788200  1.0  -0.7138
  O  O246  1  0.035500  0.780600  0.831700  1.0  -0.6956
  O  O247  1  0.896700  0.885000  0.927700  1.0  -0.6813
  O  O248  1  0.858300  0.954100  0.809200  1.0  -0.7721
  O  O249  1  0.883800  0.974300  0.102500  1.0  -0.7092
  O  O250  1  0.840800  0.098800  0.090000  1.0  -0.7138
  O  O251  1  0.985200  0.870900  0.209400  1.0  -0.7893
  O  O252  1  0.150500  0.024000  0.337800  1.0  -0.7569
  O  O253  1  0.189300  0.903800  0.344600  1.0  -0.7462
  O  O254  1  0.144000  0.112500  0.520500  1.0  -0.6424
  O  O255  1  0.176100  0.043800  0.627800  1.0  -0.7479
  O  O256  1  0.264400  0.765700  0.347700  1.0  -0.6802
  O  O257  1  0.291500  0.651100  0.423700  1.0  -0.7103
  O  O258  1  0.077200  0.851500  0.151400  1.0  -0.7226
  O  O259  1  0.997700  0.781500  0.110500  1.0  -0.7883
  O  O260  1  0.270200  0.265400  0.592700  1.0  -0.7689
  O  O261  1  0.240100  0.150400  0.513000  1.0  -0.6849
  O  O262  1  0.457400  0.354700  0.788200  1.0  -0.7138
  O  O263  1  0.535500  0.280600  0.831700  1.0  -0.6956
  O  O264  1  0.396700  0.385000  0.927700  1.0  -0.6813
  O  O265  1  0.358300  0.454100  0.809200  1.0  -0.7721
  O  O266  1  0.383800  0.474300  0.102500  1.0  -0.7092
  O  O267  1  0.340800  0.598800  0.090000  1.0  -0.7138
  O  O268  1  0.485200  0.370900  0.209400  1.0  -0.7893
