# generated using pymatgen
data_NdH3C7NO4
_symmetry_space_group_name_H-M   'P 1'
_cell_length_a   30.57300000
_cell_length_b   15.73300000
_cell_length_c   22.01300000
_cell_angle_alpha   90.00000000
_cell_angle_beta   132.96500000
_cell_angle_gamma   90.00000000
_symmetry_Int_Tables_number   1
_chemical_formula_structural   NdH3C7NO4
_chemical_formula_sum   'Nd16 H48 C112 N16 O64'
_cell_volume   7748.24842985
_cell_formula_units_Z   16
loop_
 _symmetry_equiv_pos_site_id
 _symmetry_equiv_pos_as_xyz
  1  'x, y, z'
loop_
 _atom_site_type_symbol
 _atom_site_label
 _atom_site_symmetry_multiplicity
 _atom_site_fract_x
 _atom_site_fract_y
 _atom_site_fract_z
 _atom_site_occupancy
 _atom_site_charge
  Nd  Nd1  1  0.669180  0.127820  0.514680  1.0  2.042
  Nd  Nd2  1  0.889960  0.363980  0.825630  1.0  2.0249
  Nd  Nd3  1  0.169180  0.627820  0.514680  1.0  2.042
  Nd  Nd4  1  0.389960  0.863980  0.825630  1.0  2.0249
  Nd  Nd5  1  0.330820  0.127820  0.985320  1.0  2.042
  Nd  Nd6  1  0.110040  0.363980  0.674370  1.0  2.0255
  Nd  Nd7  1  0.830820  0.627820  0.985320  1.0  2.042
  Nd  Nd8  1  0.610040  0.863980  0.674370  1.0  2.0255
  Nd  Nd9  1  0.330820  0.872180  0.485320  1.0  2.0425
  Nd  Nd10  1  0.110040  0.636020  0.174370  1.0  2.0269
  Nd  Nd11  1  0.830820  0.372180  0.485320  1.0  2.0425
  Nd  Nd12  1  0.610040  0.136020  0.174370  1.0  2.0269
  Nd  Nd13  1  0.669180  0.872180  0.014680  1.0  2.0425
  Nd  Nd14  1  0.889960  0.636020  0.325630  1.0  2.026
  Nd  Nd15  1  0.169180  0.372180  0.014680  1.0  2.0425
  Nd  Nd16  1  0.389960  0.136020  0.325630  1.0  2.026
  H  H17  1  0.682700  0.437500  0.644300  1.0  0.0938
  H  H18  1  0.580600  0.462400  0.558500  1.0  0.0855
  H  H19  1  0.512300  0.359500  0.459900  1.0  0.0961
  H  H20  1  0.721500  0.916100  0.431800  1.0  0.0938
  H  H21  1  0.767600  0.831400  0.403600  1.0  0.0941
  H  H22  1  0.743200  0.849900  0.278900  1.0  0.1056
  H  H23  1  0.182700  0.937500  0.644300  1.0  0.0938
  H  H24  1  0.080600  0.962400  0.558500  1.0  0.0855
  H  H25  1  0.012300  0.859500  0.459900  1.0  0.0961
  H  H26  1  0.221500  0.416100  0.431800  1.0  0.0938
  H  H27  1  0.267600  0.331400  0.403600  1.0  0.0941
  H  H28  1  0.243200  0.349900  0.278900  1.0  0.1056
  H  H29  1  0.317300  0.437500  0.855700  1.0  0.0939
  H  H30  1  0.419400  0.462400  0.941500  1.0  0.0867
  H  H31  1  0.487700  0.359500  0.040100  1.0  0.0951
  H  H32  1  0.278500  0.916100  0.068200  1.0  0.0936
  H  H33  1  0.232400  0.831400  0.096400  1.0  0.093
  H  H34  1  0.256800  0.849900  0.221100  1.0  0.1055
  H  H35  1  0.817300  0.937500  0.855700  1.0  0.0939
  H  H36  1  0.919400  0.962400  0.941500  1.0  0.0874
  H  H37  1  0.987700  0.859500  0.040100  1.0  0.0951
  H  H38  1  0.778500  0.416100  0.068200  1.0  0.0936
  H  H39  1  0.732400  0.331400  0.096400  1.0  0.0919
  H  H40  1  0.756800  0.349900  0.221100  1.0  0.1055
  H  H41  1  0.317300  0.562500  0.355700  1.0  0.0937
  H  H42  1  0.419400  0.537600  0.441500  1.0  0.0859
  H  H43  1  0.487700  0.640500  0.540100  1.0  0.0951
  H  H44  1  0.278500  0.083900  0.568200  1.0  0.0939
  H  H45  1  0.232400  0.168600  0.596400  1.0  0.0938
  H  H46  1  0.256800  0.150100  0.721100  1.0  0.1053
  H  H47  1  0.817300  0.062500  0.355700  1.0  0.0937
  H  H48  1  0.919400  0.037600  0.441500  1.0  0.0859
  H  H49  1  0.987700  0.140500  0.540100  1.0  0.0951
  H  H50  1  0.778500  0.583900  0.568200  1.0  0.0939
  H  H51  1  0.732400  0.668600  0.596400  1.0  0.0938
  H  H52  1  0.756800  0.650100  0.721100  1.0  0.1053
  H  H53  1  0.682700  0.562500  0.144300  1.0  0.0941
  H  H54  1  0.580600  0.537600  0.058500  1.0  0.0867
  H  H55  1  0.512300  0.640500  0.959900  1.0  0.096
  H  H56  1  0.721500  0.083900  0.931800  1.0  0.0938
  H  H57  1  0.767600  0.168600  0.903600  1.0  0.0933
  H  H58  1  0.743200  0.150100  0.778900  1.0  0.1062
  H  H59  1  0.182700  0.062500  0.144300  1.0  0.0941
  H  H60  1  0.080600  0.037600  0.058500  1.0  0.0874
  H  H61  1  0.012300  0.140500  0.959900  1.0  0.096
  H  H62  1  0.221500  0.583900  0.931800  1.0  0.0938
  H  H63  1  0.267600  0.668600  0.903600  1.0  0.0921
  H  H64  1  0.243200  0.650100  0.778900  1.0  0.1062
  C  C65  1  0.738600  0.298900  0.647600  1.0  0.6791
  C  C66  1  0.673400  0.322700  0.593800  1.0  0.0068
  C  C67  1  0.654900  0.398000  0.604200  1.0  -0.131
  C  C68  1  0.594100  0.412500  0.553300  1.0  -0.1106
  C  C69  1  0.553300  0.351300  0.494100  1.0  -0.1123
  C  C70  1  0.575500  0.278000  0.487700  1.0  0.1069
  C  C71  1  0.535100  0.206800  0.429600  1.0  0.698
  C  C72  1  0.650500  0.053500  0.347200  1.0  0.6761
  C  C73  1  0.674500  0.987800  0.328500  1.0  0.1145
  C  C74  1  0.713400  0.924100  0.383100  1.0  -0.1279
  C  C75  1  0.740200  0.872700  0.365900  1.0  -0.1077
  C  C76  1  0.725700  0.883300  0.292300  1.0  -0.1379
  C  C77  1  0.684100  0.945500  0.238100  1.0  0.0932
  C  C78  1  0.661500  0.960800  0.153300  1.0  0.6561
  C  C79  1  0.238600  0.798900  0.647600  1.0  0.6791
  C  C80  1  0.173400  0.822700  0.593800  1.0  0.0068
  C  C81  1  0.154900  0.898000  0.604200  1.0  -0.131
  C  C82  1  0.094100  0.912500  0.553300  1.0  -0.1106
  C  C83  1  0.053300  0.851300  0.494100  1.0  -0.1123
  C  C84  1  0.075500  0.778000  0.487700  1.0  0.1069
  C  C85  1  0.035100  0.706800  0.429600  1.0  0.698
  C  C86  1  0.150500  0.553500  0.347200  1.0  0.6761
  C  C87  1  0.174500  0.487800  0.328500  1.0  0.1145
  C  C88  1  0.213400  0.424100  0.383100  1.0  -0.1279
  C  C89  1  0.240200  0.372700  0.365900  1.0  -0.1077
  C  C90  1  0.225700  0.383300  0.292300  1.0  -0.1379
  C  C91  1  0.184100  0.445500  0.238100  1.0  0.0932
  C  C92  1  0.161500  0.460800  0.153300  1.0  0.6561
  C  C93  1  0.261400  0.298900  0.852400  1.0  0.6775
  C  C94  1  0.326600  0.322700  0.906200  1.0  0.0073
  C  C95  1  0.345100  0.398000  0.895800  1.0  -0.1316
  C  C96  1  0.405900  0.412500  0.946700  1.0  -0.1106
  C  C97  1  0.446700  0.351300  0.005900  1.0  -0.1092
  C  C98  1  0.424500  0.278000  0.012300  1.0  0.1078
  C  C99  1  0.464900  0.206800  0.070400  1.0  0.698
  C  C100  1  0.349500  0.053500  0.152800  1.0  0.6763
  C  C101  1  0.325500  0.987800  0.171500  1.0  0.1152
  C  C102  1  0.286600  0.924100  0.116900  1.0  -0.1274
  C  C103  1  0.259800  0.872700  0.134100  1.0  -0.109
  C  C104  1  0.274300  0.883300  0.207700  1.0  -0.1387
  C  C105  1  0.315900  0.945500  0.261900  1.0  0.0925
  C  C106  1  0.338500  0.960800  0.346700  1.0  0.654
  C  C107  1  0.761400  0.798900  0.852400  1.0  0.6775
  C  C108  1  0.826600  0.822700  0.906200  1.0  0.0073
  C  C109  1  0.845100  0.898000  0.895800  1.0  -0.1316
  C  C110  1  0.905900  0.912500  0.946700  1.0  -0.1106
  C  C111  1  0.946700  0.851300  0.005900  1.0  -0.1092
  C  C112  1  0.924500  0.778000  0.012300  1.0  0.1078
  C  C113  1  0.964900  0.706800  0.070400  1.0  0.698
  C  C114  1  0.849500  0.553500  0.152800  1.0  0.6763
  C  C115  1  0.825500  0.487800  0.171500  1.0  0.1152
  C  C116  1  0.786600  0.424100  0.116900  1.0  -0.1274
  C  C117  1  0.759800  0.372700  0.134100  1.0  -0.109
  C  C118  1  0.774300  0.383300  0.207700  1.0  -0.1387
  C  C119  1  0.815900  0.445500  0.261900  1.0  0.0925
  C  C120  1  0.838500  0.460800  0.346700  1.0  0.654
  C  C121  1  0.261400  0.701100  0.352400  1.0  0.6773
  C  C122  1  0.326600  0.677300  0.406200  1.0  0.0072
  C  C123  1  0.345100  0.602000  0.395800  1.0  -0.1309
  C  C124  1  0.405900  0.587500  0.446700  1.0  -0.1106
  C  C125  1  0.446700  0.648700  0.505900  1.0  -0.1092
  C  C126  1  0.424500  0.722000  0.512300  1.0  0.1069
  C  C127  1  0.464900  0.793200  0.570400  1.0  0.6963
  C  C128  1  0.349500  0.946500  0.652800  1.0  0.6759
  C  C129  1  0.325500  0.012200  0.671500  1.0  0.1147
  C  C130  1  0.286600  0.075900  0.616900  1.0  -0.1278
  C  C131  1  0.259800  0.127300  0.634100  1.0  -0.1074
  C  C132  1  0.274300  0.116700  0.707700  1.0  -0.1392
  C  C133  1  0.315900  0.054500  0.761900  1.0  0.0921
  C  C134  1  0.338500  0.039200  0.846700  1.0  0.6549
  C  C135  1  0.761400  0.201100  0.352400  1.0  0.6773
  C  C136  1  0.826600  0.177300  0.406200  1.0  0.0072
  C  C137  1  0.845100  0.102000  0.395800  1.0  -0.1309
  C  C138  1  0.905900  0.087500  0.446700  1.0  -0.1106
  C  C139  1  0.946700  0.148700  0.505900  1.0  -0.1092
  C  C140  1  0.924500  0.222000  0.512300  1.0  0.1069
  C  C141  1  0.964900  0.293200  0.570400  1.0  0.6963
  C  C142  1  0.849500  0.446500  0.652800  1.0  0.6759
  C  C143  1  0.825500  0.512200  0.671500  1.0  0.1147
  C  C144  1  0.786600  0.575900  0.616900  1.0  -0.1278
  C  C145  1  0.759800  0.627300  0.634100  1.0  -0.1074
  C  C146  1  0.774300  0.616700  0.707700  1.0  -0.1392
  C  C147  1  0.815900  0.554500  0.761900  1.0  0.0921
  C  C148  1  0.838500  0.539200  0.846700  1.0  0.6549
  C  C149  1  0.738600  0.701100  0.147600  1.0  0.6784
  C  C150  1  0.673400  0.677300  0.093800  1.0  0.0067
  C  C151  1  0.654900  0.602000  0.104200  1.0  -0.1299
  C  C152  1  0.594100  0.587500  0.053300  1.0  -0.1103
  C  C153  1  0.553300  0.648700  0.994100  1.0  -0.1122
  C  C154  1  0.575500  0.722000  0.987700  1.0  0.1074
  C  C155  1  0.535100  0.793200  0.929600  1.0  0.6985
  C  C156  1  0.650500  0.946500  0.847200  1.0  0.6772
  C  C157  1  0.674500  0.012200  0.828500  1.0  0.1151
  C  C158  1  0.713400  0.075900  0.883100  1.0  -0.1275
  C  C159  1  0.740200  0.127300  0.865900  1.0  -0.1063
  C  C160  1  0.725700  0.116700  0.792300  1.0  -0.1379
  C  C161  1  0.684100  0.054500  0.738100  1.0  0.0932
  C  C162  1  0.661500  0.039200  0.653300  1.0  0.6565
  C  C163  1  0.238600  0.201100  0.147600  1.0  0.6784
  C  C164  1  0.173400  0.177300  0.093800  1.0  0.0067
  C  C165  1  0.154900  0.102000  0.104200  1.0  -0.1299
  C  C166  1  0.094100  0.087500  0.053300  1.0  -0.1103
  C  C167  1  0.053300  0.148700  0.994100  1.0  -0.1122
  C  C168  1  0.075500  0.222000  0.987700  1.0  0.1074
  C  C169  1  0.035100  0.293200  0.929600  1.0  0.6985
  C  C170  1  0.150500  0.446500  0.847200  1.0  0.6772
  C  C171  1  0.174500  0.512200  0.828500  1.0  0.1151
  C  C172  1  0.213400  0.575900  0.883100  1.0  -0.1275
  C  C173  1  0.240200  0.627300  0.865900  1.0  -0.1063
  C  C174  1  0.225700  0.616700  0.792300  1.0  -0.1379
  C  C175  1  0.184100  0.554500  0.738100  1.0  0.0932
  C  C176  1  0.161500  0.539200  0.653300  1.0  0.6565
  N  N177  1  0.633500  0.265300  0.535200  1.0  -0.5161
  N  N178  1  0.661900  0.998200  0.258400  1.0  -0.4872
  N  N179  1  0.133500  0.765300  0.535200  1.0  -0.5161
  N  N180  1  0.161900  0.498200  0.258400  1.0  -0.4872
  N  N181  1  0.366500  0.265300  0.964800  1.0  -0.5175
  N  N182  1  0.338100  0.998200  0.241600  1.0  -0.4915
  N  N183  1  0.866500  0.765300  0.964800  1.0  -0.5175
  N  N184  1  0.838100  0.498200  0.241600  1.0  -0.4915
  N  N185  1  0.366500  0.734700  0.464800  1.0  -0.5173
  N  N186  1  0.338100  0.001800  0.741600  1.0  -0.4912
  N  N187  1  0.866500  0.234700  0.464800  1.0  -0.5173
  N  N188  1  0.838100  0.501800  0.741600  1.0  -0.4912
  N  N189  1  0.633500  0.734700  0.035200  1.0  -0.5156
  N  N190  1  0.661900  0.001800  0.758400  1.0  -0.488
  N  N191  1  0.133500  0.234700  0.035200  1.0  -0.5156
  N  N192  1  0.161900  0.501800  0.758400  1.0  -0.488
  O  O193  1  0.747700  0.230000  0.628300  1.0  -0.7389
  O  O194  1  0.776900  0.348100  0.703900  1.0  -0.6817
  O  O195  1  0.560300  0.143900  0.430800  1.0  -0.7264
  O  O196  1  0.480600  0.216000  0.387000  1.0  -0.7807
  O  O197  1  0.622900  0.115600  0.296300  1.0  -0.7379
  O  O198  1  0.658900  0.047200  0.411000  1.0  -0.8109
  O  O199  1  0.634200  0.030000  0.118300  1.0  -0.7206
  O  O200  1  0.672600  0.904300  0.125000  1.0  -0.7406
  O  O201  1  0.247700  0.730000  0.628300  1.0  -0.7389
  O  O202  1  0.276900  0.848100  0.703900  1.0  -0.6817
  O  O203  1  0.060300  0.643900  0.430800  1.0  -0.7264
  O  O204  1  0.980600  0.716000  0.387000  1.0  -0.7807
  O  O205  1  0.122900  0.615600  0.296300  1.0  -0.7379
  O  O206  1  0.158900  0.547200  0.411000  1.0  -0.8109
  O  O207  1  0.134200  0.530000  0.118300  1.0  -0.7206
  O  O208  1  0.172600  0.404300  0.125000  1.0  -0.7406
  O  O209  1  0.252300  0.230000  0.871700  1.0  -0.7395
  O  O210  1  0.223100  0.348100  0.796100  1.0  -0.6824
  O  O211  1  0.439700  0.143900  0.069200  1.0  -0.7259
  O  O212  1  0.519400  0.216000  0.113000  1.0  -0.7801
  O  O213  1  0.377100  0.115600  0.203700  1.0  -0.7377
  O  O214  1  0.341100  0.047200  0.089000  1.0  -0.8089
  O  O215  1  0.365800  0.030000  0.381700  1.0  -0.7204
  O  O216  1  0.327400  0.904300  0.375000  1.0  -0.7391
  O  O217  1  0.752300  0.730000  0.871700  1.0  -0.7395
  O  O218  1  0.723100  0.848100  0.796100  1.0  -0.6824
  O  O219  1  0.939700  0.643900  0.069200  1.0  -0.7259
  O  O220  1  0.019400  0.716000  0.113000  1.0  -0.7801
  O  O221  1  0.877100  0.615600  0.203700  1.0  -0.7377
  O  O222  1  0.841100  0.547200  0.089000  1.0  -0.8089
  O  O223  1  0.865800  0.530000  0.381700  1.0  -0.7204
  O  O224  1  0.827400  0.404300  0.375000  1.0  -0.7391
  O  O225  1  0.252300  0.770000  0.371700  1.0  -0.7408
  O  O226  1  0.223100  0.651900  0.296100  1.0  -0.6829
  O  O227  1  0.439700  0.856100  0.569200  1.0  -0.7252
  O  O228  1  0.519400  0.784000  0.613000  1.0  -0.7796
  O  O229  1  0.377100  0.884400  0.703700  1.0  -0.7356
  O  O230  1  0.341100  0.952800  0.589000  1.0  -0.809
  O  O231  1  0.365800  0.970000  0.881700  1.0  -0.7208
  O  O232  1  0.327400  0.095700  0.875000  1.0  -0.7394
  O  O233  1  0.752300  0.270000  0.371700  1.0  -0.7408
  O  O234  1  0.723100  0.151900  0.296100  1.0  -0.6829
  O  O235  1  0.939700  0.356100  0.569200  1.0  -0.7252
  O  O236  1  0.019400  0.284000  0.613000  1.0  -0.7796
  O  O237  1  0.877100  0.384400  0.703700  1.0  -0.7356
  O  O238  1  0.841100  0.452800  0.589000  1.0  -0.809
  O  O239  1  0.865800  0.470000  0.881700  1.0  -0.7208
  O  O240  1  0.827400  0.595700  0.875000  1.0  -0.7394
  O  O241  1  0.747700  0.770000  0.128300  1.0  -0.7384
  O  O242  1  0.776900  0.651900  0.203900  1.0  -0.6834
  O  O243  1  0.560300  0.856100  0.930800  1.0  -0.7261
  O  O244  1  0.480600  0.784000  0.887000  1.0  -0.7808
  O  O245  1  0.622900  0.884400  0.796300  1.0  -0.7334
  O  O246  1  0.658900  0.952800  0.911000  1.0  -0.8105
  O  O247  1  0.634200  0.970000  0.618300  1.0  -0.7186
  O  O248  1  0.672600  0.095700  0.625000  1.0  -0.7404
  O  O249  1  0.247700  0.270000  0.128300  1.0  -0.7384
  O  O250  1  0.276900  0.151900  0.203900  1.0  -0.6834
  O  O251  1  0.060300  0.356100  0.930800  1.0  -0.7261
  O  O252  1  0.980600  0.284000  0.887000  1.0  -0.7808
  O  O253  1  0.122900  0.384400  0.796300  1.0  -0.7334
  O  O254  1  0.158900  0.452800  0.911000  1.0  -0.8105
  O  O255  1  0.134200  0.470000  0.618300  1.0  -0.7186
  O  O256  1  0.172600  0.595700  0.625000  1.0  -0.7404
