# generated using pymatgen
data_Zn7Cd2H134C140(N5O13)2
_symmetry_space_group_name_H-M   'P 1'
_cell_length_a   17.51500000
_cell_length_b   26.68220000
_cell_length_c   26.68220000
_cell_angle_alpha   76.29610000
_cell_angle_beta   70.83960000
_cell_angle_gamma   70.83960000
_symmetry_Int_Tables_number   1
_chemical_formula_structural   Zn7Cd2H134C140(N5O13)2
_chemical_formula_sum   'Zn14 Cd4 H268 C280 N20 O52'
_cell_volume   11009.12158788
_cell_formula_units_Z   2
loop_
 _symmetry_equiv_pos_site_id
 _symmetry_equiv_pos_as_xyz
  1  'x, y, z'
loop_
 _atom_site_type_symbol
 _atom_site_label
 _atom_site_symmetry_multiplicity
 _atom_site_fract_x
 _atom_site_fract_y
 _atom_site_fract_z
 _atom_site_occupancy
 _atom_site_charge
  Zn  Zn1  1  0.906500  0.900030  0.516010  1.0  0.9074
  Zn  Zn2  1  0.665670  0.409300  0.014160  1.0  0.9009
  Zn  Zn3  1  0.593500  0.483990  0.099970  1.0  0.9049
  Zn  Zn4  1  0.822540  0.599970  0.983990  1.0  0.9065
  Zn  Zn5  1  0.834330  0.985840  0.590700  1.0  0.9039
  Zn  Zn6  1  0.747650  0.502350  0.002350  1.0  0.8418
  Zn  Zn7  1  0.919950  0.487610  0.026330  1.0  0.9189
  Zn  Zn8  1  0.910870  0.514160  0.909300  1.0  0.905
  Zn  Zn9  1  0.752350  0.997650  0.497650  1.0  0.8427
  Zn  Zn10  1  0.580050  0.973670  0.512390  1.0  0.918
  Zn  Zn11  1  0.677460  0.016010  0.400030  1.0  0.9051
  Zn  Zn12  1  0.933890  0.012390  0.473670  1.0  0.9202
  Zn  Zn13  1  0.589130  0.090700  0.485840  1.0  0.9033
  Zn  Zn14  1  0.566110  0.526330  0.987610  1.0  0.9165
  Cd  Cd15  1  0.245200  0.750000  0.750000  1.0  0.9285
  Cd  Cd16  1  0.750000  0.057640  0.942360  1.0  0.913
  Cd  Cd17  1  0.254800  0.250000  0.250000  1.0  0.9285
  Cd  Cd18  1  0.250000  0.442360  0.557640  1.0  0.9129
  H  H19  1  0.132400  0.313200  0.981600  1.0  0.1097
  H  H20  1  0.415700  0.035700  0.627500  1.0  0.106
  H  H21  1  0.858400  0.516000  0.732800  1.0  0.1197
  H  H22  1  0.084300  0.372500  0.964300  1.0  0.11
  H  H23  1  0.745000  0.093000  0.677800  1.0  0.1295
  H  H24  1  0.804000  0.861300  0.694900  1.0  0.1123
  H  H25  1  0.595100  0.064600  0.759400  1.0  0.1195
  H  H26  1  0.985400  0.709900  0.702500  1.0  0.1197
  H  H27  1  0.512400  0.932500  0.720700  1.0  0.1181
  H  H28  1  0.311700  0.333900  0.995300  1.0  0.1105
  H  H29  1  0.834400  0.220700  0.432500  1.0  0.1168
  H  H30  1  0.609800  0.732600  0.791200  1.0  0.1177
  H  H31  1  0.696100  0.791800  0.508400  1.0  0.1247
  H  H32  1  0.633600  0.767400  0.708800  1.0  0.1189
  H  H33  1  0.435900  0.385700  0.589300  1.0  0.1052
  H  H34  1  0.140900  0.166100  0.504700  1.0  0.1104
  H  H35  1  0.367600  0.018400  0.686800  1.0  0.1089
  H  H36  1  0.506000  0.175400  0.368400  1.0  0.1184
  H  H37  1  0.602200  0.202500  0.209900  1.0  0.1159
  H  H38  1  0.232000  0.319200  0.076800  1.0  0.1223
  H  H39  1  0.466400  0.670600  0.947600  1.0  0.1803
  H  H40  1  0.677100  0.172800  0.166200  1.0  0.114
  H  H41  1  0.714200  0.246200  0.434600  1.0  0.1264
  H  H42  1  0.981500  0.252700  0.888500  1.0  0.1297
  H  H43  1  0.332800  0.075000  0.656400  1.0  0.1187
  H  H44  1  0.944200  0.429100  0.503300  1.0  0.1122
  H  H45  1  0.027700  0.868000  0.888800  1.0  0.1094
  H  H46  1  0.641600  0.267200  0.484000  1.0  0.1172
  H  H47  1  0.741900  0.803300  0.936500  1.0  0.1278
  H  H48  1  0.974600  0.780900  0.414500  1.0  0.1182
  H  H49  1  0.296900  0.543100  0.296100  1.0  0.1204
  H  H50  1  0.030300  0.388000  0.188400  1.0  0.1314
  H  H51  1  0.033600  0.052400  0.329400  1.0  0.1816
  H  H52  1  0.320400  0.542000  0.556600  1.0  0.1162
  H  H53  1  0.581000  0.056600  0.042000  1.0  0.1163
  H  H54  1  0.836900  0.444800  0.724000  1.0  0.123
  H  H55  1  0.491500  0.883100  0.711500  1.0  0.1252
  H  H56  1  0.088200  0.864200  0.387600  1.0  0.1227
  H  H57  1  0.897800  0.790100  0.797500  1.0  0.1166
  H  H58  1  0.622700  0.247300  0.611500  1.0  0.1284
  H  H59  1  0.983900  0.666200  0.672800  1.0  0.1122
  H  H60  1  0.913900  0.211500  0.383100  1.0  0.125
  H  H61  1  0.345600  0.043400  0.551000  1.0  0.1186
  H  H62  1  0.376600  0.070900  0.996700  1.0  0.1109
  H  H63  1  0.991300  0.925400  0.220800  1.0  0.1263
  H  H64  1  0.442000  0.055200  0.064000  1.0  0.1123
  H  H65  1  0.179700  0.857600  0.349800  1.0  0.1231
  H  H66  1  0.927200  0.186800  0.518400  1.0  0.1095
  H  H67  1  0.008500  0.288500  0.116900  1.0  0.1244
  H  H68  1  0.822900  0.833800  0.827200  1.0  0.1144
  H  H69  1  0.782500  0.079600  0.266000  1.0  0.1305
  H  H70  1  0.981700  0.696700  0.563500  1.0  0.1266
  H  H71  1  0.232300  0.417300  0.915900  1.0  0.1238
  H  H72  1  0.561600  0.633000  0.216000  1.0  0.1244
  H  H73  1  0.606100  0.526100  0.278900  1.0  0.1286
  H  H74  1  0.555800  0.496700  0.570900  1.0  0.1135
  H  H75  1  0.919000  0.958000  0.943400  1.0  0.1176
  H  H76  1  0.663100  0.276000  0.555200  1.0  0.123
  H  H77  1  0.589100  0.089300  0.885700  1.0  0.1048
  H  H78  1  0.303500  0.322500  0.942500  1.0  0.1133
  H  H79  1  0.508700  0.779200  0.074600  1.0  0.1257
  H  H80  1  0.945700  0.412000  0.592400  1.0  0.1393
  H  H81  1  0.256200  0.034100  0.567700  1.0  0.1091
  H  H82  1  0.074300  0.584400  0.671800  1.0  0.1136
  H  H83  1  0.688000  0.952300  0.728500  1.0  0.115
  H  H84  1  0.696000  0.305100  0.138700  1.0  0.1148
  H  H85  1  0.915400  0.837100  0.813900  1.0  0.1119
  H  H86  1  0.830500  0.915600  0.828200  1.0  0.1151
  H  H87  1  0.640800  0.255200  0.349200  1.0  0.1149
  H  H88  1  0.749300  0.783400  0.619400  1.0  0.125
  H  H89  1  0.266800  0.290900  0.997900  1.0  0.1137
  H  H90  1  0.584600  0.186100  0.162900  1.0  0.1089
  H  H91  1  0.140900  0.782600  0.585400  1.0  0.1155
  H  H92  1  0.631200  0.228500  0.452300  1.0  0.114
  H  H93  1  0.505700  0.055200  0.776000  1.0  0.1232
  H  H94  1  0.992000  0.688700  0.791100  1.0  0.1201
  H  H95  1  0.938400  0.784000  0.367000  1.0  0.1246
  H  H96  1  0.367000  0.642800  0.185800  1.0  0.1281
  H  H97  1  0.980200  0.342900  0.869300  1.0  0.1261
  H  H98  1  0.450100  0.088000  0.907600  1.0  0.1392
  H  H99  1  0.537300  0.921100  0.249700  1.0  0.1095
  H  H100  1  0.607200  0.984000  0.767200  1.0  0.123
  H  H101  1  0.878700  0.754000  0.124800  1.0  0.1109
  H  H102  1  0.268500  0.577500  0.134300  1.0  0.1086
  H  H103  1  0.496300  0.708200  0.991600  1.0  0.1244
  H  H104  1  0.143600  0.798500  0.666500  1.0  0.106
  H  H105  1  0.871900  0.766000  0.579600  1.0  0.1304
  H  H106  1  0.356400  0.333500  0.201500  1.0  0.107
  H  H107  1  0.372000  0.576800  0.819200  1.0  0.1237
  H  H108  1  0.994300  0.224000  0.944800  1.0  0.1243
  H  H109  1  0.003700  0.008400  0.291800  1.0  0.1243
  H  H110  1  0.208100  0.578900  0.250300  1.0  0.1089
  H  H111  1  0.863900  0.796100  0.043100  1.0  0.1204
  H  H112  1  0.015800  0.407000  0.822200  1.0  0.1288
  H  H113  1  0.142200  0.871900  0.463500  1.0  0.1148
  H  H114  1  0.990100  0.859400  0.722600  1.0  0.1226
  H  H115  1  0.892800  0.232800  0.016000  1.0  0.1167
  H  H116  1  0.123400  0.003300  0.929100  1.0  0.1128
  H  H117  1  0.804000  0.714600  0.484000  1.0  0.1254
  H  H118  1  0.514600  0.297500  0.290100  1.0  0.1151
  H  H119  1  0.660000  0.887600  0.364200  1.0  0.1199
  H  H120  1  0.904700  0.338800  0.225600  1.0  0.1346
  H  H121  1  0.967700  0.832100  0.371100  1.0  0.1212
  H  H122  1  0.911100  0.973900  0.221100  1.0  0.1292
  H  H123  1  0.049900  0.092400  0.912000  1.0  0.1414
  H  H124  1  0.584600  0.829400  0.552400  1.0  0.1788
  H  H125  1  0.621300  0.875200  0.246000  1.0  0.1093
  H  H126  1  0.127400  0.852100  0.807700  1.0  0.1133
  H  H127  1  0.745200  0.244800  0.150800  1.0  0.1155
  H  H128  1  0.971800  0.811300  0.708900  1.0  0.1217
  H  H129  1  0.890200  0.208800  0.267400  1.0  0.1186
  H  H130  1  0.840000  0.635800  0.112400  1.0  0.1216
  H  H131  1  0.061200  0.444800  0.436000  1.0  0.1103
  H  H132  1  0.359100  0.414600  0.217400  1.0  0.1152
  H  H133  1  0.578900  0.464300  0.872500  1.0  0.1083
  H  H134  1  0.196500  0.057500  0.677500  1.0  0.1124
  H  H135  1  0.411800  0.612400  0.135800  1.0  0.1181
  H  H136  1  0.977600  0.628100  0.036500  1.0  0.1158
  H  H137  1  0.586100  0.616900  0.788500  1.0  0.125
  H  H138  1  0.188300  0.004700  0.666100  1.0  0.1109
  H  H139  1  0.863300  0.695500  0.772100  1.0  0.1197
  H  H140  1  0.695600  0.857200  0.314200  1.0  0.1265
  H  H141  1  0.877300  0.388500  0.752700  1.0  0.1269
  H  H142  1  0.893900  0.721100  0.473900  1.0  0.1255
  H  H143  1  0.242500  0.624800  0.254000  1.0  0.1106
  H  H144  1  0.231500  0.865700  0.422500  1.0  0.1093
  H  H145  1  0.478900  0.976200  0.325800  1.0  0.1278
  H  H146  1  0.480200  0.936500  0.671100  1.0  0.1225
  H  H147  1  0.154400  0.449000  0.956600  1.0  0.1163
  H  H148  1  0.910600  0.867000  0.284000  1.0  0.1243
  H  H149  1  0.804400  0.685800  0.142800  1.0  0.1273
  H  H150  1  0.546000  0.808500  0.708100  1.0  0.1321
  H  H151  1  0.133000  0.814200  0.357200  1.0  0.1307
  H  H152  1  0.847900  0.119400  0.283400  1.0  0.124
  H  H153  1  0.433600  0.313900  0.337100  1.0  0.1134
  H  H154  1  0.257500  0.746000  0.375200  1.0  0.1109
  H  H155  1  0.438800  0.564000  0.555200  1.0  0.1138
  H  H156  1  0.564200  0.425000  0.843600  1.0  0.1183
  H  H157  1  0.068500  0.177500  0.557500  1.0  0.1127
  H  H158  1  0.267700  0.084100  0.582700  1.0  0.1226
  H  H159  1  0.142000  0.067700  0.534100  1.0  0.1062
  H  H160  1  0.358000  0.465900  0.932300  1.0  0.1111
  H  H161  1  0.904900  0.240600  0.935400  1.0  0.1198
  H  H162  1  0.868800  0.547700  0.771500  1.0  0.1131
  H  H163  1  0.212800  0.307700  0.352100  1.0  0.1127
  H  H164  1  0.444400  0.497900  0.790900  1.0  0.112
  H  H165  1  0.960100  0.708700  0.131500  1.0  0.1052
  H  H166  1  0.372600  0.192300  0.147900  1.0  0.1143
  H  H167  1  0.179600  0.443400  0.458000  1.0  0.1168
  H  H168  1  0.528200  0.291100  0.188700  1.0  0.1154
  H  H169  1  0.472300  0.111200  0.132000  1.0  0.1078
  H  H170  1  0.969100  0.161200  0.274400  1.0  0.1365
  H  H171  1  0.106700  0.112000  0.311600  1.0  0.1321
  H  H172  1  0.915400  0.447600  0.170600  1.0  0.1827
  H  H173  1  0.785800  0.565400  0.753800  1.0  0.1233
  H  H174  1  0.128000  0.180800  0.423200  1.0  0.1238
  H  H175  1  0.491100  0.085400  0.282600  1.0  0.1162
  H  H176  1  0.066400  0.662900  0.686100  1.0  0.1125
  H  H177  1  0.058000  0.936000  0.944800  1.0  0.1142
  H  H178  1  0.692400  0.157100  0.630700  1.0  0.126
  H  H179  1  0.652100  0.716600  0.880600  1.0  0.1248
  H  H180  1  0.519800  0.130700  0.657100  1.0  0.1234
  H  H181  1  0.912200  0.171100  0.436500  1.0  0.1219
  H  H182  1  0.532300  0.628900  0.167900  1.0  0.121
  H  H183  1  0.830900  0.804500  0.727900  1.0  0.117
  H  H184  1  0.670000  0.719100  0.085500  1.0  0.1171
  H  H185  1  0.357800  0.536500  0.128100  1.0  0.115
  H  H186  1  0.287200  0.647900  0.692300  1.0  0.1121
  H  H187  1  0.997400  0.984000  0.214600  1.0  0.1276
  H  H188  1  0.530900  0.725600  0.838800  1.0  0.1341
  H  H189  1  0.950200  0.868400  0.675400  1.0  0.1166
  H  H190  1  0.484200  0.177800  0.593000  1.0  0.1312
  H  H191  1  0.469700  0.811600  0.612000  1.0  0.1302
  H  H192  1  0.807600  0.369300  0.842900  1.0  0.1234
  H  H193  1  0.743100  0.239900  0.931700  1.0  0.127
  H  H194  1  0.288700  0.442200  0.300600  1.0  0.1039
  H  H195  1  0.588900  0.778900  0.026100  1.0  0.1242
  H  H196  1  0.829100  0.871100  0.332100  1.0  0.1196
  H  H197  1  0.320300  0.650200  0.142400  1.0  0.1249
  H  H198  1  0.754800  0.849200  0.755200  1.0  0.1147
  H  H199  1  0.628100  0.420400  0.234000  1.0  0.1314
  H  H200  1  0.431500  0.442500  0.822500  1.0  0.1088
  H  H201  1  0.562600  0.691500  0.791900  1.0  0.1302
  H  H202  1  0.434500  0.415900  0.917300  1.0  0.1214
  H  H203  1  0.587800  0.563500  0.828900  1.0  0.1206
  H  H204  1  0.508000  0.208900  0.311300  1.0  0.1149
  H  H205  1  0.518500  0.111500  0.747300  1.0  0.1274
  H  H206  1  0.572800  0.481600  0.813200  1.0  0.1087
  H  H207  1  0.211300  0.699400  0.557800  1.0  0.1042
  H  H208  1  0.199700  0.631500  0.208700  1.0  0.104
  H  H209  1  0.636700  0.227900  0.304500  1.0  0.1172
  H  H210  1  0.291900  0.749700  0.421100  1.0  0.108
  H  H211  1  0.518300  0.436500  0.303300  1.0  0.1289
  H  H212  1  0.085300  0.431700  0.739900  1.0  0.1261
  H  H213  1  0.425700  0.328200  0.415600  1.0  0.114
  H  H214  1  0.268000  0.923200  0.680800  1.0  0.1228
  H  H215  1  0.962700  0.750300  0.078900  1.0  0.1105
  H  H216  1  0.670900  0.667900  0.128900  1.0  0.1194
  H  H217  1  0.994000  0.631600  0.824600  1.0  0.1151
  H  H218  1  0.300300  0.791300  0.368500  1.0  0.1033
  H  H219  1  0.935800  0.156400  0.575000  1.0  0.1197
  H  H220  1  0.108600  0.701500  0.833500  1.0  0.1068
  H  H221  1  0.167200  0.343600  0.925000  1.0  0.1196
  H  H222  1  0.509900  0.277400  0.140600  1.0  0.1235
  H  H223  1  0.937400  0.208100  0.308500  1.0  0.131
  H  H224  1  0.987600  0.279300  0.067500  1.0  0.117
  H  H225  1  0.639800  0.194900  0.361300  1.0  0.1152
  H  H226  1  0.219100  0.825800  0.476200  1.0  0.128
  H  H227  1  0.055600  0.209100  0.502100  1.0  0.1121
  H  H228  1  0.391400  0.166500  0.298500  1.0  0.1081
  H  H229  1  0.589400  0.716000  0.133000  1.0  0.1238
  H  H230  1  0.019800  0.328900  0.063500  1.0  0.1214
  H  H231  1  0.669100  0.272100  0.195500  1.0  0.1191
  H  H232  1  0.064100  0.410700  0.614300  1.0  0.1036
  H  H233  1  0.021100  0.674200  0.023800  1.0  0.128
  H  H234  1  0.427900  0.222600  0.359400  1.0  0.1232
  H  H235  1  0.755000  0.322200  0.907000  1.0  0.1297
  H  H236  1  0.414700  0.260100  0.568300  1.0  0.1286
  H  H237  1  0.440000  0.456600  0.949000  1.0  0.1184
  H  H238  1  0.830000  0.914500  0.280900  1.0  0.1206
  H  H239  1  0.284500  0.632000  0.611200  1.0  0.1098
  H  H240  1  0.549800  0.324600  0.131600  1.0  0.1156
  H  H241  1  0.243800  0.432300  0.965900  1.0  0.1095
  H  H242  1  0.669500  0.171800  0.084400  1.0  0.1146
  H  H243  1  0.954000  0.291900  0.191500  1.0  0.1313
  H  H244  1  0.696000  0.516000  0.285400  1.0  0.126
  H  H245  1  0.393300  0.688400  0.888000  1.0  0.1312
  H  H246  1  0.860200  0.638700  0.805100  1.0  0.1111
  H  H247  1  0.866400  0.291200  0.232600  1.0  0.1184
  H  H248  1  0.065500  0.082700  0.584100  1.0  0.1242
  H  H249  1  0.595300  0.774400  0.661200  1.0  0.1352
  H  H250  1  0.502600  0.785400  0.016000  1.0  0.1273
  H  H251  1  0.525400  0.585500  0.219100  1.0  0.1191
  H  H252  1  0.233200  0.002100  0.709100  1.0  0.1144
  H  H253  1  0.516100  0.327200  0.333800  1.0  0.1126
  H  H254  1  0.060000  0.051000  0.543400  1.0  0.1159
  H  H255  1  0.203100  0.703900  0.456900  1.0  0.1194
  H  H256  1  0.019700  0.634300  0.077500  1.0  0.1095
  H  H257  1  0.280900  0.523800  0.174200  1.0  0.1283
  H  H258  1  0.359100  0.495300  0.833900  1.0  0.1125
  H  H259  1  0.910900  0.114300  0.910700  1.0  0.1037
  H  H260  1  0.919100  0.435400  0.740600  1.0  0.1228
  H  H261  1  0.531500  0.057800  0.199400  1.0  0.1048
  H  H262  1  0.895000  0.253800  0.065400  1.0  0.126
  H  H263  1  0.636100  0.956900  0.203900  1.0  0.1211
  H  H264  1  0.480300  0.922500  0.365700  1.0  0.1103
  H  H265  1  0.812000  0.271500  0.047700  1.0  0.117
  H  H266  1  0.605000  0.934600  0.746200  1.0  0.1247
  H  H267  1  0.554300  0.407600  0.588000  1.0  0.1405
  H  H268  1  0.862500  0.720800  0.425400  1.0  0.1248
  H  H269  1  0.803900  0.491600  0.208200  1.0  0.1246
  H  H270  1  0.612900  0.849800  0.357600  1.0  0.1216
  H  H271  1  0.522400  0.963500  0.371900  1.0  0.1158
  H  H272  1  0.758100  0.063500  0.196700  1.0  0.1249
  H  H273  1  0.008900  0.717400  0.914600  1.0  0.1156
  H  H274  1  0.756900  0.068300  0.760100  1.0  0.126
  H  H275  1  0.968500  0.800600  0.942200  1.0  0.1038
  H  H276  1  0.215500  0.388800  0.368000  1.0  0.1092
  H  H277  1  0.887100  0.642400  0.150200  1.0  0.1233
  H  H278  1  0.539900  0.868500  0.291300  1.0  0.1007
  H  H279  1  0.921100  0.127500  0.535700  1.0  0.1102
  H  H280  1  0.665600  0.567500  0.779300  1.0  0.1164
  H  H281  1  0.717500  0.734000  0.920400  1.0  0.1316
  H  H282  1  0.750700  0.380600  0.216600  1.0  0.1261
  H  H283  1  0.580900  0.259400  0.564600  1.0  0.1174
  H  H284  1  0.859200  0.650800  0.744800  1.0  0.1151
  H  H285  1  0.072100  0.640600  0.777400  1.0  0.1231
  H  H286  1  0.637500  0.574600  0.279200  1.0  0.1256
  C  C287  1  0.752800  0.101500  0.580500  1.0  0.0991
  C  C288  1  0.667300  0.680200  0.878200  1.0  -0.1328
  C  C289  1  0.601900  0.441900  0.208100  1.0  0.1156
  C  C290  1  0.043800  0.834700  0.877700  1.0  -0.0892
  C  C291  1  0.558300  0.608800  0.195800  1.0  -0.3776
  C  C292  1  0.756400  0.545200  0.096000  1.0  0.2568
  C  C293  1  0.234600  0.606500  0.229900  1.0  -0.3082
  C  C294  1  0.562500  0.056300  0.694900  1.0  0.0592
  C  C295  1  0.856500  0.828100  0.423500  1.0  0.0649
  C  C296  1  0.787300  0.128700  0.428500  1.0  -0.0347
  C  C297  1  0.242200  0.329100  0.325100  1.0  0.152
  C  C298  1  0.996000  0.440900  0.832500  1.0  0.0955
  C  C299  1  0.837300  0.923000  0.749800  1.0  -0.0108
  C  C300  1  0.511500  0.948300  0.346700  1.0  -0.3638
  C  C301  1  0.407600  0.155400  0.265200  1.0  0.1721
  C  C302  1  0.402400  0.487900  0.308900  1.0  -0.0984
  C  C303  1  0.809100  0.842200  0.729600  1.0  -0.3805
  C  C304  1  0.170400  0.186700  0.318700  1.0  0.6539
  C  C305  1  0.716600  0.026700  0.271900  1.0  -0.0585
  C  C306  1  0.771900  0.512900  0.185300  1.0  -0.0916
  C  C307  1  0.804300  0.513200  0.130200  1.0  0.0246
  C  C308  1  0.134600  0.632400  0.528400  1.0  0.6982
  C  C309  1  0.824000  0.883200  0.423200  1.0  -0.0176
  C  C310  1  0.600700  0.792600  0.686400  1.0  -0.3416
  C  C311  1  0.929000  0.729900  0.106500  1.0  -0.3027
  C  C312  1  0.904300  0.690900  0.079900  1.0  0.1327
  C  C313  1  0.947700  0.986800  0.369800  1.0  0.0267
  C  C314  1  0.324200  0.818700  0.686700  1.0  0.6575
  C  C315  1  0.508000  0.488000  0.572000  1.0  -0.1033
  C  C316  1  0.790400  0.497000  0.812800  1.0  0.0499
  C  C317  1  0.480000  0.633600  0.950000  1.0  0.1067
  C  C318  1  0.418600  0.453000  0.921800  1.0  -0.3507
  C  C319  1  0.175100  0.809100  0.420100  1.0  0.1345
  C  C320  1  0.571000  0.893500  0.270100  1.0  -0.3058
  C  C321  1  0.436000  0.421500  0.582500  1.0  0.1504
  C  C322  1  0.725700  0.819800  0.621800  1.0  -0.1329
  C  C323  1  0.770900  0.856300  0.592100  1.0  0.1614
  C  C324  1  0.483400  0.208900  0.514500  1.0  -0.0333
  C  C325  1  0.691500  0.544500  0.206100  1.0  0.0439
  C  C326  1  0.103600  0.825100  0.829100  1.0  0.1539
  C  C327  1  0.324900  0.579900  0.190900  1.0  0.132
  C  C328  1  0.748100  0.708100  0.941900  1.0  0.1137
  C  C329  1  0.024100  0.065900  0.917900  1.0  -0.1358
  C  C330  1  0.351700  0.525500  0.279100  1.0  -0.0929
  C  C331  1  0.365400  0.471600  0.367600  1.0  0.7025
  C  C332  1  0.695700  0.869800  0.486800  1.0  0.0247
  C  C333  1  0.179300  0.343500  0.085700  1.0  -0.116
  C  C334  1  0.391500  0.585700  0.843500  1.0  -0.1189
  C  C335  1  0.621000  0.586800  0.805800  1.0  -0.3501
  C  C336  1  0.897600  0.954800  0.404000  1.0  0.2593
  C  C337  1  0.936400  0.450000  0.133600  1.0  0.1128
  C  C338  1  0.947900  0.152600  0.538200  1.0  -0.362
  C  C339  1  0.432000  0.072000  0.988000  1.0  -0.1076
  C  C340  1  0.382600  0.537100  0.223900  1.0  -0.0179
  C  C341  1  0.945000  0.984900  0.937100  1.0  0.163
  C  C342  1  0.645500  0.837600  0.655000  1.0  0.0064
  C  C343  1  0.020000  0.050000  0.366400  1.0  0.1071
  C  C344  1  0.676000  0.576800  0.116800  1.0  -0.017
  C  C345  1  0.839100  0.158500  0.392100  1.0  -0.0036
  C  C346  1  0.898100  0.791900  0.558100  1.0  0.1143
  C  C347  1  0.488200  0.210500  0.349100  1.0  -0.3499
  C  C348  1  0.545000  0.095000  0.652000  1.0  -0.0914
  C  C349  1  0.602400  0.596000  0.045200  1.0  0.2559
  C  C350  1  0.992100  0.417900  0.565900  1.0  -0.1375
  C  C351  1  0.396400  0.170900  0.174900  1.0  0.1543
  C  C352  1  0.117400  0.776100  0.462900  1.0  -0.0164
  C  C353  1  0.362700  0.860800  0.651600  1.0  -0.162
  C  C354  1  0.081400  0.078200  0.547000  1.0  -0.3531
  C  C355  1  0.171800  0.765200  0.655400  1.0  0.1735
  C  C356  1  0.441600  0.847400  0.615200  1.0  -0.1099
  C  C357  1  0.978300  0.638400  0.753000  1.0  0.2289
  C  C358  1  0.724000  0.472800  0.906000  1.0  0.2955
  C  C359  1  0.690900  0.270400  0.157800  1.0  -0.3787
  C  C360  1  0.879600  0.363200  0.011600  1.0  -0.0158
  C  C361  1  0.795400  0.867600  0.971600  1.0  0.7014
  C  C362  1  0.941700  0.804200  0.391200  1.0  -0.3792
  C  C363  1  0.986400  0.305800  0.086800  1.0  -0.3463
  C  C364  1  0.660900  0.607900  0.841500  1.0  -0.0015
  C  C365  1  0.015700  0.716700  0.538300  1.0  -0.1153
  C  C366  1  0.595700  0.920100  0.309100  1.0  0.1301
  C  C367  1  0.774300  0.378200  0.180200  1.0  -0.1347
  C  C368  1  0.643600  0.962900  0.276100  1.0  -0.0162
  C  C369  1  0.133000  0.437100  0.484900  1.0  0.1606
  C  C370  1  0.288000  0.409700  0.294300  1.0  -0.0969
  C  C371  1  0.058400  0.384800  0.152600  1.0  -0.1106
  C  C372  1  0.610300  0.892100  0.658500  1.0  -0.004
  C  C373  1  0.800800  0.808900  0.987900  1.0  -0.1097
  C  C374  1  0.952200  0.849100  0.710500  1.0  -0.3482
  C  C375  1  0.412000  0.302200  0.494800  1.0  -0.1458
  C  C376  1  0.899800  0.312800  0.997000  1.0  0.0461
  C  C377  1  0.670400  0.237100  0.464700  1.0  -0.364
  C  C378  1  0.511600  0.205000  0.460000  1.0  0.2909
  C  C379  1  0.709600  0.187200  0.503000  1.0  0.0463
  C  C380  1  0.899300  0.313600  0.207400  1.0  -0.3425
  C  C381  1  0.357400  0.954400  0.625200  1.0  -0.004
  C  C382  1  0.008000  0.794300  0.909700  1.0  -0.0975
  C  C383  1  0.206600  0.421800  0.953000  1.0  -0.3532
  C  C384  1  0.619100  0.229600  0.342200  1.0  -0.3768
  C  C385  1  0.489900  0.249800  0.423000  1.0  -0.0094
  C  C386  1  0.955000  0.348000  0.905000  1.0  -0.0917
  C  C387  1  0.169800  0.755600  0.606800  1.0  -0.1028
  C  C388  1  0.223500  0.020200  0.675200  1.0  -0.3629
  C  C389  1  0.478300  0.887500  0.583900  1.0  -0.104
  C  C390  1  0.016600  0.485500  0.791100  1.0  -0.0327
  C  C391  1  0.175800  0.313300  0.181300  1.0  0.6553
  C  C392  1  0.662700  0.250200  0.077000  1.0  -0.0044
  C  C393  1  0.193500  0.846700  0.448300  1.0  -0.3645
  C  C394  1  0.808500  0.793900  0.455500  1.0  0.0463
  C  C395  1  0.449700  0.612500  0.916100  1.0  -0.1116
  C  C396  1  0.869700  0.861600  0.747000  1.0  0.2283
  C  C397  1  0.547800  0.289500  0.150900  1.0  -0.3501
  C  C398  1  0.475900  0.082100  0.934100  1.0  -0.139
  C  C399  1  0.064000  0.417500  0.578500  1.0  0.1475
  C  C400  1  0.627800  0.964700  0.737100  1.0  -0.3671
  C  C401  1  0.579700  0.707400  0.813600  1.0  -0.3422
  C  C402  1  0.653800  0.539900  0.268500  1.0  -0.3719
  C  C403  1  0.920300  0.186400  0.292600  1.0  -0.3436
  C  C404  1  0.843700  0.779100  0.025500  1.0  -0.0947
  C  C405  1  0.861900  0.155000  0.337600  1.0  0.0069
  C  C406  1  0.686300  0.194900  0.556300  1.0  0.0539
  C  C407  1  0.723000  0.242500  0.968100  1.0  -0.0838
  C  C408  1  0.602800  0.027200  0.594000  1.0  0.297
  C  C409  1  0.988400  0.540000  0.795000  1.0  0.304
  C  C410  1  0.354300  0.351200  0.516200  1.0  0.6986
  C  C411  1  0.515200  0.473300  0.228100  1.0  -0.0574
  C  C412  1  0.092400  0.734800  0.844600  1.0  0.172
  C  C413  1  0.212000  0.705700  0.590300  1.0  -0.0902
  C  C414  1  0.728100  0.814700  0.487100  1.0  -0.0875
  C  C415  1  0.962200  0.960100  0.231500  1.0  -0.3757
  C  C416  1  0.433600  0.257500  0.531900  1.0  -0.0933
  C  C417  1  0.956500  0.250500  0.926500  1.0  -0.3553
  C  C418  1  0.743600  0.904000  0.454800  1.0  0.2553
  C  C419  1  0.035500  0.801700  0.489100  1.0  0.2937
  C  C420  1  0.673700  0.989100  0.301700  1.0  0.2979
  C  C421  1  0.735800  0.910700  0.595500  1.0  0.2733
  C  C422  1  0.032200  0.744400  0.893200  1.0  -0.1041
  C  C423  1  0.191600  0.368500  0.986100  1.0  0.0817
  C  C424  1  0.557900  0.706100  0.044500  1.0  0.0432
  C  C425  1  0.783400  0.728100  0.973300  1.0  -0.0586
  C  C426  1  0.097600  0.691100  0.512100  1.0  -0.1044
  C  C427  1  0.404200  0.652600  0.884800  1.0  -0.1139
  C  C428  1  0.437000  0.545600  0.874800  1.0  -0.0016
  C  C429  1  0.754400  0.136800  0.488400  1.0  -0.0159
  C  C430  1  0.521700  0.247000  0.361600  1.0  0.2284
  C  C431  1  0.793200  0.014500  0.708900  1.0  -0.0327
  C  C432  1  0.095800  0.115200  0.347400  1.0  -0.1074
  C  C433  1  0.010100  0.577000  0.750200  1.0  -0.009
  C  C434  1  0.068000  0.012000  0.928000  1.0  -0.1041
  C  C435  1  0.066400  0.468100  0.742500  1.0  -0.0941
  C  C436  1  0.308400  0.013900  0.631500  1.0  0.0815
  C  C437  1  0.006200  0.672600  0.698400  1.0  -0.3301
  C  C438  1  0.745600  0.511600  0.863200  1.0  -0.0163
  C  C439  1  0.453800  0.486100  0.868500  1.0  0.0828
  C  C440  1  0.747200  0.419500  0.898500  1.0  0.0991
  C  C441  1  0.869600  0.923200  0.383200  1.0  -0.0191
  C  C442  1  0.046200  0.131500  0.513900  1.0  0.0838
  C  C443  1  0.108500  0.156500  0.414300  1.0  -0.1166
  C  C444  1  0.729300  0.038300  0.216700  1.0  -0.1166
  C  C445  1  0.565200  0.080500  0.601500  1.0  0.0989
  C  C446  1  0.655500  0.928500  0.628700  1.0  -0.0329
  C  C447  1  0.142600  0.374800  0.045600  1.0  0.0002
  C  C448  1  0.543500  0.073500  0.749500  1.0  -0.3533
  C  C449  1  0.854800  0.661100  0.125300  1.0  -0.3645
  C  C450  1  0.011800  0.650900  0.789500  1.0  -0.3473
  C  C451  1  0.729100  0.407900  0.143700  1.0  0.1655
  C  C452  1  0.813700  0.443700  0.805100  1.0  0.0557
  C  C453  1  0.777000  0.031900  0.757500  1.0  -0.0954
  C  C454  1  0.829600  0.535300  0.762900  1.0  -0.3669
  C  C455  1  0.436200  0.941000  0.589000  1.0  0.2869
  C  C456  1  0.243800  0.377700  0.334700  1.0  -0.0926
  C  C457  1  0.484300  0.461700  0.283300  1.0  -0.1152
  C  C458  1  0.638100  0.662400  0.845000  1.0  0.0075
  C  C459  1  0.792000  0.405000  0.848000  1.0  -0.0947
  C  C460  1  0.988500  0.653300  0.051700  1.0  -0.3645
  C  C461  1  0.940000  0.078500  0.917500  1.0  0.151
  C  C462  1  0.942100  0.955500  0.293900  1.0  0.0479
  C  C463  1  0.699200  0.012100  0.191100  1.0  -0.1093
  C  C464  1  0.877200  0.827400  0.801600  1.0  -0.3302
  C  C465  1  0.256200  0.665300  0.622300  1.0  -0.0852
  C  C466  1  0.846200  0.731500  0.460100  1.0  -0.3656
  C  C467  1  0.600200  0.003000  0.687200  1.0  0.047
  C  C468  1  0.063000  0.125200  0.454400  1.0  0.0013
  C  C469  1  0.456200  0.122300  0.165300  1.0  -0.0842
  C  C470  1  0.709000  0.197800  0.005200  1.0  -0.1488
  C  C471  1  0.719300  0.643700  0.907900  1.0  0.1637
  C  C472  1  0.656300  0.974500  0.220900  1.0  -0.0955
  C  C473  1  0.770700  0.783300  0.961700  1.0  -0.1172
  C  C474  1  0.145700  0.483800  0.648800  1.0  0.7008
  C  C475  1  0.862900  0.891200  0.304200  1.0  -0.3773
  C  C476  1  0.992000  0.428000  0.512000  1.0  -0.1067
  C  C477  1  0.021700  0.416100  0.112500  1.0  -0.1109
  C  C478  1  0.329600  0.681300  0.813300  1.0  0.6558
  C  C479  1  0.856400  0.723900  0.037100  1.0  -0.0148
  C  C480  1  0.758000  0.095500  0.410700  1.0  0.2742
  C  C481  1  0.552100  0.461800  0.847400  1.0  -0.3596
  C  C482  1  0.844500  0.371300  0.071500  1.0  -0.0337
  C  C483  1  0.138700  0.347400  0.961800  1.0  -0.3595
  C  C484  1  0.676600  0.295000  0.040000  1.0  0.295
  C  C485  1  0.330200  0.393200  0.244400  1.0  -0.1032
  C  C486  1  0.137300  0.348400  0.139200  1.0  -0.1594
  C  C487  1  0.563600  0.866400  0.550000  1.0  0.1085
  C  C488  1  0.778300  0.016200  0.851200  1.0  0.7018
  C  C489  1  0.630300  0.253000  0.138400  1.0  0.2281
  C  C490  1  0.637100  0.695800  0.108800  1.0  -0.3787
  C  C491  1  0.440200  0.298300  0.440300  1.0  -0.1283
  C  C492  1  0.418900  0.479800  0.824800  1.0  -0.358
  C  C493  1  0.560000  0.082500  0.921500  1.0  0.1505
  C  C494  1  0.320700  0.914300  0.656500  1.0  -0.1174
  C  C495  1  0.937500  0.305100  0.943700  1.0  0.0581
  C  C496  1  0.063800  0.411000  0.059000  1.0  0.2799
  C  C497  1  0.620400  0.988400  0.636800  1.0  -0.0163
  C  C498  1  0.769400  0.059100  0.667500  1.0  0.0976
  C  C499  1  0.984800  0.771900  0.526700  1.0  -0.0584
  C  C500  1  0.059800  0.559700  0.701700  1.0  -0.1269
  C  C501  1  0.872200  0.262900  0.035300  1.0  -0.3657
  C  C502  1  0.832700  0.121800  0.319800  1.0  -0.136
  C  C503  1  0.791000  0.994800  0.802200  1.0  -0.1487
  C  C504  1  0.643500  0.576500  0.171900  1.0  0.0633
  C  C505  1  0.081100  0.175200  0.520200  1.0  -0.3661
  C  C506  1  0.633500  0.249500  0.573500  1.0  -0.3568
  C  C507  1  0.471900  0.062100  0.028100  1.0  -0.0865
  C  C508  1  0.529900  0.685300  0.012900  1.0  -0.0866
  C  C509  1  0.826300  0.698300  0.010900  1.0  0.295
  C  C510  1  0.124900  0.151600  0.360800  1.0  -0.1619
  C  C511  1  0.897200  0.406000  0.972800  1.0  0.2964
  C  C512  1  0.375100  0.639200  0.848400  1.0  -0.1609
  C  C513  1  0.367000  0.515100  0.562900  1.0  0.1604
  C  C514  1  0.141200  0.838900  0.374700  1.0  -0.36
  C  C515  1  0.504000  0.167500  0.559100  1.0  0.0965
  C  C516  1  0.889700  0.341500  0.107900  1.0  -0.0047
  C  C517  1  0.033800  0.089000  0.441000  1.0  0.2813
  C  C518  1  0.148300  0.720900  0.474500  1.0  -0.0964
  C  C519  1  0.879000  0.194200  0.413200  1.0  -0.345
  C  C520  1  0.257800  0.674900  0.670900  1.0  0.1539
  C  C521  1  0.467800  0.106800  0.255600  1.0  -0.1009
  C  C522  1  0.742000  0.589300  0.904500  1.0  0.2791
  C  C523  1  0.706800  0.291100  0.985500  1.0  -0.033
  C  C524  1  0.028100  0.971900  0.937900  1.0  -0.0879
  C  C525  1  0.712700  0.571500  0.871300  1.0  -0.0338
  C  C526  1  0.854500  0.345000  0.162400  1.0  0.0107
  C  C527  1  0.507900  0.434100  0.582100  1.0  -0.1402
  C  C528  1  0.708000  0.152000  0.595000  1.0  -0.0913
  C  C529  1  0.721700  0.148800  0.983800  1.0  0.6996
  C  C530  1  0.306500  0.551700  0.153300  1.0  -0.3628
  C  C531  1  0.866500  0.426500  0.750500  1.0  -0.3505
  C  C532  1  0.780700  0.092100  0.356300  1.0  0.1654
  C  C533  1  0.466200  0.559000  0.911000  1.0  0.284
  C  C534  1  0.265400  0.770100  0.393500  1.0  -0.3046
  C  C535  1  0.050300  0.083900  0.387500  1.0  -0.1084
  C  C536  1  0.880900  0.657800  0.770400  1.0  -0.3785
  C  C537  1  0.821200  0.940300  0.798300  1.0  -0.1288
  C  C538  1  0.608100  0.671900  0.076500  1.0  0.067
  C  C539  1  0.492000  0.090300  0.205700  1.0  -0.0951
  C  C540  1  0.704600  0.028400  0.132400  1.0  0.7073
  C  C541  1  0.358800  0.625300  0.161100  1.0  -0.3627
  C  C542  1  0.361300  0.038200  0.652600  1.0  -0.3613
  C  C543  1  0.293400  0.047000  0.578200  1.0  -0.3503
  C  C544  1  0.823400  0.960000  0.705000  1.0  0.3024
  C  C545  1  0.764200  0.404500  0.089300  1.0  0.2762
  C  C546  1  0.493800  0.301600  0.327400  1.0  -0.327
  C  C547  1  0.622800  0.198400  0.172600  1.0  -0.3284
  C  C548  1  0.934800  0.398500  0.919500  1.0  0.0989
  C  C549  1  0.630400  0.616800  0.076800  1.0  -0.0192
  C  C550  1  0.062100  0.437900  0.471900  1.0  -0.0875
  C  C551  1  0.088000  0.505200  0.697800  1.0  -0.1487
  C  C552  1  0.437900  0.528100  0.562100  1.0  -0.0862
  C  C553  1  0.276500  0.324800  0.979800  1.0  -0.3642
  C  C554  1  0.751900  0.058100  0.291900  1.0  0.1164
  C  C555  1  0.730600  0.332500  0.940900  1.0  0.1027
  C  C556  1  0.970100  0.987100  0.314700  1.0  -0.0863
  C  C557  1  0.555000  0.062900  0.015100  1.0  0.1582
  C  C558  1  0.537800  0.768500  0.039900  1.0  -0.3671
  C  C559  1  0.513600  0.913200  0.694200  1.0  -0.3453
  C  C560  1  0.891900  0.923500  0.328100  1.0  0.0658
  C  C561  1  0.678800  0.201700  0.059700  1.0  -0.1303
  C  C562  1  0.645200  0.874700  0.338900  1.0  -0.3639
  C  C563  1  0.776000  0.094000  0.527200  1.0  0.301
  C  C564  1  0.464500  0.510900  0.198300  1.0  0.2965
  C  C565  1  0.552300  0.630200  0.013200  1.0  0.0274
  C  C566  1  0.328200  0.344600  0.234800  1.0  0.172
  N  N567  1  0.952800  0.444500  0.882100  1.0  -0.3585
  N  N568  1  0.854000  0.840600  0.559400  1.0  -0.3477
  N  N569  1  0.779400  0.055500  0.617900  1.0  -0.3594
  N  N570  1  0.754000  0.659400  0.940600  1.0  -0.3495
  N  N571  1  0.611100  0.894100  0.517900  1.0  -0.3524
  N  N572  1  0.901400  0.038300  0.926900  1.0  -0.364
  N  N573  1  0.127900  0.775300  0.812500  1.0  -0.3306
  N  N574  1  0.547200  0.117900  0.555500  1.0  -0.3591
  N  N575  1  0.720600  0.382100  0.944500  1.0  -0.3572
  N  N576  1  0.976900  0.017900  0.394100  1.0  -0.3552
  N  N577  1  0.284300  0.312500  0.275300  1.0  -0.3303
  N  N578  1  0.598600  0.073100  0.961700  1.0  -0.3682
  N  N579  1  0.215700  0.724700  0.687500  1.0  -0.3333
  N  N580  1  0.523100  0.605900  0.982100  1.0  -0.3541
  N  N581  1  0.746000  0.059400  0.340600  1.0  -0.3519
  N  N582  1  0.888900  0.482100  0.105900  1.0  -0.3546
  N  N583  1  0.372100  0.187500  0.224700  1.0  -0.3275
  N  N584  1  0.133400  0.426900  0.538300  1.0  -0.3649
  N  N585  1  0.646000  0.440600  0.159400  1.0  -0.3523
  N  N586  1  0.366600  0.461700  0.573100  1.0  -0.3648
  O  O587  1  0.566300  0.037800  0.453800  1.0  -0.787
  O  O588  1  0.010300  0.855000  0.478000  1.0  -0.573
  O  O589  1  0.248700  0.281600  0.167800  1.0  -0.5669
  O  O590  1  0.991800  0.058800  0.481600  1.0  -0.5657
  O  O591  1  0.657800  0.341700  0.056700  1.0  -0.5717
  O  O592  1  0.843300  0.645000  0.022000  1.0  -0.5723
  O  O593  1  0.626900  0.016700  0.543100  1.0  -0.804
  O  O594  1  0.943800  0.556700  0.841700  1.0  -0.577
  O  O595  1  0.137300  0.319000  0.231400  1.0  -0.5987
  O  O596  1  0.717900  0.106000  0.016600  1.0  -0.6167
  O  O597  1  0.312300  0.731400  0.819000  1.0  -0.594
  O  O598  1  0.942100  0.953800  0.537800  1.0  -0.783
  O  O599  1  0.825000  0.889800  0.993000  1.0  -0.5223
  O  O600  1  0.626400  0.542700  0.041500  1.0  -0.8351
  O  O601  1  0.556200  0.158300  0.443300  1.0  -0.5693
  O  O602  1  0.782100  0.983400  0.894000  1.0  -0.6174
  O  O603  1  0.711100  0.063300  0.445100  1.0  -0.8046
  O  O604  1  0.032200  0.441200  0.018400  1.0  -0.5699
  O  O605  1  0.873100  0.456900  0.983300  1.0  -0.8046
  O  O606  1  0.417200  0.433700  0.390700  1.0  -0.5401
  O  O607  1  0.082800  0.609300  0.566300  1.0  -0.5387
  O  O608  1  0.557900  0.462200  0.046200  1.0  -0.7811
  O  O609  1  0.301900  0.667800  0.781600  1.0  -0.5643
  O  O610  1  0.734300  0.148600  0.934800  1.0  -0.6159
  O  O611  1  0.741600  0.066300  0.109300  1.0  -0.5379
  O  O612  1  0.362700  0.768600  0.681000  1.0  -0.5958
  O  O613  1  0.789400  0.541500  0.042700  1.0  -0.8345
  O  O614  1  0.933700  0.546200  0.962200  1.0  -0.7791
  O  O615  1  0.187700  0.181000  0.268600  1.0  -0.5953
  O  O616  1  0.675000  0.007000  0.110200  1.0  -0.5206
  O  O617  1  0.765700  0.065200  0.851400  1.0  -0.6183
  O  O618  1  0.710600  0.957300  0.458500  1.0  -0.8335
  O  O619  1  0.813300  0.043100  0.516700  1.0  -0.8059
  O  O620  1  0.207800  0.610200  0.507000  1.0  -0.5211
  O  O621  1  0.719500  0.436700  0.054900  1.0  -0.805
  O  O622  1  0.842200  0.943300  0.658300  1.0  -0.5689
  O  O623  1  0.251300  0.832200  0.718400  1.0  -0.5665
  O  O624  1  0.292200  0.493000  0.389800  1.0  -0.5198
  O  O625  1  0.467800  0.981600  0.558800  1.0  -0.5692
  O  O626  1  0.656700  0.978000  0.355000  1.0  -0.5712
  O  O627  1  0.489700  0.522000  0.145000  1.0  -0.5741
  O  O628  1  0.508200  0.518400  0.941200  1.0  -0.5668
  O  O629  1  0.686700  0.483300  0.956900  1.0  -0.8057
  O  O630  1  0.873600  0.958500  0.457300  1.0  -0.8336
  O  O631  1  0.198100  0.218400  0.332200  1.0  -0.5644
  O  O632  1  0.780500  0.945100  0.563300  1.0  -0.8058
  O  O633  1  0.159500  0.516600  0.606000  1.0  -0.6178
  O  O634  1  0.340500  0.394000  0.483400  1.0  -0.6172
  O  O635  1  0.317700  0.351400  0.565200  1.0  -0.6218
  O  O636  1  0.788900  0.554900  0.936700  1.0  -0.8027
  O  O637  1  0.758400  0.890700  0.933700  1.0  -0.5449
  O  O638  1  0.182300  0.434800  0.648600  1.0  -0.618
