# generated using pymatgen
data_Zr3H12C24N3O10
_symmetry_space_group_name_H-M   'P 1'
_cell_length_a   39.29290000
_cell_length_b   39.29290000
_cell_length_c   39.29290000
_cell_angle_alpha   60.00000000
_cell_angle_beta   60.00000000
_cell_angle_gamma   60.00000000
_symmetry_Int_Tables_number   1
_chemical_formula_structural   Zr3H12C24N3O10
_chemical_formula_sum   'Zr24 H96 C192 N24 O80'
_cell_volume   42897.03261237
_cell_formula_units_Z   8
loop_
 _symmetry_equiv_pos_site_id
 _symmetry_equiv_pos_as_xyz
  1  'x, y, z'
loop_
 _atom_site_type_symbol
 _atom_site_label
 _atom_site_symmetry_multiplicity
 _atom_site_fract_x
 _atom_site_fract_y
 _atom_site_fract_z
 _atom_site_occupancy
 _atom_site_charge
  Zr  Zr1  1  0.330880  0.950160  0.859480  1.0  1.9774
  Zr  Zr2  1  0.800100  0.891000  0.891000  1.0  1.9638
  Zr  Zr3  1  0.891000  0.891000  0.417900  1.0  1.9481
  Zr  Zr4  1  0.891000  0.417900  0.800100  1.0  1.9657
  Zr  Zr5  1  0.891000  0.800100  0.417900  1.0  1.9677
  Zr  Zr6  1  0.330880  0.859480  0.859480  1.0  1.9745
  Zr  Zr7  1  0.417900  0.800100  0.891000  1.0  1.9712
  Zr  Zr8  1  0.891000  0.891000  0.800100  1.0  1.9523
  Zr  Zr9  1  0.891000  0.417900  0.891000  1.0  1.955
  Zr  Zr10  1  0.417900  0.891000  0.891000  1.0  1.9542
  Zr  Zr11  1  0.859480  0.859480  0.330880  1.0  1.9795
  Zr  Zr12  1  0.859480  0.330880  0.859480  1.0  1.974
  Zr  Zr13  1  0.859480  0.330880  0.950160  1.0  1.967
  Zr  Zr14  1  0.891000  0.800100  0.891000  1.0  1.964
  Zr  Zr15  1  0.859480  0.950160  0.859480  1.0  1.9778
  Zr  Zr16  1  0.859480  0.950160  0.330880  1.0  1.9749
  Zr  Zr17  1  0.950160  0.330880  0.859480  1.0  1.9608
  Zr  Zr18  1  0.417900  0.891000  0.800100  1.0  1.9631
  Zr  Zr19  1  0.950160  0.859480  0.330880  1.0  1.9555
  Zr  Zr20  1  0.800100  0.891000  0.417900  1.0  1.9678
  Zr  Zr21  1  0.330880  0.859480  0.950160  1.0  1.9653
  Zr  Zr22  1  0.950160  0.859480  0.859480  1.0  1.9594
  Zr  Zr23  1  0.800100  0.417900  0.891000  1.0  1.9644
  Zr  Zr24  1  0.859480  0.859480  0.950160  1.0  1.9771
  H  H25  1  0.603170  0.680210  0.925950  1.0  0.0884
  H  H26  1  0.958180  0.828440  0.144740  1.0  0.0912
  H  H27  1  0.535180  0.829480  0.916320  1.0  0.0954
  H  H28  1  0.029830  0.212730  0.919370  1.0  0.0926
  H  H29  1  0.680210  0.790670  0.603170  1.0  0.0883
  H  H30  1  0.828440  0.958180  0.068640  1.0  0.0904
  H  H31  1  0.838070  0.212730  0.029830  1.0  0.0911
  H  H32  1  0.212730  0.838070  0.029830  1.0  0.0923
  H  H33  1  0.916320  0.719020  0.829480  1.0  0.0937
  H  H34  1  0.719020  0.535180  0.916320  1.0  0.0919
  H  H35  1  0.719020  0.535180  0.829480  1.0  0.0926
  H  H36  1  0.829480  0.916320  0.535180  1.0  0.0929
  H  H37  1  0.144740  0.068640  0.828440  1.0  0.0896
  H  H38  1  0.828440  0.068640  0.958180  1.0  0.0927
  H  H39  1  0.212730  0.029830  0.838070  1.0  0.0918
  H  H40  1  0.925950  0.680210  0.790670  1.0  0.0902
  H  H41  1  0.925950  0.790670  0.680210  1.0  0.0885
  H  H42  1  0.919370  0.838070  0.029830  1.0  0.0934
  H  H43  1  0.958180  0.068640  0.144740  1.0  0.0913
  H  H44  1  0.144740  0.828440  0.068640  1.0  0.0913
  H  H45  1  0.916320  0.535180  0.719020  1.0  0.0913
  H  H46  1  0.916320  0.719020  0.535180  1.0  0.0926
  H  H47  1  0.916320  0.829480  0.719020  1.0  0.0947
  H  H48  1  0.680210  0.603170  0.790670  1.0  0.0884
  H  H49  1  0.212730  0.919370  0.029830  1.0  0.0932
  H  H50  1  0.916320  0.535180  0.829480  1.0  0.0925
  H  H51  1  0.535180  0.719020  0.916320  1.0  0.0918
  H  H52  1  0.068640  0.958180  0.828440  1.0  0.0903
  H  H53  1  0.925950  0.680210  0.603170  1.0  0.0901
  H  H54  1  0.680210  0.790670  0.925950  1.0  0.0885
  H  H55  1  0.603170  0.925950  0.790670  1.0  0.0885
  H  H56  1  0.144740  0.958180  0.828440  1.0  0.0913
  H  H57  1  0.144740  0.958180  0.068640  1.0  0.0913
  H  H58  1  0.029830  0.838070  0.919370  1.0  0.093
  H  H59  1  0.919370  0.029830  0.212730  1.0  0.0932
  H  H60  1  0.719020  0.829480  0.916320  1.0  0.0941
  H  H61  1  0.838070  0.212730  0.919370  1.0  0.0912
  H  H62  1  0.958180  0.144740  0.068640  1.0  0.0912
  H  H63  1  0.838070  0.029830  0.919370  1.0  0.0932
  H  H64  1  0.535180  0.916320  0.719020  1.0  0.0923
  H  H65  1  0.838070  0.919370  0.029830  1.0  0.0931
  H  H66  1  0.535180  0.719020  0.829480  1.0  0.0926
  H  H67  1  0.680210  0.925950  0.603170  1.0  0.0891
  H  H68  1  0.919370  0.212730  0.838070  1.0  0.0934
  H  H69  1  0.790670  0.603170  0.925950  1.0  0.0884
  H  H70  1  0.790670  0.925950  0.680210  1.0  0.0889
  H  H71  1  0.958180  0.144740  0.828440  1.0  0.091
  H  H72  1  0.925950  0.603170  0.680210  1.0  0.0879
  H  H73  1  0.535180  0.916320  0.829480  1.0  0.0936
  H  H74  1  0.719020  0.916320  0.535180  1.0  0.0922
  H  H75  1  0.829480  0.535180  0.719020  1.0  0.0931
  H  H76  1  0.212730  0.838070  0.919370  1.0  0.0932
  H  H77  1  0.916320  0.829480  0.535180  1.0  0.0941
  H  H78  1  0.958180  0.828440  0.068640  1.0  0.0911
  H  H79  1  0.680210  0.925950  0.790670  1.0  0.089
  H  H80  1  0.603170  0.925950  0.680210  1.0  0.0882
  H  H81  1  0.829480  0.916320  0.719020  1.0  0.0935
  H  H82  1  0.925950  0.790670  0.603170  1.0  0.0892
  H  H83  1  0.958180  0.068640  0.828440  1.0  0.0913
  H  H84  1  0.029830  0.919370  0.212730  1.0  0.0926
  H  H85  1  0.828440  0.068640  0.144740  1.0  0.0922
  H  H86  1  0.790670  0.603170  0.680210  1.0  0.0888
  H  H87  1  0.828440  0.958180  0.144740  1.0  0.0911
  H  H88  1  0.068640  0.828440  0.958180  1.0  0.0914
  H  H89  1  0.790670  0.925950  0.603170  1.0  0.0887
  H  H90  1  0.838070  0.029830  0.212730  1.0  0.0927
  H  H91  1  0.719020  0.916320  0.829480  1.0  0.0931
  H  H92  1  0.790670  0.680210  0.603170  1.0  0.0893
  H  H93  1  0.919370  0.838070  0.212730  1.0  0.094
  H  H94  1  0.144740  0.068640  0.958180  1.0  0.0906
  H  H95  1  0.919370  0.212730  0.029830  1.0  0.0921
  H  H96  1  0.029830  0.838070  0.212730  1.0  0.0925
  H  H97  1  0.029830  0.919370  0.838070  1.0  0.0936
  H  H98  1  0.603170  0.790670  0.680210  1.0  0.0889
  H  H99  1  0.925950  0.603170  0.790670  1.0  0.0879
  H  H100  1  0.919370  0.029830  0.838070  1.0  0.0941
  H  H101  1  0.212730  0.919370  0.838070  1.0  0.0945
  H  H102  1  0.068640  0.144740  0.828440  1.0  0.0904
  H  H103  1  0.068640  0.828440  0.144740  1.0  0.0911
  H  H104  1  0.829480  0.719020  0.535180  1.0  0.094
  H  H105  1  0.790670  0.680210  0.925950  1.0  0.0895
  H  H106  1  0.068640  0.958180  0.144740  1.0  0.0905
  H  H107  1  0.719020  0.829480  0.535180  1.0  0.0942
  H  H108  1  0.535180  0.829480  0.719020  1.0  0.0947
  H  H109  1  0.829480  0.535180  0.916320  1.0  0.0939
  H  H110  1  0.838070  0.919370  0.212730  1.0  0.0935
  H  H111  1  0.680210  0.603170  0.925950  1.0  0.0886
  H  H112  1  0.068640  0.144740  0.958180  1.0  0.0912
  H  H113  1  0.603170  0.790670  0.925950  1.0  0.0891
  H  H114  1  0.828440  0.144740  0.068640  1.0  0.0908
  H  H115  1  0.829480  0.719020  0.916320  1.0  0.0944
  H  H116  1  0.144740  0.828440  0.958180  1.0  0.0917
  H  H117  1  0.603170  0.680210  0.790670  1.0  0.0885
  H  H118  1  0.029830  0.212730  0.838070  1.0  0.0917
  H  H119  1  0.212730  0.029830  0.919370  1.0  0.0926
  H  H120  1  0.828440  0.144740  0.958180  1.0  0.0912
  C  C121  1  0.918820  0.796800  0.734940  1.0  -0.1012
  C  C122  1  0.827940  0.016500  0.016500  1.0  -0.1124
  C  C123  1  0.971390  0.838990  0.218230  1.0  -0.1257
  C  C124  1  0.827940  0.139060  0.016500  1.0  -0.1127
  C  C125  1  0.946760  0.946760  0.848620  1.0  0.6499
  C  C126  1  0.712670  0.924290  0.588530  1.0  -0.0238
  C  C127  1  0.915400  0.529680  0.777460  1.0  -0.1232
  C  C128  1  0.974340  0.036180  0.159380  1.0  -0.0506
  C  C129  1  0.709650  0.928990  0.651710  1.0  0.4384
  C  C130  1  0.732350  0.608850  0.926450  1.0  -0.0584
  C  C131  1  0.549440  0.734940  0.918820  1.0  -0.0998
  C  C132  1  0.835570  0.952050  0.013910  1.0  -0.111
  C  C133  1  0.490050  0.802090  0.802090  1.0  0.6876
  C  C134  1  0.974340  0.036180  0.830100  1.0  -0.0513
  C  C135  1  0.796800  0.549440  0.734940  1.0  -0.0983
  C  C136  1  0.013910  0.835570  0.198470  1.0  -0.1083
  C  C137  1  0.825400  0.039200  0.096200  1.0  0.4792
  C  C138  1  0.198470  0.013910  0.835570  1.0  -0.1099
  C  C139  1  0.777460  0.777460  0.915400  1.0  -0.1247
  C  C140  1  0.588530  0.924290  0.774510  1.0  -0.0246
  C  C141  1  0.013910  0.198470  0.835570  1.0  -0.1082
  C  C142  1  0.971390  0.218230  0.838990  1.0  -0.1248
  C  C143  1  0.198470  0.952050  0.835570  1.0  -0.11
  C  C144  1  0.924290  0.712670  0.588530  1.0  -0.0286
  C  C145  1  0.971390  0.838990  0.971390  1.0  -0.1258
  C  C146  1  0.918820  0.734940  0.549440  1.0  -0.1012
  C  C147  1  0.712670  0.774510  0.924290  1.0  -0.0248
  C  C148  1  0.159380  0.974340  0.830100  1.0  -0.0463
  C  C149  1  0.712670  0.774510  0.588530  1.0  -0.0255
  C  C150  1  0.732350  0.732350  0.926450  1.0  -0.0587
  C  C151  1  0.827940  0.016500  0.139060  1.0  -0.1126
  C  C152  1  0.198470  0.835570  0.013910  1.0  -0.1099
  C  C153  1  0.734940  0.796800  0.549440  1.0  -0.1026
  C  C154  1  0.952050  0.835570  0.198470  1.0  -0.1068
  C  C155  1  0.039200  0.096200  0.825400  1.0  0.4768
  C  C156  1  0.651710  0.709650  0.709650  1.0  0.4392
  C  C157  1  0.036180  0.830100  0.159380  1.0  -0.0449
  C  C158  1  0.974340  0.830100  0.159380  1.0  -0.044
  C  C159  1  0.802090  0.802090  0.490050  1.0  0.6881
  C  C160  1  0.734940  0.918820  0.796800  1.0  -0.0977
  C  C161  1  0.918820  0.734940  0.796800  1.0  -0.1008
  C  C162  1  0.905770  0.802090  0.490050  1.0  0.6876
  C  C163  1  0.734940  0.549440  0.796800  1.0  -0.099
  C  C164  1  0.257860  0.946760  0.946760  1.0  0.6472
  C  C165  1  0.588530  0.774510  0.712670  1.0  -0.0268
  C  C166  1  0.825400  0.096200  0.039200  1.0  0.4763
  C  C167  1  0.830100  0.159380  0.974340  1.0  -0.0445
  C  C168  1  0.139060  0.016500  0.016500  1.0  -0.1123
  C  C169  1  0.218230  0.971390  0.838990  1.0  -0.1248
  C  C170  1  0.549440  0.796800  0.918820  1.0  -0.1008
  C  C171  1  0.159380  0.830100  0.036180  1.0  -0.0449
  C  C172  1  0.774510  0.588530  0.924290  1.0  -0.0229
  C  C173  1  0.974340  0.159380  0.830100  1.0  -0.0444
  C  C174  1  0.036180  0.159380  0.974340  1.0  -0.0458
  C  C175  1  0.608850  0.732350  0.926450  1.0  -0.0586
  C  C176  1  0.529680  0.777460  0.915400  1.0  -0.1252
  C  C177  1  0.974340  0.159380  0.036180  1.0  -0.0446
  C  C178  1  0.529680  0.915400  0.777460  1.0  -0.1244
  C  C179  1  0.924290  0.588530  0.774510  1.0  -0.0244
  C  C180  1  0.016500  0.139060  0.016500  1.0  -0.1112
  C  C181  1  0.825400  0.039200  0.039200  1.0  0.4791
  C  C182  1  0.952050  0.013910  0.198470  1.0  -0.1103
  C  C183  1  0.218230  0.971390  0.971390  1.0  -0.1247
  C  C184  1  0.796800  0.734940  0.918820  1.0  -0.1012
  C  C185  1  0.490050  0.802090  0.905770  1.0  0.6887
  C  C186  1  0.802090  0.905770  0.490050  1.0  0.6852
  C  C187  1  0.835570  0.013910  0.952050  1.0  -0.1104
  C  C188  1  0.588530  0.924290  0.712670  1.0  -0.025
  C  C189  1  0.549440  0.918820  0.796800  1.0  -0.0969
  C  C190  1  0.835570  0.013910  0.198470  1.0  -0.1103
  C  C191  1  0.926450  0.608850  0.732350  1.0  -0.0591
  C  C192  1  0.838990  0.971390  0.218230  1.0  -0.1245
  C  C193  1  0.774510  0.712670  0.924290  1.0  -0.0269
  C  C194  1  0.159380  0.036180  0.830100  1.0  -0.0488
  C  C195  1  0.946760  0.848620  0.257860  1.0  0.6462
  C  C196  1  0.802090  0.490050  0.802090  1.0  0.6875
  C  C197  1  0.802090  0.802090  0.905770  1.0  0.6884
  C  C198  1  0.036180  0.830100  0.974340  1.0  -0.0455
  C  C199  1  0.796800  0.918820  0.549440  1.0  -0.0971
  C  C200  1  0.549440  0.918820  0.734940  1.0  -0.0977
  C  C201  1  0.838990  0.971390  0.971390  1.0  -0.125
  C  C202  1  0.016500  0.016500  0.139060  1.0  -0.1118
  C  C203  1  0.830100  0.036180  0.159380  1.0  -0.0509
  C  C204  1  0.732350  0.926450  0.732350  1.0  -0.0584
  C  C205  1  0.796800  0.549440  0.918820  1.0  -0.0977
  C  C206  1  0.013910  0.835570  0.952050  1.0  -0.1084
  C  C207  1  0.651710  0.709650  0.928990  1.0  0.4371
  C  C208  1  0.924290  0.588530  0.712670  1.0  -0.0243
  C  C209  1  0.709650  0.651710  0.709650  1.0  0.4399
  C  C210  1  0.796800  0.918820  0.734940  1.0  -0.0977
  C  C211  1  0.712670  0.588530  0.774510  1.0  -0.024
  C  C212  1  0.971390  0.971390  0.218230  1.0  -0.1253
  C  C213  1  0.608850  0.732350  0.732350  1.0  -0.0633
  C  C214  1  0.016500  0.827940  0.016500  1.0  -0.1114
  C  C215  1  0.777460  0.529680  0.777460  1.0  -0.125
  C  C216  1  0.016500  0.016500  0.827940  1.0  -0.1119
  C  C217  1  0.709650  0.651710  0.928990  1.0  0.4374
  C  C218  1  0.830100  0.974340  0.036180  1.0  -0.0456
  C  C219  1  0.096200  0.039200  0.825400  1.0  0.4766
  C  C220  1  0.848620  0.946760  0.946760  1.0  0.6501
  C  C221  1  0.774510  0.588530  0.712670  1.0  -0.0231
  C  C222  1  0.905770  0.490050  0.802090  1.0  0.6868
  C  C223  1  0.139060  0.016500  0.827940  1.0  -0.1123
  C  C224  1  0.774510  0.924290  0.712670  1.0  -0.0228
  C  C225  1  0.198470  0.013910  0.952050  1.0  -0.1098
  C  C226  1  0.928990  0.709650  0.651710  1.0  0.4388
  C  C227  1  0.848620  0.946760  0.257860  1.0  0.6499
  C  C228  1  0.651710  0.928990  0.709650  1.0  0.4379
  C  C229  1  0.915400  0.777460  0.777460  1.0  -0.1234
  C  C230  1  0.802090  0.905770  0.802090  1.0  0.6853
  C  C231  1  0.732350  0.926450  0.608850  1.0  -0.0584
  C  C232  1  0.588530  0.712670  0.924290  1.0  -0.0263
  C  C233  1  0.013910  0.952050  0.198470  1.0  -0.11
  C  C234  1  0.016500  0.139060  0.827940  1.0  -0.1112
  C  C235  1  0.039200  0.039200  0.825400  1.0  0.4749
  C  C236  1  0.257860  0.848620  0.946760  1.0  0.644
  C  C237  1  0.774510  0.924290  0.588530  1.0  -0.023
  C  C238  1  0.928990  0.709650  0.709650  1.0  0.4392
  C  C239  1  0.835570  0.952050  0.198470  1.0  -0.1101
  C  C240  1  0.013910  0.198470  0.952050  1.0  -0.1088
  C  C241  1  0.734940  0.918820  0.549440  1.0  -0.0978
  C  C242  1  0.928990  0.651710  0.709650  1.0  0.4378
  C  C243  1  0.490050  0.905770  0.802090  1.0  0.6828
  C  C244  1  0.835570  0.198470  0.952050  1.0  -0.1073
  C  C245  1  0.608850  0.926450  0.732350  1.0  -0.0579
  C  C246  1  0.036180  0.159380  0.830100  1.0  -0.0453
  C  C247  1  0.198470  0.835570  0.952050  1.0  -0.1076
  C  C248  1  0.838990  0.218230  0.971390  1.0  -0.1245
  C  C249  1  0.946760  0.848620  0.946760  1.0  0.6456
  C  C250  1  0.926450  0.732350  0.608850  1.0  -0.0592
  C  C251  1  0.096200  0.039200  0.039200  1.0  0.4766
  C  C252  1  0.952050  0.835570  0.013910  1.0  -0.1082
  C  C253  1  0.774510  0.712670  0.588530  1.0  -0.0272
  C  C254  1  0.036180  0.974340  0.159380  1.0  -0.0467
  C  C255  1  0.039200  0.825400  0.096200  1.0  0.4782
  C  C256  1  0.159380  0.974340  0.036180  1.0  -0.0469
  C  C257  1  0.802090  0.490050  0.905770  1.0  0.6886
  C  C258  1  0.712670  0.924290  0.774510  1.0  -0.0238
  C  C259  1  0.918820  0.796800  0.549440  1.0  -0.1005
  C  C260  1  0.709650  0.928990  0.709650  1.0  0.4391
  C  C261  1  0.952050  0.198470  0.835570  1.0  -0.1071
  C  C262  1  0.974340  0.830100  0.036180  1.0  -0.0435
  C  C263  1  0.971390  0.218230  0.971390  1.0  -0.1246
  C  C264  1  0.549440  0.734940  0.796800  1.0  -0.1006
  C  C265  1  0.905770  0.802090  0.802090  1.0  0.6879
  C  C266  1  0.924290  0.712670  0.774510  1.0  -0.0285
  C  C267  1  0.946760  0.946760  0.257860  1.0  0.6503
  C  C268  1  0.139060  0.827940  0.016500  1.0  -0.1111
  C  C269  1  0.952050  0.013910  0.835570  1.0  -0.1107
  C  C270  1  0.257860  0.946760  0.848620  1.0  0.648
  C  C271  1  0.777460  0.529680  0.915400  1.0  -0.1245
  C  C272  1  0.926450  0.732350  0.732350  1.0  -0.0591
  C  C273  1  0.096200  0.825400  0.039200  1.0  0.4749
  C  C274  1  0.924290  0.774510  0.712670  1.0  -0.0244
  C  C275  1  0.946760  0.257860  0.848620  1.0  0.6486
  C  C276  1  0.734940  0.549440  0.918820  1.0  -0.098
  C  C277  1  0.777460  0.915400  0.777460  1.0  -0.1243
  C  C278  1  0.796800  0.734940  0.549440  1.0  -0.1016
  C  C279  1  0.918820  0.549440  0.796800  1.0  -0.0975
  C  C280  1  0.159380  0.036180  0.974340  1.0  -0.048
  C  C281  1  0.830100  0.974340  0.159380  1.0  -0.0464
  C  C282  1  0.848620  0.257860  0.946760  1.0  0.6504
  C  C283  1  0.918820  0.549440  0.734940  1.0  -0.0987
  C  C284  1  0.734940  0.796800  0.918820  1.0  -0.1024
  C  C285  1  0.946760  0.257860  0.946760  1.0  0.6478
  C  C286  1  0.588530  0.774510  0.924290  1.0  -0.0262
  C  C287  1  0.971390  0.971390  0.838990  1.0  -0.1263
  C  C288  1  0.732350  0.608850  0.732350  1.0  -0.0628
  C  C289  1  0.529680  0.777460  0.777460  1.0  -0.1255
  C  C290  1  0.039200  0.825400  0.039200  1.0  0.4784
  C  C291  1  0.915400  0.777460  0.529680  1.0  -0.1236
  C  C292  1  0.016500  0.827940  0.139060  1.0  -0.1112
  C  C293  1  0.159380  0.830100  0.974340  1.0  -0.0447
  C  C294  1  0.924290  0.774510  0.588530  1.0  -0.0247
  C  C295  1  0.830100  0.159380  0.036180  1.0  -0.0446
  C  C296  1  0.218230  0.838990  0.971390  1.0  -0.1257
  C  C297  1  0.198470  0.952050  0.013910  1.0  -0.111
  C  C298  1  0.039200  0.039200  0.096200  1.0  0.4757
  C  C299  1  0.036180  0.974340  0.830100  1.0  -0.0467
  C  C300  1  0.952050  0.198470  0.013910  1.0  -0.1098
  C  C301  1  0.709650  0.709650  0.651710  1.0  0.4397
  C  C302  1  0.712670  0.588530  0.924290  1.0  -0.0234
  C  C303  1  0.830100  0.036180  0.974340  1.0  -0.0511
  C  C304  1  0.835570  0.198470  0.013910  1.0  -0.1094
  C  C305  1  0.588530  0.712670  0.774510  1.0  -0.0263
  C  C306  1  0.777460  0.777460  0.529680  1.0  -0.1254
  C  C307  1  0.013910  0.952050  0.835570  1.0  -0.1106
  C  C308  1  0.039200  0.096200  0.039200  1.0  0.4769
  C  C309  1  0.549440  0.796800  0.734940  1.0  -0.1005
  C  C310  1  0.732350  0.732350  0.608850  1.0  -0.0633
  C  C311  1  0.777460  0.915400  0.529680  1.0  -0.1246
  C  C312  1  0.709650  0.709650  0.928990  1.0  0.4384
  N  N313  1  0.077570  0.823790  0.021070  1.0  -0.3997
  N  N314  1  0.670810  0.728250  0.930130  1.0  -0.4396
  N  N315  1  0.077570  0.823790  0.077570  1.0  -0.3981
  N  N316  1  0.728250  0.670810  0.930130  1.0  -0.4387
  N  N317  1  0.930130  0.670810  0.670810  1.0  -0.4386
  N  N318  1  0.021070  0.077570  0.077570  1.0  -0.399
  N  N319  1  0.077570  0.077570  0.021070  1.0  -0.4009
  N  N320  1  0.670810  0.670810  0.728250  1.0  -0.4399
  N  N321  1  0.670810  0.728250  0.670810  1.0  -0.4415
  N  N322  1  0.670810  0.930130  0.670810  1.0  -0.4363
  N  N323  1  0.728250  0.930130  0.670810  1.0  -0.4391
  N  N324  1  0.670810  0.930130  0.728250  1.0  -0.4368
  N  N325  1  0.077570  0.077570  0.823790  1.0  -0.4004
  N  N326  1  0.930130  0.728250  0.670810  1.0  -0.4365
  N  N327  1  0.823790  0.077570  0.077570  1.0  -0.3994
  N  N328  1  0.077570  0.021070  0.077570  1.0  -0.4008
  N  N329  1  0.670810  0.670810  0.930130  1.0  -0.4382
  N  N330  1  0.021070  0.077570  0.823790  1.0  -0.3991
  N  N331  1  0.021070  0.823790  0.077570  1.0  -0.3981
  N  N332  1  0.823790  0.021070  0.077570  1.0  -0.3996
  N  N333  1  0.077570  0.021070  0.823790  1.0  -0.4007
  N  N334  1  0.728250  0.670810  0.670810  1.0  -0.4409
  N  N335  1  0.930130  0.670810  0.728250  1.0  -0.4381
  N  N336  1  0.823790  0.077570  0.021070  1.0  -0.3991
  O  O337  1  0.837270  0.837270  0.397770  1.0  -0.8732
  O  O338  1  0.927690  0.837270  0.397770  1.0  -0.8666
  O  O339  1  0.907560  0.273560  0.853180  1.0  -0.6681
  O  O340  1  0.783150  0.474350  0.901210  1.0  -0.6484
  O  O341  1  0.896820  0.896820  0.309540  1.0  -1.0537
  O  O342  1  0.853180  0.965700  0.273560  1.0  -0.6714
  O  O343  1  0.853180  0.907560  0.273560  1.0  -0.6699
  O  O344  1  0.474350  0.783150  0.841290  1.0  -0.6513
  O  O345  1  0.841290  0.901210  0.783150  1.0  -0.6509
  O  O346  1  0.853180  0.273560  0.965700  1.0  -0.6675
  O  O347  1  0.309540  0.896820  0.896820  1.0  -1.0551
  O  O348  1  0.853550  0.439350  0.853550  1.0  -1.0814
  O  O349  1  0.474350  0.841290  0.901210  1.0  -0.6512
  O  O350  1  0.913160  0.350520  0.823160  1.0  -0.879
  O  O351  1  0.965700  0.273560  0.907560  1.0  -0.6689
  O  O352  1  0.474350  0.901210  0.783150  1.0  -0.6513
  O  O353  1  0.474350  0.783150  0.901210  1.0  -0.65
  O  O354  1  0.397770  0.837270  0.927690  1.0  -0.8647
  O  O355  1  0.907560  0.273560  0.965700  1.0  -0.6682
  O  O356  1  0.913160  0.823160  0.913160  1.0  -0.8707
  O  O357  1  0.965700  0.907560  0.853180  1.0  -0.6708
  O  O358  1  0.841290  0.474350  0.901210  1.0  -0.6492
  O  O359  1  0.439350  0.853550  0.853550  1.0  -1.0828
  O  O360  1  0.837270  0.927690  0.837270  1.0  -0.8644
  O  O361  1  0.965700  0.273560  0.853180  1.0  -0.6698
  O  O362  1  0.783150  0.901210  0.841290  1.0  -0.6507
  O  O363  1  0.965700  0.853180  0.273560  1.0  -0.671
  O  O364  1  0.907560  0.965700  0.853180  1.0  -0.6682
  O  O365  1  0.927690  0.397770  0.837270  1.0  -0.8647
  O  O366  1  0.273560  0.965700  0.853180  1.0  -0.6708
  O  O367  1  0.896820  0.896820  0.896820  1.0  -1.0534
  O  O368  1  0.350520  0.823160  0.913160  1.0  -0.8701
  O  O369  1  0.901210  0.841290  0.474350  1.0  -0.6521
  O  O370  1  0.841290  0.901210  0.474350  1.0  -0.6511
  O  O371  1  0.273560  0.853180  0.965700  1.0  -0.6679
  O  O372  1  0.841290  0.783150  0.474350  1.0  -0.6499
  O  O373  1  0.837270  0.927690  0.397770  1.0  -0.8638
  O  O374  1  0.474350  0.841290  0.783150  1.0  -0.6519
  O  O375  1  0.837270  0.837270  0.927690  1.0  -0.872
  O  O376  1  0.350520  0.913160  0.913160  1.0  -0.8732
  O  O377  1  0.901210  0.841290  0.783150  1.0  -0.6517
  O  O378  1  0.823160  0.913160  0.350520  1.0  -0.8753
  O  O379  1  0.901210  0.783150  0.474350  1.0  -0.6516
  O  O380  1  0.913160  0.350520  0.913160  1.0  -0.8722
  O  O381  1  0.853180  0.965700  0.907560  1.0  -0.67
  O  O382  1  0.896820  0.309540  0.896820  1.0  -1.0537
  O  O383  1  0.783150  0.841290  0.474350  1.0  -0.6514
  O  O384  1  0.853180  0.273560  0.907560  1.0  -0.668
  O  O385  1  0.837270  0.397770  0.927690  1.0  -0.865
  O  O386  1  0.783150  0.841290  0.901210  1.0  -0.6505
  O  O387  1  0.273560  0.853180  0.907560  1.0  -0.6668
  O  O388  1  0.853550  0.853550  0.439350  1.0  -1.0816
  O  O389  1  0.841290  0.474350  0.783150  1.0  -0.6498
  O  O390  1  0.913160  0.913160  0.350520  1.0  -0.8808
  O  O391  1  0.901210  0.783150  0.841290  1.0  -0.6515
  O  O392  1  0.783150  0.474350  0.841290  1.0  -0.6487
  O  O393  1  0.397770  0.837270  0.837270  1.0  -0.87
  O  O394  1  0.823160  0.350520  0.913160  1.0  -0.8721
  O  O395  1  0.841290  0.783150  0.901210  1.0  -0.6503
  O  O396  1  0.901210  0.474350  0.841290  1.0  -0.6499
  O  O397  1  0.927690  0.837270  0.837270  1.0  -0.8675
  O  O398  1  0.913160  0.913160  0.823160  1.0  -0.8817
  O  O399  1  0.907560  0.853180  0.273560  1.0  -0.6693
  O  O400  1  0.965700  0.907560  0.273560  1.0  -0.6706
  O  O401  1  0.783150  0.901210  0.474350  1.0  -0.6509
  O  O402  1  0.350520  0.913160  0.823160  1.0  -0.8818
  O  O403  1  0.273560  0.965700  0.907560  1.0  -0.67
  O  O404  1  0.965700  0.853180  0.907560  1.0  -0.6699
  O  O405  1  0.474350  0.901210  0.841290  1.0  -0.6502
  O  O406  1  0.273560  0.907560  0.965700  1.0  -0.6697
  O  O407  1  0.907560  0.965700  0.273560  1.0  -0.6677
  O  O408  1  0.837270  0.397770  0.837270  1.0  -0.8699
  O  O409  1  0.273560  0.907560  0.853180  1.0  -0.6706
  O  O410  1  0.913160  0.823160  0.350520  1.0  -0.87
  O  O411  1  0.853550  0.853550  0.853550  1.0  -1.0817
  O  O412  1  0.823160  0.913160  0.913160  1.0  -0.8755
  O  O413  1  0.853180  0.907560  0.965700  1.0  -0.6695
  O  O414  1  0.901210  0.474350  0.783150  1.0  -0.6504
  O  O415  1  0.397770  0.927690  0.837270  1.0  -0.8661
  O  O416  1  0.907560  0.853180  0.965700  1.0  -0.6692
