# generated using pymatgen
data_CdH12C18(NO2)3
_symmetry_space_group_name_H-M   'P 1'
_cell_length_a   24.54200000
_cell_length_b   12.64100000
_cell_length_c   15.44600000
_cell_angle_alpha   90.00000000
_cell_angle_beta   90.00000000
_cell_angle_gamma   90.00000000
_symmetry_Int_Tables_number   1
_chemical_formula_structural   CdH12C18(NO2)3
_chemical_formula_sum   'Cd8 H96 C144 N24 O48'
_cell_volume   4791.89632821
_cell_formula_units_Z   8
loop_
 _symmetry_equiv_pos_site_id
 _symmetry_equiv_pos_as_xyz
  1  'x, y, z'
loop_
 _atom_site_type_symbol
 _atom_site_label
 _atom_site_symmetry_multiplicity
 _atom_site_fract_x
 _atom_site_fract_y
 _atom_site_fract_z
 _atom_site_occupancy
 _atom_site_charge
  Cd  Cd1  1  0.735480  0.673650  0.432490  1.0  0.9483
  Cd  Cd2  1  0.764520  0.826350  0.932490  1.0  0.9469
  Cd  Cd3  1  0.264520  0.673650  0.067510  1.0  0.9489
  Cd  Cd4  1  0.235480  0.826350  0.567510  1.0  0.9472
  Cd  Cd5  1  0.264520  0.326350  0.567510  1.0  0.9495
  Cd  Cd6  1  0.235480  0.173650  0.067510  1.0  0.9475
  Cd  Cd7  1  0.735480  0.326350  0.932490  1.0  0.948
  Cd  Cd8  1  0.764520  0.173650  0.432490  1.0  0.9473
  H  H9  1  0.612800  0.517200  0.971700  1.0  0.1325
  H  H10  1  0.554200  0.585400  0.073200  1.0  0.1234
  H  H11  1  0.587100  0.630900  0.209100  1.0  0.1186
  H  H12  1  0.882200  0.599000  0.112300  1.0  0.1196
  H  H13  1  0.897400  0.442400  0.189300  1.0  0.1239
  H  H14  1  0.825800  0.335600  0.224400  1.0  0.1228
  H  H15  1  0.817200  0.476600  0.388400  1.0  0.0781
  H  H16  1  0.905800  0.425200  0.388700  1.0  0.1436
  H  H17  1  0.942900  0.699900  0.501100  1.0  0.142
  H  H18  1  0.851800  0.741200  0.499100  1.0  0.0715
  H  H19  1  0.016200  0.585200  0.444700  1.0  0.1115
  H  H20  1  0.002100  0.471600  0.410400  1.0  0.1103
  H  H21  1  0.887200  0.982800  0.471700  1.0  0.1326
  H  H22  1  0.945800  0.914600  0.573200  1.0  0.1244
  H  H23  1  0.912900  0.869100  0.709100  1.0  0.1188
  H  H24  1  0.617800  0.901000  0.612300  1.0  0.1194
  H  H25  1  0.602600  0.057600  0.689300  1.0  0.1222
  H  H26  1  0.674200  0.164400  0.724400  1.0  0.1225
  H  H27  1  0.682800  0.023400  0.888400  1.0  0.0784
  H  H28  1  0.594200  0.074800  0.888700  1.0  0.1435
  H  H29  1  0.557100  0.800100  0.001100  1.0  0.1425
  H  H30  1  0.648200  0.758800  0.999100  1.0  0.072
  H  H31  1  0.483800  0.914800  0.944700  1.0  0.1114
  H  H32  1  0.497900  0.028400  0.910400  1.0  0.1108
  H  H33  1  0.387200  0.517200  0.528300  1.0  0.1324
  H  H34  1  0.445800  0.585400  0.426800  1.0  0.1239
  H  H35  1  0.412900  0.630900  0.290900  1.0  0.1188
  H  H36  1  0.117800  0.599000  0.387700  1.0  0.1195
  H  H37  1  0.102600  0.442400  0.310700  1.0  0.1229
  H  H38  1  0.174200  0.335600  0.275600  1.0  0.1227
  H  H39  1  0.182800  0.476600  0.111600  1.0  0.0785
  H  H40  1  0.094200  0.425200  0.111300  1.0  0.1438
  H  H41  1  0.057100  0.699900  0.998900  1.0  0.1425
  H  H42  1  0.148200  0.741200  0.000900  1.0  0.0709
  H  H43  1  0.983800  0.585200  0.055300  1.0  0.1119
  H  H44  1  0.997900  0.471600  0.089600  1.0  0.1124
  H  H45  1  0.112800  0.982800  0.028300  1.0  0.1328
  H  H46  1  0.054200  0.914600  0.926800  1.0  0.1234
  H  H47  1  0.087100  0.869100  0.790900  1.0  0.1186
  H  H48  1  0.382200  0.901000  0.887700  1.0  0.1193
  H  H49  1  0.397400  0.057600  0.810700  1.0  0.1243
  H  H50  1  0.325800  0.164400  0.775600  1.0  0.1226
  H  H51  1  0.317200  0.023400  0.611600  1.0  0.0781
  H  H52  1  0.405800  0.074800  0.611300  1.0  0.1432
  H  H53  1  0.442900  0.800100  0.498900  1.0  0.143
  H  H54  1  0.351800  0.758800  0.500900  1.0  0.0722
  H  H55  1  0.516200  0.914800  0.555300  1.0  0.1115
  H  H56  1  0.502100  0.028400  0.589600  1.0  0.111
  H  H57  1  0.387200  0.482800  0.028300  1.0  0.1324
  H  H58  1  0.445800  0.414600  0.926800  1.0  0.124
  H  H59  1  0.412900  0.369100  0.790900  1.0  0.1188
  H  H60  1  0.117800  0.401000  0.887700  1.0  0.1191
  H  H61  1  0.102600  0.557600  0.810700  1.0  0.1227
  H  H62  1  0.174200  0.664400  0.775600  1.0  0.1225
  H  H63  1  0.182800  0.523400  0.611600  1.0  0.0782
  H  H64  1  0.094200  0.574800  0.611300  1.0  0.1433
  H  H65  1  0.057100  0.300100  0.498900  1.0  0.1413
  H  H66  1  0.148200  0.258800  0.500900  1.0  0.0709
  H  H67  1  0.983800  0.414800  0.555300  1.0  0.1121
  H  H68  1  0.997900  0.528400  0.589600  1.0  0.1113
  H  H69  1  0.112800  0.017200  0.528300  1.0  0.1333
  H  H70  1  0.054200  0.085400  0.426800  1.0  0.1232
  H  H71  1  0.087100  0.130900  0.290900  1.0  0.1185
  H  H72  1  0.382200  0.099000  0.387700  1.0  0.1193
  H  H73  1  0.397400  0.942400  0.310700  1.0  0.1241
  H  H74  1  0.325800  0.835600  0.275600  1.0  0.1227
  H  H75  1  0.317200  0.976600  0.111600  1.0  0.0784
  H  H76  1  0.405800  0.925200  0.111300  1.0  0.1438
  H  H77  1  0.442900  0.199900  0.998900  1.0  0.1422
  H  H78  1  0.351800  0.241200  0.000900  1.0  0.0724
  H  H79  1  0.516200  0.085200  0.055300  1.0  0.1111
  H  H80  1  0.502100  0.971600  0.089600  1.0  0.1122
  H  H81  1  0.612800  0.482800  0.471700  1.0  0.1322
  H  H82  1  0.554200  0.414600  0.573200  1.0  0.1236
  H  H83  1  0.587100  0.369100  0.709100  1.0  0.1186
  H  H84  1  0.882200  0.401000  0.612300  1.0  0.1197
  H  H85  1  0.897400  0.557600  0.689300  1.0  0.124
  H  H86  1  0.825800  0.664400  0.724400  1.0  0.1225
  H  H87  1  0.817200  0.523400  0.888400  1.0  0.0783
  H  H88  1  0.905800  0.574800  0.888700  1.0  0.1434
  H  H89  1  0.942900  0.300100  0.001100  1.0  0.1417
  H  H90  1  0.851800  0.258800  0.999100  1.0  0.0712
  H  H91  1  0.016200  0.414800  0.944700  1.0  0.111
  H  H92  1  0.002100  0.528400  0.910400  1.0  0.1105
  H  H93  1  0.887200  0.017200  0.971700  1.0  0.1323
  H  H94  1  0.945800  0.085400  0.073200  1.0  0.1244
  H  H95  1  0.912900  0.130900  0.209100  1.0  0.1188
  H  H96  1  0.617800  0.099000  0.112300  1.0  0.12
  H  H97  1  0.602600  0.942400  0.189300  1.0  0.1227
  H  H98  1  0.674200  0.835600  0.224400  1.0  0.123
  H  H99  1  0.682800  0.976600  0.388400  1.0  0.0782
  H  H100  1  0.594200  0.925200  0.388700  1.0  0.1433
  H  H101  1  0.557100  0.199900  0.501100  1.0  0.1424
  H  H102  1  0.648200  0.241200  0.499100  1.0  0.0721
  H  H103  1  0.483800  0.085200  0.444700  1.0  0.1119
  H  H104  1  0.497900  0.971600  0.410400  1.0  0.1105
  C  C105  1  0.625600  0.535400  0.026300  1.0  0.0181
  C  C106  1  0.590800  0.575700  0.086500  1.0  -0.129
  C  C107  1  0.610600  0.602200  0.168100  1.0  -0.0372
  C  C108  1  0.664100  0.586800  0.188900  1.0  -0.1343
  C  C109  1  0.698500  0.545600  0.126300  1.0  0.0702
  C  C110  1  0.757700  0.524200  0.139200  1.0  0.0678
  C  C111  1  0.800600  0.588400  0.112800  1.0  -0.1356
  C  C112  1  0.852900  0.557400  0.130100  1.0  -0.0653
  C  C113  1  0.862100  0.462400  0.174900  1.0  -0.0963
  C  C114  1  0.819600  0.400000  0.197100  1.0  -0.0038
  C  C115  1  0.685200  0.618000  0.277500  1.0  0.7334
  C  C116  1  0.788000  0.687200  0.060400  1.0  0.6956
  C  C117  1  0.843000  0.522900  0.411200  1.0  0.1931
  C  C118  1  0.896200  0.490300  0.412200  1.0  -0.2132
  C  C119  1  0.934900  0.554100  0.447900  1.0  0.1639
  C  C120  1  0.917900  0.652100  0.478600  1.0  -0.2087
  C  C121  1  0.863000  0.677200  0.475300  1.0  0.1934
  C  C122  1  0.993600  0.523500  0.454600  1.0  -0.246
  C  C123  1  0.874400  0.964600  0.526300  1.0  0.0213
  C  C124  1  0.909200  0.924300  0.586500  1.0  -0.1272
  C  C125  1  0.889400  0.897800  0.668100  1.0  -0.0359
  C  C126  1  0.835900  0.913200  0.688900  1.0  -0.1348
  C  C127  1  0.801500  0.954400  0.626300  1.0  0.0711
  C  C128  1  0.742300  0.975800  0.639200  1.0  0.0684
  C  C129  1  0.699400  0.911600  0.612800  1.0  -0.1361
  C  C130  1  0.647100  0.942600  0.630100  1.0  -0.0637
  C  C131  1  0.637900  0.037600  0.674900  1.0  -0.0956
  C  C132  1  0.680400  0.100000  0.697100  1.0  -0.0036
  C  C133  1  0.814800  0.882000  0.777500  1.0  0.7341
  C  C134  1  0.712000  0.812800  0.560400  1.0  0.6947
  C  C135  1  0.657000  0.977100  0.911200  1.0  0.1937
  C  C136  1  0.603800  0.009700  0.912200  1.0  -0.2133
  C  C137  1  0.565100  0.945900  0.947900  1.0  0.1627
  C  C138  1  0.582100  0.847900  0.978600  1.0  -0.2091
  C  C139  1  0.637000  0.822800  0.975300  1.0  0.1926
  C  C140  1  0.506400  0.976500  0.954600  1.0  -0.2459
  C  C141  1  0.374400  0.535400  0.473700  1.0  0.0216
  C  C142  1  0.409200  0.575700  0.413500  1.0  -0.1262
  C  C143  1  0.389400  0.602200  0.331900  1.0  -0.0363
  C  C144  1  0.335900  0.586800  0.311100  1.0  -0.1348
  C  C145  1  0.301500  0.545600  0.373700  1.0  0.0708
  C  C146  1  0.242300  0.524200  0.360800  1.0  0.0684
  C  C147  1  0.199400  0.588400  0.387200  1.0  -0.1362
  C  C148  1  0.147100  0.557400  0.369900  1.0  -0.065
  C  C149  1  0.137900  0.462400  0.325100  1.0  -0.0964
  C  C150  1  0.180400  0.400000  0.302900  1.0  -0.003
  C  C151  1  0.314800  0.618000  0.222500  1.0  0.7339
  C  C152  1  0.212000  0.687200  0.439600  1.0  0.6945
  C  C153  1  0.157000  0.522900  0.088800  1.0  0.194
  C  C154  1  0.103800  0.490300  0.087800  1.0  -0.213
  C  C155  1  0.065100  0.554100  0.052100  1.0  0.1633
  C  C156  1  0.082100  0.652100  0.021400  1.0  -0.2093
  C  C157  1  0.137000  0.677200  0.024700  1.0  0.1925
  C  C158  1  0.006400  0.523500  0.045400  1.0  -0.2468
  C  C159  1  0.125600  0.964600  0.973700  1.0  0.0192
  C  C160  1  0.090800  0.924300  0.913500  1.0  -0.1306
  C  C161  1  0.110600  0.897800  0.831900  1.0  -0.0363
  C  C162  1  0.164100  0.913200  0.811100  1.0  -0.134
  C  C163  1  0.198500  0.954400  0.873700  1.0  0.0703
  C  C164  1  0.257700  0.975800  0.860800  1.0  0.068
  C  C165  1  0.300600  0.911600  0.887200  1.0  -0.1356
  C  C166  1  0.352900  0.942600  0.869900  1.0  -0.0667
  C  C167  1  0.362100  0.037600  0.825100  1.0  -0.0963
  C  C168  1  0.319600  0.100000  0.802900  1.0  -0.0029
  C  C169  1  0.185200  0.882000  0.722500  1.0  0.7345
  C  C170  1  0.288000  0.812800  0.939600  1.0  0.6958
  C  C171  1  0.343000  0.977100  0.588800  1.0  0.1931
  C  C172  1  0.396200  0.009700  0.587800  1.0  -0.2114
  C  C173  1  0.434900  0.945900  0.552100  1.0  0.1645
  C  C174  1  0.417900  0.847900  0.521400  1.0  -0.2101
  C  C175  1  0.363000  0.822800  0.524700  1.0  0.1921
  C  C176  1  0.493600  0.976500  0.545400  1.0  -0.2459
  C  C177  1  0.374400  0.464600  0.973700  1.0  0.0216
  C  C178  1  0.409200  0.424300  0.913500  1.0  -0.1271
  C  C179  1  0.389400  0.397800  0.831900  1.0  -0.0347
  C  C180  1  0.335900  0.413200  0.811100  1.0  -0.1345
  C  C181  1  0.301500  0.454400  0.873700  1.0  0.0712
  C  C182  1  0.242300  0.475800  0.860800  1.0  0.0685
  C  C183  1  0.199400  0.411600  0.887200  1.0  -0.1359
  C  C184  1  0.147100  0.442600  0.869900  1.0  -0.0653
  C  C185  1  0.137900  0.537600  0.825100  1.0  -0.0967
  C  C186  1  0.180400  0.600000  0.802900  1.0  -0.0032
  C  C187  1  0.314800  0.382000  0.722500  1.0  0.7345
  C  C188  1  0.212000  0.312800  0.939600  1.0  0.6948
  C  C189  1  0.157000  0.477100  0.588800  1.0  0.194
  C  C190  1  0.103800  0.509700  0.587800  1.0  -0.2127
  C  C191  1  0.065100  0.445900  0.552100  1.0  0.1636
  C  C192  1  0.082100  0.347900  0.521400  1.0  -0.2087
  C  C193  1  0.137000  0.322800  0.524700  1.0  0.1924
  C  C194  1  0.006400  0.476500  0.545400  1.0  -0.2465
  C  C195  1  0.125600  0.035400  0.473700  1.0  0.0197
  C  C196  1  0.090800  0.075700  0.413500  1.0  -0.1295
  C  C197  1  0.110600  0.102200  0.331900  1.0  -0.0373
  C  C198  1  0.164100  0.086800  0.311100  1.0  -0.1333
  C  C199  1  0.198500  0.045600  0.373700  1.0  0.0701
  C  C200  1  0.257700  0.024200  0.360800  1.0  0.0678
  C  C201  1  0.300600  0.088400  0.387200  1.0  -0.1353
  C  C202  1  0.352900  0.057400  0.369900  1.0  -0.0658
  C  C203  1  0.362100  0.962400  0.325100  1.0  -0.096
  C  C204  1  0.319600  0.900000  0.302900  1.0  -0.003
  C  C205  1  0.185200  0.118000  0.222500  1.0  0.7348
  C  C206  1  0.288000  0.187200  0.439600  1.0  0.6946
  C  C207  1  0.343000  0.022900  0.088800  1.0  0.193
  C  C208  1  0.396200  0.990300  0.087800  1.0  -0.212
  C  C209  1  0.434900  0.054100  0.052100  1.0  0.1645
  C  C210  1  0.417900  0.152100  0.021400  1.0  -0.2092
  C  C211  1  0.363000  0.177200  0.024700  1.0  0.1922
  C  C212  1  0.493600  0.023500  0.045400  1.0  -0.2459
  C  C213  1  0.625600  0.464600  0.526300  1.0  0.0192
  C  C214  1  0.590800  0.424300  0.586500  1.0  -0.1302
  C  C215  1  0.610600  0.397800  0.668100  1.0  -0.0373
  C  C216  1  0.664100  0.413200  0.688900  1.0  -0.1346
  C  C217  1  0.698500  0.454400  0.626300  1.0  0.0704
  C  C218  1  0.757700  0.475800  0.639200  1.0  0.068
  C  C219  1  0.800600  0.411600  0.612800  1.0  -0.1356
  C  C220  1  0.852900  0.442600  0.630100  1.0  -0.0653
  C  C221  1  0.862100  0.537600  0.674900  1.0  -0.0964
  C  C222  1  0.819600  0.600000  0.697100  1.0  -0.0033
  C  C223  1  0.685200  0.382000  0.777500  1.0  0.7339
  C  C224  1  0.788000  0.312800  0.560400  1.0  0.6956
  C  C225  1  0.843000  0.477100  0.911200  1.0  0.193
  C  C226  1  0.896200  0.509700  0.912200  1.0  -0.213
  C  C227  1  0.934900  0.445900  0.947900  1.0  0.1634
  C  C228  1  0.917900  0.347900  0.978600  1.0  -0.2102
  C  C229  1  0.863000  0.322800  0.975300  1.0  0.1922
  C  C230  1  0.993600  0.476500  0.954600  1.0  -0.2464
  C  C231  1  0.874400  0.035400  0.026300  1.0  0.0203
  C  C232  1  0.909200  0.075700  0.086500  1.0  -0.1262
  C  C233  1  0.889400  0.102200  0.168100  1.0  -0.0364
  C  C234  1  0.835900  0.086800  0.188900  1.0  -0.1353
  C  C235  1  0.801500  0.045600  0.126300  1.0  0.0708
  C  C236  1  0.742300  0.024200  0.139200  1.0  0.0683
  C  C237  1  0.699400  0.088400  0.112800  1.0  -0.1365
  C  C238  1  0.647100  0.057400  0.130100  1.0  -0.0641
  C  C239  1  0.637900  0.962400  0.174900  1.0  -0.0955
  C  C240  1  0.680400  0.900000  0.197100  1.0  -0.0041
  C  C241  1  0.814800  0.118000  0.277500  1.0  0.7344
  C  C242  1  0.712000  0.187200  0.060400  1.0  0.6956
  C  C243  1  0.657000  0.022900  0.411200  1.0  0.1938
  C  C244  1  0.603800  0.990300  0.412200  1.0  -0.2133
  C  C245  1  0.565100  0.054100  0.447900  1.0  0.163
  C  C246  1  0.582100  0.152100  0.478600  1.0  -0.2093
  C  C247  1  0.637000  0.177200  0.475300  1.0  0.1938
  C  C248  1  0.506400  0.023500  0.454600  1.0  -0.2457
  N  N249  1  0.825400  0.615100  0.440100  1.0  -0.3392
  N  N250  1  0.767900  0.431000  0.179800  1.0  0.3514
  N  N251  1  0.678000  0.522200  0.045700  1.0  0.3451
  N  N252  1  0.674600  0.884900  0.940100  1.0  -0.3401
  N  N253  1  0.732100  0.069000  0.679800  1.0  0.353
  N  N254  1  0.822000  0.977800  0.545700  1.0  0.3456
  N  N255  1  0.174600  0.615100  0.059900  1.0  -0.3402
  N  N256  1  0.232100  0.431000  0.320200  1.0  0.3527
  N  N257  1  0.322000  0.522200  0.454300  1.0  0.3446
  N  N258  1  0.325400  0.884900  0.559900  1.0  -0.3406
  N  N259  1  0.267900  0.069000  0.820200  1.0  0.3538
  N  N260  1  0.178000  0.977800  0.954300  1.0  0.3448
  N  N261  1  0.174600  0.384900  0.559900  1.0  -0.3387
  N  N262  1  0.232100  0.569000  0.820200  1.0  0.354
  N  N263  1  0.322000  0.477800  0.954300  1.0  0.3447
  N  N264  1  0.325400  0.115100  0.059900  1.0  -0.3411
  N  N265  1  0.267900  0.931000  0.320200  1.0  0.3522
  N  N266  1  0.178000  0.022200  0.454300  1.0  0.3451
  N  N267  1  0.825400  0.384900  0.940100  1.0  -0.3408
  N  N268  1  0.767900  0.569000  0.679800  1.0  0.3528
  N  N269  1  0.678000  0.477800  0.545700  1.0  0.3464
  N  N270  1  0.674600  0.115100  0.440100  1.0  -0.3395
  N  N271  1  0.732100  0.931000  0.179800  1.0  0.3517
  N  N272  1  0.822000  0.022200  0.045700  1.0  0.344
  O  O273  1  0.733000  0.592100  0.296400  1.0  -0.5895
  O  O274  1  0.655800  0.668700  0.326500  1.0  -0.6205
  O  O275  1  0.827310  0.730700  0.020500  1.0  -0.6014
  O  O276  1  0.739890  0.718500  0.055100  1.0  -0.5779
  O  O277  1  0.712100  0.492700  0.984300  1.0  -0.6573
  O  O278  1  0.726600  0.370900  0.203700  1.0  -0.5261
  O  O279  1  0.767000  0.907900  0.796400  1.0  -0.5877
  O  O280  1  0.844200  0.831300  0.826500  1.0  -0.6206
  O  O281  1  0.672690  0.769300  0.520500  1.0  -0.6029
  O  O282  1  0.760110  0.781500  0.555100  1.0  -0.5788
  O  O283  1  0.787900  0.007300  0.484300  1.0  -0.6579
  O  O284  1  0.773400  0.129100  0.703700  1.0  -0.5294
  O  O285  1  0.267000  0.592100  0.203600  1.0  -0.5868
  O  O286  1  0.344200  0.668700  0.173500  1.0  -0.6214
  O  O287  1  0.172690  0.730700  0.479500  1.0  -0.6023
  O  O288  1  0.260110  0.718500  0.444900  1.0  -0.5789
  O  O289  1  0.287900  0.492700  0.515700  1.0  -0.6562
  O  O290  1  0.273400  0.370900  0.296300  1.0  -0.5281
  O  O291  1  0.233000  0.907900  0.703600  1.0  -0.5886
  O  O292  1  0.155800  0.831300  0.673500  1.0  -0.6231
  O  O293  1  0.327310  0.769300  0.979500  1.0  -0.6018
  O  O294  1  0.239890  0.781500  0.944900  1.0  -0.5785
  O  O295  1  0.212100  0.007300  0.015700  1.0  -0.6569
  O  O296  1  0.226600  0.129100  0.796300  1.0  -0.5261
  O  O297  1  0.267000  0.407900  0.703600  1.0  -0.5871
  O  O298  1  0.344200  0.331300  0.673500  1.0  -0.6208
  O  O299  1  0.172690  0.269300  0.979500  1.0  -0.6016
  O  O300  1  0.260110  0.281500  0.944900  1.0  -0.5788
  O  O301  1  0.287900  0.507300  0.015700  1.0  -0.656
  O  O302  1  0.273400  0.629100  0.796300  1.0  -0.527
  O  O303  1  0.233000  0.092100  0.203600  1.0  -0.5885
  O  O304  1  0.155800  0.168700  0.173500  1.0  -0.6226
  O  O305  1  0.327310  0.230700  0.479500  1.0  -0.6022
  O  O306  1  0.239890  0.218500  0.444900  1.0  -0.5779
  O  O307  1  0.212100  0.992700  0.515700  1.0  -0.657
  O  O308  1  0.226600  0.870900  0.296300  1.0  -0.5257
  O  O309  1  0.733000  0.407900  0.796400  1.0  -0.5895
  O  O310  1  0.655800  0.331300  0.826500  1.0  -0.6203
  O  O311  1  0.827310  0.269300  0.520500  1.0  -0.6017
  O  O312  1  0.739890  0.281500  0.555100  1.0  -0.5785
  O  O313  1  0.712100  0.507300  0.484300  1.0  -0.657
  O  O314  1  0.726600  0.629100  0.703700  1.0  -0.5267
  O  O315  1  0.767000  0.092100  0.296400  1.0  -0.5877
  O  O316  1  0.844200  0.168700  0.326500  1.0  -0.6215
  O  O317  1  0.672690  0.230700  0.020500  1.0  -0.6027
  O  O318  1  0.760110  0.218500  0.055100  1.0  -0.5787
  O  O319  1  0.787900  0.992700  0.984300  1.0  -0.6583
  O  O320  1  0.773400  0.870900  0.203700  1.0  -0.5297
