# generated using pymatgen
data_CdH11C18(NO2)3
_symmetry_space_group_name_H-M   'P 1'
_cell_length_a   24.64100000
_cell_length_b   12.46800000
_cell_length_c   15.42700000
_cell_angle_alpha   90.00000000
_cell_angle_beta   90.00000000
_cell_angle_gamma   90.00000000
_symmetry_Int_Tables_number   1
_chemical_formula_structural   CdH11C18(NO2)3
_chemical_formula_sum   'Cd8 H88 C144 N24 O48'
_cell_volume   4739.54446288
_cell_formula_units_Z   8
loop_
 _symmetry_equiv_pos_site_id
 _symmetry_equiv_pos_as_xyz
  1  'x, y, z'
loop_
 _atom_site_type_symbol
 _atom_site_label
 _atom_site_symmetry_multiplicity
 _atom_site_fract_x
 _atom_site_fract_y
 _atom_site_fract_z
 _atom_site_occupancy
 _atom_site_charge
  Cd  Cd1  1  0.236020  0.825270  0.577560  1.0  0.9899
  Cd  Cd2  1  0.263980  0.674730  0.077560  1.0  0.9917
  Cd  Cd3  1  0.763980  0.825270  0.922440  1.0  0.9912
  Cd  Cd4  1  0.736020  0.674730  0.422440  1.0  0.9914
  Cd  Cd5  1  0.763980  0.174730  0.422440  1.0  0.9915
  Cd  Cd6  1  0.736020  0.325270  0.922440  1.0  0.9908
  Cd  Cd7  1  0.236020  0.174730  0.077560  1.0  0.9898
  Cd  Cd8  1  0.263980  0.325270  0.577560  1.0  0.9917
  H  H9  1  0.174100  0.335900  0.280600  1.0  0.1248
  H  H10  1  0.104000  0.448200  0.310100  1.0  0.1095
  H  H11  1  0.118900  0.607600  0.388300  1.0  0.1276
  H  H12  1  0.416300  0.623100  0.302500  1.0  0.1142
  H  H13  1  0.446500  0.571200  0.438700  1.0  0.1218
  H  H14  1  0.384300  0.510100  0.539500  1.0  0.1271
  H  H15  1  0.354500  0.755000  0.515800  1.0  0.0793
  H  H16  1  0.441500  0.817000  0.495100  1.0  0.1246
  H  H17  1  0.398400  0.093800  0.603600  1.0  0.1395
  H  H18  1  0.314100  0.024500  0.625400  1.0  0.0801
  H  H19  1  0.491700  0.079000  0.554600  1.0  0.0914
  H  H20  1  0.325900  0.164100  0.780600  1.0  0.1252
  H  H21  1  0.396000  0.051800  0.810100  1.0  0.1091
  H  H22  1  0.381100  0.892400  0.888300  1.0  0.1271
  H  H23  1  0.083700  0.876900  0.802500  1.0  0.1141
  H  H24  1  0.053500  0.928800  0.938700  1.0  0.1194
  H  H25  1  0.115700  0.989900  0.039500  1.0  0.1277
  H  H26  1  0.145500  0.745000  0.015800  1.0  0.0797
  H  H27  1  0.058500  0.683000  0.995100  1.0  0.1252
  H  H28  1  0.101600  0.406200  0.103600  1.0  0.1402
  H  H29  1  0.185900  0.475500  0.125400  1.0  0.0806
  H  H30  1  0.008300  0.421000  0.054600  1.0  0.0911
  H  H31  1  0.825900  0.335900  0.219400  1.0  0.1247
  H  H32  1  0.896000  0.448200  0.189900  1.0  0.1089
  H  H33  1  0.881100  0.607600  0.111700  1.0  0.127
  H  H34  1  0.583700  0.623100  0.197500  1.0  0.1137
  H  H35  1  0.553500  0.571200  0.061300  1.0  0.1201
  H  H36  1  0.615700  0.510100  0.960500  1.0  0.1276
  H  H37  1  0.645500  0.755000  0.984200  1.0  0.0794
  H  H38  1  0.558500  0.817000  0.004900  1.0  0.1245
  H  H39  1  0.601600  0.093800  0.896400  1.0  0.14
  H  H40  1  0.685900  0.024500  0.874600  1.0  0.0803
  H  H41  1  0.508300  0.079000  0.945400  1.0  0.0917
  H  H42  1  0.674100  0.164100  0.719400  1.0  0.1249
  H  H43  1  0.604000  0.051800  0.689900  1.0  0.1089
  H  H44  1  0.618900  0.892400  0.611700  1.0  0.1264
  H  H45  1  0.916300  0.876900  0.697500  1.0  0.1141
  H  H46  1  0.946500  0.928800  0.561300  1.0  0.1223
  H  H47  1  0.884300  0.989900  0.460500  1.0  0.1278
  H  H48  1  0.854500  0.745000  0.484200  1.0  0.0801
  H  H49  1  0.941500  0.683000  0.504900  1.0  0.1246
  H  H50  1  0.898400  0.406200  0.396400  1.0  0.1403
  H  H51  1  0.814100  0.475500  0.374600  1.0  0.0799
  H  H52  1  0.991700  0.421000  0.445400  1.0  0.0912
  H  H53  1  0.825900  0.664100  0.719400  1.0  0.1248
  H  H54  1  0.896000  0.551800  0.689900  1.0  0.1086
  H  H55  1  0.881100  0.392400  0.611700  1.0  0.1271
  H  H56  1  0.583700  0.376900  0.697500  1.0  0.1138
  H  H57  1  0.553500  0.428800  0.561300  1.0  0.1199
  H  H58  1  0.615700  0.489900  0.460500  1.0  0.1274
  H  H59  1  0.645500  0.245000  0.484200  1.0  0.0798
  H  H60  1  0.558500  0.183000  0.504900  1.0  0.1246
  H  H61  1  0.601600  0.906200  0.396400  1.0  0.1403
  H  H62  1  0.685900  0.975500  0.374600  1.0  0.0802
  H  H63  1  0.508300  0.921000  0.445400  1.0  0.0915
  H  H64  1  0.674100  0.835900  0.219400  1.0  0.1247
  H  H65  1  0.604000  0.948200  0.189900  1.0  0.1091
  H  H66  1  0.618900  0.107600  0.111700  1.0  0.127
  H  H67  1  0.916300  0.123100  0.197500  1.0  0.114
  H  H68  1  0.946500  0.071200  0.061300  1.0  0.1222
  H  H69  1  0.884300  0.010100  0.960500  1.0  0.1276
  H  H70  1  0.854500  0.255000  0.984200  1.0  0.0795
  H  H71  1  0.941500  0.317000  0.004900  1.0  0.1246
  H  H72  1  0.898400  0.593800  0.896400  1.0  0.1397
  H  H73  1  0.814100  0.524500  0.874600  1.0  0.08
  H  H74  1  0.991700  0.579000  0.945400  1.0  0.0916
  H  H75  1  0.174100  0.664100  0.780600  1.0  0.1252
  H  H76  1  0.104000  0.551800  0.810100  1.0  0.1094
  H  H77  1  0.118900  0.392400  0.888300  1.0  0.1269
  H  H78  1  0.416300  0.376900  0.802500  1.0  0.1143
  H  H79  1  0.446500  0.428800  0.938700  1.0  0.1218
  H  H80  1  0.384300  0.489900  0.039500  1.0  0.1273
  H  H81  1  0.354500  0.245000  0.015800  1.0  0.0796
  H  H82  1  0.441500  0.183000  0.995100  1.0  0.1249
  H  H83  1  0.398400  0.906200  0.103600  1.0  0.1399
  H  H84  1  0.314100  0.975500  0.125400  1.0  0.0804
  H  H85  1  0.491700  0.921000  0.054600  1.0  0.091
  H  H86  1  0.325900  0.835900  0.280600  1.0  0.1247
  H  H87  1  0.396000  0.948200  0.310100  1.0  0.1095
  H  H88  1  0.381100  0.107600  0.388300  1.0  0.1274
  H  H89  1  0.083700  0.123100  0.302500  1.0  0.114
  H  H90  1  0.053500  0.071200  0.438700  1.0  0.1196
  H  H91  1  0.115700  0.010100  0.539500  1.0  0.1279
  H  H92  1  0.145500  0.255000  0.515800  1.0  0.0794
  H  H93  1  0.058500  0.317000  0.495100  1.0  0.1247
  H  H94  1  0.101600  0.593800  0.603600  1.0  0.1396
  H  H95  1  0.185900  0.524500  0.625400  1.0  0.0802
  H  H96  1  0.008300  0.579000  0.554600  1.0  0.0915
  C  C97  1  0.180700  0.401700  0.306800  1.0  -0.0042
  C  C98  1  0.139100  0.467000  0.326600  1.0  -0.0882
  C  C99  1  0.147900  0.564100  0.372100  1.0  -0.0765
  C  C100  1  0.200300  0.592200  0.391700  1.0  -0.1393
  C  C101  1  0.242800  0.524800  0.366500  1.0  0.1059
  C  C102  1  0.301300  0.545200  0.382300  1.0  0.0697
  C  C103  1  0.337900  0.583800  0.320500  1.0  -0.1268
  C  C104  1  0.391900  0.595400  0.342700  1.0  -0.0366
  C  C105  1  0.409900  0.565900  0.424400  1.0  -0.1213
  C  C106  1  0.372900  0.528900  0.484100  1.0  0.023
  C  C107  1  0.212800  0.691400  0.444900  1.0  0.6744
  C  C108  1  0.317000  0.617200  0.230800  1.0  0.7059
  C  C109  1  0.363400  0.823900  0.534200  1.0  0.1789
  C  C110  1  0.415700  0.861100  0.520800  1.0  -0.1848
  C  C111  1  0.429300  0.964400  0.546000  1.0  0.0968
  C  C112  1  0.390600  0.024500  0.585300  1.0  -0.2076
  C  C113  1  0.340000  0.982100  0.597800  1.0  0.1816
  C  C114  1  0.483400  0.016000  0.525200  1.0  -0.0376
  C  C115  1  0.319300  0.098300  0.806800  1.0  -0.004
  C  C116  1  0.360900  0.033000  0.826600  1.0  -0.0877
  C  C117  1  0.352100  0.935900  0.872100  1.0  -0.0744
  C  C118  1  0.299700  0.907800  0.891700  1.0  -0.1389
  C  C119  1  0.257200  0.975200  0.866500  1.0  0.1065
  C  C120  1  0.198700  0.954800  0.882300  1.0  0.0697
  C  C121  1  0.162100  0.916200  0.820500  1.0  -0.1266
  C  C122  1  0.108100  0.904600  0.842700  1.0  -0.0388
  C  C123  1  0.090100  0.934100  0.924400  1.0  -0.1251
  C  C124  1  0.127100  0.971100  0.984100  1.0  0.0211
  C  C125  1  0.287200  0.808600  0.944900  1.0  0.6752
  C  C126  1  0.183000  0.882800  0.730800  1.0  0.7059
  C  C127  1  0.136600  0.676100  0.034200  1.0  0.181
  C  C128  1  0.084300  0.638900  0.020800  1.0  -0.1851
  C  C129  1  0.070700  0.535600  0.046000  1.0  0.0965
  C  C130  1  0.109400  0.475500  0.085300  1.0  -0.2075
  C  C131  1  0.160000  0.517900  0.097800  1.0  0.182
  C  C132  1  0.016600  0.484000  0.025200  1.0  -0.0393
  C  C133  1  0.819300  0.401700  0.193200  1.0  -0.0041
  C  C134  1  0.860900  0.467000  0.173400  1.0  -0.088
  C  C135  1  0.852100  0.564100  0.127900  1.0  -0.0744
  C  C136  1  0.799700  0.592200  0.108300  1.0  -0.1396
  C  C137  1  0.757200  0.524800  0.133500  1.0  0.1065
  C  C138  1  0.698700  0.545200  0.117700  1.0  0.0697
  C  C139  1  0.662100  0.583800  0.179500  1.0  -0.1259
  C  C140  1  0.608100  0.595400  0.157300  1.0  -0.0384
  C  C141  1  0.590100  0.565900  0.075600  1.0  -0.1241
  C  C142  1  0.627100  0.528900  0.015900  1.0  0.0211
  C  C143  1  0.787200  0.691400  0.055100  1.0  0.676
  C  C144  1  0.683000  0.617200  0.269200  1.0  0.707
  C  C145  1  0.636600  0.823900  0.965800  1.0  0.1788
  C  C146  1  0.584300  0.861100  0.979200  1.0  -0.1855
  C  C147  1  0.570700  0.964400  0.954000  1.0  0.0973
  C  C148  1  0.609400  0.024500  0.914700  1.0  -0.2079
  C  C149  1  0.660000  0.982100  0.902200  1.0  0.1824
  C  C150  1  0.516600  0.016000  0.974800  1.0  -0.0403
  C  C151  1  0.680700  0.098300  0.693200  1.0  -0.0042
  C  C152  1  0.639100  0.033000  0.673400  1.0  -0.089
  C  C153  1  0.647900  0.935900  0.627900  1.0  -0.0745
  C  C154  1  0.700300  0.907800  0.608300  1.0  -0.1393
  C  C155  1  0.742800  0.975200  0.633500  1.0  0.1058
  C  C156  1  0.801300  0.954800  0.617700  1.0  0.0698
  C  C157  1  0.837900  0.916200  0.679500  1.0  -0.1266
  C  C158  1  0.891900  0.904600  0.657300  1.0  -0.0353
  C  C159  1  0.909900  0.934100  0.575600  1.0  -0.1215
  C  C160  1  0.872900  0.971100  0.515900  1.0  0.0232
  C  C161  1  0.712800  0.808600  0.555100  1.0  0.6741
  C  C162  1  0.817000  0.882800  0.769200  1.0  0.7076
  C  C163  1  0.863400  0.676100  0.465800  1.0  0.18
  C  C164  1  0.915700  0.638900  0.479200  1.0  -0.184
  C  C165  1  0.929300  0.535600  0.454000  1.0  0.0979
  C  C166  1  0.890600  0.475500  0.414700  1.0  -0.2058
  C  C167  1  0.840000  0.517900  0.402200  1.0  0.1815
  C  C168  1  0.983400  0.484000  0.474800  1.0  -0.0397
  C  C169  1  0.819300  0.598300  0.693200  1.0  -0.0038
  C  C170  1  0.860900  0.533000  0.673400  1.0  -0.0881
  C  C171  1  0.852100  0.435900  0.627900  1.0  -0.0734
  C  C172  1  0.799700  0.407800  0.608300  1.0  -0.1395
  C  C173  1  0.757200  0.475200  0.633500  1.0  0.1065
  C  C174  1  0.698700  0.454800  0.617700  1.0  0.0698
  C  C175  1  0.662100  0.416200  0.679500  1.0  -0.1257
  C  C176  1  0.608100  0.404600  0.657300  1.0  -0.0388
  C  C177  1  0.590100  0.434100  0.575600  1.0  -0.1244
  C  C178  1  0.627100  0.471100  0.515900  1.0  0.0223
  C  C179  1  0.787200  0.308600  0.555100  1.0  0.6753
  C  C180  1  0.683000  0.382800  0.769200  1.0  0.7068
  C  C181  1  0.636600  0.176100  0.465800  1.0  0.1809
  C  C182  1  0.584300  0.138900  0.479200  1.0  -0.185
  C  C183  1  0.570700  0.035600  0.454000  1.0  0.0973
  C  C184  1  0.609400  0.975500  0.414700  1.0  -0.2069
  C  C185  1  0.660000  0.017900  0.402200  1.0  0.1823
  C  C186  1  0.516600  0.984000  0.474800  1.0  -0.0421
  C  C187  1  0.680700  0.901700  0.193200  1.0  -0.0044
  C  C188  1  0.639100  0.967000  0.173400  1.0  -0.0887
  C  C189  1  0.647900  0.064100  0.127900  1.0  -0.0757
  C  C190  1  0.700300  0.092200  0.108300  1.0  -0.1397
  C  C191  1  0.742800  0.024800  0.133500  1.0  0.1059
  C  C192  1  0.801300  0.045200  0.117700  1.0  0.0696
  C  C193  1  0.837900  0.083800  0.179500  1.0  -0.1274
  C  C194  1  0.891900  0.095400  0.157300  1.0  -0.0354
  C  C195  1  0.909900  0.065900  0.075600  1.0  -0.1214
  C  C196  1  0.872900  0.028900  0.015900  1.0  0.0221
  C  C197  1  0.712800  0.191400  0.055100  1.0  0.6754
  C  C198  1  0.817000  0.117200  0.269200  1.0  0.7079
  C  C199  1  0.863400  0.323900  0.965800  1.0  0.1775
  C  C200  1  0.915700  0.361100  0.979200  1.0  -0.1848
  C  C201  1  0.929300  0.464400  0.954000  1.0  0.098
  C  C202  1  0.890600  0.524500  0.914700  1.0  -0.2069
  C  C203  1  0.840000  0.482100  0.902200  1.0  0.1815
  C  C204  1  0.983400  0.516000  0.974800  1.0  -0.0399
  C  C205  1  0.180700  0.598300  0.806800  1.0  -0.0038
  C  C206  1  0.139100  0.533000  0.826600  1.0  -0.0887
  C  C207  1  0.147900  0.435900  0.872100  1.0  -0.0757
  C  C208  1  0.200300  0.407800  0.891700  1.0  -0.1388
  C  C209  1  0.242800  0.475200  0.866500  1.0  0.1059
  C  C210  1  0.301300  0.454800  0.882300  1.0  0.0699
  C  C211  1  0.337900  0.416200  0.820500  1.0  -0.1263
  C  C212  1  0.391900  0.404600  0.842700  1.0  -0.0359
  C  C213  1  0.409900  0.434100  0.924400  1.0  -0.1213
  C  C214  1  0.372900  0.471100  0.984100  1.0  0.023
  C  C215  1  0.212800  0.308600  0.944900  1.0  0.674
  C  C216  1  0.317000  0.382800  0.730800  1.0  0.7062
  C  C217  1  0.363400  0.176100  0.034200  1.0  0.18
  C  C218  1  0.415700  0.138900  0.020800  1.0  -0.1841
  C  C219  1  0.429300  0.035600  0.046000  1.0  0.0966
  C  C220  1  0.390600  0.975500  0.085300  1.0  -0.2061
  C  C221  1  0.340000  0.017900  0.097800  1.0  0.1812
  C  C222  1  0.483400  0.984000  0.025200  1.0  -0.0389
  C  C223  1  0.319300  0.901700  0.306800  1.0  -0.0044
  C  C224  1  0.360900  0.967000  0.326600  1.0  -0.0875
  C  C225  1  0.352100  0.064100  0.372100  1.0  -0.0749
  C  C226  1  0.299700  0.092200  0.391700  1.0  -0.1391
  C  C227  1  0.257200  0.024800  0.366500  1.0  0.1064
  C  C228  1  0.198700  0.045200  0.382300  1.0  0.0696
  C  C229  1  0.162100  0.083800  0.320500  1.0  -0.1264
  C  C230  1  0.108100  0.095400  0.342700  1.0  -0.0386
  C  C231  1  0.090100  0.065900  0.424400  1.0  -0.1249
  C  C232  1  0.127100  0.028900  0.484100  1.0  0.0216
  C  C233  1  0.287200  0.191400  0.444900  1.0  0.6749
  C  C234  1  0.183000  0.117200  0.230800  1.0  0.706
  C  C235  1  0.136600  0.323900  0.534200  1.0  0.1798
  C  C236  1  0.084300  0.361100  0.520800  1.0  -0.1854
  C  C237  1  0.070700  0.464400  0.546000  1.0  0.0967
  C  C238  1  0.109400  0.524500  0.585300  1.0  -0.2091
  C  C239  1  0.160000  0.482100  0.597800  1.0  0.1825
  C  C240  1  0.016600  0.516000  0.525200  1.0  -0.0399
  N  N241  1  0.232100  0.431400  0.325000  1.0  0.3428
  N  N242  1  0.320800  0.519900  0.462500  1.0  0.3242
  N  N243  1  0.325320  0.883500  0.572700  1.0  -0.3504
  N  N244  1  0.267900  0.068600  0.825000  1.0  0.3437
  N  N245  1  0.179200  0.980100  0.962500  1.0  0.3226
  N  N246  1  0.174680  0.616500  0.072700  1.0  -0.3516
  N  N247  1  0.767900  0.431400  0.175000  1.0  0.3427
  N  N248  1  0.679200  0.519900  0.037500  1.0  0.3235
  N  N249  1  0.674680  0.883500  0.927300  1.0  -0.3504
  N  N250  1  0.732100  0.068600  0.675000  1.0  0.344
  N  N251  1  0.820800  0.980100  0.537500  1.0  0.3246
  N  N252  1  0.825320  0.616500  0.427300  1.0  -0.3483
  N  N253  1  0.767900  0.568600  0.675000  1.0  0.3436
  N  N254  1  0.679200  0.480100  0.537500  1.0  0.3239
  N  N255  1  0.674680  0.116500  0.427300  1.0  -0.3501
  N  N256  1  0.732100  0.931400  0.175000  1.0  0.3433
  N  N257  1  0.820800  0.019900  0.037500  1.0  0.3239
  N  N258  1  0.825320  0.383500  0.927300  1.0  -0.3505
  N  N259  1  0.232100  0.568600  0.825000  1.0  0.3438
  N  N260  1  0.320800  0.480100  0.962500  1.0  0.3239
  N  N261  1  0.325320  0.116500  0.072700  1.0  -0.3499
  N  N262  1  0.267900  0.931400  0.325000  1.0  0.3423
  N  N263  1  0.179200  0.019900  0.462500  1.0  0.3234
  N  N264  1  0.174680  0.383500  0.572700  1.0  -0.3503
  O  O265  1  0.173810  0.735100  0.483800  1.0  -0.5803
  O  O266  1  0.260630  0.720500  0.453200  1.0  -0.5968
  O  O267  1  0.348200  0.666400  0.182100  1.0  -0.6271
  O  O268  1  0.270200  0.597900  0.211300  1.0  -0.572
  O  O269  1  0.273700  0.368100  0.304800  1.0  -0.5396
  O  O270  1  0.284520  0.492800  0.524200  1.0  -0.6438
  O  O271  1  0.326190  0.764900  0.983800  1.0  -0.5806
  O  O272  1  0.239370  0.779500  0.953200  1.0  -0.5972
  O  O273  1  0.151800  0.833600  0.682100  1.0  -0.6277
  O  O274  1  0.229800  0.902100  0.711300  1.0  -0.5721
  O  O275  1  0.226300  0.131900  0.804800  1.0  -0.5379
  O  O276  1  0.215480  0.007200  0.024200  1.0  -0.6446
  O  O277  1  0.826190  0.735100  0.016200  1.0  -0.5793
  O  O278  1  0.739370  0.720500  0.046800  1.0  -0.5966
  O  O279  1  0.651800  0.666400  0.317900  1.0  -0.627
  O  O280  1  0.729800  0.597900  0.288700  1.0  -0.5727
  O  O281  1  0.726300  0.368100  0.195200  1.0  -0.5367
  O  O282  1  0.715480  0.492800  0.975800  1.0  -0.6464
  O  O283  1  0.673810  0.764900  0.516200  1.0  -0.5818
  O  O284  1  0.760630  0.779500  0.546800  1.0  -0.5964
  O  O285  1  0.848200  0.833600  0.817900  1.0  -0.6281
  O  O286  1  0.770200  0.902100  0.788700  1.0  -0.5719
  O  O287  1  0.773700  0.131900  0.695200  1.0  -0.5397
  O  O288  1  0.784520  0.007200  0.475800  1.0  -0.6456
  O  O289  1  0.826190  0.264900  0.516200  1.0  -0.5804
  O  O290  1  0.739370  0.279500  0.546800  1.0  -0.5973
  O  O291  1  0.651800  0.333600  0.817900  1.0  -0.6268
  O  O292  1  0.729800  0.402100  0.788700  1.0  -0.5725
  O  O293  1  0.726300  0.631900  0.695200  1.0  -0.5372
  O  O294  1  0.715480  0.507200  0.475800  1.0  -0.646
  O  O295  1  0.673810  0.235100  0.016200  1.0  -0.5804
  O  O296  1  0.760630  0.220500  0.046800  1.0  -0.5967
  O  O297  1  0.848200  0.166400  0.317900  1.0  -0.6287
  O  O298  1  0.770200  0.097900  0.288700  1.0  -0.5723
  O  O299  1  0.773700  0.868100  0.195200  1.0  -0.5408
  O  O300  1  0.784520  0.992800  0.975800  1.0  -0.6459
  O  O301  1  0.173810  0.264900  0.983800  1.0  -0.581
  O  O302  1  0.260630  0.279500  0.953200  1.0  -0.5962
  O  O303  1  0.348200  0.333600  0.682100  1.0  -0.6269
  O  O304  1  0.270200  0.402100  0.711300  1.0  -0.5717
  O  O305  1  0.273700  0.631900  0.804800  1.0  -0.5387
  O  O306  1  0.284520  0.507200  0.024200  1.0  -0.6435
  O  O307  1  0.326190  0.235100  0.483800  1.0  -0.58
  O  O308  1  0.239370  0.220500  0.453200  1.0  -0.597
  O  O309  1  0.151800  0.166400  0.182100  1.0  -0.6268
  O  O310  1  0.229800  0.097900  0.211300  1.0  -0.5721
  O  O311  1  0.226300  0.868100  0.304800  1.0  -0.5368
  O  O312  1  0.215480  0.992800  0.524200  1.0  -0.645
