# generated using pymatgen
data_NdH40C40N6ClO10
_symmetry_space_group_name_H-M   'P 1'
_cell_length_a   16.43740000
_cell_length_b   18.10410000
_cell_length_c   18.10410000
_cell_angle_alpha   90.00000000
_cell_angle_beta   90.00000000
_cell_angle_gamma   90.00000000
_symmetry_Int_Tables_number   1
_chemical_formula_structural   NdH40C40N6ClO10
_chemical_formula_sum   'Nd4 H160 C160 N24 Cl4 O40'
_cell_volume   5387.49652922
_cell_formula_units_Z   4
loop_
 _symmetry_equiv_pos_site_id
 _symmetry_equiv_pos_as_xyz
  1  'x, y, z'
loop_
 _atom_site_type_symbol
 _atom_site_label
 _atom_site_symmetry_multiplicity
 _atom_site_fract_x
 _atom_site_fract_y
 _atom_site_fract_z
 _atom_site_occupancy
 _atom_site_charge
  Nd  Nd1  1  0.000000  0.783360  0.783360  1.0  2.2971
  Nd  Nd2  1  0.250000  0.716640  0.283360  1.0  2.2979
  Nd  Nd3  1  0.500000  0.216640  0.216640  1.0  2.299
  Nd  Nd4  1  0.750000  0.283360  0.716640  1.0  2.298
  H  H5  1  0.170600  0.036600  0.513300  1.0  0.1458
  H  H6  1  0.027400  0.821400  0.136900  1.0  0.119
  H  H7  1  0.615300  0.137700  0.642800  1.0  0.142
  H  H8  1  0.889700  0.663700  0.583900  1.0  0.1065
  H  H9  1  0.003800  0.194300  0.948200  1.0  0.1074
  H  H10  1  0.635900  0.348700  0.883800  1.0  0.1232
  H  H11  1  0.639100  0.583800  0.135800  1.0  0.1433
  H  H12  1  0.389100  0.635800  0.916200  1.0  0.1444
  H  H13  1  0.365300  0.142800  0.362300  1.0  0.1426
  H  H14  1  0.438600  0.599300  0.028700  1.0  0.1261
  H  H15  1  0.472600  0.863100  0.178600  1.0  0.1174
  H  H16  1  0.067500  0.708500  0.467300  1.0  0.1132
  H  H17  1  0.819800  0.095500  0.954500  1.0  0.108
  H  H18  1  0.563500  0.982600  0.929200  1.0  0.1012
  H  H19  1  0.884700  0.357200  0.862300  1.0  0.142
  H  H20  1  0.650700  0.388500  0.485900  1.0  0.1149
  H  H21  1  0.527400  0.178600  0.863100  1.0  0.1198
  H  H22  1  0.614100  0.151300  0.383800  1.0  0.1228
  H  H23  1  0.408400  0.115000  0.886500  1.0  0.1239
  H  H24  1  0.212800  0.388900  0.214700  1.0  0.1229
  H  H25  1  0.048100  0.145100  0.007200  1.0  0.0984
  H  H26  1  0.114100  0.848700  0.616200  1.0  0.123
  H  H27  1  0.777400  0.636900  0.678600  1.0  0.118
  H  H28  1  0.451900  0.992800  0.854900  1.0  0.0983
  H  H29  1  0.828700  0.519600  0.909300  1.0  0.1226
  H  H30  1  0.115300  0.862300  0.357200  1.0  0.1419
  H  H31  1  0.860900  0.864200  0.416200  1.0  0.1427
  H  H32  1  0.287200  0.785300  0.611100  1.0  0.1232
  H  H33  1  0.658400  0.613500  0.615000  1.0  0.1227
  H  H34  1  0.753800  0.448200  0.305700  1.0  0.1139
  H  H35  1  0.920600  0.013300  0.463400  1.0  0.1459
  H  H36  1  0.552600  0.955200  0.075500  1.0  0.1269
  H  H37  1  0.319800  0.904500  0.045500  1.0  0.1086
  H  H38  1  0.712800  0.611100  0.785300  1.0  0.1231
  H  H39  1  0.216500  0.090000  0.284800  1.0  0.1296
  H  H40  1  0.139700  0.916100  0.163700  1.0  0.1077
  H  H41  1  0.579400  0.536600  0.986700  1.0  0.146
  H  H42  1  0.671300  0.090700  0.480400  1.0  0.1225
  H  H43  1  0.246200  0.305700  0.448200  1.0  0.1087
  H  H44  1  0.110300  0.583900  0.663700  1.0  0.1079
  H  H45  1  0.722600  0.321400  0.363100  1.0  0.119
  H  H46  1  0.855800  0.100800  0.398100  1.0  0.1414
  H  H47  1  0.160800  0.467800  0.653000  1.0  0.0981
  H  H48  1  0.197400  0.455200  0.424500  1.0  0.1271
  H  H49  1  0.091600  0.113500  0.885000  1.0  0.1213
  H  H50  1  0.394200  0.399200  0.898100  1.0  0.1419
  H  H51  1  0.811400  0.900700  0.528700  1.0  0.1258
  H  H52  1  0.139100  0.416200  0.864200  1.0  0.1433
  H  H53  1  0.079400  0.463400  0.013300  1.0  0.1458
  H  H54  1  0.829400  0.513300  0.036600  1.0  0.1463
  H  H55  1  0.410800  0.847000  0.967800  1.0  0.0921
  H  H56  1  0.962800  0.714700  0.111100  1.0  0.1239
  H  H57  1  0.061400  0.971300  0.400700  1.0  0.1253
  H  H58  1  0.798100  0.507200  0.354900  1.0  0.1004
  H  H59  1  0.716500  0.910000  0.715200  1.0  0.1313
  H  H60  1  0.150700  0.611500  0.514100  1.0  0.1164
  H  H61  1  0.849300  0.514100  0.611500  1.0  0.1135
  H  H62  1  0.134700  0.637700  0.857200  1.0  0.1418
  H  H63  1  0.610300  0.416100  0.336300  1.0  0.1083
  H  H64  1  0.182500  0.791500  0.967300  1.0  0.1136
  H  H65  1  0.951900  0.007200  0.145100  1.0  0.0997
  H  H66  1  0.277400  0.363100  0.321400  1.0  0.1187
  H  H67  1  0.591600  0.886500  0.115000  1.0  0.1201
  H  H68  1  0.052600  0.044800  0.924500  1.0  0.1288
  H  H69  1  0.839200  0.653000  0.467800  1.0  0.0935
  H  H70  1  0.682500  0.208500  0.032700  1.0  0.1137
  H  H71  1  0.339200  0.347000  0.532200  1.0  0.0928
  H  H72  1  0.329400  0.486700  0.963400  1.0  0.1454
  H  H73  1  0.680200  0.045500  0.904500  1.0  0.1098
  H  H74  1  0.561400  0.028700  0.599300  1.0  0.1241
  H  H75  1  0.253800  0.551800  0.694300  1.0  0.1129
  H  H76  1  0.110900  0.083800  0.364200  1.0  0.1459
  H  H77  1  0.537200  0.888900  0.285300  1.0  0.1236
  H  H78  1  0.389700  0.336300  0.416100  1.0  0.1065
  H  H79  1  0.686500  0.517400  0.429200  1.0  0.1006
  H  H80  1  0.644200  0.601900  0.899200  1.0  0.1385
  H  H81  1  0.298100  0.492800  0.645100  1.0  0.0992
  H  H82  1  0.841600  0.385000  0.386500  1.0  0.1211
  H  H83  1  0.972600  0.136900  0.821400  1.0  0.1186
  H  H84  1  0.105800  0.101900  0.600800  1.0  0.1378
  H  H85  1  0.089200  0.032200  0.153000  1.0  0.0974
  H  H86  1  0.670600  0.963400  0.486700  1.0  0.1461
  H  H87  1  0.069800  0.545500  0.595500  1.0  0.1091
  H  H88  1  0.033500  0.410000  0.784800  1.0  0.1309
  H  H89  1  0.936500  0.070800  0.017400  1.0  0.1017
  H  H90  1  0.384700  0.642800  0.137700  1.0  0.1427
  H  H91  1  0.860300  0.163700  0.916100  1.0  0.1065
  H  H92  1  0.930200  0.595500  0.545500  1.0  0.108
  H  H93  1  0.496200  0.051800  0.805700  1.0  0.1128
  H  H94  1  0.817500  0.967300  0.791500  1.0  0.1152
  H  H95  1  0.503800  0.805700  0.051800  1.0  0.1097
  H  H96  1  0.885900  0.616200  0.848700  1.0  0.1256
  H  H97  1  0.385900  0.383800  0.151300  1.0  0.1252
  H  H98  1  0.432500  0.532700  0.291500  1.0  0.1159
  H  H99  1  0.569800  0.454500  0.404500  1.0  0.1078
  H  H100  1  0.447400  0.075500  0.955200  1.0  0.1264
  H  H101  1  0.688600  0.471300  0.099300  1.0  0.126
  H  H102  1  0.420600  0.986700  0.536600  1.0  0.1456
  H  H103  1  0.360300  0.836300  0.083900  1.0  0.1061
  H  H104  1  0.589200  0.967800  0.847000  1.0  0.0979
  H  H105  1  0.605800  0.898100  0.399200  1.0  0.1392
  H  H106  1  0.634700  0.362300  0.142800  1.0  0.1414
  H  H107  1  0.900700  0.014100  0.888500  1.0  0.1147
  H  H108  1  0.639700  0.083900  0.836300  1.0  0.1091
  H  H109  1  0.283500  0.715200  0.910000  1.0  0.1311
  H  H110  1  0.462800  0.285300  0.888900  1.0  0.124
  H  H111  1  0.360900  0.135800  0.583800  1.0  0.1443
  H  H112  1  0.078700  0.590700  0.019600  1.0  0.1225
  H  H113  1  0.313500  0.429200  0.517400  1.0  0.1009
  H  H114  1  0.932500  0.467300  0.708500  1.0  0.1145
  H  H115  1  0.317500  0.032700  0.208500  1.0  0.1154
  H  H116  1  0.889100  0.364200  0.083800  1.0  0.1441
  H  H117  1  0.349300  0.485900  0.388500  1.0  0.115
  H  H118  1  0.436500  0.929200  0.982600  1.0  0.1021
  H  H119  1  0.783500  0.284800  0.090000  1.0  0.131
  H  H120  1  0.144200  0.398100  0.100800  1.0  0.1385
  H  H121  1  0.813500  0.570800  0.482600  1.0  0.1006
  H  H122  1  0.430200  0.404500  0.454500  1.0  0.1084
  H  H123  1  0.660800  0.532200  0.347000  1.0  0.0984
  H  H124  1  0.599300  0.111500  0.985900  1.0  0.1157
  H  H125  1  0.222600  0.678600  0.636900  1.0  0.1189
  H  H126  1  0.533500  0.590000  0.215200  1.0  0.129
  H  H127  1  0.548100  0.854900  0.992800  1.0  0.098
  H  H128  1  0.966500  0.784800  0.410000  1.0  0.1312
  H  H129  1  0.188600  0.528700  0.900700  1.0  0.1259
  H  H130  1  0.610900  0.916200  0.635800  1.0  0.1441
  H  H131  1  0.302600  0.575500  0.544800  1.0  0.1258
  H  H132  1  0.894200  0.600800  0.101900  1.0  0.1406
  H  H133  1  0.947400  0.924500  0.044800  1.0  0.1247
  H  H134  1  0.421300  0.980400  0.409300  1.0  0.1225
  H  H135  1  0.341600  0.615000  0.613500  1.0  0.1208
  H  H136  1  0.864100  0.116200  0.651300  1.0  0.1246
  H  H137  1  0.567500  0.291500  0.532700  1.0  0.1148
  H  H138  1  0.578700  0.409300  0.980400  1.0  0.1226
  H  H139  1  0.328700  0.480400  0.090700  1.0  0.123
  H  H140  1  0.355800  0.899200  0.601900  1.0  0.14
  H  H141  1  0.697400  0.544800  0.575500  1.0  0.1283
  H  H142  1  0.787200  0.214700  0.388900  1.0  0.1243
  H  H143  1  0.063500  0.017400  0.070800  1.0  0.1004
  H  H144  1  0.910800  0.153000  0.032200  1.0  0.0921
  H  H145  1  0.466500  0.215200  0.590000  1.0  0.1314
  H  H146  1  0.921300  0.019600  0.590700  1.0  0.1231
  H  H147  1  0.908400  0.885000  0.113500  1.0  0.1227
  H  H148  1  0.400700  0.985900  0.111500  1.0  0.1157
  H  H149  1  0.311400  0.099300  0.471300  1.0  0.126
  H  H150  1  0.746200  0.694300  0.551800  1.0  0.1077
  H  H151  1  0.865300  0.857200  0.637700  1.0  0.1427
  H  H152  1  0.099300  0.888500  0.014100  1.0  0.1164
  H  H153  1  0.186500  0.482600  0.570800  1.0  0.1019
  H  H154  1  0.171300  0.909300  0.519600  1.0  0.1225
  H  H155  1  0.802600  0.424500  0.455200  1.0  0.1268
  H  H156  1  0.158400  0.386500  0.385000  1.0  0.1223
  H  H157  1  0.201900  0.354900  0.507200  1.0  0.0989
  H  H158  1  0.996200  0.948200  0.194300  1.0  0.1129
  H  H159  1  0.701900  0.645100  0.492800  1.0  0.0983
  H  H160  1  0.364100  0.883800  0.348700  1.0  0.125
  H  H161  1  0.037200  0.111100  0.714700  1.0  0.123
  H  H162  1  0.135900  0.651300  0.116200  1.0  0.1229
  H  H163  1  0.938600  0.400700  0.971300  1.0  0.1258
  H  H164  1  0.180200  0.954500  0.095500  1.0  0.1092
  C  C165  1  0.352400  0.434800  0.371000  1.0  0.0677
  C  C166  1  0.853500  0.557000  0.936400  1.0  -0.0711
  C  C167  1  0.490800  0.033000  0.855700  1.0  -0.1102
  C  C168  1  0.870600  0.114400  0.934800  1.0  -0.1161
  C  C169  1  0.103500  0.563600  0.057000  1.0  -0.0698
  C  C170  1  0.147600  0.629000  0.565200  1.0  0.0682
  C  C171  1  0.771600  0.587700  0.656600  1.0  0.0875
  C  C172  1  0.538100  0.939500  0.276700  1.0  0.1055
  C  C173  1  0.426800  0.326800  0.063800  1.0  0.2685
  C  C174  1  0.926800  0.673200  0.936200  1.0  0.2686
  C  C175  1  0.049500  0.720500  0.514500  1.0  0.1862
  C  C176  1  0.990800  0.967000  0.144300  1.0  -0.112
  C  C177  1  0.895100  0.367900  0.973000  1.0  -0.0382
  C  C178  1  0.354900  0.132100  0.473000  1.0  -0.036
  C  C179  1  0.208700  0.406500  0.404700  1.0  -0.1159
  C  C180  1  0.638200  0.400000  0.884700  1.0  -0.1413
  C  C181  1  0.514100  0.479200  0.227500  1.0  0.026
  C  C182  1  0.711900  0.560500  0.776700  1.0  0.1005
  C  C183  1  0.854400  0.552600  0.012600  1.0  -0.1083
  C  C184  1  0.073200  0.936200  0.673200  1.0  0.2733
  C  C185  1  0.637600  0.092800  0.657600  1.0  -0.1564
  C  C186  1  0.108700  0.050800  0.604900  1.0  -0.1372
  C  C187  1  0.735900  0.020800  0.727500  1.0  0.0246
  C  C188  1  0.858700  0.104900  0.449200  1.0  -0.1327
  C  C189  1  0.961900  0.723300  0.060500  1.0  0.106
  C  C190  1  0.634500  0.959300  0.653600  1.0  -0.1075
  C  C191  1  0.645100  0.473000  0.132100  1.0  -0.0365
  C  C192  1  0.947400  0.799800  0.456000  1.0  -0.106
  C  C193  1  0.271600  0.412300  0.343400  1.0  0.0869
  C  C194  1  0.865500  0.346400  0.040700  1.0  -0.1074
  C  C195  1  0.549500  0.279500  0.485500  1.0  0.1919
  C  C196  1  0.461900  0.276700  0.939500  1.0  0.1057
  C  C197  1  0.384500  0.153600  0.540700  1.0  -0.1084
  C  C198  1  0.228400  0.656600  0.587700  1.0  0.087
  C  C199  1  0.112400  0.592800  0.842400  1.0  -0.1569
  C  C200  1  0.569700  0.005300  0.881000  1.0  -0.1264
  C  C201  1  0.700500  0.220500  0.985500  1.0  0.1871
  C  C202  1  0.791300  0.404700  0.406500  1.0  -0.1172
  C  C203  1  0.888200  0.615300  0.900000  1.0  -0.141
  C  C204  1  0.854900  0.867900  0.527000  1.0  -0.036
  C  C205  1  0.458700  0.095300  0.906500  1.0  -0.1155
  C  C206  1  0.240800  0.355700  0.467000  1.0  -0.1108
  C  C207  1  0.264100  0.727500  0.020800  1.0  0.0254
  C  C208  1  0.069700  0.994700  0.119000  1.0  -0.1287
  C  C209  1  0.604400  0.512600  0.947400  1.0  -0.1054
  C  C210  1  0.052600  0.456000  0.799800  1.0  -0.11
  C  C211  1  0.891300  0.604900  0.050800  1.0  -0.133
  C  C212  1  0.823200  0.173200  0.563800  1.0  0.2682
  C  C213  1  0.604900  0.027000  0.632100  1.0  -0.0369
  C  C214  1  0.041300  0.093500  0.904700  1.0  -0.116
  C  C215  1  0.704600  0.091600  0.706100  1.0  0.3178
  C  C216  1  0.354400  0.447400  0.987400  1.0  -0.1063
  C  C217  1  0.823500  0.166900  0.484100  1.0  0.0125
  C  C218  1  0.641300  0.550800  0.895100  1.0  -0.1354
  C  C219  1  0.365500  0.653600  0.959300  1.0  -0.1063
  C  C220  1  0.200500  0.779500  0.014500  1.0  0.186
  C  C221  1  0.145600  0.012600  0.552600  1.0  -0.1062
  C  C222  1  0.879400  0.614400  0.565200  1.0  -0.1183
  C  C223  1  0.603500  0.436400  0.943000  1.0  -0.0701
  C  C224  1  0.545400  0.408400  0.206100  1.0  0.3183
  C  C225  1  0.104400  0.487400  0.052600  1.0  -0.1073
  C  C226  1  0.985900  0.772500  0.520800  1.0  0.026
  C  C227  1  0.009200  0.144300  0.967000  1.0  -0.1114
  C  C228  1  0.391300  0.395100  0.949200  1.0  -0.133
  C  C229  1  0.759200  0.467000  0.355700  1.0  -0.1112
  C  C230  1  0.647600  0.371000  0.434800  1.0  0.068
  C  C231  1  0.120600  0.565200  0.614400  1.0  -0.1159
  C  C232  1  0.764100  0.272500  0.979200  1.0  0.0253
  C  C233  1  0.134500  0.040700  0.346400  1.0  -0.1057
  C  C234  1  0.180300  0.505300  0.619000  1.0  -0.1251
  C  C235  1  0.954600  0.793900  0.591600  1.0  0.3227
  C  C236  1  0.454600  0.206100  0.408400  1.0  0.324
  C  C237  1  0.388200  0.384700  0.100000  1.0  -0.1388
  C  C238  1  0.802600  0.299800  0.044000  1.0  -0.1034
  C  C239  1  0.176800  0.563800  0.173200  1.0  0.2726
  C  C240  1  0.852400  0.565200  0.629000  1.0  0.0665
  C  C241  1  0.620600  0.434800  0.385600  1.0  -0.1164
  C  C242  1  0.788100  0.223300  0.439500  1.0  0.1053
  C  C243  1  0.897600  0.065200  0.871000  1.0  0.0666
  C  C244  1  0.426500  0.333100  0.984100  1.0  0.0122
  C  C245  1  0.930300  0.119000  0.994700  1.0  -0.1226
  C  C246  1  0.958700  0.904700  0.093500  1.0  -0.1171
  C  C247  1  0.323500  0.833100  0.515900  1.0  0.0111
  C  C248  1  0.646500  0.063600  0.443000  1.0  -0.0714
  C  C249  1  0.021600  0.843400  0.087700  1.0  0.0851
  C  C250  1  0.708700  0.593500  0.595300  1.0  -0.1163
  C  C251  1  0.887600  0.842400  0.592800  1.0  -0.1556
  C  C252  1  0.573200  0.063800  0.326800  1.0  0.2742
  C  C253  1  0.612400  0.407200  0.157600  1.0  -0.1569
  C  C254  1  0.862400  0.342400  0.907200  1.0  -0.1559
  C  C255  1  0.115500  0.459300  0.846400  1.0  -0.1096
  C  C256  1  0.014100  0.520800  0.772500  1.0  0.0246
  C  C257  1  0.358700  0.895100  0.550800  1.0  -0.1335
  C  C258  1  0.235900  0.979200  0.272500  1.0  0.0255
  C  C259  1  0.045400  0.591600  0.793900  1.0  0.3176
  C  C260  1  0.430300  0.881000  0.005300  1.0  -0.1239
  C  C261  1  0.302600  0.700200  0.956000  1.0  -0.0996
  C  C262  1  0.795400  0.293900  0.908400  1.0  0.3239
  C  C263  1  0.204600  0.908400  0.293900  1.0  0.3189
  C  C264  1  0.884500  0.846400  0.459300  1.0  -0.1074
  C  C265  1  0.740800  0.644300  0.533000  1.0  -0.1121
  C  C266  1  0.615500  0.540700  0.153600  1.0  -0.1042
  C  C267  1  0.323200  0.826800  0.436200  1.0  0.2687
  C  C268  1  0.295400  0.706100  0.091600  1.0  0.3224
  C  C269  1  0.509200  0.855700  0.033000  1.0  -0.1143
  C  C270  1  0.141300  0.449200  0.104900  1.0  -0.1373
  C  C271  1  0.895600  0.052600  0.487400  1.0  -0.107
  C  C272  1  0.361800  0.884700  0.400000  1.0  -0.138
  C  C273  1  0.521600  0.156600  0.912300  1.0  0.0848
  C  C274  1  0.145100  0.527000  0.867900  1.0  -0.0358
  C  C275  1  0.552600  0.544000  0.200200  1.0  -0.111
  C  C276  1  0.608700  0.949200  0.395100  1.0  -0.1387
  C  C277  1  0.396500  0.943000  0.436400  1.0  -0.0714
  C  C278  1  0.291300  0.595300  0.593500  1.0  -0.1159
  C  C279  1  0.362400  0.657600  0.092800  1.0  -0.1552
  C  C280  1  0.799500  0.014500  0.779500  1.0  0.1901
  C  C281  1  0.450500  0.485500  0.279500  1.0  0.186
  C  C282  1  0.319700  0.381000  0.494700  1.0  -0.1223
  C  C283  1  0.645600  0.987400  0.447400  1.0  -0.1057
  C  C284  1  0.111800  0.900000  0.615300  1.0  -0.1398
  C  C285  1  0.978400  0.087700  0.843400  1.0  0.0871
  C  C286  1  0.676500  0.515900  0.833100  1.0  0.0098
  C  C287  1  0.861800  0.115300  0.600000  1.0  -0.1385
  C  C288  1  0.176500  0.484100  0.166900  1.0  0.0119
  C  C289  1  0.447400  0.200200  0.544000  1.0  -0.105
  C  C290  1  0.259200  0.533000  0.644300  1.0  -0.1136
  C  C291  1  0.896500  0.057000  0.563600  1.0  -0.0693
  C  C292  1  0.676800  0.436200  0.826800  1.0  0.2746
  C  C293  1  0.397600  0.934800  0.129000  1.0  0.0653
  C  C294  1  0.629400  0.065200  0.885600  1.0  -0.1171
  C  C295  1  0.379400  0.385600  0.434800  1.0  -0.1176
  C  C296  1  0.038100  0.060500  0.723300  1.0  0.1036
  C  C297  1  0.728400  0.343400  0.412300  1.0  0.0863
  C  C298  1  0.137600  0.907200  0.342400  1.0  -0.1579
  C  C299  1  0.541300  0.906500  0.095300  1.0  -0.1167
  C  C300  1  0.104900  0.973000  0.367900  1.0  -0.0355
  C  C301  1  0.602400  0.129000  0.934800  1.0  0.0692
  C  C302  1  0.370600  0.885600  0.065200  1.0  -0.1175
  C  C303  1  0.211900  0.439500  0.223300  1.0  0.1048
  C  C304  1  0.611800  0.100000  0.384700  1.0  -0.1415
  C  C305  1  0.573500  0.984100  0.333100  1.0  0.0102
  C  C306  1  0.288100  0.776700  0.560500  1.0  0.1011
  C  C307  1  0.146500  0.936400  0.557000  1.0  -0.0725
  C  C308  1  0.387600  0.157600  0.407200  1.0  -0.1557
  C  C309  1  0.197400  0.044000  0.299800  1.0  -0.111
  C  C310  1  0.478400  0.912300  0.156600  1.0  0.0886
  C  C311  1  0.129400  0.934800  0.114400  1.0  -0.1175
  C  C312  1  0.485900  0.227500  0.479200  1.0  0.0256
  C  C313  1  0.102400  0.871000  0.065200  1.0  0.0682
  C  C314  1  0.819700  0.619000  0.505300  1.0  -0.123
  C  C315  1  0.073500  0.015900  0.666900  1.0  0.0093
  C  C316  1  0.680300  0.494700  0.381000  1.0  -0.1289
  C  C317  1  0.950500  0.514500  0.720500  1.0  0.1863
  C  C318  1  0.697400  0.956000  0.700200  1.0  -0.1102
  C  C319  1  0.353500  0.443000  0.063600  1.0  -0.0734
  C  C320  1  0.299500  0.985500  0.220500  1.0  0.1893
  C  C321  1  0.395100  0.632100  0.027000  1.0  -0.0356
  C  C322  1  0.395600  0.947400  0.512600  1.0  -0.1035
  C  C323  1  0.138200  0.600000  0.115300  1.0  -0.1418
  C  C324  1  0.926500  0.666900  0.015900  1.0  0.0133
  N  N325  1  0.757100  0.285500  0.461900  1.0  -0.3751
  N  N326  1  0.742900  0.538100  0.714500  1.0  -0.3804
  N  N327  1  0.834600  0.070100  0.811800  1.0  -0.431
  N  N328  1  0.682300  0.235300  0.222200  1.0  0.7078
  N  N329  1  0.007100  0.038100  0.785500  1.0  -0.3819
  N  N330  1  0.567700  0.264700  0.722200  1.0  0.7072
  N  N331  1  0.165400  0.811800  0.070100  1.0  -0.4327
  N  N332  1  0.817700  0.777800  0.764700  1.0  0.709
  N  N333  1  0.084600  0.688200  0.570100  1.0  -0.4324
  N  N334  1  0.334600  0.929900  0.188200  1.0  -0.4319
  N  N335  1  0.415400  0.429900  0.311800  1.0  -0.4314
  N  N336  1  0.067700  0.735300  0.277800  1.0  0.7086
  N  N337  1  0.317700  0.222200  0.235300  1.0  0.7101
  N  N338  1  0.507100  0.961900  0.214500  1.0  -0.3776
  N  N339  1  0.992900  0.785500  0.038100  1.0  -0.3742
  N  N340  1  0.915400  0.570100  0.688200  1.0  -0.4312
  N  N341  1  0.932300  0.277800  0.735300  1.0  0.7102
  N  N342  1  0.492900  0.214500  0.961900  1.0  -0.3742
  N  N343  1  0.257100  0.714500  0.538100  1.0  -0.3737
  N  N344  1  0.584600  0.311800  0.429900  1.0  -0.4325
  N  N345  1  0.665400  0.188200  0.929900  1.0  -0.4317
  N  N346  1  0.432300  0.722200  0.264700  1.0  0.7088
  N  N347  1  0.182300  0.764700  0.777800  1.0  0.7063
  N  N348  1  0.242900  0.461900  0.285500  1.0  -0.3769
  Cl  Cl349  1  0.500000  0.105810  0.105810  1.0  -0.3041
  Cl  Cl350  1  0.000000  0.894190  0.894190  1.0  -0.3044
  Cl  Cl351  1  0.250000  0.605810  0.394190  1.0  -0.3032
  Cl  Cl352  1  0.750000  0.394190  0.605810  1.0  -0.3051
  O  O353  1  0.641000  0.241000  0.278900  1.0  -0.5946
  O  O354  1  0.763700  0.267700  0.848490  1.0  -0.646
  O  O355  1  0.743000  0.774800  0.735200  1.0  -0.5021
  O  O356  1  0.486300  0.232300  0.348490  1.0  -0.6459
  O  O357  1  0.459100  0.271200  0.096900  1.0  -0.6607
  O  O358  1  0.209100  0.596900  0.228800  1.0  -0.6641
  O  O359  1  0.243000  0.225200  0.264800  1.0  -0.5
  O  O360  1  0.736300  0.151510  0.732300  1.0  -0.6455
  O  O361  1  0.359000  0.278900  0.241000  1.0  -0.5954
  O  O362  1  0.355200  0.162700  0.221400  1.0  -0.6562
  O  O363  1  0.257000  0.735200  0.774800  1.0  -0.4988
  O  O364  1  0.959100  0.728800  0.903100  1.0  -0.6608
  O  O365  1  0.859000  0.721100  0.759000  1.0  -0.5951
  O  O366  1  0.394800  0.662700  0.278600  1.0  -0.6573
  O  O367  1  0.894800  0.337300  0.721400  1.0  -0.6585
  O  O368  1  0.263700  0.732300  0.151510  1.0  -0.6479
  O  O369  1  0.040900  0.903100  0.728800  1.0  -0.6642
  O  O370  1  0.391000  0.778900  0.259000  1.0  -0.5944
  O  O371  1  0.141000  0.759000  0.721100  1.0  -0.5937
  O  O372  1  0.013700  0.651510  0.767700  1.0  -0.6442
  O  O373  1  0.855200  0.837300  0.778600  1.0  -0.6569
  O  O374  1  0.105200  0.721400  0.337300  1.0  -0.6547
  O  O375  1  0.513700  0.348490  0.232300  1.0  -0.6471
  O  O376  1  0.540900  0.096900  0.271200  1.0  -0.6648
  O  O377  1  0.986300  0.767700  0.651510  1.0  -0.6483
  O  O378  1  0.109000  0.741000  0.221100  1.0  -0.5947
  O  O379  1  0.493000  0.235200  0.725200  1.0  -0.5
  O  O380  1  0.507000  0.725200  0.235200  1.0  -0.4998
  O  O381  1  0.007000  0.274800  0.764800  1.0  -0.4979
  O  O382  1  0.757000  0.264800  0.225200  1.0  -0.4979
  O  O383  1  0.144800  0.778600  0.837300  1.0  -0.6563
  O  O384  1  0.891000  0.221100  0.741000  1.0  -0.5946
  O  O385  1  0.609000  0.259000  0.778900  1.0  -0.5942
  O  O386  1  0.605200  0.278600  0.662700  1.0  -0.6555
  O  O387  1  0.236300  0.848490  0.267700  1.0  -0.6446
  O  O388  1  0.644800  0.221400  0.162700  1.0  -0.657
  O  O389  1  0.290900  0.771200  0.403100  1.0  -0.6599
  O  O390  1  0.993000  0.764800  0.274800  1.0  -0.4994
  O  O391  1  0.790900  0.228800  0.596900  1.0  -0.6596
  O  O392  1  0.709100  0.403100  0.771200  1.0  -0.6652
