# generated using pymatgen
data_LaH40C40N6ClO10
_symmetry_space_group_name_H-M   'P 1'
_cell_length_a   16.41740000
_cell_length_b   18.17980000
_cell_length_c   18.17980000
_cell_angle_alpha   90.00000000
_cell_angle_beta   90.00000000
_cell_angle_gamma   90.00000000
_symmetry_Int_Tables_number   1
_chemical_formula_structural   LaH40C40N6ClO10
_chemical_formula_sum   'La4 H160 C160 N24 Cl4 O40'
_cell_volume   5426.03488908
_cell_formula_units_Z   4
loop_
 _symmetry_equiv_pos_site_id
 _symmetry_equiv_pos_as_xyz
  1  'x, y, z'
loop_
 _atom_site_type_symbol
 _atom_site_label
 _atom_site_symmetry_multiplicity
 _atom_site_fract_x
 _atom_site_fract_y
 _atom_site_fract_z
 _atom_site_occupancy
 _atom_site_charge
  La  La1  1  0.250000  0.715200  0.284800  1.0  2.1974
  La  La2  1  0.750000  0.284800  0.715200  1.0  2.1956
  La  La3  1  0.500000  0.215200  0.215200  1.0  2.1954
  La  La4  1  0.000000  0.784800  0.784800  1.0  2.1965
  H  H5  1  0.099000  0.887000  0.016000  1.0  0.1202
  H  H6  1  0.283700  0.717400  0.910400  1.0  0.1369
  H  H7  1  0.811300  0.897500  0.529200  1.0  0.1197
  H  H8  1  0.499600  0.051300  0.805600  1.0  0.1132
  H  H9  1  0.436500  0.928700  0.981100  1.0  0.1027
  H  H10  1  0.388600  0.635400  0.917300  1.0  0.1439
  H  H11  1  0.367100  0.140700  0.365500  1.0  0.1324
  H  H12  1  0.181400  0.953000  0.094100  1.0  0.1154
  H  H13  1  0.568100  0.292100  0.531600  1.0  0.1198
  H  H14  1  0.857900  0.163300  0.916100  1.0  0.1112
  H  H15  1  0.796600  0.506900  0.353700  1.0  0.103
  H  H16  1  0.277700  0.361100  0.320500  1.0  0.1115
  H  H17  1  0.632900  0.365500  0.140700  1.0  0.1309
  H  H18  1  0.063500  0.018900  0.071300  1.0  0.1017
  H  H19  1  0.681400  0.047000  0.905900  1.0  0.115
  H  H20  1  0.145200  0.396200  0.102600  1.0  0.131
  H  H21  1  0.938700  0.397500  0.970800  1.0  0.1204
  H  H22  1  0.658600  0.615000  0.615200  1.0  0.1231
  H  H23  1  0.313500  0.428700  0.518900  1.0  0.1016
  H  H24  1  0.296600  0.493100  0.646300  1.0  0.1015
  H  H25  1  0.681900  0.207900  0.031600  1.0  0.12
  H  H26  1  0.138600  0.417300  0.864600  1.0  0.1442
  H  H27  1  0.533700  0.589600  0.217400  1.0  0.1353
  H  H28  1  0.607900  0.416100  0.336700  1.0  0.1141
  H  H29  1  0.999600  0.948700  0.194400  1.0  0.1128
  H  H30  1  0.895200  0.602600  0.103800  1.0  0.1346
  H  H31  1  0.035000  0.112700  0.715000  1.0  0.1222
  H  H32  1  0.465000  0.285000  0.887300  1.0  0.1233
  H  H33  1  0.611400  0.917300  0.635400  1.0  0.1438
  H  H34  1  0.703400  0.646300  0.493100  1.0  0.1001
  H  H35  1  0.813500  0.571300  0.481100  1.0  0.1015
  H  H36  1  0.361400  0.135400  0.582700  1.0  0.145
  H  H37  1  0.777700  0.638900  0.679500  1.0  0.111
  H  H38  1  0.216300  0.089600  0.282600  1.0  0.1358
  H  H39  1  0.115300  0.851600  0.618000  1.0  0.1143
  H  H40  1  0.750400  0.448700  0.305600  1.0  0.1141
  H  H41  1  0.599000  0.113000  0.984000  1.0  0.12
  H  H42  1  0.311300  0.102500  0.470800  1.0  0.1183
  H  H43  1  0.395200  0.397400  0.896200  1.0  0.1359
  H  H44  1  0.453400  0.993100  0.853700  1.0  0.1001
  H  H45  1  0.068600  0.547000  0.594100  1.0  0.1155
  H  H46  1  0.188700  0.529200  0.897500  1.0  0.1187
  H  H47  1  0.660000  0.533300  0.346900  1.0  0.1017
  H  H48  1  0.417900  0.986300  0.540600  1.0  0.1438
  H  H49  1  0.590000  0.966700  0.846900  1.0  0.1017
  H  H50  1  0.867100  0.859300  0.634500  1.0  0.1323
  H  H51  1  0.715000  0.612700  0.785000  1.0  0.1223
  H  H52  1  0.091400  0.115000  0.884800  1.0  0.1217
  H  H53  1  0.591400  0.885000  0.115200  1.0  0.1206
  H  H54  1  0.168900  0.913300  0.516900  1.0  0.1216
  H  H55  1  0.645200  0.603800  0.897400  1.0  0.1301
  H  H56  1  0.617100  0.134500  0.640700  1.0  0.1318
  H  H57  1  0.107900  0.583900  0.663300  1.0  0.1131
  H  H58  1  0.061300  0.970800  0.397500  1.0  0.1203
  H  H59  1  0.466300  0.217400  0.589600  1.0  0.1367
  H  H60  1  0.401000  0.984000  0.113000  1.0  0.1152
  H  H61  1  0.972300  0.138900  0.820500  1.0  0.1125
  H  H62  1  0.861400  0.864600  0.417300  1.0  0.1432
  H  H63  1  0.785000  0.215000  0.387300  1.0  0.1234
  H  H64  1  0.535000  0.887300  0.285000  1.0  0.1233
  H  H65  1  0.081100  0.586700  0.016900  1.0  0.1212
  H  H66  1  0.546600  0.853700  0.993100  1.0  0.1014
  H  H67  1  0.197600  0.454400  0.422600  1.0  0.123
  H  H68  1  0.447600  0.077400  0.954400  1.0  0.1224
  H  H69  1  0.318100  0.031600  0.207900  1.0  0.1216
  H  H70  1  0.582100  0.540600  0.986300  1.0  0.1444
  H  H71  1  0.884700  0.618000  0.851600  1.0  0.117
  H  H72  1  0.104800  0.103800  0.602600  1.0  0.1306
  H  H73  1  0.818100  0.968400  0.792100  1.0  0.1214
  H  H74  1  0.966300  0.782600  0.410400  1.0  0.1373
  H  H75  1  0.134700  0.648400  0.118000  1.0  0.1146
  H  H76  1  0.918900  0.016900  0.586700  1.0  0.1218
  H  H77  1  0.947600  0.922600  0.045600  1.0  0.1214
  H  H78  1  0.638600  0.582700  0.135400  1.0  0.1429
  H  H79  1  0.357900  0.836700  0.083900  1.0  0.1114
  H  H80  1  0.384700  0.382000  0.148400  1.0  0.1166
  H  H81  1  0.167900  0.040600  0.513700  1.0  0.1439
  H  H82  1  0.027700  0.820500  0.138900  1.0  0.1129
  H  H83  1  0.892100  0.663300  0.583900  1.0  0.1111
  H  H84  1  0.722300  0.320500  0.361100  1.0  0.1137
  H  H85  1  0.688700  0.470800  0.102500  1.0  0.1198
  H  H86  1  0.697600  0.545600  0.577400  1.0  0.1233
  H  H87  1  0.332100  0.486300  0.959400  1.0  0.144
  H  H88  1  0.651000  0.387000  0.484000  1.0  0.1191
  H  H89  1  0.215000  0.387300  0.215000  1.0  0.1221
  H  H90  1  0.615300  0.148400  0.382000  1.0  0.115
  H  H91  1  0.033700  0.410400  0.782600  1.0  0.1365
  H  H92  1  0.865300  0.118000  0.648400  1.0  0.1165
  H  H93  1  0.438700  0.602500  0.029200  1.0  0.1202
  H  H94  1  0.392100  0.336700  0.416100  1.0  0.1108
  H  H95  1  0.832100  0.513700  0.040600  1.0  0.1443
  H  H96  1  0.841400  0.384800  0.385000  1.0  0.1222
  H  H97  1  0.908600  0.884800  0.115000  1.0  0.1229
  H  H98  1  0.749600  0.694400  0.551300  1.0  0.1091
  H  H99  1  0.249600  0.305600  0.448700  1.0  0.1102
  H  H100  1  0.382900  0.640700  0.134500  1.0  0.132
  H  H101  1  0.349000  0.484000  0.387000  1.0  0.1149
  H  H102  1  0.561300  0.029200  0.602500  1.0  0.1196
  H  H103  1  0.563500  0.981100  0.928700  1.0  0.1016
  H  H104  1  0.418900  0.983100  0.413300  1.0  0.1219
  H  H105  1  0.151000  0.613000  0.516000  1.0  0.1205
  H  H106  1  0.302400  0.577400  0.545600  1.0  0.1222
  H  H107  1  0.634700  0.351600  0.882000  1.0  0.1143
  H  H108  1  0.340000  0.346900  0.533300  1.0  0.0989
  H  H109  1  0.854800  0.102600  0.396200  1.0  0.1354
  H  H110  1  0.222300  0.679500  0.638900  1.0  0.1126
  H  H111  1  0.642100  0.083900  0.836700  1.0  0.1139
  H  H112  1  0.046600  0.146300  0.006900  1.0  0.1012
  H  H113  1  0.500400  0.805600  0.051300  1.0  0.1116
  H  H114  1  0.142100  0.916100  0.163300  1.0  0.1126
  H  H115  1  0.604800  0.896200  0.397400  1.0  0.1317
  H  H116  1  0.082100  0.459400  0.013700  1.0  0.1439
  H  H117  1  0.472300  0.861100  0.179500  1.0  0.1122
  H  H118  1  0.953400  0.006900  0.146300  1.0  0.1004
  H  H119  1  0.318600  0.905900  0.047000  1.0  0.1157
  H  H120  1  0.931900  0.468400  0.707900  1.0  0.1211
  H  H121  1  0.052400  0.045600  0.922600  1.0  0.1237
  H  H122  1  0.901000  0.016000  0.887000  1.0  0.1135
  H  H123  1  0.668900  0.086700  0.483100  1.0  0.1217
  H  H124  1  0.888600  0.364600  0.082700  1.0  0.1439
  H  H125  1  0.158600  0.385000  0.384800  1.0  0.1216
  H  H126  1  0.667900  0.959400  0.486300  1.0  0.1442
  H  H127  1  0.160000  0.466700  0.653100  1.0  0.1023
  H  H128  1  0.431400  0.405900  0.453000  1.0  0.114
  H  H129  1  0.552400  0.954400  0.077400  1.0  0.1219
  H  H130  1  0.849000  0.516000  0.613000  1.0  0.1132
  H  H131  1  0.250400  0.551300  0.694400  1.0  0.1129
  H  H132  1  0.802400  0.422600  0.454400  1.0  0.1227
  H  H133  1  0.186500  0.481100  0.571300  1.0  0.1036
  H  H134  1  0.840000  0.653100  0.466700  1.0  0.0987
  H  H135  1  0.686500  0.518900  0.428700  1.0  0.1011
  H  H136  1  0.917900  0.013700  0.459400  1.0  0.144
  H  H137  1  0.181900  0.792100  0.968400  1.0  0.1199
  H  H138  1  0.132900  0.634500  0.859300  1.0  0.1312
  H  H139  1  0.431900  0.531600  0.292100  1.0  0.1219
  H  H140  1  0.910000  0.153100  0.033300  1.0  0.0984
  H  H141  1  0.831100  0.516900  0.913300  1.0  0.1214
  H  H142  1  0.936500  0.071300  0.018900  1.0  0.1033
  H  H143  1  0.410000  0.846900  0.966700  1.0  0.0987
  H  H144  1  0.331100  0.483100  0.086700  1.0  0.1217
  H  H145  1  0.716300  0.910400  0.717400  1.0  0.1367
  H  H146  1  0.354800  0.897400  0.603800  1.0  0.134
  H  H147  1  0.341400  0.615200  0.615000  1.0  0.1216
  H  H148  1  0.581100  0.413300  0.983100  1.0  0.122
  H  H149  1  0.568600  0.453000  0.405900  1.0  0.1155
  H  H150  1  0.818600  0.094100  0.953000  1.0  0.1152
  H  H151  1  0.068100  0.707900  0.468400  1.0  0.1194
  H  H152  1  0.000400  0.194400  0.948700  1.0  0.1091
  H  H153  1  0.783700  0.282600  0.089600  1.0  0.1364
  H  H154  1  0.285000  0.785000  0.612700  1.0  0.1231
  H  H155  1  0.117100  0.865500  0.359300  1.0  0.1313
  H  H156  1  0.111400  0.082700  0.364600  1.0  0.143
  H  H157  1  0.965000  0.715000  0.112700  1.0  0.1234
  H  H158  1  0.203400  0.353700  0.506900  1.0  0.1014
  H  H159  1  0.090000  0.033300  0.153100  1.0  0.1
  H  H160  1  0.931400  0.594100  0.547000  1.0  0.1145
  H  H161  1  0.365300  0.882000  0.351600  1.0  0.1165
  H  H162  1  0.527700  0.179500  0.861100  1.0  0.114
  H  H163  1  0.882900  0.359300  0.865500  1.0  0.1322
  H  H164  1  0.408600  0.115200  0.885000  1.0  0.1239
  C  C165  1  0.037300  0.062400  0.723600  1.0  0.1105
  C  C166  1  0.477900  0.910100  0.157600  1.0  0.0806
  C  C167  1  0.426700  0.332600  0.981000  1.0  -0.07
  C  C168  1  0.574200  0.060300  0.327200  1.0  0.2668
  C  C169  1  0.630900  0.065900  0.885900  1.0  -0.1238
  C  C170  1  0.611300  0.409800  0.157300  1.0  -0.1187
  C  C171  1  0.522100  0.157600  0.910100  1.0  0.0792
  C  C172  1  0.985900  0.772000  0.520600  1.0  0.0231
  C  C173  1  0.354500  0.444800  0.060200  1.0  -0.0346
  C  C174  1  0.022100  0.842400  0.089900  1.0  0.0791
  C  C175  1  0.947800  0.798300  0.456100  1.0  -0.1141
  C  C176  1  0.507100  0.855300  0.032700  1.0  -0.1074
  C  C177  1  0.893800  0.052700  0.484300  1.0  -0.0844
  C  C178  1  0.130900  0.934100  0.114100  1.0  -0.1244
  C  C179  1  0.450000  0.484700  0.279700  1.0  0.1791
  C  C180  1  0.854500  0.555200  0.939800  1.0  -0.0338
  C  C181  1  0.647200  0.370200  0.432900  1.0  0.058
  C  C182  1  0.295200  0.705900  0.091500  1.0  0.3445
  C  C183  1  0.462700  0.276400  0.937600  1.0  0.1089
  C  C184  1  0.926700  0.667400  0.019000  1.0  -0.0684
  C  C185  1  0.712700  0.562400  0.776400  1.0  0.1133
  C  C186  1  0.787300  0.223600  0.437600  1.0  0.1141
  C  C187  1  0.397200  0.932900  0.129800  1.0  0.0574
  C  C188  1  0.212700  0.437600  0.223600  1.0  0.1148
  C  C189  1  0.855900  0.866100  0.527100  1.0  -0.0703
  C  C190  1  0.514100  0.479400  0.228000  1.0  0.0235
  C  C191  1  0.704800  0.091500  0.705900  1.0  0.3438
  C  C192  1  0.105900  0.972900  0.366100  1.0  -0.0685
  C  C193  1  0.492900  0.032700  0.855300  1.0  -0.1059
  C  C194  1  0.264100  0.728000  0.020600  1.0  0.0226
  C  C195  1  0.395500  0.944800  0.439800  1.0  -0.0333
  C  C196  1  0.175800  0.560300  0.172800  1.0  0.2728
  C  C197  1  0.204800  0.908500  0.294100  1.0  0.3442
  C  C198  1  0.869100  0.114100  0.934100  1.0  -0.123
  C  C199  1  0.958900  0.903700  0.094400  1.0  -0.1088
  C  C200  1  0.115300  0.460000  0.845900  1.0  -0.0985
  C  C201  1  0.757100  0.467300  0.355300  1.0  -0.1072
  C  C202  1  0.888000  0.616000  0.902600  1.0  -0.1183
  C  C203  1  0.394100  0.633900  0.027100  1.0  -0.0692
  C  C204  1  0.992900  0.967300  0.144700  1.0  -0.1076
  C  C205  1  0.820300  0.619200  0.503800  1.0  -0.0777
  C  C206  1  0.619100  0.434100  0.385900  1.0  -0.1229
  C  C207  1  0.727900  0.342400  0.410100  1.0  0.0785
  C  C208  1  0.642500  0.552800  0.893800  1.0  -0.0775
  C  C209  1  0.300000  0.984700  0.220300  1.0  0.1813
  C  C210  1  0.824200  0.172800  0.560300  1.0  0.2669
  C  C211  1  0.380900  0.385900  0.434100  1.0  -0.1234
  C  C212  1  0.208900  0.405600  0.403700  1.0  -0.1073
  C  C213  1  0.357500  0.893800  0.552800  1.0  -0.0704
  C  C214  1  0.545200  0.408500  0.205900  1.0  0.3438
  C  C215  1  0.356200  0.447300  0.984300  1.0  -0.0835
  C  C216  1  0.977900  0.089900  0.842400  1.0  0.0802
  C  C217  1  0.142500  0.447200  0.106200  1.0  -0.0774
  C  C218  1  0.541100  0.905600  0.096300  1.0  -0.1093
  C  C219  1  0.134700  0.040000  0.345900  1.0  -0.0967
  C  C220  1  0.107500  0.052800  0.606200  1.0  -0.0782
  C  C221  1  0.605900  0.027100  0.633900  1.0  -0.0705
  C  C222  1  0.894100  0.366100  0.972900  1.0  -0.0679
  C  C223  1  0.795200  0.294100  0.908500  1.0  0.346
  C  C224  1  0.458900  0.096300  0.905600  1.0  -0.1084
  C  C225  1  0.287300  0.776400  0.562400  1.0  0.1125
  C  C226  1  0.106200  0.484300  0.052700  1.0  -0.0819
  C  C227  1  0.675800  0.439700  0.827200  1.0  0.2697
  C  C228  1  0.700000  0.220300  0.984700  1.0  0.1816
  C  C229  1  0.014100  0.520600  0.772000  1.0  0.0221
  C  C230  1  0.454800  0.205900  0.408500  1.0  0.3465
  C  C231  1  0.291100  0.596300  0.594400  1.0  -0.11
  C  C232  1  0.388700  0.157300  0.409800  1.0  -0.1151
  C  C233  1  0.929700  0.119200  0.996200  1.0  -0.0771
  C  C234  1  0.429700  0.880800  0.003800  1.0  -0.0782
  C  C235  1  0.895500  0.055200  0.560200  1.0  -0.0346
  C  C236  1  0.112000  0.902600  0.616000  1.0  -0.1135
  C  C237  1  0.200000  0.779700  0.015300  1.0  0.1806
  C  C238  1  0.176700  0.481000  0.167400  1.0  -0.0703
  C  C239  1  0.800000  0.015300  0.779700  1.0  0.1831
  C  C240  1  0.550000  0.279700  0.484700  1.0  0.182
  C  C241  1  0.880900  0.614100  0.565900  1.0  -0.125
  C  C242  1  0.634700  0.960000  0.654100  1.0  -0.0984
  C  C243  1  0.570300  0.003800  0.880800  1.0  -0.0777
  C  C244  1  0.791100  0.403700  0.405600  1.0  -0.1104
  C  C245  1  0.862000  0.116000  0.597400  1.0  -0.122
  C  C246  1  0.074200  0.939700  0.672800  1.0  0.2741
  C  C247  1  0.735900  0.020600  0.728000  1.0  0.0224
  C  C248  1  0.147200  0.629800  0.567100  1.0  0.0577
  C  C249  1  0.227900  0.657600  0.589900  1.0  0.0798
  C  C250  1  0.073300  0.019000  0.667400  1.0  -0.0723
  C  C251  1  0.302200  0.701700  0.956100  1.0  -0.1164
  C  C252  1  0.393800  0.947300  0.515700  1.0  -0.0825
  C  C253  1  0.861300  0.342700  0.909800  1.0  -0.1155
  C  C254  1  0.865300  0.345900  0.040000  1.0  -0.0959
  C  C255  1  0.388000  0.384000  0.097400  1.0  -0.1168
  C  C256  1  0.697800  0.956100  0.701700  1.0  -0.1176
  C  C257  1  0.644100  0.472900  0.133900  1.0  -0.069
  C  C258  1  0.447800  0.201700  0.543900  1.0  -0.1153
  C  C259  1  0.138000  0.597400  0.116000  1.0  -0.1158
  C  C260  1  0.742900  0.644700  0.532700  1.0  -0.1068
  C  C261  1  0.324200  0.827200  0.439700  1.0  0.2672
  C  C262  1  0.552200  0.543900  0.201700  1.0  -0.1209
  C  C263  1  0.369100  0.885900  0.065900  1.0  -0.1234
  C  C264  1  0.104500  0.560200  0.055200  1.0  -0.0337
  C  C265  1  0.197800  0.043900  0.298300  1.0  -0.1199
  C  C266  1  0.823300  0.167400  0.481000  1.0  -0.0694
  C  C267  1  0.852800  0.567100  0.629800  1.0  0.0574
  C  C268  1  0.320300  0.380800  0.496200  1.0  -0.0768
  C  C269  1  0.392500  0.393800  0.947200  1.0  -0.0706
  C  C270  1  0.111300  0.590200  0.842700  1.0  -0.1194
  C  C271  1  0.144100  0.527100  0.866100  1.0  -0.0679
  C  C272  1  0.612000  0.097400  0.384000  1.0  -0.1142
  C  C273  1  0.950000  0.515300  0.720300  1.0  0.176
  C  C274  1  0.425800  0.327200  0.060300  1.0  0.2612
  C  C275  1  0.638000  0.402600  0.884000  1.0  -0.1137
  C  C276  1  0.537300  0.937600  0.276400  1.0  0.113
  C  C277  1  0.679700  0.496200  0.380800  1.0  -0.0791
  C  C278  1  0.643800  0.984300  0.447300  1.0  -0.0821
  C  C279  1  0.615300  0.540000  0.154100  1.0  -0.0958
  C  C280  1  0.119100  0.565900  0.614100  1.0  -0.1226
  C  C281  1  0.045200  0.591500  0.794100  1.0  0.3435
  C  C282  1  0.179700  0.503800  0.619200  1.0  -0.0765
  C  C283  1  0.856200  0.552700  0.015700  1.0  -0.0819
  C  C284  1  0.676700  0.519000  0.832600  1.0  -0.0716
  C  C285  1  0.638700  0.090200  0.657300  1.0  -0.1176
  C  C286  1  0.041100  0.094400  0.903700  1.0  -0.1091
  C  C287  1  0.954800  0.794100  0.591500  1.0  0.3443
  C  C288  1  0.242900  0.355300  0.467300  1.0  -0.1047
  C  C289  1  0.362000  0.884000  0.402600  1.0  -0.1208
  C  C290  1  0.606200  0.515700  0.947300  1.0  -0.0814
  C  C291  1  0.604500  0.439800  0.944800  1.0  -0.0376
  C  C292  1  0.272100  0.410100  0.342400  1.0  0.0796
  C  C293  1  0.962700  0.723600  0.062400  1.0  0.1094
  C  C294  1  0.257100  0.532700  0.644700  1.0  -0.1076
  C  C295  1  0.007100  0.144700  0.967300  1.0  -0.1052
  C  C296  1  0.772100  0.589900  0.657600  1.0  0.0807
  C  C297  1  0.857500  0.106200  0.447200  1.0  -0.0713
  C  C298  1  0.897200  0.067100  0.870200  1.0  0.0568
  C  C299  1  0.323300  0.832600  0.519000  1.0  -0.0704
  C  C300  1  0.365300  0.654100  0.960000  1.0  -0.0975
  C  C301  1  0.235900  0.979400  0.272000  1.0  0.0236
  C  C302  1  0.352800  0.432900  0.370200  1.0  0.0583
  C  C303  1  0.102800  0.870200  0.067100  1.0  0.0573
  C  C304  1  0.573300  0.981000  0.332600  1.0  -0.0704
  C  C305  1  0.384700  0.154100  0.540000  1.0  -0.0964
  C  C306  1  0.070300  0.996200  0.119200  1.0  -0.0791
  C  C307  1  0.602800  0.129800  0.932900  1.0  0.0587
  C  C308  1  0.138700  0.909800  0.342700  1.0  -0.1189
  C  C309  1  0.645500  0.060200  0.444800  1.0  -0.0365
  C  C310  1  0.888700  0.842700  0.590200  1.0  -0.1149
  C  C311  1  0.708900  0.594400  0.596300  1.0  -0.1083
  C  C312  1  0.355900  0.133900  0.472900  1.0  -0.0686
  C  C313  1  0.884700  0.845900  0.460000  1.0  -0.097
  C  C314  1  0.607500  0.947200  0.393800  1.0  -0.0781
  C  C315  1  0.764100  0.272000  0.979400  1.0  0.0229
  C  C316  1  0.052200  0.456100  0.798300  1.0  -0.1182
  C  C317  1  0.892500  0.606200  0.052800  1.0  -0.0694
  C  C318  1  0.925800  0.672800  0.939700  1.0  0.2652
  C  C319  1  0.145500  0.939800  0.555200  1.0  -0.0346
  C  C320  1  0.143800  0.015700  0.552700  1.0  -0.0815
  C  C321  1  0.802200  0.298300  0.043900  1.0  -0.1151
  C  C322  1  0.485900  0.228000  0.479400  1.0  0.0229
  C  C323  1  0.361300  0.657300  0.090200  1.0  -0.1156
  C  C324  1  0.050000  0.720300  0.515300  1.0  0.1763
  N  N325  1  0.664500  0.188800  0.929200  1.0  -0.428
  N  N326  1  0.914500  0.570800  0.688800  1.0  -0.4268
  N  N327  1  0.414500  0.429200  0.311200  1.0  -0.4273
  N  N328  1  0.564800  0.265800  0.722400  1.0  0.7027
  N  N329  1  0.685200  0.234200  0.222400  1.0  0.705
  N  N330  1  0.164500  0.811200  0.070800  1.0  -0.4299
  N  N331  1  0.064800  0.734200  0.277600  1.0  0.7057
  N  N332  1  0.742600  0.539800  0.714400  1.0  -0.3744
  N  N333  1  0.814800  0.777600  0.765800  1.0  0.7055
  N  N334  1  0.435200  0.722400  0.265800  1.0  0.7054
  N  N335  1  0.242600  0.460200  0.285600  1.0  -0.3704
  N  N336  1  0.085500  0.688800  0.570800  1.0  -0.4304
  N  N337  1  0.492600  0.214400  0.960200  1.0  -0.3684
  N  N338  1  0.585500  0.311200  0.429200  1.0  -0.4293
  N  N339  1  0.992600  0.785600  0.039800  1.0  -0.3678
  N  N340  1  0.185200  0.765800  0.777600  1.0  0.7027
  N  N341  1  0.757400  0.285600  0.460200  1.0  -0.3701
  N  N342  1  0.007400  0.039800  0.785600  1.0  -0.377
  N  N343  1  0.335500  0.929200  0.188800  1.0  -0.4277
  N  N344  1  0.935200  0.277600  0.734200  1.0  0.7045
  N  N345  1  0.257400  0.714400  0.539800  1.0  -0.3686
  N  N346  1  0.314800  0.222400  0.234200  1.0  0.7047
  N  N347  1  0.507400  0.960200  0.214400  1.0  -0.3719
  N  N348  1  0.835500  0.070800  0.811200  1.0  -0.4273
  Cl  Cl349  1  0.500000  0.103380  0.103380  1.0  -0.4485
  Cl  Cl350  1  0.250000  0.603380  0.396620  1.0  -0.4494
  Cl  Cl351  1  0.000000  0.896620  0.896620  1.0  -0.451
  Cl  Cl352  1  0.750000  0.396620  0.603380  1.0  -0.4494
  O  O353  1  0.644000  0.239700  0.279000  1.0  -0.5787
  O  O354  1  0.264700  0.732100  0.150940  1.0  -0.6578
  O  O355  1  0.290600  0.771100  0.406100  1.0  -0.6592
  O  O356  1  0.991300  0.762600  0.275700  1.0  -0.4872
  O  O357  1  0.601300  0.279300  0.662500  1.0  -0.6677
  O  O358  1  0.758700  0.262600  0.224300  1.0  -0.4886
  O  O359  1  0.709400  0.406100  0.771100  1.0  -0.6601
  O  O360  1  0.040600  0.906100  0.728900  1.0  -0.6639
  O  O361  1  0.398700  0.662500  0.279300  1.0  -0.6729
  O  O362  1  0.985300  0.767900  0.650940  1.0  -0.6574
  O  O363  1  0.606000  0.260300  0.779000  1.0  -0.5782
  O  O364  1  0.241300  0.224300  0.262600  1.0  -0.4882
  O  O365  1  0.959400  0.728900  0.906100  1.0  -0.6595
  O  O366  1  0.459400  0.271100  0.093900  1.0  -0.6598
  O  O367  1  0.148700  0.779300  0.837500  1.0  -0.671
  O  O368  1  0.101300  0.720700  0.337500  1.0  -0.67
  O  O369  1  0.514700  0.349060  0.232100  1.0  -0.655
  O  O370  1  0.735300  0.150940  0.732100  1.0  -0.6554
  O  O371  1  0.851300  0.837500  0.779300  1.0  -0.6716
  O  O372  1  0.894000  0.221000  0.739700  1.0  -0.5787
  O  O373  1  0.008700  0.275700  0.762600  1.0  -0.4868
  O  O374  1  0.508700  0.724300  0.237400  1.0  -0.4879
  O  O375  1  0.741300  0.775700  0.737400  1.0  -0.4895
  O  O376  1  0.898700  0.337500  0.720700  1.0  -0.672
  O  O377  1  0.648700  0.220700  0.162500  1.0  -0.6695
  O  O378  1  0.014700  0.650940  0.767900  1.0  -0.6559
  O  O379  1  0.258700  0.737400  0.775700  1.0  -0.4869
  O  O380  1  0.491300  0.237400  0.724300  1.0  -0.4878
  O  O381  1  0.394000  0.779000  0.260300  1.0  -0.5785
  O  O382  1  0.351300  0.162500  0.220700  1.0  -0.6734
  O  O383  1  0.106000  0.739700  0.221000  1.0  -0.5784
  O  O384  1  0.540600  0.093900  0.271100  1.0  -0.6611
  O  O385  1  0.356000  0.279000  0.239700  1.0  -0.579
  O  O386  1  0.235300  0.849060  0.267900  1.0  -0.6542
  O  O387  1  0.764700  0.267900  0.849060  1.0  -0.6547
  O  O388  1  0.856000  0.721000  0.760300  1.0  -0.5789
  O  O389  1  0.209400  0.593900  0.228900  1.0  -0.6628
  O  O390  1  0.485300  0.232100  0.349060  1.0  -0.6548
  O  O391  1  0.144000  0.760300  0.721000  1.0  -0.5792
  O  O392  1  0.790600  0.228900  0.593900  1.0  -0.6587
