# generated using pymatgen
data_Gd4Co2H24C42N6O29
_symmetry_space_group_name_H-M   'P 1'
_cell_length_a   11.92480000
_cell_length_b   16.16060000
_cell_length_c   17.52540000
_cell_angle_alpha   90.08800000
_cell_angle_beta   98.56300000
_cell_angle_gamma   109.93900000
_symmetry_Int_Tables_number   1
_chemical_formula_structural   Gd4Co2H24C42N6O29
_chemical_formula_sum   'Gd8 Co4 H48 C84 N12 O58'
_cell_volume   3134.53545299
_cell_formula_units_Z   2
loop_
 _symmetry_equiv_pos_site_id
 _symmetry_equiv_pos_as_xyz
  1  'x, y, z'
loop_
 _atom_site_type_symbol
 _atom_site_label
 _atom_site_symmetry_multiplicity
 _atom_site_fract_x
 _atom_site_fract_y
 _atom_site_fract_z
 _atom_site_occupancy
 _atom_site_charge
  Gd  Gd1  1  0.437170  0.583960  0.663730  1.0  2.1904
  Gd  Gd2  1  0.469620  0.197260  0.211150  1.0  2.1645
  Gd  Gd3  1  0.223870  0.276820  0.263130  1.0  2.184
  Gd  Gd4  1  0.429890  0.206260  0.424570  1.0  2.1667
  Gd  Gd5  1  0.562830  0.416040  0.336270  1.0  2.1903
  Gd  Gd6  1  0.530380  0.802740  0.788850  1.0  2.1669
  Gd  Gd7  1  0.776130  0.723180  0.736870  1.0  2.1865
  Gd  Gd8  1  0.570110  0.793740  0.575430  1.0  2.1677
  Co  Co9  1  0.143900  0.320330  0.600640  1.0  0.9615
  Co  Co10  1  0.942950  0.313420  0.869080  1.0  0.7777
  Co  Co11  1  0.856100  0.679670  0.399360  1.0  0.9644
  Co  Co12  1  0.057050  0.686580  0.130920  1.0  0.7764
  H  H13  1  0.513600  0.055300  0.546600  1.0  0.035
  H  H14  1  0.295500  0.138700  0.704000  1.0  0.1015
  H  H15  1  0.356500  0.018700  0.734600  1.0  0.1106
  H  H16  1  0.333333  0.621700  0.978000  1.0  0.1158
  H  H17  1  0.208900  0.531800  0.057200  1.0  0.095
  H  H18  1  0.121800  0.469300  0.794400  1.0  0.0927
  H  H19  1  0.286600  0.245600  0.821300  1.0  0.1143
  H  H20  1  0.356900  0.224200  0.947200  1.0  0.0906
  H  H21  1  0.070700  0.254900  0.015400  1.0  0.0625
  H  H22  1  0.849000  0.466600  0.804200  1.0  0.0797
  H  H23  1  0.517500  0.211200  0.784000  1.0  0.0907
  H  H24  1  0.490700  0.341900  0.742500  1.0  0.1084
  H  H25  1  0.989900  0.569100  0.612600  1.0  0.1096
  H  H26  1  0.786500  0.498100  0.561800  1.0  0.1088
  H  H27  1  0.855800  0.274900  0.543500  1.0  0.0569
  H  H28  1  0.944400  0.104400  0.381100  1.0  0.0983
  H  H29  1  0.832800  0.990800  0.445700  1.0  0.073
  H  H30  1  0.982600  0.133700  0.643700  1.0  0.0747
  H  H31  1  0.646700  0.646900  0.591700  1.0  0.4155
  H  H32  1  0.276100  0.122500  0.297100  1.0  0.4364
  H  H33  1  0.589500  0.649400  0.811100  1.0  0.4165
  H  H34  1  0.379900  0.740500  0.642600  1.0  0.4165
  H  H35  1  0.038700  0.160600  0.260500  1.0  0.4074
  H  H36  1  0.065400  0.089600  0.265000  1.0  0.4282
  H  H37  1  0.486400  0.944700  0.453400  1.0  0.0346
  H  H38  1  0.704500  0.861300  0.296000  1.0  0.1021
  H  H39  1  0.643500  0.981300  0.265400  1.0  0.1101
  H  H40  1  0.666667  0.378300  0.022000  1.0  0.1148
  H  H41  1  0.791100  0.468200  0.942800  1.0  0.0954
  H  H42  1  0.878200  0.530700  0.205600  1.0  0.0926
  H  H43  1  0.713400  0.754400  0.178700  1.0  0.1144
  H  H44  1  0.643100  0.775800  0.052800  1.0  0.0916
  H  H45  1  0.929300  0.745100  0.984600  1.0  0.0618
  H  H46  1  0.151000  0.533400  0.195800  1.0  0.0794
  H  H47  1  0.482500  0.788800  0.216000  1.0  0.0908
  H  H48  1  0.509300  0.658100  0.257500  1.0  0.1071
  H  H49  1  0.010100  0.430900  0.387400  1.0  0.1099
  H  H50  1  0.213500  0.501900  0.438200  1.0  0.1085
  H  H51  1  0.144200  0.725100  0.456500  1.0  0.0554
  H  H52  1  0.055600  0.895600  0.618900  1.0  0.0983
  H  H53  1  0.167200  0.009200  0.554300  1.0  0.0737
  H  H54  1  0.017400  0.866300  0.356300  1.0  0.0752
  H  H55  1  0.353300  0.353100  0.408300  1.0  0.4176
  H  H56  1  0.723900  0.877500  0.702900  1.0  0.4348
  H  H57  1  0.410500  0.350600  0.188900  1.0  0.4164
  H  H58  1  0.620100  0.259500  0.357400  1.0  0.4161
  H  H59  1  0.961300  0.839400  0.739500  1.0  0.407
  H  H60  1  0.934600  0.910400  0.735000  1.0  0.4318
  C  C61  1  0.479800  0.943200  0.657000  1.0  0.7158
  C  C62  1  0.442600  0.024400  0.641700  1.0  -0.1342
  C  C63  1  0.469000  0.071900  0.579000  1.0  0.1929
  C  C64  1  0.372100  0.165600  0.608900  1.0  0.1089
  C  C65  1  0.340700  0.121100  0.672700  1.0  -0.1069
  C  C66  1  0.376200  0.049400  0.690900  1.0  -0.0475
  C  C67  1  0.342200  0.244500  0.584800  1.0  0.6843
  C  C68  1  0.324300  0.605100  0.823900  1.0  0.7159
  C  C69  1  0.239000  0.553800  0.878500  1.0  -0.1182
  C  C70  1  0.266100  0.573700  0.957100  1.0  -0.0351
  C  C71  1  0.191500  0.521000  0.003900  1.0  -0.0883
  C  C72  1  0.091900  0.452900  0.971100  1.0  0.1147
  C  C73  1  0.138300  0.482600  0.847500  1.0  0.1163
  C  C74  1  0.003800  0.389600  0.015400  1.0  0.6166
  C  C75  1  0.084900  0.287400  0.769500  1.0  0.6596
  C  C76  1  0.138400  0.268200  0.847400  1.0  0.0994
  C  C77  1  0.244600  0.249000  0.861100  1.0  -0.122
  C  C78  1  0.284900  0.235400  0.935800  1.0  -0.0505
  C  C79  1  0.219600  0.238000  0.995200  1.0  -0.2062
  C  C80  1  0.115900  0.254300  0.976600  1.0  0.1296
  C  C81  1  0.262800  0.226400  0.079700  1.0  0.7043
  C  C82  1  0.653700  0.504200  0.743200  1.0  0.6678
  C  C83  1  0.672600  0.418800  0.767700  1.0  -0.1654
  C  C84  1  0.782000  0.415000  0.798500  1.0  0.1512
  C  C85  1  0.697900  0.264000  0.813400  1.0  0.1236
  C  C86  1  0.583400  0.263200  0.786200  1.0  -0.0673
  C  C87  1  0.567000  0.340700  0.761800  1.0  -0.0656
  C  C88  1  0.724200  0.182500  0.834400  1.0  0.6702
  C  C89  1  0.171400  0.502300  0.628100  1.0  0.6545
  C  C90  1  0.036200  0.460700  0.603900  1.0  0.1277
  C  C91  1  0.960700  0.509500  0.597100  1.0  -0.1057
  C  C92  1  0.840400  0.467500  0.566800  1.0  -0.0301
  C  C93  1  0.801000  0.377600  0.543800  1.0  -0.1814
  C  C94  1  0.883300  0.335100  0.556300  1.0  0.1885
  C  C95  1  0.675200  0.331300  0.500900  1.0  0.6863
  C  C96  1  0.108600  0.265500  0.438900  1.0  0.6542
  C  C97  1  0.027100  0.186200  0.474800  1.0  0.0629
  C  C98  1  0.950900  0.109800  0.434600  1.0  -0.0808
  C  C99  1  0.885100  0.042000  0.473300  1.0  -0.0706
  C  C100  1  0.894500  0.047900  0.552700  1.0  -0.1379
  C  C101  1  0.973100  0.127700  0.590100  1.0  0.1648
  C  C102  1  0.828800  0.973900  0.599100  1.0  0.6743
  C  C103  1  0.520200  0.056800  0.343000  1.0  0.7189
  C  C104  1  0.557400  0.975600  0.358300  1.0  -0.1346
  C  C105  1  0.531000  0.928100  0.421000  1.0  0.1941
  C  C106  1  0.627900  0.834400  0.391100  1.0  0.1074
  C  C107  1  0.659300  0.878900  0.327300  1.0  -0.1071
  C  C108  1  0.623800  0.950600  0.309100  1.0  -0.0455
  C  C109  1  0.657800  0.755500  0.415200  1.0  0.6844
  C  C110  1  0.675700  0.394900  0.176100  1.0  0.7165
  C  C111  1  0.761000  0.446200  0.121500  1.0  -0.1175
  C  C112  1  0.733900  0.426300  0.042900  1.0  -0.0342
  C  C113  1  0.808500  0.479000  0.996100  1.0  -0.0865
  C  C114  1  0.908100  0.547100  0.028900  1.0  0.1133
  C  C115  1  0.861700  0.517400  0.152500  1.0  0.1158
  C  C116  1  0.996200  0.610400  0.984600  1.0  0.6177
  C  C117  1  0.915100  0.712600  0.230500  1.0  0.6608
  C  C118  1  0.861600  0.731800  0.152600  1.0  0.0999
  C  C119  1  0.755400  0.751000  0.138900  1.0  -0.1235
  C  C120  1  0.715100  0.764600  0.064200  1.0  -0.0505
  C  C121  1  0.780400  0.762000  0.004800  1.0  -0.2054
  C  C122  1  0.884100  0.745700  0.023400  1.0  0.1288
  C  C123  1  0.737200  0.773600  0.920300  1.0  0.7037
  C  C124  1  0.346300  0.495800  0.256800  1.0  0.6666
  C  C125  1  0.327400  0.581200  0.232300  1.0  -0.1647
  C  C126  1  0.218000  0.585000  0.201500  1.0  0.151
  C  C127  1  0.302100  0.736000  0.186600  1.0  0.1233
  C  C128  1  0.416600  0.736800  0.213800  1.0  -0.0678
  C  C129  1  0.433000  0.659300  0.238200  1.0  -0.0661
  C  C130  1  0.275800  0.817500  0.165600  1.0  0.6691
  C  C131  1  0.828600  0.497700  0.371900  1.0  0.6532
  C  C132  1  0.963800  0.539300  0.396100  1.0  0.1275
  C  C133  1  0.039300  0.490500  0.402900  1.0  -0.1079
  C  C134  1  0.159600  0.532500  0.433200  1.0  -0.0303
  C  C135  1  0.199000  0.622400  0.456200  1.0  -0.1778
  C  C136  1  0.116700  0.664900  0.443700  1.0  0.1881
  C  C137  1  0.324800  0.668700  0.499100  1.0  0.6869
  C  C138  1  0.891400  0.734500  0.561100  1.0  0.6571
  C  C139  1  0.972900  0.813800  0.525200  1.0  0.0618
  C  C140  1  0.049100  0.890200  0.565400  1.0  -0.0832
  C  C141  1  0.114900  0.958000  0.526700  1.0  -0.0714
  C  C142  1  0.105500  0.952100  0.447300  1.0  -0.1375
  C  C143  1  0.026900  0.872300  0.409900  1.0  0.1644
  C  C144  1  0.171200  0.026100  0.400900  1.0  0.6768
  N  N145  1  0.435400  0.140300  0.560900  1.0  -0.4634
  N  N146  1  0.064300  0.433000  0.893400  1.0  -0.2787
  N  N147  1  0.075400  0.269600  0.904800  1.0  -0.3265
  N  N148  1  0.999100  0.373200  0.585300  1.0  -0.3262
  N  N149  1  0.035100  0.195400  0.552300  1.0  -0.3252
  N  N150  1  0.797400  0.338600  0.821300  1.0  -0.3109
  N  N151  1  0.564600  0.859700  0.439100  1.0  -0.4631
  N  N152  1  0.935700  0.567000  0.106600  1.0  -0.2791
  N  N153  1  0.924600  0.730400  0.095200  1.0  -0.3263
  N  N154  1  0.000900  0.626800  0.414700  1.0  -0.3274
  N  N155  1  0.964900  0.804600  0.447700  1.0  -0.3239
  N  N156  1  0.202600  0.661400  0.178700  1.0  -0.3112
  O  O157  1  0.623300  0.670500  0.624500  1.0  -0.9679
  O  O158  1  0.321500  0.172800  0.292600  1.0  -0.9913
  O  O159  1  0.580200  0.673100  0.770600  1.0  -0.9596
  O  O160  1  0.437100  0.729700  0.666667  1.0  -1.0024
  O  O161  1  0.523800  0.918700  0.604300  1.0  -0.6801
  O  O162  1  0.464800  0.908500  0.719600  1.0  -0.7518
  O  O163  1  0.373100  0.277700  0.523300  1.0  -0.6911
  O  O164  1  0.291300  0.276300  0.629700  1.0  -0.6386
  O  O165  1  0.743800  0.570500  0.749800  1.0  -0.6731
  O  O166  1  0.545900  0.496400  0.719300  1.0  -0.7319
  O  O167  1  0.642700  0.111300  0.824600  1.0  -0.5094
  O  O168  1  0.836300  0.193700  0.858900  1.0  -0.5956
  O  O169  1  0.236100  0.454200  0.630300  1.0  -0.6388
  O  O170  1  0.217100  0.585000  0.639400  1.0  -0.6578
  O  O171  1  0.638100  0.249200  0.494200  1.0  -0.6526
  O  O172  1  0.614000  0.377900  0.472600  1.0  -0.7491
  O  O173  1  0.159800  0.333500  0.481900  1.0  -0.582
  O  O174  1  0.116100  0.257300  0.369400  1.0  -0.6557
  O  O175  1  0.849400  0.986600  0.670300  1.0  -0.6142
  O  O176  1  0.758500  0.904300  0.561800  1.0  -0.6813
  O  O177  1  0.370000  0.686700  0.833600  1.0  -0.7601
  O  O178  1  0.342200  0.556600  0.775000  1.0  -0.7021
  O  O179  1  0.918600  0.328500  0.974000  1.0  -0.5793
  O  O180  1  0.016500  0.402300  0.087300  1.0  -0.5779
  O  O181  1  0.133000  0.285500  0.713800  1.0  -0.6253
  O  O182  1  0.988100  0.305500  0.768900  1.0  -0.5832
  O  O183  1  0.357200  0.207200  0.091900  1.0  -0.7034
  O  O184  1  0.201900  0.238300  0.127700  1.0  -0.7088
  O  O185  1  0.062700  0.128700  0.235800  1.0  -0.7636
  O  O186  1  0.376700  0.329500  0.375500  1.0  -0.9685
  O  O187  1  0.678500  0.827200  0.707400  1.0  -0.9938
  O  O188  1  0.419800  0.326900  0.229400  1.0  -0.9599
  O  O189  1  0.562900  0.270300  0.333400  1.0  -1.0011
  O  O190  1  0.476200  0.081300  0.395700  1.0  -0.6791
  O  O191  1  0.535200  0.091500  0.280400  1.0  -0.7509
  O  O192  1  0.626900  0.722300  0.476700  1.0  -0.6922
  O  O193  1  0.708700  0.723700  0.370300  1.0  -0.6382
  O  O194  1  0.256200  0.429500  0.250200  1.0  -0.6738
  O  O195  1  0.454100  0.503600  0.280700  1.0  -0.7306
  O  O196  1  0.357300  0.888700  0.175400  1.0  -0.5095
  O  O197  1  0.163700  0.806300  0.141100  1.0  -0.5934
  O  O198  1  0.763900  0.545800  0.369700  1.0  -0.6379
  O  O199  1  0.782900  0.415000  0.360600  1.0  -0.6582
  O  O200  1  0.361900  0.750800  0.505800  1.0  -0.6534
  O  O201  1  0.386000  0.622100  0.527400  1.0  -0.7492
  O  O202  1  0.840200  0.666500  0.518100  1.0  -0.5814
  O  O203  1  0.883900  0.742700  0.630600  1.0  -0.6568
  O  O204  1  0.150600  0.013400  0.329700  1.0  -0.618
  O  O205  1  0.241500  0.095700  0.438200  1.0  -0.6816
  O  O206  1  0.630000  0.313300  0.166400  1.0  -0.7608
  O  O207  1  0.657800  0.443400  0.225000  1.0  -0.7013
  O  O208  1  0.081400  0.671500  0.026000  1.0  -0.5787
  O  O209  1  0.983500  0.597700  0.912700  1.0  -0.5773
  O  O210  1  0.867000  0.714500  0.286200  1.0  -0.6254
  O  O211  1  0.011900  0.694500  0.231100  1.0  -0.5841
  O  O212  1  0.642800  0.792800  0.908100  1.0  -0.7017
  O  O213  1  0.798100  0.761700  0.872300  1.0  -0.71
  O  O214  1  0.937300  0.871300  0.764200  1.0  -0.764
