# generated using pymatgen
data_CuH24(C3N)8
_symmetry_space_group_name_H-M   'P 1'
_cell_length_a   9.02600000
_cell_length_b   12.94200000
_cell_length_c   18.45700000
_cell_angle_alpha   81.71800000
_cell_angle_beta   84.77000000
_cell_angle_gamma   72.44300000
_symmetry_Int_Tables_number   1
_chemical_formula_structural   CuH24(C3N)8
_chemical_formula_sum   'Cu3 H72 C72 N24'
_cell_volume   2031.57129503
_cell_formula_units_Z   3
loop_
 _symmetry_equiv_pos_site_id
 _symmetry_equiv_pos_as_xyz
  1  'x, y, z'
loop_
 _atom_site_type_symbol
 _atom_site_label
 _atom_site_symmetry_multiplicity
 _atom_site_fract_x
 _atom_site_fract_y
 _atom_site_fract_z
 _atom_site_occupancy
 _atom_site_charge
  Cu  Cu1  1  0.420330  0.303590  0.347120  1.0  0.565
  Cu  Cu2  1  0.579670  0.696410  0.652880  1.0  0.5658
  Cu  Cu3  1  0.000000  0.000000  0.000000  1.0  0.6322
  H  H4  1  0.368500  0.452900  0.822100  1.0  0.0914
  H  H5  1  0.248800  0.287700  0.009800  1.0  0.0917
  H  H6  1  0.183400  0.613200  0.996800  1.0  0.0833
  H  H7  1  0.381200  0.638300  0.824200  1.0  0.071
  H  H8  1  0.195900  0.674400  0.821400  1.0  0.0792
  H  H9  1  0.039900  0.822300  0.899000  1.0  0.0847
  H  H10  1  0.376600  0.874600  0.998000  1.0  0.0854
  H  H11  1  0.495800  0.719400  0.926300  1.0  0.0931
  H  H12  1  0.385300  0.269700  0.820400  1.0  0.0895
  H  H13  1  0.452500  0.198600  0.895300  1.0  0.0983
  H  H14  1  0.305300  0.070300  0.955100  1.0  0.0773
  H  H15  1  0.881700  0.214600  0.884500  1.0  0.0873
  H  H16  1  0.053200  0.322000  0.824100  1.0  0.1014
  H  H17  1  0.034100  0.514800  0.091300  1.0  0.0729
  H  H18  1  0.086800  0.384300  0.101100  1.0  0.0957
  H  H19  1  0.238400  0.299500  0.209400  1.0  0.0886
  H  H20  1  0.389900  0.540000  0.254000  1.0  0.0829
  H  H21  1  0.266600  0.599200  0.134600  1.0  0.0989
  H  H22  1  0.882700  0.790000  0.320500  1.0  0.0946
  H  H23  1  0.076100  0.034200  0.319200  1.0  0.0962
  H  H24  1  0.157900  0.783800  0.483200  1.0  0.0731
  H  H25  1  0.953700  0.672700  0.495400  1.0  0.0801
  H  H26  1  0.907200  0.650500  0.418800  1.0  0.0919
  H  H27  1  0.109500  0.504400  0.351100  1.0  0.0825
  H  H28  1  0.441200  0.405800  0.493700  1.0  0.0853
  H  H29  1  0.246700  0.569400  0.534900  1.0  0.1115
  H  H30  1  0.950500  0.024700  0.212700  1.0  0.0781
  H  H31  1  0.889000  0.922200  0.208000  1.0  0.0836
  H  H32  1  0.757100  0.180800  0.286900  1.0  0.0957
  H  H33  1  0.370700  0.102500  0.273700  1.0  0.0885
  H  H34  1  0.589500  0.951500  0.232700  1.0  0.1045
  H  H35  1  0.246500  0.032300  0.406500  1.0  0.0953
  H  H36  1  0.148600  0.016300  0.481700  1.0  0.0962
  H  H37  1  0.280000  0.851000  0.577400  1.0  0.0804
  H  H38  1  0.712800  0.794200  0.495300  1.0  0.0854
  H  H39  1  0.541600  0.916400  0.401600  1.0  0.1011
  H  H40  1  0.631500  0.547100  0.177900  1.0  0.0902
  H  H41  1  0.751200  0.712300  0.990200  1.0  0.0913
  H  H42  1  0.816600  0.386800  0.003200  1.0  0.0829
  H  H43  1  0.618800  0.361700  0.175800  1.0  0.0709
  H  H44  1  0.804100  0.325600  0.178600  1.0  0.0795
  H  H45  1  0.960100  0.177700  0.101000  1.0  0.0847
  H  H46  1  0.623400  0.125400  0.002000  1.0  0.085
  H  H47  1  0.504200  0.280600  0.073700  1.0  0.0934
  H  H48  1  0.614700  0.730300  0.179600  1.0  0.0886
  H  H49  1  0.547500  0.801400  0.104700  1.0  0.099
  H  H50  1  0.694700  0.929700  0.044900  1.0  0.0771
  H  H51  1  0.118300  0.785400  0.115500  1.0  0.0873
  H  H52  1  0.946800  0.678000  0.175900  1.0  0.1018
  H  H53  1  0.965900  0.485200  0.908700  1.0  0.0745
  H  H54  1  0.913200  0.615700  0.898900  1.0  0.0949
  H  H55  1  0.761600  0.700500  0.790600  1.0  0.0881
  H  H56  1  0.610100  0.460000  0.746000  1.0  0.0819
  H  H57  1  0.733400  0.400800  0.865400  1.0  0.0987
  H  H58  1  0.117300  0.210000  0.679500  1.0  0.0938
  H  H59  1  0.923900  0.965800  0.680800  1.0  0.096
  H  H60  1  0.842100  0.216200  0.516800  1.0  0.0729
  H  H61  1  0.046300  0.327300  0.504600  1.0  0.0794
  H  H62  1  0.092800  0.349500  0.581200  1.0  0.0938
  H  H63  1  0.890500  0.495600  0.648900  1.0  0.0826
  H  H64  1  0.558800  0.594200  0.506300  1.0  0.0848
  H  H65  1  0.753300  0.430600  0.465100  1.0  0.112
  H  H66  1  0.049500  0.975300  0.787300  1.0  0.0789
  H  H67  1  0.111000  0.077800  0.792000  1.0  0.0827
  H  H68  1  0.242900  0.819200  0.713100  1.0  0.0943
  H  H69  1  0.629300  0.897500  0.726300  1.0  0.0885
  H  H70  1  0.410500  0.048500  0.767300  1.0  0.1039
  H  H71  1  0.753500  0.967700  0.593500  1.0  0.0954
  H  H72  1  0.851400  0.983700  0.518300  1.0  0.096
  H  H73  1  0.720000  0.149000  0.422600  1.0  0.0803
  H  H74  1  0.287200  0.205800  0.504700  1.0  0.0857
  H  H75  1  0.458400  0.083600  0.598400  1.0  0.1017
  C  C76  1  0.278600  0.548600  0.902910  1.0  0.0503
  C  C77  1  0.327100  0.452100  0.871290  1.0  -0.2601
  C  C78  1  0.316200  0.354900  0.910220  1.0  0.0373
  C  C79  1  0.255400  0.354400  0.982480  1.0  -0.1579
  C  C80  1  0.204500  0.449900  0.015020  1.0  0.055
  C  C81  1  0.217100  0.547400  0.974870  1.0  -0.1753
  C  C82  1  0.282900  0.652600  0.854730  1.0  -0.1448
  C  C83  1  0.139600  0.816200  0.915070  1.0  0.1006
  C  C84  1  0.322900  0.844400  0.968700  1.0  -0.0358
  C  C85  1  0.388700  0.759300  0.929700  1.0  -0.159
  C  C86  1  0.359800  0.252400  0.873200  1.0  -0.0883
  C  C87  1  0.220000  0.119400  0.929590  1.0  0.1182
  C  C88  1  0.989900  0.198600  0.890950  1.0  -0.0346
  C  C89  1  0.083000  0.257500  0.857840  1.0  -0.1372
  C  C90  1  0.125400  0.449100  0.090790  1.0  -0.1698
  C  C91  1  0.261900  0.366900  0.205740  1.0  0.091
  C  C92  1  0.343900  0.498500  0.229650  1.0  -0.0537
  C  C93  1  0.276400  0.531400  0.164290  1.0  -0.1369
  C  C94  1  0.018200  0.770000  0.407350  1.0  0.1124
  C  C95  1  0.946400  0.822100  0.342500  1.0  -0.2151
  C  C96  1  0.967900  0.920900  0.309950  1.0  0.0683
  C  C97  1  0.060400  0.967400  0.341900  1.0  -0.1849
  C  C98  1  0.131200  0.917300  0.407190  1.0  0.0744
  C  C99  1  0.109300  0.818600  0.438910  1.0  -0.1553
  C  C100  1  0.990600  0.664300  0.443770  1.0  -0.1413
  C  C101  1  0.169100  0.499800  0.391970  1.0  0.1079
  C  C102  1  0.348900  0.446600  0.469770  1.0  -0.0077
  C  C103  1  0.243200  0.536100  0.492680  1.0  -0.1439
  C  C104  1  0.889700  0.977800  0.239520  1.0  -0.119
  C  C105  1  0.686800  0.142400  0.278570  1.0  0.1196
  C  C106  1  0.477500  0.099400  0.271270  1.0  -0.004
  C  C107  1  0.596600  0.016300  0.248690  1.0  -0.1345
  C  C108  1  0.218800  0.977000  0.443650  1.0  -0.1629
  C  C109  1  0.368000  0.851300  0.544970  1.0  0.1071
  C  C110  1  0.602600  0.820800  0.500110  1.0  -0.037
  C  C111  1  0.509500  0.888000  0.448700  1.0  -0.1199
  C  C112  1  0.721400  0.451400  0.097090  1.0  0.0499
  C  C113  1  0.672900  0.547900  0.128710  1.0  -0.2608
  C  C114  1  0.683800  0.645100  0.089780  1.0  0.0389
  C  C115  1  0.744600  0.645600  0.017520  1.0  -0.1566
  C  C116  1  0.795500  0.550100  0.984980  1.0  0.0538
  C  C117  1  0.782900  0.452600  0.025130  1.0  -0.1753
  C  C118  1  0.717100  0.347400  0.145270  1.0  -0.1459
  C  C119  1  0.860400  0.183800  0.084930  1.0  0.1007
  C  C120  1  0.677100  0.155600  0.031300  1.0  -0.036
  C  C121  1  0.611300  0.240700  0.070300  1.0  -0.1594
  C  C122  1  0.640200  0.747600  0.126800  1.0  -0.0851
  C  C123  1  0.780000  0.880600  0.070410  1.0  0.1193
  C  C124  1  0.010100  0.801400  0.109050  1.0  -0.0318
  C  C125  1  0.917000  0.742500  0.142160  1.0  -0.1351
  C  C126  1  0.874600  0.550900  0.909210  1.0  -0.1709
  C  C127  1  0.738100  0.633100  0.794260  1.0  0.0894
  C  C128  1  0.656100  0.501500  0.770350  1.0  -0.0536
  C  C129  1  0.723600  0.468600  0.835710  1.0  -0.1366
  C  C130  1  0.981800  0.230000  0.592650  1.0  0.1122
  C  C131  1  0.053600  0.177900  0.657500  1.0  -0.2129
  C  C132  1  0.032100  0.079100  0.690050  1.0  0.0689
  C  C133  1  0.939600  0.032600  0.658100  1.0  -0.1873
  C  C134  1  0.868800  0.082700  0.592810  1.0  0.0726
  C  C135  1  0.890700  0.181400  0.561090  1.0  -0.1564
  C  C136  1  0.009400  0.335700  0.556230  1.0  -0.143
  C  C137  1  0.830900  0.500200  0.608030  1.0  0.1075
  C  C138  1  0.651100  0.553400  0.530230  1.0  -0.0068
  C  C139  1  0.756800  0.463900  0.507320  1.0  -0.1443
  C  C140  1  0.110300  0.022200  0.760480  1.0  -0.1181
  C  C141  1  0.313200  0.857600  0.721430  1.0  0.1205
  C  C142  1  0.522500  0.900600  0.728730  1.0  -0.0026
  C  C143  1  0.403400  0.983700  0.751310  1.0  -0.1343
  C  C144  1  0.781200  0.023000  0.556350  1.0  -0.1633
  C  C145  1  0.632000  0.148700  0.455030  1.0  0.1061
  C  C146  1  0.397400  0.179200  0.499890  1.0  -0.0382
  C  C147  1  0.490500  0.112000  0.551300  1.0  -0.1181
  N  N148  1  0.271500  0.742490  0.896280  1.0  0.0347
  N  N149  1  0.167100  0.879370  0.959110  1.0  -0.3676
  N  N150  1  0.228700  0.206510  0.882340  1.0  0.0322
  N  N151  1  0.078400  0.110820  0.935890  1.0  -0.3971
  N  N152  1  0.225200  0.447300  0.149540  1.0  0.0144
  N  N153  1  0.334900  0.394820  0.255030  1.0  -0.3573
  N  N154  1  0.129900  0.568990  0.442450  1.0  0.0286
  N  N155  1  0.302200  0.423760  0.406540  1.0  -0.3986
  N  N156  1  0.729700  0.044720  0.253640  1.0  0.0193
  N  N157  1  0.534900  0.178380  0.290080  1.0  -0.3989
  N  N158  1  0.360600  0.907100  0.477660  1.0  0.0406
  N  N159  1  0.512000  0.797250  0.560520  1.0  -0.3904
  N  N160  1  0.728500  0.257510  0.103720  1.0  0.0351
  N  N161  1  0.832900  0.120630  0.040890  1.0  -0.3679
  N  N162  1  0.771300  0.793490  0.117660  1.0  0.0316
  N  N163  1  0.921600  0.889180  0.064110  1.0  -0.3981
  N  N164  1  0.774800  0.552700  0.850460  1.0  0.0135
  N  N165  1  0.665100  0.605180  0.744970  1.0  -0.357
  N  N166  1  0.870100  0.431010  0.557550  1.0  0.029
  N  N167  1  0.697800  0.576240  0.593460  1.0  -0.4004
  N  N168  1  0.270300  0.955280  0.746360  1.0  0.0195
  N  N169  1  0.465100  0.821620  0.709920  1.0  -0.3978
  N  N170  1  0.639400  0.092900  0.522340  1.0  0.0412
  N  N171  1  0.488000  0.202750  0.439480  1.0  -0.3916
