# generated using pymatgen
data_CdH36C36(N7O3)2
_symmetry_space_group_name_H-M   'P 1'
_cell_length_a   9.33300000
_cell_length_b   12.26310000
_cell_length_c   20.47960000
_cell_angle_alpha   75.98660000
_cell_angle_beta   76.82880000
_cell_angle_gamma   67.63340000
_symmetry_Int_Tables_number   1
_chemical_formula_structural   CdH36C36(N7O3)2
_chemical_formula_sum   'Cd2 H72 C72 N28 O12'
_cell_volume   2078.87665034
_cell_formula_units_Z   2
loop_
 _symmetry_equiv_pos_site_id
 _symmetry_equiv_pos_as_xyz
  1  'x, y, z'
loop_
 _atom_site_type_symbol
 _atom_site_label
 _atom_site_symmetry_multiplicity
 _atom_site_fract_x
 _atom_site_fract_y
 _atom_site_fract_z
 _atom_site_occupancy
 _atom_site_charge
  Cd  Cd1  1  0.000000  0.000000  0.000000  1.0  0.7732
  Cd  Cd2  1  0.000000  0.500000  0.500000  1.0  0.7732
  H  H3  1  0.565800  0.820500  0.836100  1.0  0.1069
  H  H4  1  0.881500  0.502900  0.799900  1.0  0.1035
  H  H5  1  0.918700  0.654800  0.944200  1.0  0.103
  H  H6  1  0.664600  0.930400  0.904400  1.0  0.107
  H  H7  1  0.750100  0.844800  0.964800  1.0  0.104
  H  H8  1  0.568200  0.746900  0.068500  1.0  0.1309
  H  H9  1  0.285500  0.809500  0.101900  1.0  0.1101
  H  H10  1  0.367300  0.989000  0.921200  1.0  0.0863
  H  H11  1  0.534600  0.738200  0.750000  1.0  0.108
  H  H12  1  0.591900  0.598000  0.763000  1.0  0.1159
  H  H13  1  0.785800  0.818600  0.670200  1.0  0.1316
  H  H14  1  0.949900  0.749600  0.566200  1.0  0.1111
  H  H15  1  0.750200  0.513300  0.658300  1.0  0.1075
  H  H16  1  0.093800  0.465100  0.933500  1.0  0.1237
  H  H17  1  0.159300  0.478800  0.855600  1.0  0.1233
  H  H18  1  0.221200  0.295000  0.799400  1.0  0.1212
  H  H19  1  0.171500  0.107800  0.836600  1.0  0.0969
  H  H20  1  0.943600  0.302900  0.976300  1.0  0.0931
  H  H21  1  0.222400  0.679500  0.663900  1.0  0.1062
  H  H22  1  0.184300  0.997100  0.700100  1.0  0.1056
  H  H23  1  0.517700  0.845200  0.555800  1.0  0.1024
  H  H24  1  0.499400  0.569600  0.595600  1.0  0.1081
  H  H25  1  0.559700  0.655200  0.535200  1.0  0.1029
  H  H26  1  0.383600  0.753100  0.431500  1.0  0.1311
  H  H27  1  0.196900  0.690500  0.398100  1.0  0.1106
  H  H28  1  0.277500  0.511000  0.578800  1.0  0.0851
  H  H29  1  0.022800  0.761800  0.750000  1.0  0.1068
  H  H30  1  0.952900  0.902000  0.737000  1.0  0.1145
  H  H31  1  0.274600  0.681400  0.829800  1.0  0.1314
  H  H32  1  0.265700  0.750400  0.933800  1.0  0.112
  H  H33  1  0.921800  0.986700  0.841700  1.0  0.1087
  H  H34  1  0.492400  0.034900  0.566500  1.0  0.1219
  H  H35  1  0.493700  0.021200  0.644400  1.0  0.122
  H  H36  1  0.315600  0.205000  0.700600  1.0  0.1226
  H  H37  1  0.115900  0.392200  0.663400  1.0  0.0968
  H  H38  1  0.222800  0.197100  0.523700  1.0  0.0935
  H  H39  1  0.434200  0.179500  0.163900  1.0  0.1065
  H  H40  1  0.118500  0.497100  0.200100  1.0  0.1041
  H  H41  1  0.081300  0.345200  0.055800  1.0  0.103
  H  H42  1  0.335400  0.069600  0.095600  1.0  0.1078
  H  H43  1  0.249900  0.155200  0.035200  1.0  0.1039
  H  H44  1  0.431800  0.253100  0.931500  1.0  0.1304
  H  H45  1  0.714500  0.190500  0.898100  1.0  0.1099
  H  H46  1  0.632700  0.011000  0.078800  1.0  0.0861
  H  H47  1  0.465400  0.261800  0.250000  1.0  0.1069
  H  H48  1  0.408100  0.402000  0.237000  1.0  0.1154
  H  H49  1  0.214200  0.181400  0.329800  1.0  0.1312
  H  H50  1  0.050100  0.250400  0.433800  1.0  0.111
  H  H51  1  0.249800  0.486700  0.341700  1.0  0.1083
  H  H52  1  0.906200  0.534900  0.066500  1.0  0.1237
  H  H53  1  0.840700  0.521200  0.144400  1.0  0.1235
  H  H54  1  0.778800  0.705000  0.200600  1.0  0.1218
  H  H55  1  0.828500  0.892200  0.163400  1.0  0.0965
  H  H56  1  0.056400  0.697100  0.023700  1.0  0.0926
  H  H57  1  0.777600  0.320500  0.336100  1.0  0.1061
  H  H58  1  0.815700  0.002900  0.299900  1.0  0.1054
  H  H59  1  0.482300  0.154800  0.444200  1.0  0.1017
  H  H60  1  0.500600  0.430400  0.404400  1.0  0.1086
  H  H61  1  0.440300  0.344800  0.464800  1.0  0.1019
  H  H62  1  0.616400  0.246900  0.568500  1.0  0.13
  H  H63  1  0.803100  0.309500  0.601900  1.0  0.1099
  H  H64  1  0.722500  0.489000  0.421200  1.0  0.0853
  H  H65  1  0.977200  0.238200  0.250000  1.0  0.1065
  H  H66  1  0.047100  0.098000  0.263000  1.0  0.115
  H  H67  1  0.725400  0.318600  0.170200  1.0  0.1321
  H  H68  1  0.734300  0.249600  0.066200  1.0  0.1114
  H  H69  1  0.078200  0.013300  0.158300  1.0  0.1079
  H  H70  1  0.507600  0.965100  0.433500  1.0  0.1228
  H  H71  1  0.506300  0.978800  0.355600  1.0  0.1224
  H  H72  1  0.684400  0.795000  0.299400  1.0  0.1226
  H  H73  1  0.884100  0.607800  0.336600  1.0  0.0964
  H  H74  1  0.777200  0.802900  0.476300  1.0  0.094
  C  C75  1  0.733000  0.753800  0.897000  1.0  0.0545
  C  C76  1  0.655300  0.755700  0.845900  1.0  -0.1281
  C  C77  1  0.710100  0.661800  0.809400  1.0  0.1114
  C  C78  1  0.844100  0.565800  0.824200  1.0  -0.1325
  C  C79  1  0.922850  0.562300  0.874600  1.0  0.0344
  C  C80  1  0.865800  0.656900  0.910300  1.0  -0.2314
  C  C81  1  0.674000  0.856100  0.936300  1.0  -0.0688
  C  C82  1  0.493500  0.803200  0.042800  1.0  -0.1283
  C  C83  1  0.337600  0.838100  0.060900  1.0  0.0096
  C  C84  1  0.381750  0.936300  0.962200  1.0  0.1578
  C  C85  1  0.626500  0.666200  0.752800  1.0  -0.0501
  C  C86  1  0.798700  0.749100  0.655300  1.0  -0.1574
  C  C87  1  0.888800  0.710300  0.597700  1.0  0.0423
  C  C88  1  0.780210  0.580580  0.647800  1.0  0.1537
  C  C89  1  0.074500  0.463400  0.889200  1.0  -0.0655
  C  C90  1  0.159100  0.274100  0.839300  1.0  -0.1523
  C  C91  1  0.131400  0.171100  0.860500  1.0  0.0454
  C  C92  1  0.006500  0.276700  0.936900  1.0  0.1597
  C  C93  1  0.383800  0.746200  0.603000  1.0  0.0543
  C  C94  1  0.256900  0.744300  0.654100  1.0  -0.1277
  C  C95  1  0.181300  0.838200  0.690600  1.0  0.1107
  C  C96  1  0.234100  0.934200  0.675800  1.0  -0.1335
  C  C97  1  0.359750  0.937700  0.625400  1.0  0.034
  C  C98  1  0.433000  0.843100  0.589700  1.0  -0.2319
  C  C99  1  0.466400  0.643900  0.563700  1.0  -0.0692
  C  C100  1  0.339500  0.696800  0.457200  1.0  -0.129
  C  C101  1  0.236600  0.661900  0.439100  1.0  0.0108
  C  C102  1  0.280250  0.563700  0.537800  1.0  0.1589
  C  C103  1  0.045500  0.833800  0.747200  1.0  -0.0511
  C  C104  1  0.203100  0.750900  0.844700  1.0  -0.1561
  C  C105  1  0.196800  0.789700  0.902300  1.0  0.0423
  C  C106  1  0.008590  0.919420  0.852200  1.0  0.1513
  C  C107  1  0.427100  0.036600  0.610800  1.0  -0.0665
  C  C108  1  0.272500  0.225900  0.660700  1.0  -0.1525
  C  C109  1  0.163000  0.328900  0.639500  1.0  0.0453
  C  C110  1  0.220100  0.223300  0.563100  1.0  0.1583
  C  C111  1  0.267000  0.246200  0.103000  1.0  0.0545
  C  C112  1  0.344700  0.244300  0.154100  1.0  -0.1278
  C  C113  1  0.289900  0.338200  0.190600  1.0  0.1102
  C  C114  1  0.155900  0.434200  0.175800  1.0  -0.1311
  C  C115  1  0.077150  0.437700  0.125400  1.0  0.0341
  C  C116  1  0.134200  0.343100  0.089700  1.0  -0.2363
  C  C117  1  0.326000  0.143900  0.063700  1.0  -0.0675
  C  C118  1  0.506500  0.196800  0.957200  1.0  -0.1295
  C  C119  1  0.662400  0.161900  0.939100  1.0  0.0104
  C  C120  1  0.618250  0.063700  0.037800  1.0  0.1568
  C  C121  1  0.373500  0.333800  0.247200  1.0  -0.0512
  C  C122  1  0.201300  0.250900  0.344700  1.0  -0.1571
  C  C123  1  0.111200  0.289700  0.402300  1.0  0.0427
  C  C124  1  0.219790  0.419420  0.352200  1.0  0.1523
  C  C125  1  0.925500  0.536600  0.110800  1.0  -0.0638
  C  C126  1  0.840900  0.725900  0.160700  1.0  -0.1518
  C  C127  1  0.868600  0.828900  0.139500  1.0  0.0463
  C  C128  1  0.993500  0.723300  0.063100  1.0  0.1586
  C  C129  1  0.616200  0.253800  0.397000  1.0  0.0538
  C  C130  1  0.743100  0.255700  0.345900  1.0  -0.1276
  C  C131  1  0.818700  0.161800  0.309400  1.0  0.1111
  C  C132  1  0.765900  0.065800  0.324200  1.0  -0.1329
  C  C133  1  0.640250  0.062300  0.374600  1.0  0.0346
  C  C134  1  0.567000  0.156900  0.410300  1.0  -0.2365
  C  C135  1  0.533600  0.356100  0.436300  1.0  -0.0673
  C  C136  1  0.660500  0.303200  0.542800  1.0  -0.1294
  C  C137  1  0.763400  0.338100  0.560900  1.0  0.0104
  C  C138  1  0.719750  0.436300  0.462200  1.0  0.1573
  C  C139  1  0.954500  0.166200  0.252800  1.0  -0.0506
  C  C140  1  0.796900  0.249100  0.155300  1.0  -0.1583
  C  C141  1  0.803200  0.210300  0.097700  1.0  0.0418
  C  C142  1  0.991410  0.080580  0.147800  1.0  0.1514
  C  C143  1  0.572900  0.963400  0.389200  1.0  -0.0629
  C  C144  1  0.727500  0.774100  0.339300  1.0  -0.1536
  C  C145  1  0.837000  0.671100  0.360500  1.0  0.0452
  C  C146  1  0.779900  0.776700  0.436900  1.0  0.1588
  N  N147  1  0.521730  0.866440  0.979100  1.0  0.0412
  N  N148  1  0.266840  0.922420  0.009900  1.0  -0.3671
  N  N149  1  0.730870  0.665060  0.687000  1.0  0.0384
  N  N150  1  0.876310  0.603980  0.592800  1.0  -0.3908
  N  N151  1  0.076970  0.342540  0.888720  1.0  0.0481
  N  N152  1  0.035750  0.171270  0.922430  1.0  -0.4036
  N  N153  1  0.367270  0.633560  0.520900  1.0  0.0413
  N  N154  1  0.199160  0.577580  0.490100  1.0  -0.3677
  N  N155  1  0.082930  0.834940  0.813000  1.0  0.0388
  N  N156  1  0.073090  0.896020  0.907200  1.0  -0.3926
  N  N157  1  0.308230  0.157460  0.611280  1.0  0.0481
  N  N158  1  0.129450  0.328730  0.577570  1.0  -0.4032
  N  N159  1  0.478270  0.133560  0.020900  1.0  0.0404
  N  N160  1  0.733160  0.077580  0.990100  1.0  -0.3664
  N  N161  1  0.269130  0.334940  0.313000  1.0  0.0389
  N  N162  1  0.123690  0.396020  0.407200  1.0  -0.3925
  N  N163  1  0.923030  0.657460  0.111280  1.0  0.0479
  N  N164  1  0.964250  0.828730  0.077570  1.0  -0.4033
  N  N165  1  0.632730  0.366440  0.479100  1.0  0.0408
  N  N166  1  0.800840  0.422420  0.509900  1.0  -0.3672
  N  N167  1  0.917070  0.165060  0.187000  1.0  0.0386
  N  N168  1  0.926910  0.103980  0.092800  1.0  -0.392
  N  N169  1  0.691770  0.842540  0.388720  1.0  0.0483
  N  N170  1  0.870550  0.671270  0.422430  1.0  -0.4028
  N  N171  1  0.606500  0.043700  0.756900  1.0  0.4426
  N  N172  1  0.407100  0.456300  0.743100  1.0  0.4408
  N  N173  1  0.393500  0.956300  0.243100  1.0  0.4419
  N  N174  1  0.592900  0.543700  0.256900  1.0  0.4428
  O  O175  1  0.478000  0.025900  0.770300  1.0  -0.588
  O  O176  1  0.680000  0.032800  0.702200  1.0  -0.4231
  O  O177  1  0.654600  0.066700  0.798900  1.0  -0.4165
  O  O178  1  0.274200  0.474100  0.729700  1.0  -0.5871
  O  O179  1  0.415000  0.467200  0.797800  1.0  -0.4203
  O  O180  1  0.520200  0.433300  0.701100  1.0  -0.4161
  O  O181  1  0.522000  0.974100  0.229700  1.0  -0.5879
  O  O182  1  0.320000  0.967200  0.297800  1.0  -0.4212
  O  O183  1  0.345400  0.933300  0.201100  1.0  -0.4158
  O  O184  1  0.725800  0.525900  0.270300  1.0  -0.5873
  O  O185  1  0.585000  0.532800  0.202200  1.0  -0.4226
  O  O186  1  0.479800  0.566700  0.298900  1.0  -0.4167
