# generated using pymatgen
data_ZnH8C12(IN2)2
_symmetry_space_group_name_H-M   'P 1'
_cell_length_a   13.81630000
_cell_length_b   27.58140000
_cell_length_c   44.23600000
_cell_angle_alpha   90.00000000
_cell_angle_beta   90.00000000
_cell_angle_gamma   90.00000000
_symmetry_Int_Tables_number   1
_chemical_formula_structural   ZnH8C12(IN2)2
_chemical_formula_sum   'Zn24 H192 C288 I48 N96'
_cell_volume   16857.14066373
_cell_formula_units_Z   24
loop_
 _symmetry_equiv_pos_site_id
 _symmetry_equiv_pos_as_xyz
  1  'x, y, z'
loop_
 _atom_site_type_symbol
 _atom_site_label
 _atom_site_symmetry_multiplicity
 _atom_site_fract_x
 _atom_site_fract_y
 _atom_site_fract_z
 _atom_site_occupancy
 _atom_site_charge
  Zn  Zn1  1  0.359040  0.043960  0.088310  1.0  0.8313
  Zn  Zn2  1  0.381600  0.525150  0.085680  1.0  0.8494
  Zn  Zn3  1  0.313580  0.239740  0.820260  1.0  0.9114
  Zn  Zn4  1  0.640960  0.456040  0.588310  1.0  0.8316
  Zn  Zn5  1  0.618400  0.974850  0.585680  1.0  0.8517
  Zn  Zn6  1  0.686420  0.260260  0.320260  1.0  0.9118
  Zn  Zn7  1  0.859040  0.956040  0.411690  1.0  0.8323
  Zn  Zn8  1  0.881600  0.474850  0.414320  1.0  0.8507
  Zn  Zn9  1  0.813580  0.760260  0.679740  1.0  0.9113
  Zn  Zn10  1  0.140960  0.543960  0.911690  1.0  0.8317
  Zn  Zn11  1  0.118400  0.025150  0.914320  1.0  0.8517
  Zn  Zn12  1  0.186420  0.739740  0.179740  1.0  0.9113
  Zn  Zn13  1  0.640960  0.956040  0.911690  1.0  0.8323
  Zn  Zn14  1  0.618400  0.474850  0.914320  1.0  0.8521
  Zn  Zn15  1  0.686420  0.760260  0.179740  1.0  0.9116
  Zn  Zn16  1  0.359040  0.543960  0.411690  1.0  0.8324
  Zn  Zn17  1  0.381600  0.025150  0.414320  1.0  0.8498
  Zn  Zn18  1  0.313580  0.739740  0.679740  1.0  0.9114
  Zn  Zn19  1  0.140960  0.043960  0.588310  1.0  0.8313
  Zn  Zn20  1  0.118400  0.525150  0.585680  1.0  0.8514
  Zn  Zn21  1  0.186420  0.239740  0.320260  1.0  0.9112
  Zn  Zn22  1  0.859040  0.456040  0.088310  1.0  0.8304
  Zn  Zn23  1  0.881600  0.974850  0.085680  1.0  0.8502
  Zn  Zn24  1  0.813580  0.260260  0.820260  1.0  0.9115
  H  H25  1  0.982700  0.037100  0.966500  1.0  0.1041
  H  H26  1  0.822200  0.065700  0.975500  1.0  0.1046
  H  H27  1  0.961300  0.080900  0.881700  1.0  0.0905
  H  H28  1  0.806300  0.107200  0.888600  1.0  0.112
  H  H29  1  0.528600  0.218300  0.835800  1.0  0.0915
  H  H30  1  0.613900  0.179100  0.872200  1.0  0.0998
  H  H31  1  0.281900  0.188100  0.876300  1.0  0.0786
  H  H32  1  0.366800  0.148100  0.916100  1.0  0.122
  H  H33  1  0.300200  0.073200  0.025900  1.0  0.0811
  H  H34  1  0.369200  0.098300  0.981100  1.0  0.1204
  H  H35  1  0.545100  0.022200  0.057800  1.0  0.0984
  H  H36  1  0.628100  0.048400  0.013900  1.0  0.0946
  H  H37  1  0.442400  0.082600  0.147700  1.0  0.1121
  H  H38  1  0.474900  0.154800  0.169000  1.0  0.1015
  H  H39  1  0.377500  0.148600  0.070100  1.0  0.0931
  H  H40  1  0.408000  0.222700  0.091000  1.0  0.1
  H  H41  1  0.397100  0.417500  0.069400  1.0  0.09
  H  H42  1  0.424600  0.344500  0.093100  1.0  0.1093
  H  H43  1  0.440800  0.488100  0.146500  1.0  0.0953
  H  H44  1  0.473800  0.417500  0.170800  1.0  0.0985
  H  H45  1  0.626400  0.338200  0.280300  1.0  0.0775
  H  H46  1  0.564200  0.349800  0.230400  1.0  0.117
  H  H47  1  0.563300  0.201400  0.277400  1.0  0.0827
  H  H48  1  0.506400  0.208400  0.227700  1.0  0.1065
  H  H49  1  0.017300  0.462900  0.466500  1.0  0.1038
  H  H50  1  0.177800  0.434300  0.475500  1.0  0.1043
  H  H51  1  0.038700  0.419100  0.381700  1.0  0.0906
  H  H52  1  0.193700  0.392800  0.388600  1.0  0.1121
  H  H53  1  0.471400  0.281700  0.335800  1.0  0.0912
  H  H54  1  0.386100  0.320900  0.372200  1.0  0.1018
  H  H55  1  0.718100  0.311900  0.376300  1.0  0.0766
  H  H56  1  0.633200  0.351900  0.416100  1.0  0.1219
  H  H57  1  0.699800  0.426800  0.525900  1.0  0.081
  H  H58  1  0.630800  0.401700  0.481100  1.0  0.1207
  H  H59  1  0.454900  0.477800  0.557800  1.0  0.0994
  H  H60  1  0.371900  0.451600  0.513900  1.0  0.0953
  H  H61  1  0.557600  0.417400  0.647700  1.0  0.1119
  H  H62  1  0.525100  0.345200  0.669000  1.0  0.1018
  H  H63  1  0.622500  0.351400  0.570100  1.0  0.0932
  H  H64  1  0.592000  0.277300  0.591000  1.0  0.0997
  H  H65  1  0.602900  0.082500  0.569400  1.0  0.0903
  H  H66  1  0.575400  0.155500  0.593100  1.0  0.1098
  H  H67  1  0.559200  0.011900  0.646500  1.0  0.0949
  H  H68  1  0.526200  0.082500  0.670800  1.0  0.0985
  H  H69  1  0.373600  0.161800  0.780300  1.0  0.0781
  H  H70  1  0.435800  0.150200  0.730400  1.0  0.1168
  H  H71  1  0.436700  0.298600  0.777400  1.0  0.0823
  H  H72  1  0.493600  0.291600  0.727700  1.0  0.1068
  H  H73  1  0.482700  0.962900  0.533500  1.0  0.1032
  H  H74  1  0.322200  0.934300  0.524500  1.0  0.1055
  H  H75  1  0.461300  0.919100  0.618300  1.0  0.091
  H  H76  1  0.306300  0.892800  0.611400  1.0  0.1121
  H  H77  1  0.028600  0.781700  0.664200  1.0  0.0912
  H  H78  1  0.113900  0.820900  0.627800  1.0  0.1
  H  H79  1  0.781900  0.811900  0.623700  1.0  0.0789
  H  H80  1  0.866800  0.851900  0.583900  1.0  0.1206
  H  H81  1  0.800200  0.926800  0.474100  1.0  0.0811
  H  H82  1  0.869200  0.901700  0.518900  1.0  0.1205
  H  H83  1  0.045100  0.977800  0.442200  1.0  0.0985
  H  H84  1  0.128100  0.951600  0.486100  1.0  0.095
  H  H85  1  0.942400  0.917400  0.352300  1.0  0.1114
  H  H86  1  0.974900  0.845200  0.331000  1.0  0.1016
  H  H87  1  0.877500  0.851400  0.429900  1.0  0.0932
  H  H88  1  0.908000  0.777300  0.409000  1.0  0.1005
  H  H89  1  0.897100  0.582500  0.430600  1.0  0.0906
  H  H90  1  0.924600  0.655500  0.406900  1.0  0.1091
  H  H91  1  0.940800  0.511900  0.353500  1.0  0.0942
  H  H92  1  0.973800  0.582500  0.329200  1.0  0.0988
  H  H93  1  0.126400  0.661800  0.219700  1.0  0.0775
  H  H94  1  0.064200  0.650200  0.269600  1.0  0.1166
  H  H95  1  0.063300  0.798600  0.222600  1.0  0.0817
  H  H96  1  0.006400  0.791600  0.272300  1.0  0.1069
  H  H97  1  0.517300  0.537100  0.033500  1.0  0.1035
  H  H98  1  0.677800  0.565700  0.024500  1.0  0.1053
  H  H99  1  0.538700  0.580900  0.118300  1.0  0.0905
  H  H100  1  0.693700  0.607200  0.111400  1.0  0.1119
  H  H101  1  0.971400  0.718300  0.164200  1.0  0.0912
  H  H102  1  0.886100  0.679100  0.127800  1.0  0.1015
  H  H103  1  0.218100  0.688100  0.123700  1.0  0.0769
  H  H104  1  0.133200  0.648100  0.083900  1.0  0.121
  H  H105  1  0.199800  0.573200  0.974100  1.0  0.0812
  H  H106  1  0.130800  0.598300  0.018900  1.0  0.1201
  H  H107  1  0.954900  0.522200  0.942200  1.0  0.0988
  H  H108  1  0.871900  0.548400  0.986100  1.0  0.0957
  H  H109  1  0.057600  0.582600  0.852300  1.0  0.1112
  H  H110  1  0.025100  0.654800  0.831000  1.0  0.1014
  H  H111  1  0.122500  0.648600  0.929900  1.0  0.093
  H  H112  1  0.092000  0.722700  0.909000  1.0  0.1007
  H  H113  1  0.102900  0.917500  0.930600  1.0  0.0907
  H  H114  1  0.075400  0.844500  0.906900  1.0  0.1092
  H  H115  1  0.059200  0.988100  0.853500  1.0  0.0949
  H  H116  1  0.026200  0.917500  0.829200  1.0  0.0985
  H  H117  1  0.873600  0.838200  0.719700  1.0  0.0782
  H  H118  1  0.935800  0.849800  0.769600  1.0  0.1166
  H  H119  1  0.936700  0.701400  0.722600  1.0  0.0825
  H  H120  1  0.993600  0.708400  0.772300  1.0  0.107
  H  H121  1  0.017300  0.962900  0.033500  1.0  0.103
  H  H122  1  0.177800  0.934300  0.024500  1.0  0.1053
  H  H123  1  0.038700  0.919100  0.118300  1.0  0.0913
  H  H124  1  0.193700  0.892800  0.111400  1.0  0.1122
  H  H125  1  0.471400  0.781700  0.164200  1.0  0.0914
  H  H126  1  0.386100  0.820900  0.127800  1.0  0.1018
  H  H127  1  0.718100  0.811900  0.123700  1.0  0.0767
  H  H128  1  0.633200  0.851900  0.083900  1.0  0.1209
  H  H129  1  0.699800  0.926800  0.974100  1.0  0.0811
  H  H130  1  0.630800  0.901700  0.018900  1.0  0.1204
  H  H131  1  0.454900  0.977800  0.942200  1.0  0.0991
  H  H132  1  0.371900  0.951600  0.986100  1.0  0.0956
  H  H133  1  0.557600  0.917400  0.852300  1.0  0.1114
  H  H134  1  0.525100  0.845200  0.831000  1.0  0.1017
  H  H135  1  0.622500  0.851400  0.929900  1.0  0.0931
  H  H136  1  0.592000  0.777300  0.909000  1.0  0.1003
  H  H137  1  0.602900  0.582500  0.930600  1.0  0.0907
  H  H138  1  0.575400  0.655500  0.906900  1.0  0.1092
  H  H139  1  0.559200  0.511900  0.853500  1.0  0.0942
  H  H140  1  0.526200  0.582500  0.829200  1.0  0.0987
  H  H141  1  0.373600  0.661800  0.719700  1.0  0.0782
  H  H142  1  0.435800  0.650200  0.769600  1.0  0.1166
  H  H143  1  0.436700  0.798600  0.722600  1.0  0.0819
  H  H144  1  0.493600  0.791600  0.772300  1.0  0.1069
  H  H145  1  0.982700  0.537100  0.533500  1.0  0.1038
  H  H146  1  0.822200  0.565700  0.524500  1.0  0.1055
  H  H147  1  0.961300  0.580900  0.618300  1.0  0.0904
  H  H148  1  0.806300  0.607200  0.611400  1.0  0.112
  H  H149  1  0.528600  0.718300  0.664200  1.0  0.0912
  H  H150  1  0.613900  0.679100  0.627800  1.0  0.0996
  H  H151  1  0.281900  0.688100  0.623700  1.0  0.0789
  H  H152  1  0.366800  0.648100  0.583900  1.0  0.1205
  H  H153  1  0.300200  0.573200  0.474100  1.0  0.081
  H  H154  1  0.369200  0.598300  0.518900  1.0  0.1201
  H  H155  1  0.545100  0.522200  0.442200  1.0  0.0988
  H  H156  1  0.628100  0.548400  0.486100  1.0  0.0951
  H  H157  1  0.442400  0.582600  0.352300  1.0  0.1115
  H  H158  1  0.474900  0.654800  0.331000  1.0  0.1014
  H  H159  1  0.377500  0.648600  0.429900  1.0  0.0932
  H  H160  1  0.408000  0.722700  0.409000  1.0  0.1004
  H  H161  1  0.397100  0.917500  0.430600  1.0  0.0905
  H  H162  1  0.424600  0.844500  0.406900  1.0  0.1092
  H  H163  1  0.440800  0.988100  0.353500  1.0  0.095
  H  H164  1  0.473800  0.917500  0.329200  1.0  0.0985
  H  H165  1  0.626400  0.838200  0.219700  1.0  0.0779
  H  H166  1  0.564200  0.849800  0.269600  1.0  0.1167
  H  H167  1  0.563300  0.701400  0.222600  1.0  0.0825
  H  H168  1  0.506400  0.708400  0.272300  1.0  0.1067
  H  H169  1  0.517300  0.037100  0.466500  1.0  0.1043
  H  H170  1  0.677800  0.065700  0.475500  1.0  0.1041
  H  H171  1  0.538700  0.080900  0.381700  1.0  0.0904
  H  H172  1  0.693700  0.107200  0.388600  1.0  0.112
  H  H173  1  0.971400  0.218300  0.335800  1.0  0.0914
  H  H174  1  0.886100  0.179100  0.372200  1.0  0.1018
  H  H175  1  0.218100  0.188100  0.376300  1.0  0.0765
  H  H176  1  0.133200  0.148100  0.416100  1.0  0.122
  H  H177  1  0.199800  0.073200  0.525900  1.0  0.0812
  H  H178  1  0.130800  0.098300  0.481100  1.0  0.1206
  H  H179  1  0.954900  0.022200  0.557800  1.0  0.0994
  H  H180  1  0.871900  0.048400  0.513900  1.0  0.0953
  H  H181  1  0.057600  0.082600  0.647700  1.0  0.1118
  H  H182  1  0.025100  0.154800  0.669000  1.0  0.1018
  H  H183  1  0.122500  0.148600  0.570100  1.0  0.0929
  H  H184  1  0.092000  0.222700  0.591000  1.0  0.1002
  H  H185  1  0.102900  0.417500  0.569400  1.0  0.0904
  H  H186  1  0.075400  0.344500  0.593100  1.0  0.1093
  H  H187  1  0.059200  0.488100  0.646500  1.0  0.0949
  H  H188  1  0.026200  0.417500  0.670800  1.0  0.0984
  H  H189  1  0.873600  0.338200  0.780300  1.0  0.0779
  H  H190  1  0.935800  0.349800  0.730400  1.0  0.1169
  H  H191  1  0.936700  0.201400  0.777400  1.0  0.0826
  H  H192  1  0.993600  0.208400  0.727700  1.0  0.1067
  H  H193  1  0.482700  0.462900  0.966500  1.0  0.1036
  H  H194  1  0.322200  0.434300  0.975500  1.0  0.1047
  H  H195  1  0.461300  0.419100  0.881700  1.0  0.0906
  H  H196  1  0.306300  0.392800  0.888600  1.0  0.1119
  H  H197  1  0.028600  0.281700  0.835800  1.0  0.0911
  H  H198  1  0.113900  0.320900  0.872200  1.0  0.0998
  H  H199  1  0.781900  0.311900  0.876300  1.0  0.0786
  H  H200  1  0.866800  0.351900  0.916100  1.0  0.1218
  H  H201  1  0.800200  0.426800  0.025900  1.0  0.0812
  H  H202  1  0.869200  0.401700  0.981100  1.0  0.1205
  H  H203  1  0.045100  0.477800  0.057800  1.0  0.0981
  H  H204  1  0.128100  0.451600  0.013900  1.0  0.0949
  H  H205  1  0.942400  0.417400  0.147700  1.0  0.1119
  H  H206  1  0.974900  0.345200  0.169000  1.0  0.1015
  H  H207  1  0.877500  0.351400  0.070100  1.0  0.0933
  H  H208  1  0.908000  0.277300  0.091000  1.0  0.1
  H  H209  1  0.897100  0.082500  0.069400  1.0  0.0901
  H  H210  1  0.924600  0.155500  0.093100  1.0  0.1097
  H  H211  1  0.940800  0.011900  0.146500  1.0  0.095
  H  H212  1  0.973800  0.082500  0.170800  1.0  0.0987
  H  H213  1  0.126400  0.161800  0.280300  1.0  0.0773
  H  H214  1  0.064200  0.150200  0.230400  1.0  0.1168
  H  H215  1  0.063300  0.298600  0.277400  1.0  0.0821
  H  H216  1  0.006400  0.291600  0.227700  1.0  0.1069
  C  C217  1  0.946600  0.051400  0.950500  1.0  0.1073
  C  C218  1  0.850000  0.068500  0.955900  1.0  -0.0966
  C  C219  1  0.932200  0.077100  0.901000  1.0  0.1426
  C  C220  1  0.840800  0.093100  0.905000  1.0  -0.1383
  C  C221  1  0.798300  0.088900  0.933000  1.0  -0.0898
  C  C222  1  0.694500  0.101800  0.937800  1.0  0.3846
  C  C223  1  0.494200  0.203300  0.851900  1.0  0.1048
  C  C224  1  0.545300  0.180300  0.873600  1.0  -0.1091
  C  C225  1  0.350400  0.186200  0.875300  1.0  0.1466
  C  C226  1  0.399900  0.161900  0.899300  1.0  -0.1084
  C  C227  1  0.503400  0.159800  0.896300  1.0  -0.0642
  C  C228  1  0.556500  0.136500  0.920900  1.0  0.3058
  C  C229  1  0.368000  0.069200  0.023300  1.0  0.1368
  C  C230  1  0.407700  0.084000  0.996500  1.0  -0.155
  C  C231  1  0.511700  0.039400  0.042400  1.0  0.1254
  C  C232  1  0.560500  0.054100  0.015900  1.0  -0.0685
  C  C233  1  0.509600  0.076900  0.992500  1.0  -0.0715
  C  C234  1  0.557900  0.094600  0.965400  1.0  0.3989
  C  C235  1  0.434700  0.111300  0.136100  1.0  0.084
  C  C236  1  0.452200  0.154700  0.148800  1.0  -0.0519
  C  C237  1  0.396600  0.150400  0.090700  1.0  0.1116
  C  C238  1  0.413600  0.194600  0.103300  1.0  -0.1066
  C  C239  1  0.439900  0.200100  0.134600  1.0  -0.1155
  C  C240  1  0.452100  0.244200  0.150000  1.0  0.4423
  C  C241  1  0.411200  0.417300  0.090400  1.0  0.1228
  C  C242  1  0.426000  0.373500  0.104600  1.0  -0.1141
  C  C243  1  0.437400  0.458600  0.135500  1.0  0.1385
  C  C244  1  0.454300  0.416600  0.150300  1.0  -0.1127
  C  C245  1  0.443100  0.371100  0.135500  1.0  -0.0678
  C  C246  1  0.455500  0.325600  0.151100  1.0  0.3758
  C  C247  1  0.603000  0.310900  0.269400  1.0  0.1303
  C  C248  1  0.565200  0.318600  0.239500  1.0  -0.1252
  C  C249  1  0.567200  0.232000  0.267500  1.0  0.1172
  C  C250  1  0.530800  0.236200  0.237900  1.0  -0.1013
  C  C251  1  0.530500  0.278200  0.224500  1.0  -0.1107
  C  C252  1  0.493600  0.283900  0.192600  1.0  0.4656
  C  C253  1  0.053400  0.448600  0.450500  1.0  0.106
  C  C254  1  0.150000  0.431500  0.455900  1.0  -0.0967
  C  C255  1  0.067800  0.422900  0.401000  1.0  0.1438
  C  C256  1  0.159200  0.406900  0.405000  1.0  -0.1378
  C  C257  1  0.201700  0.411100  0.433000  1.0  -0.0896
  C  C258  1  0.305500  0.398200  0.437800  1.0  0.3836
  C  C259  1  0.505800  0.296700  0.351900  1.0  0.105
  C  C260  1  0.454700  0.319700  0.373600  1.0  -0.1112
  C  C261  1  0.649600  0.313800  0.375300  1.0  0.1473
  C  C262  1  0.600100  0.338100  0.399300  1.0  -0.1061
  C  C263  1  0.496600  0.340200  0.396300  1.0  -0.0651
  C  C264  1  0.443500  0.363500  0.420900  1.0  0.3053
  C  C265  1  0.632000  0.430800  0.523300  1.0  0.1365
  C  C266  1  0.592300  0.416000  0.496500  1.0  -0.156
  C  C267  1  0.488300  0.460600  0.542400  1.0  0.1245
  C  C268  1  0.439500  0.445900  0.515900  1.0  -0.0675
  C  C269  1  0.490400  0.423100  0.492500  1.0  -0.0719
  C  C270  1  0.442100  0.405400  0.465400  1.0  0.3986
  C  C271  1  0.565300  0.388700  0.636100  1.0  0.0821
  C  C272  1  0.547800  0.345300  0.648800  1.0  -0.0528
  C  C273  1  0.603400  0.349600  0.590700  1.0  0.1121
  C  C274  1  0.586400  0.305400  0.603300  1.0  -0.1074
  C  C275  1  0.560100  0.299900  0.634600  1.0  -0.1156
  C  C276  1  0.547900  0.255800  0.650000  1.0  0.4419
  C  C277  1  0.588800  0.082700  0.590400  1.0  0.1223
  C  C278  1  0.574000  0.126500  0.604600  1.0  -0.1151
  C  C279  1  0.562600  0.041400  0.635500  1.0  0.1378
  C  C280  1  0.545700  0.083400  0.650300  1.0  -0.1133
  C  C281  1  0.556900  0.128900  0.635500  1.0  -0.0681
  C  C282  1  0.544500  0.174400  0.651100  1.0  0.3755
  C  C283  1  0.397000  0.189100  0.769400  1.0  0.1321
  C  C284  1  0.434800  0.181400  0.739500  1.0  -0.1249
  C  C285  1  0.432800  0.268000  0.767500  1.0  0.1177
  C  C286  1  0.469200  0.263800  0.737900  1.0  -0.102
  C  C287  1  0.469500  0.221800  0.724500  1.0  -0.1103
  C  C288  1  0.506400  0.216100  0.692600  1.0  0.4656
  C  C289  1  0.446600  0.948600  0.549500  1.0  0.1064
  C  C290  1  0.350000  0.931500  0.544100  1.0  -0.098
  C  C291  1  0.432200  0.922900  0.599000  1.0  0.1423
  C  C292  1  0.340800  0.906900  0.595000  1.0  -0.1384
  C  C293  1  0.298300  0.911100  0.567000  1.0  -0.0899
  C  C294  1  0.194500  0.898200  0.562200  1.0  0.3837
  C  C295  1  0.994200  0.796700  0.648100  1.0  0.1054
  C  C296  1  0.045300  0.819700  0.626400  1.0  -0.1094
  C  C297  1  0.850400  0.813800  0.624700  1.0  0.146
  C  C298  1  0.899900  0.838100  0.600700  1.0  -0.1088
  C  C299  1  0.003400  0.840200  0.603700  1.0  -0.0647
  C  C300  1  0.056500  0.863500  0.579100  1.0  0.3053
  C  C301  1  0.868000  0.930800  0.476700  1.0  0.1371
  C  C302  1  0.907700  0.916000  0.503500  1.0  -0.1553
  C  C303  1  0.011700  0.960600  0.457600  1.0  0.1267
  C  C304  1  0.060500  0.945900  0.484100  1.0  -0.0681
  C  C305  1  0.009600  0.923100  0.507500  1.0  -0.0719
  C  C306  1  0.057900  0.905400  0.534600  1.0  0.3989
  C  C307  1  0.934700  0.888700  0.363900  1.0  0.0808
  C  C308  1  0.952200  0.845300  0.351200  1.0  -0.0537
  C  C309  1  0.896600  0.849600  0.409300  1.0  0.1127
  C  C310  1  0.913600  0.805400  0.396700  1.0  -0.1052
  C  C311  1  0.939900  0.799900  0.365400  1.0  -0.1156
  C  C312  1  0.952100  0.755800  0.350000  1.0  0.442
  C  C313  1  0.911200  0.582700  0.409600  1.0  0.122
  C  C314  1  0.926000  0.626500  0.395400  1.0  -0.1136
  C  C315  1  0.937400  0.541400  0.364500  1.0  0.1385
  C  C316  1  0.954300  0.583400  0.349700  1.0  -0.1116
  C  C317  1  0.943100  0.628900  0.364500  1.0  -0.0684
  C  C318  1  0.955500  0.674400  0.348900  1.0  0.3758
  C  C319  1  0.103000  0.689100  0.230600  1.0  0.1302
  C  C320  1  0.065200  0.681400  0.260500  1.0  -0.126
  C  C321  1  0.067200  0.768000  0.232500  1.0  0.1177
  C  C322  1  0.030800  0.763800  0.262100  1.0  -0.1022
  C  C323  1  0.030500  0.721800  0.275500  1.0  -0.111
  C  C324  1  0.993600  0.716100  0.307400  1.0  0.4657
  C  C325  1  0.553400  0.551400  0.049500  1.0  0.1069
  C  C326  1  0.650000  0.568500  0.044100  1.0  -0.0974
  C  C327  1  0.567800  0.577100  0.099000  1.0  0.1421
  C  C328  1  0.659200  0.593100  0.095000  1.0  -0.1395
  C  C329  1  0.701700  0.588900  0.067000  1.0  -0.0898
  C  C330  1  0.805500  0.601800  0.062200  1.0  0.3847
  C  C331  1  0.005800  0.703300  0.148100  1.0  0.1047
  C  C332  1  0.954700  0.680300  0.126400  1.0  -0.1114
  C  C333  1  0.149600  0.686200  0.124700  1.0  0.1474
  C  C334  1  0.100100  0.661900  0.100700  1.0  -0.1054
  C  C335  1  0.996600  0.659800  0.103700  1.0  -0.0645
  C  C336  1  0.943500  0.636500  0.079100  1.0  0.3062
  C  C337  1  0.132000  0.569200  0.976700  1.0  0.1358
  C  C338  1  0.092300  0.584000  0.003500  1.0  -0.1544
  C  C339  1  0.988300  0.539400  0.957600  1.0  0.1255
  C  C340  1  0.939500  0.554100  0.984100  1.0  -0.0674
  C  C341  1  0.990400  0.576900  0.007500  1.0  -0.0717
  C  C342  1  0.942100  0.594600  0.034600  1.0  0.3988
  C  C343  1  0.065300  0.611300  0.863900  1.0  0.0825
  C  C344  1  0.047800  0.654700  0.851200  1.0  -0.053
  C  C345  1  0.103400  0.650400  0.909300  1.0  0.1136
  C  C346  1  0.086400  0.694600  0.896700  1.0  -0.105
  C  C347  1  0.060100  0.700100  0.865400  1.0  -0.1154
  C  C348  1  0.047900  0.744200  0.850000  1.0  0.4419
  C  C349  1  0.088800  0.917300  0.909600  1.0  0.123
  C  C350  1  0.074000  0.873500  0.895400  1.0  -0.1144
  C  C351  1  0.062600  0.958600  0.864500  1.0  0.1395
  C  C352  1  0.045700  0.916600  0.849700  1.0  -0.1116
  C  C353  1  0.056900  0.871100  0.864500  1.0  -0.0678
  C  C354  1  0.044500  0.825600  0.848900  1.0  0.3758
  C  C355  1  0.897000  0.810900  0.730600  1.0  0.1319
  C  C356  1  0.934800  0.818600  0.760500  1.0  -0.1248
  C  C357  1  0.932800  0.732000  0.732500  1.0  0.1185
  C  C358  1  0.969200  0.736200  0.762100  1.0  -0.1009
  C  C359  1  0.969500  0.778200  0.775500  1.0  -0.1111
  C  C360  1  0.006400  0.783900  0.807400  1.0  0.4661
  C  C361  1  0.053400  0.948600  0.049500  1.0  0.1068
  C  C362  1  0.150000  0.931500  0.044100  1.0  -0.0973
  C  C363  1  0.067800  0.922900  0.099000  1.0  0.1424
  C  C364  1  0.159200  0.906900  0.095000  1.0  -0.1385
  C  C365  1  0.201700  0.911100  0.067000  1.0  -0.0893
  C  C366  1  0.305500  0.898200  0.062200  1.0  0.3835
  C  C367  1  0.505800  0.796700  0.148100  1.0  0.1055
  C  C368  1  0.454700  0.819700  0.126400  1.0  -0.1113
  C  C369  1  0.649600  0.813800  0.124700  1.0  0.1471
  C  C370  1  0.600100  0.838100  0.100700  1.0  -0.1058
  C  C371  1  0.496600  0.840200  0.103700  1.0  -0.065
  C  C372  1  0.443500  0.863500  0.079100  1.0  0.3055
  C  C373  1  0.632000  0.930800  0.976700  1.0  0.1366
  C  C374  1  0.592300  0.916000  0.003500  1.0  -0.1548
  C  C375  1  0.488300  0.960600  0.957600  1.0  0.1263
  C  C376  1  0.439500  0.945900  0.984100  1.0  -0.0669
  C  C377  1  0.490400  0.923100  0.007500  1.0  -0.0719
  C  C378  1  0.442100  0.905400  0.034600  1.0  0.399
  C  C379  1  0.565300  0.888700  0.863900  1.0  0.0809
  C  C380  1  0.547800  0.845300  0.851200  1.0  -0.0534
  C  C381  1  0.603400  0.849600  0.909300  1.0  0.1137
  C  C382  1  0.586400  0.805400  0.896700  1.0  -0.1053
  C  C383  1  0.560100  0.799900  0.865400  1.0  -0.1156
  C  C384  1  0.547900  0.755800  0.850000  1.0  0.4417
  C  C385  1  0.588800  0.582700  0.909600  1.0  0.1228
  C  C386  1  0.574000  0.626500  0.895400  1.0  -0.1138
  C  C387  1  0.562600  0.541400  0.864500  1.0  0.1377
  C  C388  1  0.545700  0.583400  0.849700  1.0  -0.1117
  C  C389  1  0.556900  0.628900  0.864500  1.0  -0.0681
  C  C390  1  0.544500  0.674400  0.848900  1.0  0.3756
  C  C391  1  0.397000  0.689100  0.730600  1.0  0.1318
  C  C392  1  0.434800  0.681400  0.760500  1.0  -0.1251
  C  C393  1  0.432800  0.768000  0.732500  1.0  0.1183
  C  C394  1  0.469200  0.763800  0.762100  1.0  -0.1022
  C  C395  1  0.469500  0.721800  0.775500  1.0  -0.1107
  C  C396  1  0.506400  0.716100  0.807400  1.0  0.4658
  C  C397  1  0.946600  0.551400  0.549500  1.0  0.1065
  C  C398  1  0.850000  0.568500  0.544100  1.0  -0.0981
  C  C399  1  0.932200  0.577100  0.599000  1.0  0.1422
  C  C400  1  0.840800  0.593100  0.595000  1.0  -0.1388
  C  C401  1  0.798300  0.588900  0.567000  1.0  -0.0895
  C  C402  1  0.694500  0.601800  0.562200  1.0  0.3844
  C  C403  1  0.494200  0.703300  0.648100  1.0  0.105
  C  C404  1  0.545300  0.680300  0.626400  1.0  -0.1091
  C  C405  1  0.350400  0.686200  0.624700  1.0  0.1461
  C  C406  1  0.399900  0.661900  0.600700  1.0  -0.1086
  C  C407  1  0.503400  0.659800  0.603700  1.0  -0.064
  C  C408  1  0.556500  0.636500  0.579100  1.0  0.3059
  C  C409  1  0.368000  0.569200  0.476700  1.0  0.137
  C  C410  1  0.407700  0.584000  0.503500  1.0  -0.1554
  C  C411  1  0.511700  0.539400  0.457600  1.0  0.1263
  C  C412  1  0.560500  0.554100  0.484100  1.0  -0.0672
  C  C413  1  0.509600  0.576900  0.507500  1.0  -0.0718
  C  C414  1  0.557900  0.594600  0.534600  1.0  0.3989
  C  C415  1  0.434700  0.611300  0.363900  1.0  0.0822
  C  C416  1  0.452200  0.654700  0.351200  1.0  -0.0538
  C  C417  1  0.396600  0.650400  0.409300  1.0  0.1125
  C  C418  1  0.413600  0.694600  0.396700  1.0  -0.1055
  C  C419  1  0.439900  0.700100  0.365400  1.0  -0.1154
  C  C420  1  0.452100  0.744200  0.350000  1.0  0.4422
  C  C421  1  0.411200  0.917300  0.409600  1.0  0.122
  C  C422  1  0.426000  0.873500  0.395400  1.0  -0.114
  C  C423  1  0.437400  0.958600  0.364500  1.0  0.14
  C  C424  1  0.454300  0.916600  0.349700  1.0  -0.1118
  C  C425  1  0.443100  0.871100  0.364500  1.0  -0.068
  C  C426  1  0.455500  0.825600  0.348900  1.0  0.3759
  C  C427  1  0.603000  0.810900  0.230600  1.0  0.131
  C  C428  1  0.565200  0.818600  0.260500  1.0  -0.1254
  C  C429  1  0.567200  0.732000  0.232500  1.0  0.1174
  C  C430  1  0.530800  0.736200  0.262100  1.0  -0.1013
  C  C431  1  0.530500  0.778200  0.275500  1.0  -0.1114
  C  C432  1  0.493600  0.783900  0.307400  1.0  0.4659
  C  C433  1  0.553400  0.051400  0.450500  1.0  0.1066
  C  C434  1  0.650000  0.068500  0.455900  1.0  -0.0965
  C  C435  1  0.567800  0.077100  0.401000  1.0  0.1439
  C  C436  1  0.659200  0.093100  0.405000  1.0  -0.1382
  C  C437  1  0.701700  0.088900  0.433000  1.0  -0.0899
  C  C438  1  0.805500  0.101800  0.437800  1.0  0.3848
  C  C439  1  0.005800  0.203300  0.351900  1.0  0.105
  C  C440  1  0.954700  0.180300  0.373600  1.0  -0.1115
  C  C441  1  0.149600  0.186200  0.375300  1.0  0.1475
  C  C442  1  0.100100  0.161900  0.399300  1.0  -0.1054
  C  C443  1  0.996600  0.159800  0.396300  1.0  -0.0647
  C  C444  1  0.943500  0.136500  0.420900  1.0  0.3061
  C  C445  1  0.132000  0.069200  0.523300  1.0  0.1359
  C  C446  1  0.092300  0.084000  0.496500  1.0  -0.1546
  C  C447  1  0.988300  0.039400  0.542400  1.0  0.1238
  C  C448  1  0.939500  0.054100  0.515900  1.0  -0.0685
  C  C449  1  0.990400  0.076900  0.492500  1.0  -0.0716
  C  C450  1  0.942100  0.094600  0.465400  1.0  0.3988
  C  C451  1  0.065300  0.111300  0.636100  1.0  0.0842
  C  C452  1  0.047800  0.154700  0.648800  1.0  -0.0526
  C  C453  1  0.103400  0.150400  0.590700  1.0  0.1121
  C  C454  1  0.086400  0.194600  0.603300  1.0  -0.1067
  C  C455  1  0.060100  0.200100  0.634600  1.0  -0.1155
  C  C456  1  0.047900  0.244200  0.650000  1.0  0.442
  C  C457  1  0.088800  0.417300  0.590400  1.0  0.1227
  C  C458  1  0.074000  0.373500  0.604600  1.0  -0.1154
  C  C459  1  0.062600  0.458600  0.635500  1.0  0.1387
  C  C460  1  0.045700  0.416600  0.650300  1.0  -0.113
  C  C461  1  0.056900  0.371100  0.635500  1.0  -0.0678
  C  C462  1  0.044500  0.325600  0.651100  1.0  0.3757
  C  C463  1  0.897000  0.310900  0.769400  1.0  0.1311
  C  C464  1  0.934800  0.318600  0.739500  1.0  -0.1248
  C  C465  1  0.932800  0.232000  0.767500  1.0  0.1182
  C  C466  1  0.969200  0.236200  0.737900  1.0  -0.1009
  C  C467  1  0.969500  0.278200  0.724500  1.0  -0.1104
  C  C468  1  0.006400  0.283900  0.692600  1.0  0.4658
  C  C469  1  0.446600  0.448600  0.950500  1.0  0.1068
  C  C470  1  0.350000  0.431500  0.955900  1.0  -0.0969
  C  C471  1  0.432200  0.422900  0.901000  1.0  0.1425
  C  C472  1  0.340800  0.406900  0.905000  1.0  -0.1382
  C  C473  1  0.298300  0.411100  0.933000  1.0  -0.0902
  C  C474  1  0.194500  0.398200  0.937800  1.0  0.3838
  C  C475  1  0.994200  0.296700  0.851900  1.0  0.1046
  C  C476  1  0.045300  0.319700  0.873600  1.0  -0.1092
  C  C477  1  0.850400  0.313800  0.875300  1.0  0.1467
  C  C478  1  0.899900  0.338100  0.899300  1.0  -0.1091
  C  C479  1  0.003400  0.340200  0.896300  1.0  -0.0648
  C  C480  1  0.056500  0.363500  0.920900  1.0  0.3052
  C  C481  1  0.868000  0.430800  0.023300  1.0  0.137
  C  C482  1  0.907700  0.416000  0.996500  1.0  -0.1558
  C  C483  1  0.011700  0.460600  0.042400  1.0  0.1255
  C  C484  1  0.060500  0.445900  0.015900  1.0  -0.0689
  C  C485  1  0.009600  0.423100  0.992500  1.0  -0.0718
  C  C486  1  0.057900  0.405400  0.965400  1.0  0.3986
  C  C487  1  0.934700  0.388700  0.136100  1.0  0.0821
  C  C488  1  0.952200  0.345300  0.148800  1.0  -0.0518
  C  C489  1  0.896600  0.349600  0.090700  1.0  0.1116
  C  C490  1  0.913600  0.305400  0.103300  1.0  -0.1063
  C  C491  1  0.939900  0.299900  0.134600  1.0  -0.1156
  C  C492  1  0.952100  0.255800  0.150000  1.0  0.4422
  C  C493  1  0.911200  0.082700  0.090400  1.0  0.1223
  C  C494  1  0.926000  0.126500  0.104600  1.0  -0.1138
  C  C495  1  0.937400  0.041400  0.135500  1.0  0.1384
  C  C496  1  0.954300  0.083400  0.150300  1.0  -0.1129
  C  C497  1  0.943100  0.128900  0.135500  1.0  -0.0681
  C  C498  1  0.955500  0.174400  0.151100  1.0  0.3757
  C  C499  1  0.103000  0.189100  0.269400  1.0  0.1307
  C  C500  1  0.065200  0.181400  0.239500  1.0  -0.1258
  C  C501  1  0.067200  0.268000  0.267500  1.0  0.1173
  C  C502  1  0.030800  0.263800  0.237900  1.0  -0.1019
  C  C503  1  0.030500  0.221800  0.224500  1.0  -0.1106
  C  C504  1  0.993600  0.216100  0.192600  1.0  0.4653
  I  I505  1  0.446230  0.978490  0.117810  1.0  -0.3937
  I  I506  1  0.176690  0.052820  0.084660  1.0  -0.4173
  I  I507  1  0.305530  0.506860  0.034150  1.0  -0.4442
  I  I508  1  0.295420  0.573570  0.125870  1.0  -0.3371
  I  I509  1  0.305660  0.330400  0.831340  1.0  -0.3117
  I  I510  1  0.156610  0.193130  0.812870  1.0  -0.3352
  I  I511  1  0.553770  0.521510  0.617810  1.0  -0.3928
  I  I512  1  0.823310  0.447180  0.584660  1.0  -0.4181
  I  I513  1  0.694470  0.993140  0.534150  1.0  -0.4429
  I  I514  1  0.704580  0.926430  0.625870  1.0  -0.3378
  I  I515  1  0.694340  0.169600  0.331340  1.0  -0.3125
  I  I516  1  0.843390  0.306870  0.312870  1.0  -0.336
  I  I517  1  0.946230  0.021510  0.382190  1.0  -0.3957
  I  I518  1  0.676690  0.947180  0.415340  1.0  -0.417
  I  I519  1  0.805530  0.493140  0.465850  1.0  -0.4443
  I  I520  1  0.795420  0.426430  0.374130  1.0  -0.3388
  I  I521  1  0.805660  0.669600  0.668660  1.0  -0.3119
  I  I522  1  0.656610  0.806870  0.687130  1.0  -0.3354
  I  I523  1  0.053770  0.478490  0.882190  1.0  -0.3945
  I  I524  1  0.323310  0.552820  0.915340  1.0  -0.418
  I  I525  1  0.194470  0.006860  0.965850  1.0  -0.4434
  I  I526  1  0.204580  0.073570  0.874130  1.0  -0.3388
  I  I527  1  0.194340  0.830400  0.168660  1.0  -0.3116
  I  I528  1  0.343390  0.693130  0.187130  1.0  -0.3357
  I  I529  1  0.553770  0.021510  0.882190  1.0  -0.3941
  I  I530  1  0.823310  0.947180  0.915340  1.0  -0.418
  I  I531  1  0.694470  0.493140  0.965850  1.0  -0.4434
  I  I532  1  0.704580  0.426430  0.874130  1.0  -0.339
  I  I533  1  0.694340  0.669600  0.168660  1.0  -0.312
  I  I534  1  0.843390  0.806870  0.187130  1.0  -0.3361
  I  I535  1  0.446230  0.478490  0.382190  1.0  -0.396
  I  I536  1  0.176690  0.552820  0.415340  1.0  -0.4172
  I  I537  1  0.305530  0.006860  0.465850  1.0  -0.4444
  I  I538  1  0.295420  0.073570  0.374130  1.0  -0.3385
  I  I539  1  0.305660  0.830400  0.668660  1.0  -0.3114
  I  I540  1  0.156610  0.693130  0.687130  1.0  -0.3351
  I  I541  1  0.053770  0.978490  0.617810  1.0  -0.393
  I  I542  1  0.323310  0.052820  0.584660  1.0  -0.4182
  I  I543  1  0.194470  0.506860  0.534150  1.0  -0.4431
  I  I544  1  0.204580  0.573570  0.625870  1.0  -0.3377
  I  I545  1  0.194340  0.330400  0.331340  1.0  -0.3119
  I  I546  1  0.343390  0.193130  0.312870  1.0  -0.3358
  I  I547  1  0.946230  0.521510  0.117810  1.0  -0.3935
  I  I548  1  0.676690  0.447180  0.084660  1.0  -0.4171
  I  I549  1  0.805530  0.993140  0.034150  1.0  -0.444
  I  I550  1  0.795420  0.926430  0.125870  1.0  -0.3373
  I  I551  1  0.805660  0.169600  0.831340  1.0  -0.3124
  I  I552  1  0.656610  0.306870  0.812870  1.0  -0.3353
  N  N553  1  0.985000  0.055600  0.923400  1.0  -0.3114
  N  N554  1  0.393600  0.206300  0.851900  1.0  -0.3575
  N  N555  1  0.417400  0.050000  0.045500  1.0  -0.3033
  N  N556  1  0.653200  0.128700  0.916600  1.0  -0.4516
  N  N557  1  0.505800  0.119200  0.944900  1.0  -0.3846
  N  N558  1  0.651100  0.083000  0.962500  1.0  -0.4761
  N  N559  1  0.406400  0.108200  0.107000  1.0  -0.3404
  N  N560  1  0.415900  0.460400  0.105400  1.0  -0.3462
  N  N561  1  0.606800  0.269000  0.282100  1.0  -0.3153
  N  N562  1  0.441900  0.285500  0.134600  1.0  -0.4971
  N  N563  1  0.484000  0.325900  0.180400  1.0  -0.4221
  N  N564  1  0.480100  0.241500  0.179000  1.0  -0.5613
  N  N565  1  0.015000  0.444400  0.423400  1.0  -0.3109
  N  N566  1  0.606400  0.293700  0.351900  1.0  -0.357
  N  N567  1  0.582600  0.450000  0.545500  1.0  -0.3014
  N  N568  1  0.346800  0.371300  0.416600  1.0  -0.4518
  N  N569  1  0.494200  0.380800  0.444900  1.0  -0.3864
  N  N570  1  0.348900  0.417000  0.462500  1.0  -0.4764
  N  N571  1  0.593600  0.391800  0.607000  1.0  -0.3412
  N  N572  1  0.584100  0.039600  0.605400  1.0  -0.3446
  N  N573  1  0.393200  0.231000  0.782100  1.0  -0.3156
  N  N574  1  0.558100  0.214500  0.634600  1.0  -0.4964
  N  N575  1  0.516000  0.174100  0.680400  1.0  -0.421
  N  N576  1  0.519900  0.258500  0.679000  1.0  -0.5626
  N  N577  1  0.485000  0.944400  0.576600  1.0  -0.3113
  N  N578  1  0.893600  0.793700  0.648100  1.0  -0.3554
  N  N579  1  0.917400  0.950000  0.454500  1.0  -0.3014
  N  N580  1  0.153200  0.871300  0.583400  1.0  -0.4514
  N  N581  1  0.005800  0.880800  0.555100  1.0  -0.3851
  N  N582  1  0.151100  0.917000  0.537500  1.0  -0.4757
  N  N583  1  0.906400  0.891800  0.393000  1.0  -0.342
  N  N584  1  0.915900  0.539600  0.394600  1.0  -0.3458
  N  N585  1  0.106800  0.731000  0.217900  1.0  -0.3164
  N  N586  1  0.941900  0.714500  0.365400  1.0  -0.4953
  N  N587  1  0.984000  0.674100  0.319600  1.0  -0.4215
  N  N588  1  0.980100  0.758500  0.321000  1.0  -0.5618
  N  N589  1  0.515000  0.555600  0.076600  1.0  -0.312
  N  N590  1  0.106400  0.706300  0.148100  1.0  -0.3579
  N  N591  1  0.082600  0.550000  0.954500  1.0  -0.3019
  N  N592  1  0.846800  0.628700  0.083400  1.0  -0.4524
  N  N593  1  0.994200  0.619200  0.055100  1.0  -0.3854
  N  N594  1  0.848900  0.583000  0.037500  1.0  -0.4757
  N  N595  1  0.093600  0.608200  0.893000  1.0  -0.3404
  N  N596  1  0.084100  0.960400  0.894600  1.0  -0.3465
  N  N597  1  0.893200  0.769000  0.717900  1.0  -0.3165
  N  N598  1  0.058100  0.785500  0.865400  1.0  -0.4945
  N  N599  1  0.016000  0.825900  0.819600  1.0  -0.422
  N  N600  1  0.019900  0.741500  0.821000  1.0  -0.5608
  N  N601  1  0.015000  0.944400  0.076600  1.0  -0.3112
  N  N602  1  0.606400  0.793700  0.148100  1.0  -0.356
  N  N603  1  0.582600  0.950000  0.954500  1.0  -0.3008
  N  N604  1  0.346800  0.871300  0.083400  1.0  -0.4516
  N  N605  1  0.494200  0.880800  0.055100  1.0  -0.3862
  N  N606  1  0.348900  0.917000  0.037500  1.0  -0.4759
  N  N607  1  0.593600  0.891800  0.893000  1.0  -0.3421
  N  N608  1  0.584100  0.539600  0.894600  1.0  -0.3446
  N  N609  1  0.393200  0.731000  0.717900  1.0  -0.3158
  N  N610  1  0.558100  0.714500  0.865400  1.0  -0.4944
  N  N611  1  0.516000  0.674100  0.819600  1.0  -0.4216
  N  N612  1  0.519900  0.758500  0.821000  1.0  -0.5615
  N  N613  1  0.985000  0.555600  0.576600  1.0  -0.3118
  N  N614  1  0.393600  0.706300  0.648100  1.0  -0.3572
  N  N615  1  0.417400  0.550000  0.454500  1.0  -0.3027
  N  N616  1  0.653200  0.628700  0.583400  1.0  -0.4523
  N  N617  1  0.505800  0.619200  0.555100  1.0  -0.384
  N  N618  1  0.651100  0.583000  0.537500  1.0  -0.4759
  N  N619  1  0.406400  0.608200  0.393000  1.0  -0.3406
  N  N620  1  0.415900  0.960400  0.394600  1.0  -0.3473
  N  N621  1  0.606800  0.769000  0.217900  1.0  -0.3166
  N  N622  1  0.441900  0.785500  0.365400  1.0  -0.4954
  N  N623  1  0.484000  0.825900  0.319600  1.0  -0.4221
  N  N624  1  0.480100  0.741500  0.321000  1.0  -0.5609
  N  N625  1  0.515000  0.055600  0.423400  1.0  -0.3117
  N  N626  1  0.106400  0.206300  0.351900  1.0  -0.3583
  N  N627  1  0.082600  0.050000  0.545500  1.0  -0.302
  N  N628  1  0.846800  0.128700  0.416600  1.0  -0.4511
  N  N629  1  0.994200  0.119200  0.444900  1.0  -0.3859
  N  N630  1  0.848900  0.083000  0.462500  1.0  -0.4763
  N  N631  1  0.093600  0.108200  0.607000  1.0  -0.34
  N  N632  1  0.084100  0.460400  0.605400  1.0  -0.3456
  N  N633  1  0.893200  0.269000  0.782100  1.0  -0.3156
  N  N634  1  0.058100  0.285500  0.634600  1.0  -0.4962
  N  N635  1  0.016000  0.325900  0.680400  1.0  -0.4222
  N  N636  1  0.019900  0.241500  0.679000  1.0  -0.561
  N  N637  1  0.485000  0.444400  0.923400  1.0  -0.3111
  N  N638  1  0.893600  0.293700  0.851900  1.0  -0.3568
  N  N639  1  0.917400  0.450000  0.045500  1.0  -0.3028
  N  N640  1  0.153200  0.371300  0.916600  1.0  -0.4518
  N  N641  1  0.005800  0.380800  0.944900  1.0  -0.3854
  N  N642  1  0.151100  0.417000  0.962500  1.0  -0.4759
  N  N643  1  0.906400  0.391800  0.107000  1.0  -0.3413
  N  N644  1  0.915900  0.039600  0.105400  1.0  -0.3462
  N  N645  1  0.106800  0.231000  0.282100  1.0  -0.3154
  N  N646  1  0.941900  0.214500  0.134600  1.0  -0.4973
  N  N647  1  0.984000  0.174100  0.180400  1.0  -0.421
  N  N648  1  0.980100  0.258500  0.179000  1.0  -0.5628
