# generated using pymatgen
data_ZnH8C12(IN2)2
_symmetry_space_group_name_H-M   'P 1'
_cell_length_a   13.88440000
_cell_length_b   28.35790000
_cell_length_c   44.81250000
_cell_angle_alpha   90.00000000
_cell_angle_beta   90.00000000
_cell_angle_gamma   90.00000000
_symmetry_Int_Tables_number   1
_chemical_formula_structural   ZnH8C12(IN2)2
_chemical_formula_sum   'Zn24 H192 C288 I48 N96'
_cell_volume   17644.13437418
_cell_formula_units_Z   24
loop_
 _symmetry_equiv_pos_site_id
 _symmetry_equiv_pos_as_xyz
  1  'x, y, z'
loop_
 _atom_site_type_symbol
 _atom_site_label
 _atom_site_symmetry_multiplicity
 _atom_site_fract_x
 _atom_site_fract_y
 _atom_site_fract_z
 _atom_site_occupancy
 _atom_site_charge
  Zn  Zn1  1  0.143320  0.050840  0.581760  1.0  0.8716
  Zn  Zn2  1  0.123920  0.519780  0.584420  1.0  0.8341
  Zn  Zn3  1  0.167590  0.240080  0.316510  1.0  0.8612
  Zn  Zn4  1  0.856680  0.449160  0.081760  1.0  0.8693
  Zn  Zn5  1  0.876080  0.980220  0.084420  1.0  0.8348
  Zn  Zn6  1  0.832410  0.259920  0.816510  1.0  0.8608
  Zn  Zn7  1  0.643320  0.949160  0.918240  1.0  0.8692
  Zn  Zn8  1  0.623920  0.480220  0.915580  1.0  0.8351
  Zn  Zn9  1  0.667590  0.759920  0.183490  1.0  0.8612
  Zn  Zn10  1  0.356680  0.550840  0.418240  1.0  0.8709
  Zn  Zn11  1  0.376080  0.019780  0.415580  1.0  0.8342
  Zn  Zn12  1  0.332410  0.740080  0.683490  1.0  0.86
  Zn  Zn13  1  0.856680  0.949160  0.418240  1.0  0.8695
  Zn  Zn14  1  0.876080  0.480220  0.415580  1.0  0.8353
  Zn  Zn15  1  0.832410  0.759920  0.683490  1.0  0.8605
  Zn  Zn16  1  0.143320  0.550840  0.918240  1.0  0.8703
  Zn  Zn17  1  0.123920  0.019780  0.915580  1.0  0.8344
  Zn  Zn18  1  0.167590  0.740080  0.183490  1.0  0.8612
  Zn  Zn19  1  0.356680  0.050840  0.081760  1.0  0.8721
  Zn  Zn20  1  0.376080  0.519780  0.084420  1.0  0.8339
  Zn  Zn21  1  0.332410  0.240080  0.816510  1.0  0.8601
  Zn  Zn22  1  0.643320  0.449160  0.581760  1.0  0.8696
  Zn  Zn23  1  0.623920  0.980220  0.584420  1.0  0.8346
  Zn  Zn24  1  0.667590  0.259920  0.316510  1.0  0.8615
  H  H25  1  0.517900  0.037200  0.465500  1.0  0.0987
  H  H26  1  0.670700  0.066100  0.472500  1.0  0.1141
  H  H27  1  0.528000  0.073000  0.380900  1.0  0.0813
  H  H28  1  0.682500  0.101900  0.385600  1.0  0.1238
  H  H29  1  0.960200  0.220600  0.332500  1.0  0.0821
  H  H30  1  0.870500  0.181700  0.368500  1.0  0.1134
  H  H31  1  0.201900  0.181300  0.369600  1.0  0.0935
  H  H32  1  0.119700  0.142200  0.407300  1.0  0.1221
  H  H33  1  0.196700  0.077800  0.518400  1.0  0.0858
  H  H34  1  0.121900  0.097200  0.474100  1.0  0.1245
  H  H35  1  0.951300  0.033200  0.552600  1.0  0.0834
  H  H36  1  0.870500  0.053100  0.509200  1.0  0.1071
  H  H37  1  0.066600  0.087300  0.639800  1.0  0.1016
  H  H38  1  0.039100  0.156700  0.664500  1.0  0.1168
  H  H39  1  0.129300  0.155600  0.565400  1.0  0.0879
  H  H40  1  0.099700  0.227600  0.588400  1.0  0.1211
  H  H41  1  0.106000  0.416300  0.568400  1.0  0.0762
  H  H42  1  0.086900  0.343700  0.590900  1.0  0.1228
  H  H43  1  0.062700  0.481500  0.644500  1.0  0.1009
  H  H44  1  0.040200  0.410500  0.668700  1.0  0.1157
  H  H45  1  0.890300  0.337000  0.774600  1.0  0.0841
  H  H46  1  0.951300  0.346900  0.727500  1.0  0.1198
  H  H47  1  0.943000  0.200900  0.772500  1.0  0.0875
  H  H48  1  0.002900  0.206700  0.723900  1.0  0.1147
  H  H49  1  0.482100  0.462800  0.965500  1.0  0.098
  H  H50  1  0.329300  0.433900  0.972500  1.0  0.1139
  H  H51  1  0.472000  0.427000  0.880900  1.0  0.0817
  H  H52  1  0.317500  0.398100  0.885600  1.0  0.1238
  H  H53  1  0.039800  0.279400  0.832500  1.0  0.0816
  H  H54  1  0.129500  0.318300  0.868500  1.0  0.112
  H  H55  1  0.798100  0.318700  0.869600  1.0  0.0943
  H  H56  1  0.880300  0.357800  0.907300  1.0  0.1222
  H  H57  1  0.803300  0.422200  0.018400  1.0  0.0859
  H  H58  1  0.878100  0.402800  0.974100  1.0  0.1243
  H  H59  1  0.048700  0.466800  0.052600  1.0  0.0827
  H  H60  1  0.129500  0.446900  0.009200  1.0  0.1078
  H  H61  1  0.933400  0.412700  0.139800  1.0  0.1016
  H  H62  1  0.960900  0.343300  0.164500  1.0  0.117
  H  H63  1  0.870700  0.344400  0.065400  1.0  0.0883
  H  H64  1  0.900300  0.272400  0.088400  1.0  0.121
  H  H65  1  0.894000  0.083700  0.068400  1.0  0.0756
  H  H66  1  0.913100  0.156300  0.090900  1.0  0.1231
  H  H67  1  0.937300  0.018500  0.144500  1.0  0.1011
  H  H68  1  0.959800  0.089500  0.168700  1.0  0.1163
  H  H69  1  0.109700  0.163000  0.274600  1.0  0.0834
  H  H70  1  0.048700  0.153100  0.227500  1.0  0.1193
  H  H71  1  0.057000  0.299100  0.272500  1.0  0.0856
  H  H72  1  0.997100  0.293300  0.223900  1.0  0.1154
  H  H73  1  0.017900  0.962800  0.034500  1.0  0.0981
  H  H74  1  0.170700  0.933900  0.027500  1.0  0.1142
  H  H75  1  0.028000  0.927000  0.119100  1.0  0.082
  H  H76  1  0.182500  0.898100  0.114400  1.0  0.1241
  H  H77  1  0.460200  0.779400  0.167500  1.0  0.0819
  H  H78  1  0.370500  0.818300  0.131500  1.0  0.1135
  H  H79  1  0.701900  0.818700  0.130400  1.0  0.0932
  H  H80  1  0.619700  0.857800  0.092700  1.0  0.122
  H  H81  1  0.696700  0.922200  0.981600  1.0  0.0861
  H  H82  1  0.621900  0.902800  0.025900  1.0  0.1243
  H  H83  1  0.451300  0.966800  0.947400  1.0  0.0827
  H  H84  1  0.370500  0.946900  0.990800  1.0  0.1071
  H  H85  1  0.566600  0.912700  0.860200  1.0  0.1008
  H  H86  1  0.539100  0.843300  0.835500  1.0  0.1171
  H  H87  1  0.629300  0.844400  0.934600  1.0  0.0883
  H  H88  1  0.599700  0.772400  0.911600  1.0  0.1213
  H  H89  1  0.606000  0.583700  0.931600  1.0  0.0763
  H  H90  1  0.586900  0.656300  0.909100  1.0  0.123
  H  H91  1  0.562700  0.518500  0.855500  1.0  0.1003
  H  H92  1  0.540200  0.589500  0.831300  1.0  0.1163
  H  H93  1  0.390300  0.663000  0.725400  1.0  0.0837
  H  H94  1  0.451300  0.653100  0.772500  1.0  0.1195
  H  H95  1  0.443000  0.799100  0.727500  1.0  0.086
  H  H96  1  0.502900  0.793300  0.776100  1.0  0.1153
  H  H97  1  0.982100  0.537200  0.534500  1.0  0.0984
  H  H98  1  0.829300  0.566100  0.527500  1.0  0.114
  H  H99  1  0.972000  0.573000  0.619100  1.0  0.0815
  H  H100  1  0.817500  0.601900  0.614400  1.0  0.1237
  H  H101  1  0.539800  0.720600  0.667500  1.0  0.0816
  H  H102  1  0.629500  0.681700  0.631500  1.0  0.1116
  H  H103  1  0.298100  0.681300  0.630400  1.0  0.0944
  H  H104  1  0.380300  0.642200  0.592700  1.0  0.1221
  H  H105  1  0.303300  0.577800  0.481600  1.0  0.0855
  H  H106  1  0.378100  0.597200  0.525900  1.0  0.1245
  H  H107  1  0.548700  0.533200  0.447400  1.0  0.0833
  H  H108  1  0.629500  0.553100  0.490800  1.0  0.1074
  H  H109  1  0.433400  0.587300  0.360200  1.0  0.1013
  H  H110  1  0.460900  0.656700  0.335500  1.0  0.1174
  H  H111  1  0.370700  0.655600  0.434600  1.0  0.0883
  H  H112  1  0.400300  0.727600  0.411600  1.0  0.121
  H  H113  1  0.394000  0.916300  0.431600  1.0  0.0764
  H  H114  1  0.413100  0.843700  0.409100  1.0  0.1229
  H  H115  1  0.437300  0.981500  0.355500  1.0  0.1008
  H  H116  1  0.459800  0.910500  0.331300  1.0  0.1161
  H  H117  1  0.609700  0.837000  0.225400  1.0  0.0841
  H  H118  1  0.548700  0.846900  0.272500  1.0  0.1198
  H  H119  1  0.557000  0.700900  0.227500  1.0  0.0869
  H  H120  1  0.497100  0.706700  0.276100  1.0  0.1147
  H  H121  1  0.482100  0.962800  0.534500  1.0  0.098
  H  H122  1  0.329300  0.933900  0.527500  1.0  0.1138
  H  H123  1  0.472000  0.927000  0.619100  1.0  0.0819
  H  H124  1  0.317500  0.898100  0.614400  1.0  0.1237
  H  H125  1  0.039800  0.779400  0.667500  1.0  0.0815
  H  H126  1  0.129500  0.818300  0.631500  1.0  0.1121
  H  H127  1  0.798100  0.818700  0.630400  1.0  0.0944
  H  H128  1  0.880300  0.857800  0.592700  1.0  0.1221
  H  H129  1  0.803300  0.922200  0.481600  1.0  0.0858
  H  H130  1  0.878100  0.902800  0.525900  1.0  0.1247
  H  H131  1  0.048700  0.966800  0.447400  1.0  0.0827
  H  H132  1  0.129500  0.946900  0.490800  1.0  0.1076
  H  H133  1  0.933400  0.912700  0.360200  1.0  0.1008
  H  H134  1  0.960900  0.843300  0.335500  1.0  0.1172
  H  H135  1  0.870700  0.844400  0.434600  1.0  0.0884
  H  H136  1  0.900300  0.772400  0.411600  1.0  0.1211
  H  H137  1  0.894000  0.583700  0.431600  1.0  0.0762
  H  H138  1  0.913100  0.656300  0.409100  1.0  0.1226
  H  H139  1  0.937300  0.518500  0.355500  1.0  0.1002
  H  H140  1  0.959800  0.589500  0.331300  1.0  0.1164
  H  H141  1  0.109700  0.663000  0.225400  1.0  0.0838
  H  H142  1  0.048700  0.653100  0.272500  1.0  0.1194
  H  H143  1  0.057000  0.799100  0.227500  1.0  0.0856
  H  H144  1  0.997100  0.793300  0.276100  1.0  0.1153
  H  H145  1  0.517900  0.537200  0.034500  1.0  0.0985
  H  H146  1  0.670700  0.566100  0.027500  1.0  0.1143
  H  H147  1  0.528000  0.573000  0.119100  1.0  0.0815
  H  H148  1  0.682500  0.601900  0.114400  1.0  0.1239
  H  H149  1  0.960200  0.720600  0.167500  1.0  0.0817
  H  H150  1  0.870500  0.681700  0.131500  1.0  0.1131
  H  H151  1  0.201900  0.681300  0.130400  1.0  0.0934
  H  H152  1  0.119700  0.642200  0.092700  1.0  0.1221
  H  H153  1  0.196700  0.577800  0.981600  1.0  0.0861
  H  H154  1  0.121900  0.597200  0.025900  1.0  0.1244
  H  H155  1  0.951300  0.533200  0.947400  1.0  0.0828
  H  H156  1  0.870500  0.553100  0.990800  1.0  0.1071
  H  H157  1  0.066600  0.587300  0.860200  1.0  0.1013
  H  H158  1  0.039100  0.656700  0.835500  1.0  0.1173
  H  H159  1  0.129300  0.655600  0.934600  1.0  0.0882
  H  H160  1  0.099700  0.727600  0.911600  1.0  0.1214
  H  H161  1  0.106000  0.916300  0.931600  1.0  0.0764
  H  H162  1  0.086900  0.843700  0.909100  1.0  0.1231
  H  H163  1  0.062700  0.981500  0.855500  1.0  0.1009
  H  H164  1  0.040200  0.910500  0.831300  1.0  0.1162
  H  H165  1  0.890300  0.837000  0.725400  1.0  0.0838
  H  H166  1  0.951300  0.846900  0.772500  1.0  0.1196
  H  H167  1  0.943000  0.700900  0.727500  1.0  0.0872
  H  H168  1  0.002900  0.706700  0.776100  1.0  0.1149
  H  H169  1  0.982100  0.037200  0.965500  1.0  0.0983
  H  H170  1  0.829300  0.066100  0.972500  1.0  0.1139
  H  H171  1  0.972000  0.073000  0.880900  1.0  0.0816
  H  H172  1  0.817500  0.101900  0.885600  1.0  0.1238
  H  H173  1  0.539800  0.220600  0.832500  1.0  0.0821
  H  H174  1  0.629500  0.181700  0.868500  1.0  0.112
  H  H175  1  0.298100  0.181300  0.869600  1.0  0.0944
  H  H176  1  0.380300  0.142200  0.907300  1.0  0.1224
  H  H177  1  0.303300  0.077800  0.018400  1.0  0.0855
  H  H178  1  0.378100  0.097200  0.974100  1.0  0.1242
  H  H179  1  0.548700  0.033200  0.052600  1.0  0.0833
  H  H180  1  0.629500  0.053100  0.009200  1.0  0.1076
  H  H181  1  0.433400  0.087300  0.139800  1.0  0.1019
  H  H182  1  0.460900  0.156700  0.164500  1.0  0.117
  H  H183  1  0.370700  0.155600  0.065400  1.0  0.088
  H  H184  1  0.400300  0.227600  0.088400  1.0  0.121
  H  H185  1  0.394000  0.416300  0.068400  1.0  0.0758
  H  H186  1  0.413100  0.343700  0.090900  1.0  0.1229
  H  H187  1  0.437300  0.481500  0.144500  1.0  0.1013
  H  H188  1  0.459800  0.410500  0.168700  1.0  0.116
  H  H189  1  0.609700  0.337000  0.274600  1.0  0.0839
  H  H190  1  0.548700  0.346900  0.227500  1.0  0.1199
  H  H191  1  0.557000  0.200900  0.272500  1.0  0.0872
  H  H192  1  0.497100  0.206700  0.223900  1.0  0.1145
  H  H193  1  0.017900  0.462800  0.465500  1.0  0.0983
  H  H194  1  0.170700  0.433900  0.472500  1.0  0.1142
  H  H195  1  0.028000  0.427000  0.380900  1.0  0.0815
  H  H196  1  0.182500  0.398100  0.385600  1.0  0.1239
  H  H197  1  0.460200  0.279400  0.332500  1.0  0.0819
  H  H198  1  0.370500  0.318300  0.368500  1.0  0.1133
  H  H199  1  0.701900  0.318700  0.369600  1.0  0.0933
  H  H200  1  0.619700  0.357800  0.407300  1.0  0.122
  H  H201  1  0.696700  0.422200  0.518400  1.0  0.0859
  H  H202  1  0.621900  0.402800  0.474100  1.0  0.1241
  H  H203  1  0.451300  0.466800  0.552600  1.0  0.0831
  H  H204  1  0.370500  0.446900  0.509200  1.0  0.1069
  H  H205  1  0.566600  0.412700  0.639800  1.0  0.1014
  H  H206  1  0.539100  0.343300  0.664500  1.0  0.1168
  H  H207  1  0.629300  0.344400  0.565400  1.0  0.0883
  H  H208  1  0.599700  0.272400  0.588400  1.0  0.121
  H  H209  1  0.606000  0.083700  0.568400  1.0  0.076
  H  H210  1  0.586900  0.156300  0.590900  1.0  0.1232
  H  H211  1  0.562700  0.018500  0.644500  1.0  0.101
  H  H212  1  0.540200  0.089500  0.668700  1.0  0.116
  H  H213  1  0.390300  0.163000  0.774600  1.0  0.0839
  H  H214  1  0.451300  0.153100  0.727500  1.0  0.1193
  H  H215  1  0.443000  0.299100  0.772500  1.0  0.086
  H  H216  1  0.502900  0.293300  0.723900  1.0  0.1153
  C  C217  1  0.551700  0.050300  0.448980  1.0  0.1257
  C  C218  1  0.642700  0.066900  0.453190  1.0  -0.1217
  C  C219  1  0.558600  0.071200  0.399810  1.0  0.1546
  C  C220  1  0.650200  0.088200  0.402160  1.0  -0.1519
  C  C221  1  0.693800  0.084600  0.429850  1.0  -0.1099
  C  C222  1  0.796900  0.098800  0.433280  1.0  0.3427
  C  C223  1  0.993000  0.204000  0.347820  1.0  0.1589
  C  C224  1  0.938900  0.181100  0.369290  1.0  -0.1353
  C  C225  1  0.133400  0.181300  0.369430  1.0  0.1367
  C  C226  1  0.085000  0.157900  0.391970  1.0  -0.1377
  C  C227  1  0.985600  0.157600  0.391810  1.0  -0.0946
  C  C228  1  0.932700  0.132000  0.415710  1.0  0.3718
  C  C229  1  0.129100  0.073400  0.516690  1.0  0.1353
  C  C230  1  0.085200  0.085200  0.490300  1.0  -0.1701
  C  C231  1  0.985900  0.047500  0.536700  1.0  0.1224
  C  C232  1  0.937600  0.059200  0.510840  1.0  -0.0931
  C  C233  1  0.985700  0.079300  0.487580  1.0  -0.0776
  C  C234  1  0.934700  0.094600  0.460470  1.0  0.3916
  C  C235  1  0.074400  0.116100  0.629320  1.0  0.124
  C  C236  1  0.057800  0.157400  0.644080  1.0  -0.0786
  C  C237  1  0.110600  0.155900  0.585820  1.0  0.1338
  C  C238  1  0.093800  0.199100  0.599390  1.0  -0.1446
  C  C239  1  0.068000  0.200000  0.629620  1.0  -0.0972
  C  C240  1  0.053400  0.244500  0.645710  1.0  0.3995
  C  C241  1  0.094400  0.415400  0.589260  1.0  0.1459
  C  C242  1  0.082100  0.371700  0.602460  1.0  -0.1434
  C  C243  1  0.068900  0.453100  0.633500  1.0  0.1375
  C  C244  1  0.055100  0.410900  0.648030  1.0  -0.1075
  C  C245  1  0.062900  0.369400  0.632650  1.0  -0.0867
  C  C246  1  0.049900  0.323500  0.647530  1.0  0.3807
  C  C247  1  0.913200  0.310200  0.764060  1.0  0.1413
  C  C248  1  0.948900  0.316400  0.736170  1.0  -0.1532
  C  C249  1  0.943200  0.230800  0.762890  1.0  0.1249
  C  C250  1  0.979900  0.234000  0.733960  1.0  -0.1007
  C  C251  1  0.982200  0.276900  0.720430  1.0  -0.0921
  C  C252  1  0.014300  0.281000  0.688030  1.0  0.3625
  C  C253  1  0.448300  0.449700  0.948980  1.0  0.1251
  C  C254  1  0.357300  0.433100  0.953190  1.0  -0.1224
  C  C255  1  0.441400  0.428800  0.899810  1.0  0.1531
  C  C256  1  0.349800  0.411800  0.902160  1.0  -0.1535
  C  C257  1  0.306200  0.415400  0.929850  1.0  -0.1119
  C  C258  1  0.203100  0.401200  0.933280  1.0  0.3429
  C  C259  1  0.007000  0.296000  0.847820  1.0  0.1583
  C  C260  1  0.061100  0.318900  0.869290  1.0  -0.1335
  C  C261  1  0.866600  0.318700  0.869430  1.0  0.1373
  C  C262  1  0.915000  0.342100  0.891970  1.0  -0.1392
  C  C263  1  0.014400  0.342400  0.891810  1.0  -0.0952
  C  C264  1  0.067300  0.368000  0.915710  1.0  0.3716
  C  C265  1  0.870900  0.426600  0.016690  1.0  0.1346
  C  C266  1  0.914800  0.414800  0.990300  1.0  -0.1728
  C  C267  1  0.014100  0.452500  0.036700  1.0  0.1228
  C  C268  1  0.062400  0.440800  0.010840  1.0  -0.0888
  C  C269  1  0.014300  0.420700  0.987580  1.0  -0.0782
  C  C270  1  0.065300  0.405400  0.960470  1.0  0.3911
  C  C271  1  0.925600  0.383900  0.129320  1.0  0.1242
  C  C272  1  0.942200  0.342600  0.144080  1.0  -0.0785
  C  C273  1  0.889400  0.344100  0.085820  1.0  0.1343
  C  C274  1  0.906200  0.300900  0.099390  1.0  -0.1425
  C  C275  1  0.932000  0.300000  0.129620  1.0  -0.0959
  C  C276  1  0.946600  0.255500  0.145710  1.0  0.3995
  C  C277  1  0.905600  0.084600  0.089260  1.0  0.1464
  C  C278  1  0.917900  0.128300  0.102460  1.0  -0.1429
  C  C279  1  0.931100  0.046900  0.133500  1.0  0.1381
  C  C280  1  0.944900  0.089100  0.148030  1.0  -0.1075
  C  C281  1  0.937100  0.130600  0.132650  1.0  -0.0866
  C  C282  1  0.950100  0.176500  0.147530  1.0  0.381
  C  C283  1  0.086800  0.189800  0.264060  1.0  0.1417
  C  C284  1  0.051100  0.183600  0.236170  1.0  -0.1541
  C  C285  1  0.056800  0.269200  0.262890  1.0  0.1245
  C  C286  1  0.020100  0.266000  0.233960  1.0  -0.1001
  C  C287  1  0.017800  0.223100  0.220430  1.0  -0.0928
  C  C288  1  0.985700  0.219000  0.188030  1.0  0.3624
  C  C289  1  0.051700  0.949700  0.051020  1.0  0.1252
  C  C290  1  0.142700  0.933100  0.046810  1.0  -0.122
  C  C291  1  0.058600  0.928800  0.100190  1.0  0.1548
  C  C292  1  0.150200  0.911800  0.097840  1.0  -0.1514
  C  C293  1  0.193800  0.915400  0.070150  1.0  -0.1095
  C  C294  1  0.296900  0.901200  0.066720  1.0  0.3424
  C  C295  1  0.493000  0.796000  0.152180  1.0  0.1593
  C  C296  1  0.438900  0.818900  0.130710  1.0  -0.1349
  C  C297  1  0.633400  0.818700  0.130570  1.0  0.1362
  C  C298  1  0.585000  0.842100  0.108030  1.0  -0.1374
  C  C299  1  0.485600  0.842400  0.108190  1.0  -0.0946
  C  C300  1  0.432700  0.868000  0.084290  1.0  0.3714
  C  C301  1  0.629100  0.926600  0.983310  1.0  0.1353
  C  C302  1  0.585200  0.914800  0.009700  1.0  -0.1712
  C  C303  1  0.485900  0.952500  0.963300  1.0  0.1245
  C  C304  1  0.437600  0.940800  0.989160  1.0  -0.0921
  C  C305  1  0.485700  0.920700  0.012420  1.0  -0.0778
  C  C306  1  0.434700  0.905400  0.039530  1.0  0.3912
  C  C307  1  0.574400  0.883900  0.870680  1.0  0.123
  C  C308  1  0.557800  0.842600  0.855920  1.0  -0.0768
  C  C309  1  0.610600  0.844100  0.914180  1.0  0.135
  C  C310  1  0.593800  0.800900  0.900610  1.0  -0.1429
  C  C311  1  0.568000  0.800000  0.870380  1.0  -0.0965
  C  C312  1  0.553400  0.755500  0.854290  1.0  0.3993
  C  C313  1  0.594400  0.584600  0.910740  1.0  0.1468
  C  C314  1  0.582100  0.628300  0.897540  1.0  -0.1433
  C  C315  1  0.568900  0.546900  0.866500  1.0  0.1369
  C  C316  1  0.555100  0.589100  0.851970  1.0  -0.1055
  C  C317  1  0.562900  0.630600  0.867350  1.0  -0.0871
  C  C318  1  0.549900  0.676500  0.852470  1.0  0.3812
  C  C319  1  0.413200  0.689800  0.735940  1.0  0.1417
  C  C320  1  0.448900  0.683600  0.763830  1.0  -0.1545
  C  C321  1  0.443200  0.769200  0.737110  1.0  0.1244
  C  C322  1  0.479900  0.766000  0.766040  1.0  -0.0987
  C  C323  1  0.482200  0.723100  0.779570  1.0  -0.0931
  C  C324  1  0.514300  0.719000  0.811970  1.0  0.3625
  C  C325  1  0.948300  0.550300  0.551020  1.0  0.1239
  C  C326  1  0.857300  0.566900  0.546810  1.0  -0.1233
  C  C327  1  0.941400  0.571200  0.600190  1.0  0.1544
  C  C328  1  0.849800  0.588200  0.597840  1.0  -0.1531
  C  C329  1  0.806200  0.584600  0.570150  1.0  -0.1114
  C  C330  1  0.703100  0.598800  0.566720  1.0  0.3434
  C  C331  1  0.507000  0.704000  0.652180  1.0  0.1592
  C  C332  1  0.561100  0.681100  0.630710  1.0  -0.133
  C  C333  1  0.366600  0.681300  0.630570  1.0  0.137
  C  C334  1  0.415000  0.657900  0.608030  1.0  -0.1376
  C  C335  1  0.514400  0.657600  0.608190  1.0  -0.0949
  C  C336  1  0.567300  0.632000  0.584290  1.0  0.3716
  C  C337  1  0.370900  0.573400  0.483310  1.0  0.1342
  C  C338  1  0.414800  0.585200  0.509700  1.0  -0.1725
  C  C339  1  0.514100  0.547500  0.463300  1.0  0.123
  C  C340  1  0.562400  0.559200  0.489160  1.0  -0.0886
  C  C341  1  0.514300  0.579300  0.512420  1.0  -0.078
  C  C342  1  0.565300  0.594600  0.539530  1.0  0.3917
  C  C343  1  0.425600  0.616100  0.370680  1.0  0.123
  C  C344  1  0.442200  0.657400  0.355920  1.0  -0.0773
  C  C345  1  0.389400  0.655900  0.414180  1.0  0.1333
  C  C346  1  0.406200  0.699100  0.400610  1.0  -0.1435
  C  C347  1  0.432000  0.700000  0.370380  1.0  -0.0973
  C  C348  1  0.446600  0.744500  0.354290  1.0  0.3994
  C  C349  1  0.405600  0.915400  0.410740  1.0  0.1461
  C  C350  1  0.417900  0.871700  0.397540  1.0  -0.1425
  C  C351  1  0.431100  0.953100  0.366500  1.0  0.1372
  C  C352  1  0.444900  0.910900  0.351970  1.0  -0.1069
  C  C353  1  0.437100  0.869400  0.367350  1.0  -0.086
  C  C354  1  0.450100  0.823500  0.352470  1.0  0.3807
  C  C355  1  0.586800  0.810200  0.235940  1.0  0.1418
  C  C356  1  0.551100  0.816400  0.263830  1.0  -0.1539
  C  C357  1  0.556800  0.730800  0.237110  1.0  0.123
  C  C358  1  0.520100  0.734000  0.266040  1.0  -0.1009
  C  C359  1  0.517800  0.776900  0.279570  1.0  -0.0928
  C  C360  1  0.485700  0.781000  0.311970  1.0  0.3631
  C  C361  1  0.448300  0.949700  0.551020  1.0  0.1237
  C  C362  1  0.357300  0.933100  0.546810  1.0  -0.1231
  C  C363  1  0.441400  0.928800  0.600190  1.0  0.1548
  C  C364  1  0.349800  0.911800  0.597840  1.0  -0.1527
  C  C365  1  0.306200  0.915400  0.570150  1.0  -0.1118
  C  C366  1  0.203100  0.901200  0.566720  1.0  0.3431
  C  C367  1  0.007000  0.796000  0.652180  1.0  0.1594
  C  C368  1  0.061100  0.818900  0.630710  1.0  -0.1333
  C  C369  1  0.866600  0.818700  0.630570  1.0  0.137
  C  C370  1  0.915000  0.842100  0.608030  1.0  -0.1379
  C  C371  1  0.014400  0.842400  0.608190  1.0  -0.0949
  C  C372  1  0.067300  0.868000  0.584290  1.0  0.3715
  C  C373  1  0.870900  0.926600  0.483310  1.0  0.1347
  C  C374  1  0.914800  0.914800  0.509700  1.0  -0.1732
  C  C375  1  0.014100  0.952500  0.463300  1.0  0.1238
  C  C376  1  0.062400  0.940800  0.489160  1.0  -0.0886
  C  C377  1  0.014300  0.920700  0.512420  1.0  -0.0781
  C  C378  1  0.065300  0.905400  0.539530  1.0  0.3913
  C  C379  1  0.925600  0.883900  0.370680  1.0  0.123
  C  C380  1  0.942200  0.842600  0.355920  1.0  -0.077
  C  C381  1  0.889400  0.844100  0.414180  1.0  0.1338
  C  C382  1  0.906200  0.800900  0.400610  1.0  -0.1424
  C  C383  1  0.932000  0.800000  0.370380  1.0  -0.0965
  C  C384  1  0.946600  0.755500  0.354290  1.0  0.3993
  C  C385  1  0.905600  0.584600  0.410740  1.0  0.1465
  C  C386  1  0.917900  0.628300  0.397540  1.0  -0.1434
  C  C387  1  0.931100  0.546900  0.366500  1.0  0.1372
  C  C388  1  0.944900  0.589100  0.351970  1.0  -0.106
  C  C389  1  0.937100  0.630600  0.367350  1.0  -0.0866
  C  C390  1  0.950100  0.676500  0.352470  1.0  0.3811
  C  C391  1  0.086800  0.689800  0.235940  1.0  0.1405
  C  C392  1  0.051100  0.683600  0.263830  1.0  -0.1552
  C  C393  1  0.056800  0.769200  0.237110  1.0  0.124
  C  C394  1  0.020100  0.766000  0.266040  1.0  -0.0998
  C  C395  1  0.017800  0.723100  0.279570  1.0  -0.0928
  C  C396  1  0.985700  0.719000  0.311970  1.0  0.3627
  C  C397  1  0.551700  0.550300  0.051020  1.0  0.1255
  C  C398  1  0.642700  0.566900  0.046810  1.0  -0.1223
  C  C399  1  0.558600  0.571200  0.100190  1.0  0.154
  C  C400  1  0.650200  0.588200  0.097840  1.0  -0.152
  C  C401  1  0.693800  0.584600  0.070150  1.0  -0.11
  C  C402  1  0.796900  0.598800  0.066720  1.0  0.3429
  C  C403  1  0.993000  0.704000  0.152180  1.0  0.1589
  C  C404  1  0.938900  0.681100  0.130710  1.0  -0.1351
  C  C405  1  0.133400  0.681300  0.130570  1.0  0.1364
  C  C406  1  0.085000  0.657900  0.108030  1.0  -0.1367
  C  C407  1  0.985600  0.657600  0.108190  1.0  -0.0945
  C  C408  1  0.932700  0.632000  0.084290  1.0  0.3718
  C  C409  1  0.129100  0.573400  0.983310  1.0  0.1354
  C  C410  1  0.085200  0.585200  0.009700  1.0  -0.1709
  C  C411  1  0.985900  0.547500  0.963300  1.0  0.1238
  C  C412  1  0.937600  0.559200  0.989160  1.0  -0.0923
  C  C413  1  0.985700  0.579300  0.012420  1.0  -0.0774
  C  C414  1  0.934700  0.594600  0.039530  1.0  0.3915
  C  C415  1  0.074400  0.616100  0.870680  1.0  0.1231
  C  C416  1  0.057800  0.657400  0.855920  1.0  -0.0766
  C  C417  1  0.110600  0.655900  0.914180  1.0  0.1347
  C  C418  1  0.093800  0.699100  0.900610  1.0  -0.1435
  C  C419  1  0.068000  0.700000  0.870380  1.0  -0.0974
  C  C420  1  0.053400  0.744500  0.854290  1.0  0.3993
  C  C421  1  0.094400  0.915400  0.910740  1.0  0.1469
  C  C422  1  0.082100  0.871700  0.897540  1.0  -0.1429
  C  C423  1  0.068900  0.953100  0.866500  1.0  0.1373
  C  C424  1  0.055100  0.910900  0.851970  1.0  -0.1064
  C  C425  1  0.062900  0.869400  0.867350  1.0  -0.0868
  C  C426  1  0.049900  0.823500  0.852470  1.0  0.3808
  C  C427  1  0.913200  0.810200  0.735940  1.0  0.1419
  C  C428  1  0.948900  0.816400  0.763830  1.0  -0.1536
  C  C429  1  0.943200  0.730800  0.737110  1.0  0.1238
  C  C430  1  0.979900  0.734000  0.766040  1.0  -0.1004
  C  C431  1  0.982200  0.776900  0.779570  1.0  -0.0929
  C  C432  1  0.014300  0.781000  0.811970  1.0  0.3629
  C  C433  1  0.948300  0.050300  0.948980  1.0  0.1255
  C  C434  1  0.857300  0.066900  0.953190  1.0  -0.1222
  C  C435  1  0.941400  0.071200  0.899810  1.0  0.153
  C  C436  1  0.849800  0.088200  0.902160  1.0  -0.1535
  C  C437  1  0.806200  0.084600  0.929850  1.0  -0.1114
  C  C438  1  0.703100  0.098800  0.933280  1.0  0.3431
  C  C439  1  0.507000  0.204000  0.847820  1.0  0.1591
  C  C440  1  0.561100  0.181100  0.869290  1.0  -0.1331
  C  C441  1  0.366600  0.181300  0.869430  1.0  0.1373
  C  C442  1  0.415000  0.157900  0.891970  1.0  -0.1387
  C  C443  1  0.514400  0.157600  0.891810  1.0  -0.0953
  C  C444  1  0.567300  0.132000  0.915710  1.0  0.3716
  C  C445  1  0.370900  0.073400  0.016690  1.0  0.1341
  C  C446  1  0.414800  0.085200  0.990300  1.0  -0.1716
  C  C447  1  0.514100  0.047500  0.036700  1.0  0.1231
  C  C448  1  0.562400  0.059200  0.010840  1.0  -0.0892
  C  C449  1  0.514300  0.079300  0.987580  1.0  -0.0778
  C  C450  1  0.565300  0.094600  0.960470  1.0  0.3917
  C  C451  1  0.425600  0.116100  0.129320  1.0  0.124
  C  C452  1  0.442200  0.157400  0.144080  1.0  -0.0786
  C  C453  1  0.389400  0.155900  0.085820  1.0  0.1338
  C  C454  1  0.406200  0.199100  0.099390  1.0  -0.1439
  C  C455  1  0.432000  0.200000  0.129620  1.0  -0.0971
  C  C456  1  0.446600  0.244500  0.145710  1.0  0.3996
  C  C457  1  0.405600  0.415400  0.089260  1.0  0.1465
  C  C458  1  0.417900  0.371700  0.102460  1.0  -0.1421
  C  C459  1  0.431100  0.453100  0.133500  1.0  0.1369
  C  C460  1  0.444900  0.410900  0.148030  1.0  -0.1078
  C  C461  1  0.437100  0.369400  0.132650  1.0  -0.086
  C  C462  1  0.450100  0.323500  0.147530  1.0  0.3807
  C  C463  1  0.586800  0.310200  0.264060  1.0  0.1415
  C  C464  1  0.551100  0.316400  0.236170  1.0  -0.1536
  C  C465  1  0.556800  0.230800  0.262890  1.0  0.1241
  C  C466  1  0.520100  0.234000  0.233960  1.0  -0.1012
  C  C467  1  0.517800  0.276900  0.220430  1.0  -0.0923
  C  C468  1  0.485700  0.281000  0.188030  1.0  0.3627
  C  C469  1  0.051700  0.449700  0.448980  1.0  0.1252
  C  C470  1  0.142700  0.433100  0.453190  1.0  -0.1216
  C  C471  1  0.058600  0.428800  0.399810  1.0  0.1546
  C  C472  1  0.150200  0.411800  0.402160  1.0  -0.1517
  C  C473  1  0.193800  0.415400  0.429850  1.0  -0.1096
  C  C474  1  0.296900  0.401200  0.433280  1.0  0.3422
  C  C475  1  0.493000  0.296000  0.347820  1.0  0.1581
  C  C476  1  0.438900  0.318900  0.369290  1.0  -0.1351
  C  C477  1  0.633400  0.318700  0.369430  1.0  0.1366
  C  C478  1  0.585000  0.342100  0.391970  1.0  -0.1385
  C  C479  1  0.485600  0.342400  0.391810  1.0  -0.0946
  C  C480  1  0.432700  0.368000  0.415710  1.0  0.3715
  C  C481  1  0.629100  0.426600  0.516690  1.0  0.1352
  C  C482  1  0.585200  0.414800  0.490300  1.0  -0.1713
  C  C483  1  0.485900  0.452500  0.536700  1.0  0.1221
  C  C484  1  0.437600  0.440800  0.510840  1.0  -0.0926
  C  C485  1  0.485700  0.420700  0.487580  1.0  -0.0782
  C  C486  1  0.434700  0.405400  0.460470  1.0  0.3911
  C  C487  1  0.574400  0.383900  0.629320  1.0  0.1241
  C  C488  1  0.557800  0.342600  0.644080  1.0  -0.0791
  C  C489  1  0.610600  0.344100  0.585820  1.0  0.1341
  C  C490  1  0.593800  0.300900  0.599390  1.0  -0.1436
  C  C491  1  0.568000  0.300000  0.629620  1.0  -0.096
  C  C492  1  0.553400  0.255500  0.645710  1.0  0.3994
  C  C493  1  0.594400  0.084600  0.589260  1.0  0.1457
  C  C494  1  0.582100  0.128300  0.602460  1.0  -0.1439
  C  C495  1  0.568900  0.046900  0.633500  1.0  0.1379
  C  C496  1  0.555100  0.089100  0.648030  1.0  -0.1073
  C  C497  1  0.562900  0.130600  0.632650  1.0  -0.087
  C  C498  1  0.549900  0.176500  0.647530  1.0  0.3811
  C  C499  1  0.413200  0.189800  0.764060  1.0  0.1424
  C  C500  1  0.448900  0.183600  0.736170  1.0  -0.1533
  C  C501  1  0.443200  0.269200  0.762890  1.0  0.1248
  C  C502  1  0.479900  0.266000  0.733960  1.0  -0.0991
  C  C503  1  0.482200  0.223100  0.720430  1.0  -0.0928
  C  C504  1  0.514300  0.219000  0.688030  1.0  0.3621
  I  I505  1  0.055810  0.987190  0.611170  1.0  -0.3471
  I  I506  1  0.325310  0.056840  0.576540  1.0  -0.3977
  I  I507  1  0.194540  0.502670  0.532660  1.0  -0.4425
  I  I508  1  0.217120  0.566630  0.622990  1.0  -0.3288
  I  I509  1  0.169700  0.326750  0.331590  1.0  -0.3044
  I  I510  1  0.327770  0.197010  0.309440  1.0  -0.3675
  I  I511  1  0.944190  0.512810  0.111170  1.0  -0.349
  I  I512  1  0.674690  0.443160  0.076540  1.0  -0.3971
  I  I513  1  0.805460  0.997330  0.032660  1.0  -0.4434
  I  I514  1  0.782880  0.933370  0.122990  1.0  -0.329
  I  I515  1  0.830300  0.173250  0.831590  1.0  -0.3065
  I  I516  1  0.672230  0.302990  0.809440  1.0  -0.3683
  I  I517  1  0.555810  0.012810  0.888830  1.0  -0.3463
  I  I518  1  0.825310  0.943160  0.923460  1.0  -0.3971
  I  I519  1  0.694540  0.497330  0.967340  1.0  -0.4417
  I  I520  1  0.717120  0.433370  0.877010  1.0  -0.3301
  I  I521  1  0.669700  0.673250  0.168410  1.0  -0.3058
  I  I522  1  0.827770  0.802990  0.190560  1.0  -0.3682
  I  I523  1  0.444190  0.487190  0.388830  1.0  -0.3487
  I  I524  1  0.174690  0.556840  0.423460  1.0  -0.3969
  I  I525  1  0.305460  0.002670  0.467340  1.0  -0.4435
  I  I526  1  0.282880  0.066630  0.377010  1.0  -0.3299
  I  I527  1  0.330300  0.826750  0.668410  1.0  -0.3058
  I  I528  1  0.172230  0.697010  0.690560  1.0  -0.3679
  I  I529  1  0.944190  0.012810  0.388830  1.0  -0.3486
  I  I530  1  0.674690  0.943160  0.423460  1.0  -0.3968
  I  I531  1  0.805460  0.497330  0.467340  1.0  -0.4431
  I  I532  1  0.782880  0.433370  0.377010  1.0  -0.3303
  I  I533  1  0.830300  0.673250  0.668410  1.0  -0.3053
  I  I534  1  0.672230  0.802990  0.690560  1.0  -0.3685
  I  I535  1  0.055810  0.487190  0.888830  1.0  -0.3467
  I  I536  1  0.325310  0.556840  0.923460  1.0  -0.3973
  I  I537  1  0.194540  0.002670  0.967340  1.0  -0.4421
  I  I538  1  0.217120  0.066630  0.877010  1.0  -0.3298
  I  I539  1  0.169700  0.826750  0.168410  1.0  -0.3062
  I  I540  1  0.327770  0.697010  0.190560  1.0  -0.3678
  I  I541  1  0.444190  0.987190  0.111170  1.0  -0.3488
  I  I542  1  0.174690  0.056840  0.076540  1.0  -0.3973
  I  I543  1  0.305460  0.502670  0.032660  1.0  -0.4438
  I  I544  1  0.282880  0.566630  0.122990  1.0  -0.3287
  I  I545  1  0.330300  0.326750  0.831590  1.0  -0.304
  I  I546  1  0.172230  0.197010  0.809440  1.0  -0.3677
  I  I547  1  0.555810  0.512810  0.611170  1.0  -0.3471
  I  I548  1  0.825310  0.443160  0.576540  1.0  -0.3975
  I  I549  1  0.694540  0.997330  0.532660  1.0  -0.442
  I  I550  1  0.717120  0.933370  0.622990  1.0  -0.329
  I  I551  1  0.669700  0.173250  0.331590  1.0  -0.307
  I  I552  1  0.827770  0.302990  0.309440  1.0  -0.3678
  N  N553  1  0.508600  0.052000  0.422440  1.0  -0.3186
  N  N554  1  0.087700  0.203800  0.347560  1.0  -0.2891
  N  N555  1  0.080800  0.055900  0.540160  1.0  -0.3104
  N  N556  1  0.838600  0.124300  0.411480  1.0  -0.4387
  N  N557  1  0.983900  0.118800  0.439800  1.0  -0.3697
  N  N558  1  0.841300  0.083500  0.458240  1.0  -0.4713
  N  N559  1  0.101700  0.114600  0.600100  1.0  -0.3322
  N  N560  1  0.091100  0.455700  0.603670  1.0  -0.338
  N  N561  1  0.908600  0.267900  0.777620  1.0  -0.3193
  N  N562  1  0.065800  0.285000  0.631140  1.0  -0.543
  N  N563  1  0.024700  0.324100  0.676730  1.0  -0.4342
  N  N564  1  0.027500  0.240000  0.674370  1.0  -0.4839
  N  N565  1  0.491400  0.448000  0.922440  1.0  -0.3167
  N  N566  1  0.912300  0.296200  0.847560  1.0  -0.2895
  N  N567  1  0.919200  0.444100  0.040160  1.0  -0.3109
  N  N568  1  0.161400  0.375700  0.911480  1.0  -0.4396
  N  N569  1  0.016100  0.381200  0.939800  1.0  -0.3695
  N  N570  1  0.158700  0.416500  0.958240  1.0  -0.4711
  N  N571  1  0.898300  0.385400  0.100100  1.0  -0.3336
  N  N572  1  0.908900  0.044300  0.103670  1.0  -0.3373
  N  N573  1  0.091400  0.232100  0.277620  1.0  -0.3181
  N  N574  1  0.934200  0.215000  0.131140  1.0  -0.5418
  N  N575  1  0.975300  0.175900  0.176730  1.0  -0.4325
  N  N576  1  0.972500  0.260000  0.174370  1.0  -0.483
  N  N577  1  0.008600  0.948000  0.077560  1.0  -0.3177
  N  N578  1  0.587700  0.796200  0.152440  1.0  -0.2883
  N  N579  1  0.580800  0.944100  0.959840  1.0  -0.3111
  N  N580  1  0.338600  0.875700  0.088520  1.0  -0.4389
  N  N581  1  0.483900  0.881200  0.060200  1.0  -0.3699
  N  N582  1  0.341300  0.916500  0.041760  1.0  -0.4711
  N  N583  1  0.601700  0.885400  0.899900  1.0  -0.3345
  N  N584  1  0.591100  0.544300  0.896330  1.0  -0.3382
  N  N585  1  0.408600  0.732100  0.722380  1.0  -0.319
  N  N586  1  0.565800  0.715000  0.868860  1.0  -0.5439
  N  N587  1  0.524700  0.675900  0.823270  1.0  -0.4338
  N  N588  1  0.527500  0.760000  0.825630  1.0  -0.483
  N  N589  1  0.991400  0.552000  0.577560  1.0  -0.3167
  N  N590  1  0.412300  0.703800  0.652440  1.0  -0.29
  N  N591  1  0.419200  0.555900  0.459840  1.0  -0.3127
  N  N592  1  0.661400  0.624300  0.588520  1.0  -0.4398
  N  N593  1  0.516100  0.618800  0.560200  1.0  -0.3683
  N  N594  1  0.658700  0.583500  0.541760  1.0  -0.47
  N  N595  1  0.398300  0.614600  0.399900  1.0  -0.3324
  N  N596  1  0.408900  0.955700  0.396330  1.0  -0.3385
  N  N597  1  0.591400  0.767900  0.222380  1.0  -0.3185
  N  N598  1  0.434200  0.785000  0.368860  1.0  -0.543
  N  N599  1  0.475300  0.824100  0.323270  1.0  -0.4336
  N  N600  1  0.472500  0.740000  0.325630  1.0  -0.484
  N  N601  1  0.491400  0.948000  0.577560  1.0  -0.3168
  N  N602  1  0.912300  0.796200  0.652440  1.0  -0.2891
  N  N603  1  0.919200  0.944100  0.459840  1.0  -0.3106
  N  N604  1  0.161400  0.875700  0.588520  1.0  -0.4386
  N  N605  1  0.016100  0.881200  0.560200  1.0  -0.3693
  N  N606  1  0.158700  0.916500  0.541760  1.0  -0.4703
  N  N607  1  0.898300  0.885400  0.399900  1.0  -0.3341
  N  N608  1  0.908900  0.544300  0.396330  1.0  -0.3379
  N  N609  1  0.091400  0.732100  0.222380  1.0  -0.3182
  N  N610  1  0.934200  0.715000  0.368860  1.0  -0.543
  N  N611  1  0.975300  0.675900  0.323270  1.0  -0.4335
  N  N612  1  0.972500  0.760000  0.325630  1.0  -0.4828
  N  N613  1  0.508600  0.552000  0.077560  1.0  -0.3187
  N  N614  1  0.087700  0.703800  0.152440  1.0  -0.2895
  N  N615  1  0.080800  0.555900  0.959840  1.0  -0.3136
  N  N616  1  0.838600  0.624300  0.088520  1.0  -0.4398
  N  N617  1  0.983900  0.618800  0.060200  1.0  -0.369
  N  N618  1  0.841300  0.583500  0.041760  1.0  -0.4703
  N  N619  1  0.101700  0.614600  0.899900  1.0  -0.3324
  N  N620  1  0.091100  0.955700  0.896330  1.0  -0.3397
  N  N621  1  0.908600  0.767900  0.722380  1.0  -0.3195
  N  N622  1  0.065800  0.785000  0.868860  1.0  -0.5439
  N  N623  1  0.024700  0.824100  0.823270  1.0  -0.4334
  N  N624  1  0.027500  0.740000  0.825630  1.0  -0.4846
  N  N625  1  0.991400  0.052000  0.922440  1.0  -0.3166
  N  N626  1  0.412300  0.203800  0.847560  1.0  -0.2892
  N  N627  1  0.419200  0.055900  0.040160  1.0  -0.3104
  N  N628  1  0.661400  0.124300  0.911480  1.0  -0.4389
  N  N629  1  0.516100  0.118800  0.939800  1.0  -0.3688
  N  N630  1  0.658700  0.083500  0.958240  1.0  -0.4709
  N  N631  1  0.398300  0.114600  0.100100  1.0  -0.3323
  N  N632  1  0.408900  0.455700  0.103670  1.0  -0.3369
  N  N633  1  0.591400  0.267900  0.277620  1.0  -0.3181
  N  N634  1  0.434200  0.285000  0.131140  1.0  -0.5417
  N  N635  1  0.475300  0.324100  0.176730  1.0  -0.4344
  N  N636  1  0.472500  0.240000  0.174370  1.0  -0.4834
  N  N637  1  0.008600  0.448000  0.422440  1.0  -0.3175
  N  N638  1  0.587700  0.296200  0.347560  1.0  -0.2891
  N  N639  1  0.580800  0.444100  0.540160  1.0  -0.3105
  N  N640  1  0.338600  0.375700  0.411480  1.0  -0.4395
  N  N641  1  0.483900  0.381200  0.439800  1.0  -0.37
  N  N642  1  0.341300  0.416500  0.458240  1.0  -0.4719
  N  N643  1  0.601700  0.385400  0.600100  1.0  -0.334
  N  N644  1  0.591100  0.044300  0.603670  1.0  -0.3373
  N  N645  1  0.408600  0.232100  0.777620  1.0  -0.3194
  N  N646  1  0.565800  0.215000  0.631140  1.0  -0.543
  N  N647  1  0.524700  0.175900  0.676730  1.0  -0.4328
  N  N648  1  0.527500  0.260000  0.674370  1.0  -0.4834
