# generated using pymatgen
data_ZnH8C12(IN2)2
_symmetry_space_group_name_H-M   'P 1'
_cell_length_a   27.90800000
_cell_length_b   13.84500000
_cell_length_c   44.23600000
_cell_angle_alpha   90.00000000
_cell_angle_beta   90.00000000
_cell_angle_gamma   90.00000000
_symmetry_Int_Tables_number   1
_chemical_formula_structural   ZnH8C12(IN2)2
_chemical_formula_sum   'Zn24 H192 C288 I48 N96'
_cell_volume   17092.18259736
_cell_formula_units_Z   24
loop_
 _symmetry_equiv_pos_site_id
 _symmetry_equiv_pos_as_xyz
  1  'x, y, z'
loop_
 _atom_site_type_symbol
 _atom_site_label
 _atom_site_symmetry_multiplicity
 _atom_site_fract_x
 _atom_site_fract_y
 _atom_site_fract_z
 _atom_site_occupancy
 _atom_site_charge
  Zn  Zn1  1  0.453740  0.859230  0.087750  1.0  0.8512
  Zn  Zn2  1  0.239990  0.182580  0.319680  1.0  0.8532
  Zn  Zn3  1  0.476230  0.619540  0.913830  1.0  0.8323
  Zn  Zn4  1  0.046260  0.140770  0.587750  1.0  0.8499
  Zn  Zn5  1  0.260010  0.817420  0.819680  1.0  0.8563
  Zn  Zn6  1  0.023770  0.380460  0.413830  1.0  0.8329
  Zn  Zn7  1  0.546260  0.359230  0.412250  1.0  0.8501
  Zn  Zn8  1  0.760010  0.682580  0.180320  1.0  0.8535
  Zn  Zn9  1  0.523770  0.119540  0.586170  1.0  0.832
  Zn  Zn10  1  0.953740  0.640770  0.912250  1.0  0.8503
  Zn  Zn11  1  0.739990  0.317420  0.680320  1.0  0.8561
  Zn  Zn12  1  0.976230  0.880460  0.086170  1.0  0.8327
  Zn  Zn13  1  0.546260  0.140770  0.912250  1.0  0.8504
  Zn  Zn14  1  0.760010  0.817420  0.680320  1.0  0.8561
  Zn  Zn15  1  0.523770  0.380460  0.086170  1.0  0.8323
  Zn  Zn16  1  0.953740  0.859230  0.412250  1.0  0.8504
  Zn  Zn17  1  0.739990  0.182580  0.180320  1.0  0.8534
  Zn  Zn18  1  0.976230  0.619540  0.586170  1.0  0.8318
  Zn  Zn19  1  0.453740  0.640770  0.587750  1.0  0.8508
  Zn  Zn20  1  0.239990  0.317420  0.819680  1.0  0.8563
  Zn  Zn21  1  0.476230  0.880460  0.413830  1.0  0.8334
  Zn  Zn22  1  0.046260  0.359230  0.087750  1.0  0.85
  Zn  Zn23  1  0.260010  0.682580  0.319680  1.0  0.8533
  Zn  Zn24  1  0.023770  0.119540  0.913830  1.0  0.8323
  H  H25  1  0.316200  0.785400  0.875100  1.0  0.09
  H  H26  1  0.355000  0.870000  0.913600  1.0  0.1233
  H  H27  1  0.282400  0.026800  0.833900  1.0  0.0887
  H  H28  1  0.321500  0.117500  0.870300  1.0  0.1227
  H  H29  1  0.423900  0.463500  0.880300  1.0  0.0914
  H  H30  1  0.397200  0.307200  0.886800  1.0  0.1219
  H  H31  1  0.463000  0.480400  0.965700  1.0  0.0869
  H  H32  1  0.437600  0.324200  0.974600  1.0  0.1164
  H  H33  1  0.471800  0.048100  0.057100  1.0  0.085
  H  H34  1  0.451400  0.127600  0.013000  1.0  0.1231
  H  H35  1  0.426800  0.800000  0.024100  1.0  0.0819
  H  H36  1  0.404200  0.872300  0.978800  1.0  0.1269
  H  H37  1  0.348500  0.871700  0.069400  1.0  0.0923
  H  H38  1  0.274200  0.898800  0.091600  1.0  0.1256
  H  H39  1  0.415800  0.948800  0.143900  1.0  0.1031
  H  H40  1  0.343900  0.972100  0.168500  1.0  0.1196
  H  H41  1  0.298600  0.065100  0.276500  1.0  0.091
  H  H42  1  0.292800  0.002300  0.228100  1.0  0.1205
  H  H43  1  0.160200  0.123100  0.278100  1.0  0.0955
  H  H44  1  0.149900  0.054100  0.230600  1.0  0.1226
  H  H45  1  0.013700  0.935100  0.146900  1.0  0.0887
  H  H46  1  0.085400  0.959200  0.172200  1.0  0.1213
  H  H47  1  0.080800  0.898500  0.069800  1.0  0.0877
  H  H48  1  0.154800  0.920600  0.093100  1.0  0.1205
  H  H49  1  0.183800  0.214600  0.375100  1.0  0.0892
  H  H50  1  0.145000  0.130000  0.413600  1.0  0.1237
  H  H51  1  0.217600  0.973200  0.333900  1.0  0.0886
  H  H52  1  0.178500  0.882500  0.370300  1.0  0.1227
  H  H53  1  0.076100  0.536500  0.380300  1.0  0.0919
  H  H54  1  0.102800  0.692800  0.386800  1.0  0.1219
  H  H55  1  0.037000  0.519600  0.465700  1.0  0.0878
  H  H56  1  0.062400  0.675800  0.474600  1.0  0.1165
  H  H57  1  0.028200  0.951900  0.557100  1.0  0.0847
  H  H58  1  0.048600  0.872400  0.513000  1.0  0.1235
  H  H59  1  0.073200  0.200000  0.524100  1.0  0.0808
  H  H60  1  0.095800  0.127700  0.478800  1.0  0.1276
  H  H61  1  0.151500  0.128300  0.569400  1.0  0.0922
  H  H62  1  0.225800  0.101200  0.591600  1.0  0.1253
  H  H63  1  0.084200  0.051200  0.643900  1.0  0.1046
  H  H64  1  0.156100  0.027900  0.668500  1.0  0.1201
  H  H65  1  0.201400  0.934900  0.776500  1.0  0.0923
  H  H66  1  0.207200  0.997700  0.728100  1.0  0.1205
  H  H67  1  0.339800  0.876900  0.778100  1.0  0.0959
  H  H68  1  0.350100  0.945900  0.730600  1.0  0.1227
  H  H69  1  0.486300  0.064900  0.646900  1.0  0.0885
  H  H70  1  0.414600  0.040800  0.672200  1.0  0.1212
  H  H71  1  0.419200  0.101500  0.569800  1.0  0.0859
  H  H72  1  0.345200  0.079400  0.593100  1.0  0.1208
  H  H73  1  0.683800  0.285400  0.624900  1.0  0.0901
  H  H74  1  0.645000  0.370000  0.586400  1.0  0.1233
  H  H75  1  0.717600  0.526800  0.666100  1.0  0.0883
  H  H76  1  0.678500  0.617500  0.629700  1.0  0.1226
  H  H77  1  0.576100  0.963500  0.619700  1.0  0.0907
  H  H78  1  0.602800  0.807200  0.613200  1.0  0.122
  H  H79  1  0.537000  0.980400  0.534300  1.0  0.0866
  H  H80  1  0.562400  0.824200  0.525400  1.0  0.1164
  H  H81  1  0.528200  0.548100  0.442900  1.0  0.085
  H  H82  1  0.548600  0.627600  0.487000  1.0  0.1228
  H  H83  1  0.573200  0.300000  0.475900  1.0  0.0822
  H  H84  1  0.595800  0.372300  0.521200  1.0  0.1269
  H  H85  1  0.651500  0.371700  0.430600  1.0  0.0913
  H  H86  1  0.725800  0.398800  0.408400  1.0  0.1254
  H  H87  1  0.584200  0.448800  0.356100  1.0  0.1037
  H  H88  1  0.656100  0.472100  0.331500  1.0  0.1195
  H  H89  1  0.701400  0.565100  0.223500  1.0  0.092
  H  H90  1  0.707200  0.502300  0.271900  1.0  0.1205
  H  H91  1  0.839800  0.623100  0.221900  1.0  0.0963
  H  H92  1  0.850100  0.554100  0.269400  1.0  0.1225
  H  H93  1  0.986300  0.435100  0.353100  1.0  0.0885
  H  H94  1  0.914600  0.459200  0.327800  1.0  0.1217
  H  H95  1  0.919200  0.398500  0.430200  1.0  0.0872
  H  H96  1  0.845200  0.420600  0.406900  1.0  0.1204
  H  H97  1  0.816200  0.714600  0.124900  1.0  0.0892
  H  H98  1  0.855000  0.630000  0.086400  1.0  0.1233
  H  H99  1  0.782400  0.473200  0.166100  1.0  0.0882
  H  H100  1  0.821500  0.382500  0.129700  1.0  0.1226
  H  H101  1  0.923900  0.036500  0.119700  1.0  0.0927
  H  H102  1  0.897200  0.192800  0.113200  1.0  0.1222
  H  H103  1  0.963000  0.019600  0.034300  1.0  0.0868
  H  H104  1  0.937600  0.175800  0.025400  1.0  0.1164
  H  H105  1  0.971800  0.451900  0.942900  1.0  0.0847
  H  H106  1  0.951400  0.372400  0.987000  1.0  0.1234
  H  H107  1  0.926800  0.700000  0.975900  1.0  0.0808
  H  H108  1  0.904200  0.627700  0.021200  1.0  0.1271
  H  H109  1  0.848500  0.628300  0.930600  1.0  0.0917
  H  H110  1  0.774200  0.601200  0.908400  1.0  0.1253
  H  H111  1  0.915800  0.551200  0.856100  1.0  0.1028
  H  H112  1  0.843900  0.527900  0.831500  1.0  0.12
  H  H113  1  0.798600  0.434900  0.723500  1.0  0.0932
  H  H114  1  0.792800  0.497700  0.771900  1.0  0.1207
  H  H115  1  0.660200  0.376900  0.721900  1.0  0.0957
  H  H116  1  0.649900  0.445900  0.769400  1.0  0.1225
  H  H117  1  0.513700  0.564900  0.853100  1.0  0.0886
  H  H118  1  0.585400  0.540800  0.827800  1.0  0.1216
  H  H119  1  0.580800  0.601500  0.930200  1.0  0.0885
  H  H120  1  0.654800  0.579400  0.906900  1.0  0.1202
  H  H121  1  0.683800  0.214600  0.124900  1.0  0.0893
  H  H122  1  0.645000  0.130000  0.086400  1.0  0.1235
  H  H123  1  0.717600  0.973200  0.166100  1.0  0.0883
  H  H124  1  0.678500  0.882500  0.129700  1.0  0.1226
  H  H125  1  0.576100  0.536500  0.119700  1.0  0.0921
  H  H126  1  0.602800  0.692800  0.113200  1.0  0.122
  H  H127  1  0.537000  0.519600  0.034300  1.0  0.0872
  H  H128  1  0.562400  0.675800  0.025400  1.0  0.1163
  H  H129  1  0.528200  0.951900  0.942900  1.0  0.0849
  H  H130  1  0.548600  0.872400  0.987000  1.0  0.1236
  H  H131  1  0.573200  0.200000  0.975900  1.0  0.081
  H  H132  1  0.595800  0.127700  0.021200  1.0  0.1271
  H  H133  1  0.651500  0.128300  0.930600  1.0  0.0914
  H  H134  1  0.725800  0.101200  0.908400  1.0  0.1251
  H  H135  1  0.584200  0.051200  0.856100  1.0  0.1032
  H  H136  1  0.656100  0.027900  0.831500  1.0  0.1196
  H  H137  1  0.701400  0.934900  0.723500  1.0  0.0934
  H  H138  1  0.707200  0.997700  0.771900  1.0  0.1204
  H  H139  1  0.839800  0.876900  0.721900  1.0  0.096
  H  H140  1  0.850100  0.945900  0.769400  1.0  0.1227
  H  H141  1  0.986300  0.064900  0.853100  1.0  0.0884
  H  H142  1  0.914600  0.040800  0.827800  1.0  0.1216
  H  H143  1  0.919200  0.101500  0.930200  1.0  0.0872
  H  H144  1  0.845200  0.079400  0.906900  1.0  0.1203
  H  H145  1  0.816200  0.785400  0.624900  1.0  0.0903
  H  H146  1  0.855000  0.870000  0.586400  1.0  0.1232
  H  H147  1  0.782400  0.026800  0.666100  1.0  0.088
  H  H148  1  0.821500  0.117500  0.629700  1.0  0.1225
  H  H149  1  0.923900  0.463500  0.619700  1.0  0.092
  H  H150  1  0.897200  0.307200  0.613200  1.0  0.1222
  H  H151  1  0.963000  0.480400  0.534300  1.0  0.0861
  H  H152  1  0.937600  0.324200  0.525400  1.0  0.1165
  H  H153  1  0.971800  0.048100  0.442900  1.0  0.0846
  H  H154  1  0.951400  0.127600  0.487000  1.0  0.1231
  H  H155  1  0.926800  0.800000  0.475900  1.0  0.0819
  H  H156  1  0.904200  0.872300  0.521200  1.0  0.1272
  H  H157  1  0.848500  0.871700  0.430600  1.0  0.0921
  H  H158  1  0.774200  0.898800  0.408400  1.0  0.1257
  H  H159  1  0.915800  0.948800  0.356100  1.0  0.1027
  H  H160  1  0.843900  0.972100  0.331500  1.0  0.1199
  H  H161  1  0.798600  0.065100  0.223500  1.0  0.0918
  H  H162  1  0.792800  0.002300  0.271900  1.0  0.1206
  H  H163  1  0.660200  0.123100  0.221900  1.0  0.0957
  H  H164  1  0.649900  0.054100  0.269400  1.0  0.1223
  H  H165  1  0.513700  0.935100  0.353100  1.0  0.0887
  H  H166  1  0.585400  0.959200  0.327800  1.0  0.1216
  H  H167  1  0.580800  0.898500  0.430200  1.0  0.0885
  H  H168  1  0.654800  0.920600  0.406900  1.0  0.1204
  H  H169  1  0.316200  0.714600  0.375100  1.0  0.0891
  H  H170  1  0.355000  0.630000  0.413600  1.0  0.1235
  H  H171  1  0.282400  0.473200  0.333900  1.0  0.0885
  H  H172  1  0.321500  0.382500  0.370300  1.0  0.1226
  H  H173  1  0.423900  0.036500  0.380300  1.0  0.0919
  H  H174  1  0.397200  0.192800  0.386800  1.0  0.1219
  H  H175  1  0.463000  0.019600  0.465700  1.0  0.0869
  H  H176  1  0.437600  0.175800  0.474600  1.0  0.1166
  H  H177  1  0.471800  0.451900  0.557100  1.0  0.0848
  H  H178  1  0.451400  0.372400  0.513000  1.0  0.1233
  H  H179  1  0.426800  0.700000  0.524100  1.0  0.0808
  H  H180  1  0.404200  0.627700  0.478800  1.0  0.1274
  H  H181  1  0.348500  0.628300  0.569400  1.0  0.092
  H  H182  1  0.274200  0.601200  0.591600  1.0  0.1254
  H  H183  1  0.415800  0.551200  0.643900  1.0  0.1035
  H  H184  1  0.343900  0.527900  0.668500  1.0  0.1198
  H  H185  1  0.298600  0.434900  0.776500  1.0  0.0929
  H  H186  1  0.292800  0.497700  0.728100  1.0  0.1208
  H  H187  1  0.160200  0.376900  0.778100  1.0  0.096
  H  H188  1  0.149900  0.445900  0.730600  1.0  0.1227
  H  H189  1  0.013700  0.564900  0.646900  1.0  0.0887
  H  H190  1  0.085400  0.540800  0.672200  1.0  0.1216
  H  H191  1  0.080800  0.601500  0.569800  1.0  0.0877
  H  H192  1  0.154800  0.579400  0.593100  1.0  0.1206
  H  H193  1  0.183800  0.285400  0.875100  1.0  0.0899
  H  H194  1  0.145000  0.370000  0.913600  1.0  0.1235
  H  H195  1  0.217600  0.526800  0.833900  1.0  0.0889
  H  H196  1  0.178500  0.617500  0.870300  1.0  0.1229
  H  H197  1  0.076100  0.963500  0.880300  1.0  0.0913
  H  H198  1  0.102800  0.807200  0.886800  1.0  0.1219
  H  H199  1  0.037000  0.980400  0.965700  1.0  0.0869
  H  H200  1  0.062400  0.824200  0.974600  1.0  0.1163
  H  H201  1  0.028200  0.548100  0.057100  1.0  0.0855
  H  H202  1  0.048600  0.627600  0.013000  1.0  0.1229
  H  H203  1  0.073200  0.300000  0.024100  1.0  0.0821
  H  H204  1  0.095800  0.372300  0.978800  1.0  0.127
  H  H205  1  0.151500  0.371700  0.069400  1.0  0.092
  H  H206  1  0.225800  0.398800  0.091600  1.0  0.1255
  H  H207  1  0.084200  0.448800  0.143900  1.0  0.1049
  H  H208  1  0.156100  0.472100  0.168500  1.0  0.1199
  H  H209  1  0.201400  0.565100  0.276500  1.0  0.0912
  H  H210  1  0.207200  0.502300  0.228100  1.0  0.1203
  H  H211  1  0.339800  0.623100  0.278100  1.0  0.0958
  H  H212  1  0.350100  0.554100  0.230600  1.0  0.1226
  H  H213  1  0.486300  0.435100  0.146900  1.0  0.0884
  H  H214  1  0.414600  0.459200  0.172200  1.0  0.1211
  H  H215  1  0.419200  0.398500  0.069800  1.0  0.0858
  H  H216  1  0.345200  0.420600  0.093100  1.0  0.1207
  C  C217  1  0.316900  0.853900  0.874280  1.0  0.138
  C  C218  1  0.340500  0.903800  0.897300  1.0  -0.1404
  C  C219  1  0.297600  0.994500  0.850320  1.0  0.1524
  C  C220  1  0.320500  0.049100  0.871900  1.0  -0.1303
  C  C221  1  0.342140  0.002900  0.895880  1.0  -0.116
  C  C222  1  0.368050  0.058200  0.919510  1.0  0.3788
  C  C223  1  0.426570  0.434500  0.899680  1.0  0.1568
  C  C224  1  0.410800  0.341400  0.903330  1.0  -0.1363
  C  C225  1  0.449470  0.444500  0.949550  1.0  0.1392
  C  C226  1  0.434500  0.351600  0.954980  1.0  -0.1398
  C  C227  1  0.414880  0.298200  0.931400  1.0  -0.1201
  C  C228  1  0.401610  0.195900  0.936090  1.0  0.4134
  C  C229  1  0.457160  0.012700  0.041170  1.0  0.1346
  C  C230  1  0.445120  0.060400  0.015020  1.0  -0.13
  C  C231  1  0.430800  0.867800  0.021940  1.0  0.1445
  C  C232  1  0.417300  0.910000  0.994770  1.0  -0.1516
  C  C233  1  0.423670  0.009300  0.991590  1.0  -0.1106
  C  C234  1  0.407630  0.059900  0.963870  1.0  0.4034
  C  C235  1  0.347320  0.892200  0.089890  1.0  0.1479
  C  C236  1  0.302870  0.908000  0.102860  1.0  -0.1549
  C  C237  1  0.386730  0.936500  0.133450  1.0  0.1253
  C  C238  1  0.344110  0.951800  0.148000  1.0  -0.0822
  C  C239  1  0.301510  0.937600  0.132890  1.0  -0.101
  C  C240  1  0.255440  0.951600  0.148860  1.0  0.4088
  C  C241  1  0.268300  0.065100  0.266680  1.0  0.1402
  C  C242  1  0.265080  0.026500  0.238020  1.0  -0.123
  C  C243  1  0.187300  0.098000  0.267690  1.0  0.1378
  C  C244  1  0.180900  0.057900  0.239310  1.0  -0.1347
  C  C245  1  0.220740  0.023300  0.223790  1.0  -0.1315
  C  C246  1  0.217330  0.989100  0.192300  1.0  0.3864
  C  C247  1  0.042800  0.931700  0.135850  1.0  0.1474
  C  C248  1  0.085400  0.946000  0.151110  1.0  -0.1456
  C  C249  1  0.081890  0.910300  0.090910  1.0  0.1389
  C  C250  1  0.126200  0.923500  0.104670  1.0  -0.1037
  C  C251  1  0.128220  0.940900  0.135070  1.0  -0.0892
  C  C252  1  0.174860  0.952400  0.150450  1.0  0.3904
  C  C253  1  0.183100  0.146100  0.374280  1.0  0.1385
  C  C254  1  0.159500  0.096200  0.397300  1.0  -0.1425
  C  C255  1  0.202400  0.005500  0.350320  1.0  0.1586
  C  C256  1  0.179500  0.950900  0.371900  1.0  -0.1317
  C  C257  1  0.157860  0.997100  0.395880  1.0  -0.116
  C  C258  1  0.131950  0.941800  0.419510  1.0  0.3793
  C  C259  1  0.073430  0.565500  0.399680  1.0  0.149
  C  C260  1  0.089200  0.658600  0.403330  1.0  -0.1358
  C  C261  1  0.050530  0.555500  0.449550  1.0  0.1455
  C  C262  1  0.065500  0.648400  0.454980  1.0  -0.1399
  C  C263  1  0.085120  0.701800  0.431400  1.0  -0.1216
  C  C264  1  0.098390  0.804100  0.436090  1.0  0.4118
  C  C265  1  0.042840  0.987300  0.541170  1.0  0.1403
  C  C266  1  0.054880  0.939600  0.515020  1.0  -0.1297
  C  C267  1  0.069200  0.132200  0.521940  1.0  0.1376
  C  C268  1  0.082700  0.090000  0.494770  1.0  -0.1531
  C  C269  1  0.076330  0.990700  0.491590  1.0  -0.1114
  C  C270  1  0.092370  0.940100  0.463870  1.0  0.4019
  C  C271  1  0.152680  0.107800  0.589890  1.0  0.1405
  C  C272  1  0.197130  0.092000  0.602860  1.0  -0.1543
  C  C273  1  0.113270  0.063500  0.633450  1.0  0.1346
  C  C274  1  0.155890  0.048200  0.648000  1.0  -0.0826
  C  C275  1  0.198490  0.062400  0.632890  1.0  -0.1012
  C  C276  1  0.244560  0.048400  0.648860  1.0  0.4094
  C  C277  1  0.231700  0.934900  0.766680  1.0  0.141
  C  C278  1  0.234920  0.973500  0.738020  1.0  -0.1242
  C  C279  1  0.312700  0.902000  0.767690  1.0  0.1314
  C  C280  1  0.319100  0.942100  0.739310  1.0  -0.1327
  C  C281  1  0.279260  0.976700  0.723790  1.0  -0.1308
  C  C282  1  0.282670  0.010900  0.692300  1.0  0.3863
  C  C283  1  0.457200  0.068300  0.635850  1.0  0.1516
  C  C284  1  0.414600  0.054000  0.651110  1.0  -0.1442
  C  C285  1  0.418110  0.089700  0.590910  1.0  0.1398
  C  C286  1  0.373800  0.076500  0.604670  1.0  -0.1038
  C  C287  1  0.371780  0.059100  0.635070  1.0  -0.0888
  C  C288  1  0.325140  0.047600  0.650450  1.0  0.3911
  C  C289  1  0.683100  0.353900  0.625720  1.0  0.1385
  C  C290  1  0.659500  0.403800  0.602700  1.0  -0.1417
  C  C291  1  0.702400  0.494500  0.649680  1.0  0.1528
  C  C292  1  0.679500  0.549100  0.628100  1.0  -0.1306
  C  C293  1  0.657860  0.502900  0.604120  1.0  -0.1168
  C  C294  1  0.631950  0.558200  0.580490  1.0  0.3792
  C  C295  1  0.573430  0.934500  0.600320  1.0  0.1557
  C  C296  1  0.589200  0.841400  0.596670  1.0  -0.1338
  C  C297  1  0.550530  0.944500  0.550450  1.0  0.1462
  C  C298  1  0.565500  0.851600  0.545020  1.0  -0.1361
  C  C299  1  0.585120  0.798200  0.568600  1.0  -0.1207
  C  C300  1  0.598390  0.695900  0.563910  1.0  0.4124
  C  C301  1  0.542840  0.512700  0.458830  1.0  0.1397
  C  C302  1  0.554880  0.560400  0.484980  1.0  -0.1298
  C  C303  1  0.569200  0.367800  0.478060  1.0  0.1383
  C  C304  1  0.582700  0.410000  0.505230  1.0  -0.154
  C  C305  1  0.576330  0.509300  0.508410  1.0  -0.1126
  C  C306  1  0.592370  0.559900  0.536130  1.0  0.4015
  C  C307  1  0.652680  0.392200  0.410110  1.0  0.1461
  C  C308  1  0.697130  0.408000  0.397140  1.0  -0.152
  C  C309  1  0.613270  0.436500  0.366550  1.0  0.1263
  C  C310  1  0.655890  0.451800  0.352000  1.0  -0.0818
  C  C311  1  0.698490  0.437600  0.367110  1.0  -0.1011
  C  C312  1  0.744560  0.451600  0.351140  1.0  0.4096
  C  C313  1  0.731700  0.565100  0.233320  1.0  0.1422
  C  C314  1  0.734920  0.526500  0.261980  1.0  -0.1249
  C  C315  1  0.812700  0.598000  0.232310  1.0  0.1298
  C  C316  1  0.819100  0.557900  0.260690  1.0  -0.1321
  C  C317  1  0.779260  0.523300  0.276210  1.0  -0.1309
  C  C318  1  0.782670  0.489100  0.307700  1.0  0.3859
  C  C319  1  0.957200  0.431700  0.364150  1.0  0.146
  C  C320  1  0.914600  0.446000  0.348890  1.0  -0.1429
  C  C321  1  0.918110  0.410300  0.409090  1.0  0.1408
  C  C322  1  0.873800  0.423500  0.395330  1.0  -0.1079
  C  C323  1  0.871780  0.440900  0.364930  1.0  -0.0892
  C  C324  1  0.825140  0.452400  0.349550  1.0  0.3908
  C  C325  1  0.816900  0.646100  0.125720  1.0  0.1332
  C  C326  1  0.840500  0.596200  0.102700  1.0  -0.1388
  C  C327  1  0.797600  0.505500  0.149680  1.0  0.1587
  C  C328  1  0.820500  0.450900  0.128100  1.0  -0.1294
  C  C329  1  0.842140  0.497100  0.104120  1.0  -0.1163
  C  C330  1  0.868050  0.441800  0.080490  1.0  0.3791
  C  C331  1  0.926570  0.065500  0.100320  1.0  0.1574
  C  C332  1  0.910800  0.158600  0.096670  1.0  -0.1384
  C  C333  1  0.949470  0.055500  0.050450  1.0  0.1445
  C  C334  1  0.934500  0.148400  0.045020  1.0  -0.1351
  C  C335  1  0.914880  0.201800  0.068600  1.0  -0.1211
  C  C336  1  0.901610  0.304100  0.063910  1.0  0.4128
  C  C337  1  0.957160  0.487300  0.958830  1.0  0.1425
  C  C338  1  0.945120  0.439600  0.984980  1.0  -0.1317
  C  C339  1  0.930800  0.632200  0.978060  1.0  0.1448
  C  C340  1  0.917300  0.590000  0.005230  1.0  -0.1548
  C  C341  1  0.923670  0.490700  0.008410  1.0  -0.11
  C  C342  1  0.907630  0.440100  0.036130  1.0  0.4029
  C  C343  1  0.847320  0.607800  0.910110  1.0  0.146
  C  C344  1  0.802870  0.592000  0.897140  1.0  -0.1532
  C  C345  1  0.886730  0.563500  0.866550  1.0  0.1324
  C  C346  1  0.844110  0.548200  0.852000  1.0  -0.0813
  C  C347  1  0.801510  0.562400  0.867110  1.0  -0.1006
  C  C348  1  0.755440  0.548400  0.851140  1.0  0.4091
  C  C349  1  0.768300  0.434900  0.733320  1.0  0.1364
  C  C350  1  0.765080  0.473500  0.761980  1.0  -0.1225
  C  C351  1  0.687300  0.402000  0.732310  1.0  0.1382
  C  C352  1  0.680900  0.442100  0.760690  1.0  -0.1347
  C  C353  1  0.720740  0.476700  0.776210  1.0  -0.1317
  C  C354  1  0.717330  0.510900  0.807700  1.0  0.3859
  C  C355  1  0.542800  0.568300  0.864150  1.0  0.1524
  C  C356  1  0.585400  0.554000  0.848890  1.0  -0.1428
  C  C357  1  0.581890  0.589700  0.909090  1.0  0.1305
  C  C358  1  0.626200  0.576500  0.895330  1.0  -0.1028
  C  C359  1  0.628220  0.559100  0.864930  1.0  -0.0899
  C  C360  1  0.674860  0.547600  0.849550  1.0  0.3905
  C  C361  1  0.683100  0.146100  0.125720  1.0  0.1392
  C  C362  1  0.659500  0.096200  0.102700  1.0  -0.1395
  C  C363  1  0.702400  0.005500  0.149680  1.0  0.1589
  C  C364  1  0.679500  0.950900  0.128100  1.0  -0.1312
  C  C365  1  0.657860  0.997100  0.104120  1.0  -0.1169
  C  C366  1  0.631950  0.941800  0.080490  1.0  0.3792
  C  C367  1  0.573430  0.565500  0.100320  1.0  0.1497
  C  C368  1  0.589200  0.658600  0.096670  1.0  -0.1341
  C  C369  1  0.550530  0.555500  0.050450  1.0  0.146
  C  C370  1  0.565500  0.648400  0.045020  1.0  -0.1356
  C  C371  1  0.585120  0.701800  0.068600  1.0  -0.1216
  C  C372  1  0.598390  0.804100  0.063910  1.0  0.4118
  C  C373  1  0.542840  0.987300  0.958830  1.0  0.1422
  C  C374  1  0.554880  0.939600  0.984980  1.0  -0.1302
  C  C375  1  0.569200  0.132200  0.978060  1.0  0.1385
  C  C376  1  0.582700  0.090000  0.005230  1.0  -0.1534
  C  C377  1  0.576330  0.990700  0.008410  1.0  -0.1126
  C  C378  1  0.592370  0.940100  0.036130  1.0  0.4017
  C  C379  1  0.652680  0.107800  0.910110  1.0  0.1403
  C  C380  1  0.697130  0.092000  0.897140  1.0  -0.1526
  C  C381  1  0.613270  0.063500  0.866550  1.0  0.1336
  C  C382  1  0.655890  0.048200  0.852000  1.0  -0.0813
  C  C383  1  0.698490  0.062400  0.867110  1.0  -0.1003
  C  C384  1  0.744560  0.048400  0.851140  1.0  0.4096
  C  C385  1  0.731700  0.934900  0.733320  1.0  0.1401
  C  C386  1  0.734920  0.973500  0.761980  1.0  -0.1245
  C  C387  1  0.812700  0.902000  0.732310  1.0  0.1301
  C  C388  1  0.819100  0.942100  0.760690  1.0  -0.1326
  C  C389  1  0.779260  0.976700  0.776210  1.0  -0.1312
  C  C390  1  0.782670  0.010900  0.807700  1.0  0.3858
  C  C391  1  0.957200  0.068300  0.864150  1.0  0.1518
  C  C392  1  0.914600  0.054000  0.848890  1.0  -0.1431
  C  C393  1  0.918110  0.089700  0.909090  1.0  0.1385
  C  C394  1  0.873800  0.076500  0.895330  1.0  -0.1054
  C  C395  1  0.871780  0.059100  0.864930  1.0  -0.0895
  C  C396  1  0.825140  0.047600  0.849550  1.0  0.391
  C  C397  1  0.816900  0.853900  0.625720  1.0  0.1382
  C  C398  1  0.840500  0.903800  0.602700  1.0  -0.1404
  C  C399  1  0.797600  0.994500  0.649680  1.0  0.1528
  C  C400  1  0.820500  0.049100  0.628100  1.0  -0.1299
  C  C401  1  0.842140  0.002900  0.604120  1.0  -0.1157
  C  C402  1  0.868050  0.058200  0.580490  1.0  0.379
  C  C403  1  0.926570  0.434500  0.600320  1.0  0.1572
  C  C404  1  0.910800  0.341400  0.596670  1.0  -0.1381
  C  C405  1  0.949470  0.444500  0.550450  1.0  0.1448
  C  C406  1  0.934500  0.351600  0.545020  1.0  -0.1357
  C  C407  1  0.914880  0.298200  0.568600  1.0  -0.1204
  C  C408  1  0.901610  0.195900  0.563910  1.0  0.4135
  C  C409  1  0.957160  0.012700  0.458830  1.0  0.137
  C  C410  1  0.945120  0.060400  0.484980  1.0  -0.1295
  C  C411  1  0.930800  0.867800  0.478060  1.0  0.144
  C  C412  1  0.917300  0.910000  0.505230  1.0  -0.1519
  C  C413  1  0.923670  0.009300  0.508410  1.0  -0.1096
  C  C414  1  0.907630  0.059900  0.536130  1.0  0.4029
  C  C415  1  0.847320  0.892200  0.410110  1.0  0.1478
  C  C416  1  0.802870  0.908000  0.397140  1.0  -0.155
  C  C417  1  0.886730  0.936500  0.366550  1.0  0.1245
  C  C418  1  0.844110  0.951800  0.352000  1.0  -0.0816
  C  C419  1  0.801510  0.937600  0.367110  1.0  -0.1012
  C  C420  1  0.755440  0.951600  0.351140  1.0  0.4091
  C  C421  1  0.768300  0.065100  0.233320  1.0  0.14
  C  C422  1  0.765080  0.026500  0.261980  1.0  -0.123
  C  C423  1  0.687300  0.098000  0.232310  1.0  0.138
  C  C424  1  0.680900  0.057900  0.260690  1.0  -0.1353
  C  C425  1  0.720740  0.023300  0.276210  1.0  -0.1313
  C  C426  1  0.717330  0.989100  0.307700  1.0  0.3859
  C  C427  1  0.542800  0.931700  0.364150  1.0  0.1471
  C  C428  1  0.585400  0.946000  0.348890  1.0  -0.1427
  C  C429  1  0.581890  0.910300  0.409090  1.0  0.1377
  C  C430  1  0.626200  0.923500  0.395330  1.0  -0.103
  C  C431  1  0.628220  0.940900  0.364930  1.0  -0.0896
  C  C432  1  0.674860  0.952400  0.349550  1.0  0.3903
  C  C433  1  0.316900  0.646100  0.374280  1.0  0.1325
  C  C434  1  0.340500  0.596200  0.397300  1.0  -0.1399
  C  C435  1  0.297600  0.505500  0.350320  1.0  0.1578
  C  C436  1  0.320500  0.450900  0.371900  1.0  -0.1321
  C  C437  1  0.342140  0.497100  0.395880  1.0  -0.1172
  C  C438  1  0.368050  0.441800  0.419510  1.0  0.3789
  C  C439  1  0.426570  0.065500  0.399680  1.0  0.1557
  C  C440  1  0.410800  0.158600  0.403330  1.0  -0.1367
  C  C441  1  0.449470  0.055500  0.449550  1.0  0.1399
  C  C442  1  0.434500  0.148400  0.454980  1.0  -0.14
  C  C443  1  0.414880  0.201800  0.431400  1.0  -0.121
  C  C444  1  0.401610  0.304100  0.436090  1.0  0.4126
  C  C445  1  0.457160  0.487300  0.541170  1.0  0.1404
  C  C446  1  0.445120  0.439600  0.515020  1.0  -0.1312
  C  C447  1  0.430800  0.632200  0.521940  1.0  0.1451
  C  C448  1  0.417300  0.590000  0.494770  1.0  -0.1544
  C  C449  1  0.423670  0.490700  0.491590  1.0  -0.1112
  C  C450  1  0.407630  0.440100  0.463870  1.0  0.4033
  C  C451  1  0.347320  0.607800  0.589890  1.0  0.1467
  C  C452  1  0.302870  0.592000  0.602860  1.0  -0.153
  C  C453  1  0.386730  0.563500  0.633450  1.0  0.1333
  C  C454  1  0.344110  0.548200  0.648000  1.0  -0.0821
  C  C455  1  0.301510  0.562400  0.632890  1.0  -0.1012
  C  C456  1  0.255440  0.548400  0.648860  1.0  0.4088
  C  C457  1  0.268300  0.434900  0.766680  1.0  0.1374
  C  C458  1  0.265080  0.473500  0.738020  1.0  -0.1226
  C  C459  1  0.187300  0.402000  0.767690  1.0  0.139
  C  C460  1  0.180900  0.442100  0.739310  1.0  -0.1341
  C  C461  1  0.220740  0.476700  0.723790  1.0  -0.1314
  C  C462  1  0.217330  0.510900  0.692300  1.0  0.3863
  C  C463  1  0.042800  0.568300  0.635850  1.0  0.1521
  C  C464  1  0.085400  0.554000  0.651110  1.0  -0.1447
  C  C465  1  0.081890  0.589700  0.590910  1.0  0.1321
  C  C466  1  0.126200  0.576500  0.604670  1.0  -0.1041
  C  C467  1  0.128220  0.559100  0.635070  1.0  -0.0895
  C  C468  1  0.174860  0.547600  0.650450  1.0  0.3906
  C  C469  1  0.183100  0.353900  0.874280  1.0  0.14
  C  C470  1  0.159500  0.403800  0.897300  1.0  -0.1418
  C  C471  1  0.202400  0.494500  0.850320  1.0  0.1524
  C  C472  1  0.179500  0.549100  0.871900  1.0  -0.1327
  C  C473  1  0.157860  0.502900  0.895880  1.0  -0.1172
  C  C474  1  0.131950  0.558200  0.919510  1.0  0.3793
  C  C475  1  0.073430  0.934500  0.899680  1.0  0.1494
  C  C476  1  0.089200  0.841400  0.903330  1.0  -0.1355
  C  C477  1  0.050530  0.944500  0.949550  1.0  0.1438
  C  C478  1  0.065500  0.851600  0.954980  1.0  -0.1384
  C  C479  1  0.085120  0.798200  0.931400  1.0  -0.1205
  C  C480  1  0.098390  0.695900  0.936090  1.0  0.4123
  C  C481  1  0.042840  0.512700  0.041170  1.0  0.1348
  C  C482  1  0.054880  0.560400  0.015020  1.0  -0.1297
  C  C483  1  0.069200  0.367800  0.021940  1.0  0.1387
  C  C484  1  0.082700  0.410000  0.994770  1.0  -0.1539
  C  C485  1  0.076330  0.509300  0.991590  1.0  -0.1113
  C  C486  1  0.092370  0.559900  0.963870  1.0  0.4018
  C  C487  1  0.152680  0.392200  0.089890  1.0  0.1462
  C  C488  1  0.197130  0.408000  0.102860  1.0  -0.1532
  C  C489  1  0.113270  0.436500  0.133450  1.0  0.1262
  C  C490  1  0.155890  0.451800  0.148000  1.0  -0.0829
  C  C491  1  0.198490  0.437600  0.132890  1.0  -0.1012
  C  C492  1  0.244560  0.451600  0.148860  1.0  0.4094
  C  C493  1  0.231700  0.565100  0.266680  1.0  0.1423
  C  C494  1  0.234920  0.526500  0.238020  1.0  -0.1246
  C  C495  1  0.312700  0.598000  0.267690  1.0  0.1303
  C  C496  1  0.319100  0.557900  0.239310  1.0  -0.1323
  C  C497  1  0.279260  0.523300  0.223790  1.0  -0.1309
  C  C498  1  0.282670  0.489100  0.192300  1.0  0.3863
  C  C499  1  0.457200  0.431700  0.135850  1.0  0.1462
  C  C500  1  0.414600  0.446000  0.151110  1.0  -0.1441
  C  C501  1  0.418110  0.410300  0.090910  1.0  0.142
  C  C502  1  0.373800  0.423500  0.104670  1.0  -0.1073
  C  C503  1  0.371780  0.440900  0.135070  1.0  -0.0886
  C  C504  1  0.325140  0.452400  0.150450  1.0  0.3909
  I  I505  1  0.445720  0.676580  0.084090  1.0  -0.4236
  I  I506  1  0.517830  0.947260  0.117660  1.0  -0.348
  I  I507  1  0.328780  0.187430  0.332490  1.0  -0.3195
  I  I508  1  0.194870  0.340910  0.311810  1.0  -0.338
  I  I509  1  0.428070  0.706060  0.873750  1.0  -0.327
  I  I510  1  0.493720  0.695370  0.965530  1.0  -0.4324
  I  I511  1  0.054280  0.323420  0.584090  1.0  -0.4243
  I  I512  1  0.982170  0.052740  0.617660  1.0  -0.3475
  I  I513  1  0.171220  0.812570  0.832490  1.0  -0.3198
  I  I514  1  0.305130  0.659090  0.811810  1.0  -0.3376
  I  I515  1  0.071930  0.293940  0.373750  1.0  -0.3276
  I  I516  1  0.006280  0.304630  0.465530  1.0  -0.4343
  I  I517  1  0.554280  0.176580  0.415910  1.0  -0.4243
  I  I518  1  0.482170  0.447260  0.382340  1.0  -0.3453
  I  I519  1  0.671220  0.687430  0.167510  1.0  -0.3202
  I  I520  1  0.805130  0.840910  0.188190  1.0  -0.3377
  I  I521  1  0.571930  0.206060  0.626250  1.0  -0.3274
  I  I522  1  0.506280  0.195370  0.534470  1.0  -0.4341
  I  I523  1  0.945720  0.823420  0.915910  1.0  -0.4235
  I  I524  1  0.017830  0.552740  0.882340  1.0  -0.3446
  I  I525  1  0.828780  0.312570  0.667510  1.0  -0.3196
  I  I526  1  0.694870  0.159090  0.688190  1.0  -0.3384
  I  I527  1  0.928070  0.793940  0.126250  1.0  -0.3278
  I  I528  1  0.993720  0.804630  0.034470  1.0  -0.4323
  I  I529  1  0.554280  0.323420  0.915910  1.0  -0.4242
  I  I530  1  0.482170  0.052740  0.882340  1.0  -0.345
  I  I531  1  0.671220  0.812570  0.667510  1.0  -0.3201
  I  I532  1  0.805130  0.659090  0.688190  1.0  -0.3375
  I  I533  1  0.571930  0.293940  0.126250  1.0  -0.3273
  I  I534  1  0.506280  0.304630  0.034470  1.0  -0.4342
  I  I535  1  0.945720  0.676580  0.415910  1.0  -0.4238
  I  I536  1  0.017830  0.947260  0.382340  1.0  -0.3449
  I  I537  1  0.828780  0.187430  0.167510  1.0  -0.3197
  I  I538  1  0.694870  0.340910  0.188190  1.0  -0.3381
  I  I539  1  0.928070  0.706060  0.626250  1.0  -0.3276
  I  I540  1  0.993720  0.695370  0.534470  1.0  -0.4322
  I  I541  1  0.445720  0.823420  0.584090  1.0  -0.4234
  I  I542  1  0.517830  0.552740  0.617660  1.0  -0.3472
  I  I543  1  0.328780  0.312570  0.832490  1.0  -0.3193
  I  I544  1  0.194870  0.159090  0.811810  1.0  -0.3384
  I  I545  1  0.428070  0.793940  0.373750  1.0  -0.3278
  I  I546  1  0.493720  0.804630  0.465530  1.0  -0.4324
  I  I547  1  0.054280  0.176580  0.084090  1.0  -0.4244
  I  I548  1  0.982170  0.447260  0.117660  1.0  -0.3477
  I  I549  1  0.171220  0.687430  0.332490  1.0  -0.32
  I  I550  1  0.305130  0.840910  0.311810  1.0  -0.3377
  I  I551  1  0.071930  0.206060  0.873750  1.0  -0.3269
  I  I552  1  0.006280  0.195370  0.965530  1.0  -0.4342
  N  N553  1  0.295650  0.898000  0.851390  1.0  -0.2945
  N  N554  1  0.445680  0.486600  0.922350  1.0  -0.337
  N  N555  1  0.448980  0.917100  0.045120  1.0  -0.3154
  N  N556  1  0.375690  0.152600  0.914960  1.0  -0.4728
  N  N557  1  0.418550  0.153200  0.961180  1.0  -0.4681
  N  N558  1  0.382940  0.008500  0.943710  1.0  -0.3762
  N  N559  1  0.388720  0.904300  0.104680  1.0  -0.3499
  N  N560  1  0.230580  0.102700  0.281090  1.0  -0.3182
  N  N561  1  0.040790  0.913400  0.106340  1.0  -0.3048
  N  N562  1  0.258760  0.976000  0.178110  1.0  -0.496
  N  N563  1  0.173970  0.978200  0.179900  1.0  -0.5178
  N  N564  1  0.214270  0.938500  0.133990  1.0  -0.4941
  N  N565  1  0.204350  0.102000  0.351390  1.0  -0.2944
  N  N566  1  0.054320  0.513400  0.422350  1.0  -0.3359
  N  N567  1  0.051020  0.082900  0.545120  1.0  -0.3148
  N  N568  1  0.124310  0.847400  0.414960  1.0  -0.4716
  N  N569  1  0.081450  0.846800  0.461180  1.0  -0.4837
  N  N570  1  0.117060  0.991500  0.443710  1.0  -0.3711
  N  N571  1  0.111280  0.095700  0.604680  1.0  -0.3476
  N  N572  1  0.269420  0.897300  0.781090  1.0  -0.3192
  N  N573  1  0.459210  0.086600  0.606340  1.0  -0.3046
  N  N574  1  0.241240  0.024000  0.678110  1.0  -0.4967
  N  N575  1  0.326030  0.021800  0.679900  1.0  -0.5153
  N  N576  1  0.285730  0.061500  0.633990  1.0  -0.4872
  N  N577  1  0.704350  0.398000  0.648610  1.0  -0.2927
  N  N578  1  0.554320  0.986600  0.577650  1.0  -0.3352
  N  N579  1  0.551020  0.417100  0.454880  1.0  -0.3194
  N  N580  1  0.624310  0.652600  0.585040  1.0  -0.4591
  N  N581  1  0.581450  0.653200  0.538820  1.0  -0.4833
  N  N582  1  0.617060  0.508500  0.556290  1.0  -0.3763
  N  N583  1  0.611280  0.404300  0.395320  1.0  -0.3481
  N  N584  1  0.769420  0.602700  0.218910  1.0  -0.3192
  N  N585  1  0.959210  0.413400  0.393660  1.0  -0.3066
  N  N586  1  0.741240  0.476000  0.321890  1.0  -0.4966
  N  N587  1  0.826030  0.478200  0.320100  1.0  -0.505
  N  N588  1  0.785730  0.438500  0.366010  1.0  -0.4976
  N  N589  1  0.795650  0.602000  0.148610  1.0  -0.2948
  N  N590  1  0.945680  0.013400  0.077650  1.0  -0.3357
  N  N591  1  0.948980  0.582900  0.954880  1.0  -0.3178
  N  N592  1  0.875690  0.347400  0.085040  1.0  -0.4704
  N  N593  1  0.918550  0.346800  0.038820  1.0  -0.4819
  N  N594  1  0.882940  0.491500  0.056290  1.0  -0.3697
  N  N595  1  0.888720  0.595700  0.895320  1.0  -0.3501
  N  N596  1  0.730580  0.397300  0.718910  1.0  -0.318
  N  N597  1  0.540790  0.586600  0.893660  1.0  -0.305
  N  N598  1  0.758760  0.524000  0.821890  1.0  -0.4957
  N  N599  1  0.673970  0.521800  0.820100  1.0  -0.5177
  N  N600  1  0.714270  0.561500  0.866010  1.0  -0.4903
  N  N601  1  0.704350  0.102000  0.148610  1.0  -0.2941
  N  N602  1  0.554320  0.513400  0.077650  1.0  -0.3355
  N  N603  1  0.551020  0.082900  0.954880  1.0  -0.318
  N  N604  1  0.624310  0.847400  0.085040  1.0  -0.4635
  N  N605  1  0.581450  0.846800  0.038820  1.0  -0.4838
  N  N606  1  0.617060  0.991500  0.056290  1.0  -0.3701
  N  N607  1  0.611280  0.095700  0.895320  1.0  -0.3484
  N  N608  1  0.769420  0.897300  0.718910  1.0  -0.3195
  N  N609  1  0.959210  0.086600  0.893660  1.0  -0.3056
  N  N610  1  0.741240  0.024000  0.821890  1.0  -0.4961
  N  N611  1  0.826030  0.021800  0.820100  1.0  -0.5155
  N  N612  1  0.785730  0.061500  0.866010  1.0  -0.4902
  N  N613  1  0.795650  0.898000  0.648610  1.0  -0.2929
  N  N614  1  0.945680  0.486600  0.577650  1.0  -0.3352
  N  N615  1  0.948980  0.917100  0.454880  1.0  -0.3189
  N  N616  1  0.875690  0.152600  0.585040  1.0  -0.4716
  N  N617  1  0.918550  0.153200  0.538820  1.0  -0.4751
  N  N618  1  0.882940  0.008500  0.556290  1.0  -0.3761
  N  N619  1  0.888720  0.904300  0.395320  1.0  -0.3497
  N  N620  1  0.730580  0.102700  0.218910  1.0  -0.3178
  N  N621  1  0.540790  0.913400  0.393660  1.0  -0.3051
  N  N622  1  0.758760  0.976000  0.321890  1.0  -0.4958
  N  N623  1  0.673970  0.978200  0.320100  1.0  -0.5176
  N  N624  1  0.714270  0.938500  0.366010  1.0  -0.4977
  N  N625  1  0.295650  0.602000  0.351390  1.0  -0.2944
  N  N626  1  0.445680  0.013400  0.422350  1.0  -0.3362
  N  N627  1  0.448980  0.582900  0.545120  1.0  -0.3152
  N  N628  1  0.375690  0.347400  0.414960  1.0  -0.4723
  N  N629  1  0.418550  0.346800  0.461180  1.0  -0.4736
  N  N630  1  0.382940  0.491500  0.443710  1.0  -0.3703
  N  N631  1  0.388720  0.595700  0.604680  1.0  -0.35
  N  N632  1  0.230580  0.397300  0.781090  1.0  -0.3176
  N  N633  1  0.040790  0.586600  0.606340  1.0  -0.3036
  N  N634  1  0.258760  0.524000  0.678110  1.0  -0.4958
  N  N635  1  0.173970  0.521800  0.679900  1.0  -0.5179
  N  N636  1  0.214270  0.561500  0.633990  1.0  -0.4873
  N  N637  1  0.204350  0.398000  0.851390  1.0  -0.2942
  N  N638  1  0.054320  0.986600  0.922350  1.0  -0.3369
  N  N639  1  0.051020  0.417100  0.045120  1.0  -0.3149
  N  N640  1  0.124310  0.652600  0.914960  1.0  -0.4706
  N  N641  1  0.081450  0.653200  0.961180  1.0  -0.4827
  N  N642  1  0.117060  0.508500  0.943710  1.0  -0.3768
  N  N643  1  0.111280  0.404300  0.104680  1.0  -0.3478
  N  N644  1  0.269420  0.602700  0.281090  1.0  -0.3199
  N  N645  1  0.459210  0.413400  0.106340  1.0  -0.3054
  N  N646  1  0.241240  0.476000  0.178110  1.0  -0.4973
  N  N647  1  0.326030  0.478200  0.179900  1.0  -0.5048
  N  N648  1  0.285730  0.438500  0.133990  1.0  -0.494
