# generated using pymatgen
data_ZnH11C19NO4
_symmetry_space_group_name_H-M   'P 1'
_cell_length_a   16.84460000
_cell_length_b   15.16380000
_cell_length_c   8.37020000
_cell_angle_alpha   90.00000000
_cell_angle_beta   116.29000000
_cell_angle_gamma   90.00000000
_symmetry_Int_Tables_number   1
_chemical_formula_structural   ZnH11C19NO4
_chemical_formula_sum   'Zn4 H44 C76 N4 O16'
_cell_volume   1916.83954127
_cell_formula_units_Z   4
loop_
 _symmetry_equiv_pos_site_id
 _symmetry_equiv_pos_as_xyz
  1  'x, y, z'
loop_
 _atom_site_type_symbol
 _atom_site_label
 _atom_site_symmetry_multiplicity
 _atom_site_fract_x
 _atom_site_fract_y
 _atom_site_fract_z
 _atom_site_occupancy
 _atom_site_charge
  Zn  Zn1  1  0.000000  0.983630  0.250000  1.0  0.925
  Zn  Zn2  1  0.500000  0.483630  0.250000  1.0  0.925
  Zn  Zn3  1  0.000000  0.016370  0.750000  1.0  0.9264
  Zn  Zn4  1  0.500000  0.516370  0.750000  1.0  0.9264
  H  H5  1  0.197700  0.786100  0.573200  1.0  0.1009
  H  H6  1  0.317400  0.711700  0.784300  1.0  0.1122
  H  H7  1  0.358700  0.910000  0.127900  1.0  0.1119
  H  H8  1  0.238400  0.983800  0.917300  1.0  0.0993
  H  H9  1  0.388100  0.633500  0.032400  1.0  0.0939
  H  H10  1  0.697700  0.286100  0.573200  1.0  0.1009
  H  H11  1  0.817400  0.211700  0.784300  1.0  0.1122
  H  H12  1  0.858700  0.410000  0.127900  1.0  0.1119
  H  H13  1  0.738400  0.483800  0.917300  1.0  0.0993
  H  H14  1  0.888100  0.133500  0.032400  1.0  0.0939
  H  H15  1  0.802300  0.786100  0.926800  1.0  0.1013
  H  H16  1  0.682600  0.711700  0.715700  1.0  0.1127
  H  H17  1  0.641300  0.910000  0.372100  1.0  0.1115
  H  H18  1  0.761600  0.983800  0.582700  1.0  0.099
  H  H19  1  0.611900  0.633500  0.467600  1.0  0.0944
  H  H20  1  0.302300  0.286100  0.926800  1.0  0.1013
  H  H21  1  0.182600  0.211700  0.715700  1.0  0.1127
  H  H22  1  0.141300  0.410000  0.372100  1.0  0.1115
  H  H23  1  0.261600  0.483800  0.582700  1.0  0.099
  H  H24  1  0.111900  0.133500  0.467600  1.0  0.0944
  H  H25  1  0.500000  0.862700  0.250000  1.0  0.1116
  H  H26  1  0.000000  0.362700  0.250000  1.0  0.1116
  H  H27  1  0.802300  0.213900  0.426800  1.0  0.1011
  H  H28  1  0.682600  0.288300  0.215700  1.0  0.1115
  H  H29  1  0.641300  0.090000  0.872100  1.0  0.1122
  H  H30  1  0.761600  0.016200  0.082700  1.0  0.0991
  H  H31  1  0.611900  0.366500  0.967600  1.0  0.0947
  H  H32  1  0.302300  0.713900  0.426800  1.0  0.1011
  H  H33  1  0.182600  0.788300  0.215700  1.0  0.1115
  H  H34  1  0.141300  0.590000  0.872100  1.0  0.1122
  H  H35  1  0.261600  0.516200  0.082700  1.0  0.0991
  H  H36  1  0.111900  0.866500  0.967600  1.0  0.0947
  H  H37  1  0.197700  0.213900  0.073200  1.0  0.1008
  H  H38  1  0.317400  0.288300  0.284300  1.0  0.1112
  H  H39  1  0.358700  0.090000  0.627900  1.0  0.1121
  H  H40  1  0.238400  0.016200  0.417300  1.0  0.0995
  H  H41  1  0.388100  0.366500  0.532400  1.0  0.0943
  H  H42  1  0.697700  0.713900  0.073200  1.0  0.1008
  H  H43  1  0.817400  0.788300  0.284300  1.0  0.1112
  H  H44  1  0.858700  0.590000  0.627900  1.0  0.1121
  H  H45  1  0.738400  0.516200  0.417300  1.0  0.0995
  H  H46  1  0.888100  0.866500  0.532400  1.0  0.0943
  H  H47  1  0.500000  0.137300  0.750000  1.0  0.1098
  H  H48  1  0.000000  0.637300  0.750000  1.0  0.1098
  C  C49  1  0.124870  0.941200  0.589600  1.0  0.6534
  C  C50  1  0.205690  0.892700  0.723400  1.0  -0.1584
  C  C51  1  0.230000  0.811100  0.685000  1.0  -0.0197
  C  C52  1  0.302000  0.766500  0.811600  1.0  -0.1173
  C  C53  1  0.351630  0.802890  0.979600  1.0  0.0421
  C  C54  1  0.326400  0.884700  0.016300  1.0  -0.1212
  C  C55  1  0.254300  0.929100  0.890000  1.0  -0.0241
  C  C56  1  0.433520  0.664720  0.122300  1.0  0.1182
  C  C57  1  0.429780  0.756360  0.118900  1.0  0.0228
  C  C58  1  0.624870  0.441200  0.589600  1.0  0.6534
  C  C59  1  0.705690  0.392700  0.723400  1.0  -0.1584
  C  C60  1  0.730000  0.311100  0.685000  1.0  -0.0197
  C  C61  1  0.802000  0.266500  0.811600  1.0  -0.1173
  C  C62  1  0.851630  0.302890  0.979600  1.0  0.0421
  C  C63  1  0.826400  0.384700  0.016300  1.0  -0.1212
  C  C64  1  0.754300  0.429100  0.890000  1.0  -0.0241
  C  C65  1  0.933520  0.164720  0.122300  1.0  0.1182
  C  C66  1  0.929780  0.256360  0.118900  1.0  0.0228
  C  C67  1  0.875130  0.941200  0.910400  1.0  0.654
  C  C68  1  0.794310  0.892700  0.776600  1.0  -0.1604
  C  C69  1  0.770000  0.811100  0.815000  1.0  -0.0212
  C  C70  1  0.698000  0.766500  0.688400  1.0  -0.118
  C  C71  1  0.648370  0.802890  0.520400  1.0  0.0422
  C  C72  1  0.673600  0.884700  0.483700  1.0  -0.1212
  C  C73  1  0.745700  0.929100  0.610000  1.0  -0.0251
  C  C74  1  0.566480  0.664720  0.377700  1.0  0.1192
  C  C75  1  0.570220  0.756360  0.381100  1.0  0.0223
  C  C76  1  0.375130  0.441200  0.910400  1.0  0.654
  C  C77  1  0.294310  0.392700  0.776600  1.0  -0.1604
  C  C78  1  0.270000  0.311100  0.815000  1.0  -0.0212
  C  C79  1  0.198000  0.266500  0.688400  1.0  -0.118
  C  C80  1  0.148370  0.302890  0.520400  1.0  0.0422
  C  C81  1  0.173600  0.384700  0.483700  1.0  -0.1212
  C  C82  1  0.245700  0.429100  0.610000  1.0  -0.0251
  C  C83  1  0.066480  0.164720  0.377700  1.0  0.1192
  C  C84  1  0.070220  0.256360  0.381100  1.0  0.0223
  C  C85  1  0.500000  0.801300  0.250000  1.0  -0.0844
  C  C86  1  0.000000  0.301300  0.250000  1.0  -0.0844
  C  C87  1  0.875130  0.058800  0.410400  1.0  0.6537
  C  C88  1  0.794310  0.107300  0.276600  1.0  -0.1605
  C  C89  1  0.770000  0.188900  0.315000  1.0  -0.0216
  C  C90  1  0.698000  0.233500  0.188400  1.0  -0.1181
  C  C91  1  0.648370  0.197110  0.020400  1.0  0.0418
  C  C92  1  0.673600  0.115300  0.983700  1.0  -0.1205
  C  C93  1  0.745700  0.070900  0.110000  1.0  -0.0262
  C  C94  1  0.566480  0.335280  0.877700  1.0  0.1206
  C  C95  1  0.570220  0.243640  0.881100  1.0  0.0227
  C  C96  1  0.375130  0.558800  0.410400  1.0  0.6537
  C  C97  1  0.294310  0.607300  0.276600  1.0  -0.1605
  C  C98  1  0.270000  0.688900  0.315000  1.0  -0.0216
  C  C99  1  0.198000  0.733500  0.188400  1.0  -0.1181
  C  C100  1  0.148370  0.697110  0.020400  1.0  0.0418
  C  C101  1  0.173600  0.615300  0.983700  1.0  -0.1205
  C  C102  1  0.245700  0.570900  0.110000  1.0  -0.0262
  C  C103  1  0.066480  0.835280  0.877700  1.0  0.1206
  C  C104  1  0.070220  0.743640  0.881100  1.0  0.0227
  C  C105  1  0.124870  0.058800  0.089600  1.0  0.6532
  C  C106  1  0.205690  0.107300  0.223400  1.0  -0.1595
  C  C107  1  0.230000  0.188900  0.185000  1.0  -0.0201
  C  C108  1  0.302000  0.233500  0.311600  1.0  -0.1174
  C  C109  1  0.351630  0.197110  0.479600  1.0  0.0414
  C  C110  1  0.326400  0.115300  0.516300  1.0  -0.1201
  C  C111  1  0.254300  0.070900  0.390000  1.0  -0.0233
  C  C112  1  0.433520  0.335280  0.622300  1.0  0.1184
  C  C113  1  0.429780  0.243640  0.618900  1.0  0.0225
  C  C114  1  0.624870  0.558800  0.089600  1.0  0.6532
  C  C115  1  0.705690  0.607300  0.223400  1.0  -0.1595
  C  C116  1  0.730000  0.688900  0.185000  1.0  -0.0201
  C  C117  1  0.802000  0.733500  0.311600  1.0  -0.1174
  C  C118  1  0.851630  0.697110  0.479600  1.0  0.0414
  C  C119  1  0.826400  0.615300  0.516300  1.0  -0.1201
  C  C120  1  0.754300  0.570900  0.390000  1.0  -0.0233
  C  C121  1  0.933520  0.835280  0.622300  1.0  0.1184
  C  C122  1  0.929780  0.743640  0.618900  1.0  0.0225
  C  C123  1  0.500000  0.198700  0.750000  1.0  -0.0846
  C  C124  1  0.000000  0.698700  0.750000  1.0  -0.0846
  N  N125  1  0.500000  0.619300  0.250000  1.0  -0.3219
  N  N126  1  0.000000  0.119300  0.250000  1.0  -0.3219
  N  N127  1  0.500000  0.380700  0.750000  1.0  -0.3239
  N  N128  1  0.000000  0.880700  0.750000  1.0  -0.3239
  O  O129  1  0.088360  0.909450  0.433500  1.0  -0.5921
  O  O130  1  0.100110  0.009240  0.637400  1.0  -0.6346
  O  O131  1  0.588360  0.409450  0.433500  1.0  -0.5921
  O  O132  1  0.600110  0.509240  0.637400  1.0  -0.6346
  O  O133  1  0.911640  0.909450  0.066500  1.0  -0.5898
  O  O134  1  0.899890  0.009240  0.862600  1.0  -0.6358
  O  O135  1  0.411640  0.409450  0.066500  1.0  -0.5898
  O  O136  1  0.399890  0.509240  0.862600  1.0  -0.6358
  O  O137  1  0.911640  0.090550  0.566500  1.0  -0.5909
  O  O138  1  0.899890  0.990760  0.362600  1.0  -0.6358
  O  O139  1  0.411640  0.590550  0.566500  1.0  -0.5909
  O  O140  1  0.399890  0.490760  0.362600  1.0  -0.6358
  O  O141  1  0.088360  0.090550  0.933500  1.0  -0.5927
  O  O142  1  0.100110  0.990760  0.137400  1.0  -0.6347
  O  O143  1  0.588360  0.590550  0.933500  1.0  -0.5927
  O  O144  1  0.600110  0.490760  0.137400  1.0  -0.6347
