# generated using pymatgen
data_Zn2H6C16O9
_symmetry_space_group_name_H-M   'P 1'
_cell_length_a   10.28900000
_cell_length_b   15.76300000
_cell_length_c   24.79600000
_cell_angle_alpha   90.00000000
_cell_angle_beta   112.65000000
_cell_angle_gamma   90.00000000
_symmetry_Int_Tables_number   1
_chemical_formula_structural   Zn2H6C16O9
_chemical_formula_sum   'Zn8 H24 C64 O36'
_cell_volume   3711.38765464
_cell_formula_units_Z   4
loop_
 _symmetry_equiv_pos_site_id
 _symmetry_equiv_pos_as_xyz
  1  'x, y, z'
loop_
 _atom_site_type_symbol
 _atom_site_label
 _atom_site_symmetry_multiplicity
 _atom_site_fract_x
 _atom_site_fract_y
 _atom_site_fract_z
 _atom_site_occupancy
 _atom_site_charge
  Zn  Zn1  1  0.742150  0.853770  0.735070  1.0  0.9119
  Zn  Zn2  1  0.708400  0.982060  0.855490  1.0  1.0781
  Zn  Zn3  1  0.257850  0.353770  0.764930  1.0  0.9188
  Zn  Zn4  1  0.291600  0.482060  0.644510  1.0  1.0784
  Zn  Zn5  1  0.257850  0.146230  0.264930  1.0  0.908
  Zn  Zn6  1  0.291600  0.017940  0.144510  1.0  1.0782
  Zn  Zn7  1  0.742150  0.646230  0.235070  1.0  0.921
  Zn  Zn8  1  0.708400  0.517940  0.355490  1.0  1.0782
  H  H9  1  0.480600  0.791300  0.907100  1.0  0.1236
  H  H10  1  0.494700  0.683200  0.762800  1.0  0.1139
  H  H11  1  0.299900  0.564400  0.854200  1.0  0.1238
  H  H12  1  0.128000  0.750600  0.860100  1.0  0.118
  H  H13  1  0.086100  0.929700  0.968000  1.0  0.1037
  H  H14  1  0.400700  0.759300  0.027700  1.0  0.1285
  H  H15  1  0.519400  0.291300  0.592900  1.0  0.1249
  H  H16  1  0.505300  0.183200  0.737200  1.0  0.114
  H  H17  1  0.700100  0.064400  0.645800  1.0  0.1236
  H  H18  1  0.872000  0.250600  0.639900  1.0  0.1194
  H  H19  1  0.913900  0.429700  0.532000  1.0  0.1039
  H  H20  1  0.599300  0.259300  0.472300  1.0  0.1282
  H  H21  1  0.519400  0.208700  0.092900  1.0  0.1233
  H  H22  1  0.505300  0.316800  0.237200  1.0  0.114
  H  H23  1  0.700100  0.435600  0.145800  1.0  0.1234
  H  H24  1  0.872000  0.249400  0.139900  1.0  0.1179
  H  H25  1  0.913900  0.070300  0.032000  1.0  0.1041
  H  H26  1  0.599300  0.240700  0.972300  1.0  0.1283
  H  H27  1  0.480600  0.708700  0.407100  1.0  0.1233
  H  H28  1  0.494700  0.816800  0.262800  1.0  0.1139
  H  H29  1  0.299900  0.935600  0.354200  1.0  0.1248
  H  H30  1  0.128000  0.749400  0.360100  1.0  0.1193
  H  H31  1  0.086100  0.570300  0.468000  1.0  0.1039
  H  H32  1  0.400700  0.740700  0.527700  1.0  0.1286
  C  C33  1  0.382900  0.678000  0.887140  1.0  0.2754
  C  C34  1  0.457800  0.746800  0.880430  1.0  -0.1194
  C  C35  1  0.498700  0.748800  0.833270  1.0  -0.1584
  C  C36  1  0.466100  0.681800  0.794080  1.0  0.0352
  C  C37  1  0.391100  0.612800  0.801210  1.0  -0.167
  C  C38  1  0.349500  0.610700  0.848630  1.0  -0.1096
  C  C39  1  0.579000  0.824400  0.824950  1.0  0.7489
  C  C40  1  0.347600  0.542300  0.758030  1.0  0.7344
  C  C41  1  0.272400  0.744700  0.942180  1.0  0.2147
  C  C42  1  0.157700  0.775900  0.896770  1.0  -0.1024
  C  C43  1  0.086000  0.845900  0.906000  1.0  -0.1777
  C  C44  1  0.134000  0.883400  0.961350  1.0  0.0308
  C  C45  1  0.252900  0.852300  0.006690  1.0  -0.1411
  C  C46  1  0.322500  0.781600  0.997600  1.0  -0.0871
  C  C47  1  0.957700  0.879100  0.857590  1.0  0.7311
  C  C48  1  0.312400  0.896800  0.065310  1.0  0.6647
  C  C49  1  0.617100  0.178000  0.612860  1.0  0.2743
  C  C50  1  0.542200  0.246800  0.619570  1.0  -0.1184
  C  C51  1  0.501300  0.248800  0.666667  1.0  -0.1599
  C  C52  1  0.533900  0.181800  0.705920  1.0  0.0365
  C  C53  1  0.608900  0.112800  0.698790  1.0  -0.1671
  C  C54  1  0.650500  0.110700  0.651370  1.0  -0.11
  C  C55  1  0.421000  0.324400  0.675050  1.0  0.749
  C  C56  1  0.652400  0.042300  0.741970  1.0  0.7349
  C  C57  1  0.727600  0.244700  0.557820  1.0  0.2102
  C  C58  1  0.842300  0.275900  0.603230  1.0  -0.0972
  C  C59  1  0.914000  0.345900  0.594000  1.0  -0.1791
  C  C60  1  0.866000  0.383400  0.538650  1.0  0.0314
  C  C61  1  0.747100  0.352300  0.493310  1.0  -0.1393
  C  C62  1  0.677500  0.281600  0.502400  1.0  -0.0875
  C  C63  1  0.042300  0.379100  0.642410  1.0  0.7298
  C  C64  1  0.687600  0.396800  0.434690  1.0  0.6656
  C  C65  1  0.617100  0.322000  0.112860  1.0  0.2746
  C  C66  1  0.542200  0.253200  0.119570  1.0  -0.1189
  C  C67  1  0.501300  0.251200  0.166730  1.0  -0.1582
  C  C68  1  0.533900  0.318200  0.205920  1.0  0.035
  C  C69  1  0.608900  0.387200  0.198790  1.0  -0.1675
  C  C70  1  0.650500  0.389300  0.151370  1.0  -0.1098
  C  C71  1  0.421000  0.175600  0.175050  1.0  0.749
  C  C72  1  0.652400  0.457700  0.241970  1.0  0.7341
  C  C73  1  0.727600  0.255300  0.057820  1.0  0.2139
  C  C74  1  0.842300  0.224100  0.103230  1.0  -0.1021
  C  C75  1  0.914000  0.154100  0.094000  1.0  -0.1787
  C  C76  1  0.866000  0.116600  0.038650  1.0  0.0317
  C  C77  1  0.747100  0.147700  0.993310  1.0  -0.14
  C  C78  1  0.677500  0.218400  0.002400  1.0  -0.0901
  C  C79  1  0.042300  0.120900  0.142410  1.0  0.7295
  C  C80  1  0.687600  0.103200  0.934690  1.0  0.6655
  C  C81  1  0.382900  0.822000  0.387140  1.0  0.2751
  C  C82  1  0.457800  0.753200  0.380430  1.0  -0.1196
  C  C83  1  0.498700  0.751200  0.333270  1.0  -0.1581
  C  C84  1  0.466100  0.818200  0.294080  1.0  0.0353
  C  C85  1  0.391100  0.887200  0.301210  1.0  -0.1669
  C  C86  1  0.349500  0.889300  0.348630  1.0  -0.111
  C  C87  1  0.579000  0.675600  0.324950  1.0  0.7484
  C  C88  1  0.347600  0.957700  0.258030  1.0  0.7338
  C  C89  1  0.272400  0.755300  0.442180  1.0  0.211
  C  C90  1  0.157700  0.724100  0.396770  1.0  -0.0976
  C  C91  1  0.086000  0.654100  0.406000  1.0  -0.1782
  C  C92  1  0.134000  0.616600  0.461350  1.0  0.0308
  C  C93  1  0.252900  0.647700  0.506690  1.0  -0.141
  C  C94  1  0.322500  0.718400  0.497600  1.0  -0.0858
  C  C95  1  0.957700  0.620900  0.357590  1.0  0.7303
  C  C96  1  0.312400  0.603200  0.565310  1.0  0.6643
  O  O97  1  0.618400  0.823700  0.784110  1.0  -0.6831
  O  O98  1  0.597300  0.884600  0.860390  1.0  -0.576
  O  O99  1  0.380000  0.550400  0.713950  1.0  -0.601
  O  O100  1  0.279600  0.483200  0.766210  1.0  -0.6156
  O  O101  1  0.920600  0.845000  0.809290  1.0  -0.6426
  O  O102  1  0.897700  0.941000  0.870920  1.0  -0.6339
  O  O103  1  0.232500  0.952700  0.072950  1.0  -0.5881
  O  O104  1  0.430000  0.878800  0.099710  1.0  -0.4654
  O  O105  1  0.342400  0.672930  0.934510  1.0  -0.2713
  O  O106  1  0.381600  0.323700  0.715890  1.0  -0.6815
  O  O107  1  0.402700  0.384600  0.639610  1.0  -0.5762
  O  O108  1  0.620000  0.050400  0.786050  1.0  -0.6021
  O  O109  1  0.720400  0.983200  0.733790  1.0  -0.6163
  O  O110  1  0.079400  0.345000  0.690710  1.0  -0.6402
  O  O111  1  0.102300  0.441000  0.629080  1.0  -0.6351
  O  O112  1  0.767500  0.452700  0.427050  1.0  -0.5878
  O  O113  1  0.570000  0.378800  0.400290  1.0  -0.4672
  O  O114  1  0.657600  0.172930  0.565490  1.0  -0.2681
  O  O115  1  0.381600  0.176300  0.215890  1.0  -0.6833
  O  O116  1  0.402700  0.115400  0.139610  1.0  -0.5772
  O  O117  1  0.620000  0.449600  0.286050  1.0  -0.6014
  O  O118  1  0.720400  0.516800  0.233790  1.0  -0.6166
  O  O119  1  0.079400  0.155000  0.190710  1.0  -0.6413
  O  O120  1  0.102300  0.059000  0.129080  1.0  -0.6342
  O  O121  1  0.767500  0.047300  0.927050  1.0  -0.5874
  O  O122  1  0.570000  0.121200  0.900290  1.0  -0.4672
  O  O123  1  0.657600  0.327070  0.065490  1.0  -0.2711
  O  O124  1  0.618400  0.676300  0.284110  1.0  -0.6833
  O  O125  1  0.597300  0.615400  0.360390  1.0  -0.5765
  O  O126  1  0.380000  0.949600  0.213950  1.0  -0.601
  O  O127  1  0.279600  0.016800  0.266210  1.0  -0.6167
  O  O128  1  0.920600  0.655000  0.309290  1.0  -0.6448
  O  O129  1  0.897700  0.559000  0.370920  1.0  -0.6332
  O  O130  1  0.232500  0.547300  0.572950  1.0  -0.5876
  O  O131  1  0.430000  0.621200  0.599710  1.0  -0.4653
  O  O132  1  0.342400  0.827070  0.434510  1.0  -0.268
