# generated using pymatgen
data_Co2H6C16O9
_symmetry_space_group_name_H-M   'P 1'
_cell_length_a   21.81800000
_cell_length_b   14.70400000
_cell_length_c   26.28200000
_cell_angle_alpha   90.00000000
_cell_angle_beta   126.84000000
_cell_angle_gamma   90.00000000
_symmetry_Int_Tables_number   1
_chemical_formula_structural   Co2H6C16O9
_chemical_formula_sum   'Co16 H48 C128 O72'
_cell_volume   6747.90099832
_cell_formula_units_Z   8
loop_
 _symmetry_equiv_pos_site_id
 _symmetry_equiv_pos_as_xyz
  1  'x, y, z'
loop_
 _atom_site_type_symbol
 _atom_site_label
 _atom_site_symmetry_multiplicity
 _atom_site_fract_x
 _atom_site_fract_y
 _atom_site_fract_z
 _atom_site_occupancy
 _atom_site_charge
  Co  Co1  1  0.352520  0.356840  0.857800  1.0  0.9211
  Co  Co2  1  0.440700  0.342730  0.782650  1.0  1.1478
  Co  Co3  1  0.926290  0.310970  0.659160  1.0  1.1247
  Co  Co4  1  0.820370  0.325450  0.491780  1.0  0.917
  Co  Co5  1  0.647480  0.856840  0.642200  1.0  0.9192
  Co  Co6  1  0.559300  0.842730  0.717350  1.0  1.1491
  Co  Co7  1  0.073710  0.810970  0.840840  1.0  1.1261
  Co  Co8  1  0.179630  0.825450  0.008220  1.0  0.914
  Co  Co9  1  0.647480  0.643160  0.142200  1.0  0.919
  Co  Co10  1  0.559300  0.657270  0.217350  1.0  1.1489
  Co  Co11  1  0.073710  0.689030  0.340840  1.0  1.126
  Co  Co12  1  0.179630  0.674550  0.508220  1.0  0.9149
  Co  Co13  1  0.352520  0.143160  0.357800  1.0  0.9204
  Co  Co14  1  0.440700  0.157270  0.282650  1.0  1.1478
  Co  Co15  1  0.926290  0.189030  0.159160  1.0  1.1247
  Co  Co16  1  0.820370  0.174550  0.991780  1.0  0.9165
  H  H17  1  0.408300  0.650500  0.894200  1.0  0.1162
  H  H18  1  0.469600  0.611300  0.779100  1.0  0.1131
  H  H19  1  0.490100  0.858400  0.851600  1.0  0.1266
  H  H20  1  0.512500  0.765700  0.028600  1.0  0.1249
  H  H21  1  0.326100  0.725200  0.025100  1.0  0.108
  H  H22  1  0.302800  0.828700  0.873300  1.0  0.1313
  H  H23  1  0.242700  0.254600  0.605600  1.0  0.1259
  H  H24  1  0.136800  0.306700  0.685200  1.0  0.1111
  H  H25  1  0.012000  0.231600  0.502200  1.0  0.1248
  H  H26  1  0.053900  0.167500  0.378100  1.0  0.1261
  H  H27  1  0.031900  0.418300  0.310100  1.0  0.1112
  H  H28  1  0.136100  0.381100  0.498100  1.0  0.1143
  H  H29  1  0.591700  0.150500  0.605800  1.0  0.1155
  H  H30  1  0.530400  0.111300  0.720900  1.0  0.1134
  H  H31  1  0.509900  0.358400  0.648400  1.0  0.1263
  H  H32  1  0.487500  0.265700  0.471400  1.0  0.1249
  H  H33  1  0.673900  0.225200  0.474900  1.0  0.108
  H  H34  1  0.697200  0.328700  0.626700  1.0  0.1316
  H  H35  1  0.757300  0.754600  0.894400  1.0  0.1264
  H  H36  1  0.863200  0.806700  0.814800  1.0  0.1111
  H  H37  1  0.988000  0.731600  0.997800  1.0  0.1243
  H  H38  1  0.946100  0.667500  0.121900  1.0  0.1261
  H  H39  1  0.968100  0.918300  0.189900  1.0  0.1083
  H  H40  1  0.863900  0.881100  0.001900  1.0  0.1148
  H  H41  1  0.591700  0.349500  0.105800  1.0  0.1151
  H  H42  1  0.530400  0.388700  0.220900  1.0  0.1133
  H  H43  1  0.509900  0.141600  0.148400  1.0  0.1272
  H  H44  1  0.487500  0.234300  0.971400  1.0  0.125
  H  H45  1  0.673900  0.274800  0.974900  1.0  0.108
  H  H46  1  0.697200  0.171300  0.126700  1.0  0.1318
  H  H47  1  0.757300  0.745400  0.394400  1.0  0.1263
  H  H48  1  0.863200  0.693300  0.314800  1.0  0.1112
  H  H49  1  0.988000  0.768400  0.497800  1.0  0.1239
  H  H50  1  0.946100  0.832500  0.621900  1.0  0.1255
  H  H51  1  0.968100  0.581700  0.689900  1.0  0.1083
  H  H52  1  0.863900  0.618900  0.501900  1.0  0.1147
  H  H53  1  0.408300  0.849500  0.394200  1.0  0.1157
  H  H54  1  0.469600  0.888700  0.279100  1.0  0.113
  H  H55  1  0.490100  0.641600  0.351600  1.0  0.1271
  H  H56  1  0.512500  0.734300  0.528600  1.0  0.1246
  H  H57  1  0.326100  0.774800  0.525100  1.0  0.1077
  H  H58  1  0.302800  0.671300  0.373300  1.0  0.1316
  H  H59  1  0.242700  0.245400  0.105600  1.0  0.1261
  H  H60  1  0.136800  0.193300  0.185200  1.0  0.1109
  H  H61  1  0.012000  0.268400  0.002200  1.0  0.1248
  H  H62  1  0.053900  0.332500  0.878100  1.0  0.1254
  H  H63  1  0.031900  0.081700  0.810100  1.0  0.111
  H  H64  1  0.136100  0.118900  0.998100  1.0  0.1145
  C  C65  1  0.446100  0.766300  0.877700  1.0  0.3108
  C  C66  1  0.426400  0.673500  0.872500  1.0  -0.0836
  C  C67  1  0.434400  0.617600  0.834700  1.0  -0.1465
  C  C68  1  0.463400  0.650400  0.803500  1.0  0.0134
  C  C69  1  0.482700  0.739200  0.808600  1.0  -0.1531
  C  C70  1  0.475200  0.797900  0.847000  1.0  -0.1101
  C  C71  1  0.412600  0.517100  0.826000  1.0  0.7342
  C  C72  1  0.512900  0.776500  0.774300  1.0  0.6321
  C  C73  1  0.411400  0.796100  0.945700  1.0  0.2674
  C  C74  1  0.459800  0.766100  0.007400  1.0  -0.1478
  C  C75  1  0.429000  0.736700  0.037800  1.0  -0.1209
  C  C76  1  0.347700  0.744200  0.005300  1.0  -0.0075
  C  C77  1  0.302200  0.779300  0.945200  1.0  -0.1363
  C  C78  1  0.333700  0.805400  0.914400  1.0  -0.1009
  C  C79  1  0.476800  0.699600  0.101100  1.0  0.6359
  C  C80  1  0.216100  0.788500  0.907900  1.0  0.6746
  C  C81  1  0.126300  0.235700  0.545500  1.0  0.1579
  C  C82  1  0.198000  0.257600  0.602500  1.0  -0.0854
  C  C83  1  0.199200  0.284300  0.654500  1.0  -0.1455
  C  C84  1  0.134300  0.288300  0.650100  1.0  0.0272
  C  C85  1  0.064000  0.265200  0.594100  1.0  -0.1686
  C  C86  1  0.059400  0.242400  0.540800  1.0  -0.0796
  C  C87  1  0.275400  0.311100  0.715300  1.0  0.7311
  C  C88  1  0.991500  0.273900  0.590000  1.0  0.7018
  C  C89  1  0.100100  0.263900  0.446500  1.0  0.2518
  C  C90  1  0.062400  0.229800  0.385200  1.0  -0.1125
  C  C91  1  0.037500  0.287600  0.334400  1.0  -0.1511
  C  C92  1  0.049300  0.379700  0.344300  1.0  -0.0332
  C  C93  1  0.087200  0.415800  0.405200  1.0  -0.1645
  C  C94  1  0.112200  0.357500  0.457500  1.0  -0.0638
  C  C95  1  0.995500  0.253000  0.267500  1.0  0.6505
  C  C96  1  0.102800  0.517700  0.413800  1.0  0.7187
  C  C97  1  0.553900  0.266300  0.622300  1.0  0.312
  C  C98  1  0.573600  0.173500  0.627500  1.0  -0.0848
  C  C99  1  0.565600  0.117600  0.665300  1.0  -0.1469
  C  C100  1  0.536600  0.150400  0.696500  1.0  0.0132
  C  C101  1  0.517300  0.239200  0.691400  1.0  -0.153
  C  C102  1  0.524800  0.297900  0.653000  1.0  -0.1116
  C  C103  1  0.587400  0.017100  0.674000  1.0  0.7345
  C  C104  1  0.487100  0.276500  0.725700  1.0  0.6326
  C  C105  1  0.588600  0.296100  0.554300  1.0  0.2671
  C  C106  1  0.540200  0.266100  0.492600  1.0  -0.1463
  C  C107  1  0.571000  0.236700  0.462200  1.0  -0.1199
  C  C108  1  0.652300  0.244200  0.494700  1.0  -0.0077
  C  C109  1  0.697800  0.279300  0.554800  1.0  -0.1366
  C  C110  1  0.666300  0.305400  0.585600  1.0  -0.1032
  C  C111  1  0.523200  0.199600  0.398900  1.0  0.6358
  C  C112  1  0.783900  0.288500  0.592100  1.0  0.6752
  C  C113  1  0.873700  0.735700  0.954500  1.0  0.1576
  C  C114  1  0.802000  0.757600  0.897500  1.0  -0.0856
  C  C115  1  0.800800  0.784300  0.845500  1.0  -0.1456
  C  C116  1  0.865700  0.788300  0.849900  1.0  0.0264
  C  C117  1  0.936000  0.765200  0.905900  1.0  -0.1686
  C  C118  1  0.940600  0.742400  0.959200  1.0  -0.0787
  C  C119  1  0.724600  0.811100  0.784700  1.0  0.7318
  C  C120  1  0.008500  0.773900  0.910000  1.0  0.7003
  C  C121  1  0.899900  0.763900  0.053500  1.0  0.2516
  C  C122  1  0.937600  0.729800  0.114800  1.0  -0.113
  C  C123  1  0.962500  0.787600  0.165600  1.0  -0.152
  C  C124  1  0.950700  0.879700  0.155700  1.0  -0.034
  C  C125  1  0.912800  0.915800  0.094800  1.0  -0.1638
  C  C126  1  0.887800  0.857500  0.042500  1.0  -0.0642
  C  C127  1  0.004500  0.753000  0.232500  1.0  0.6494
  C  C128  1  0.897200  0.017700  0.086200  1.0  0.7189
  C  C129  1  0.553900  0.233700  0.122300  1.0  0.3102
  C  C130  1  0.573600  0.326500  0.127500  1.0  -0.0852
  C  C131  1  0.565600  0.382400  0.165300  1.0  -0.1466
  C  C132  1  0.536600  0.349600  0.196500  1.0  0.0128
  C  C133  1  0.517300  0.260800  0.191400  1.0  -0.1531
  C  C134  1  0.524800  0.202100  0.153000  1.0  -0.1115
  C  C135  1  0.587400  0.482900  0.174000  1.0  0.7349
  C  C136  1  0.487100  0.223500  0.225700  1.0  0.6328
  C  C137  1  0.588600  0.203900  0.054300  1.0  0.2662
  C  C138  1  0.540200  0.233900  0.992600  1.0  -0.1459
  C  C139  1  0.571000  0.263300  0.962200  1.0  -0.1197
  C  C140  1  0.652300  0.255800  0.994700  1.0  -0.0079
  C  C141  1  0.697800  0.220700  0.054800  1.0  -0.137
  C  C142  1  0.666300  0.194600  0.085600  1.0  -0.102
  C  C143  1  0.523200  0.300400  0.898900  1.0  0.6358
  C  C144  1  0.783900  0.211500  0.092100  1.0  0.6751
  C  C145  1  0.873700  0.764300  0.454500  1.0  0.1601
  C  C146  1  0.802000  0.742400  0.397500  1.0  -0.0857
  C  C147  1  0.800800  0.715700  0.345500  1.0  -0.1454
  C  C148  1  0.865700  0.711700  0.349900  1.0  0.0274
  C  C149  1  0.936000  0.734800  0.405900  1.0  -0.1679
  C  C150  1  0.940600  0.757600  0.459200  1.0  -0.0795
  C  C151  1  0.724600  0.688900  0.284700  1.0  0.7316
  C  C152  1  0.008500  0.726100  0.410000  1.0  0.7004
  C  C153  1  0.899900  0.736100  0.553500  1.0  0.2536
  C  C154  1  0.937600  0.770200  0.614800  1.0  -0.1143
  C  C155  1  0.962500  0.712400  0.665600  1.0  -0.1519
  C  C156  1  0.950700  0.620300  0.655700  1.0  -0.0336
  C  C157  1  0.912800  0.584200  0.594800  1.0  -0.1649
  C  C158  1  0.887800  0.642500  0.542500  1.0  -0.0646
  C  C159  1  0.004500  0.747000  0.732500  1.0  0.6496
  C  C160  1  0.897200  0.482300  0.586200  1.0  0.7188
  C  C161  1  0.446100  0.733700  0.377700  1.0  0.3091
  C  C162  1  0.426400  0.826500  0.372500  1.0  -0.0843
  C  C163  1  0.434400  0.882400  0.334700  1.0  -0.1461
  C  C164  1  0.463400  0.849600  0.303500  1.0  0.0134
  C  C165  1  0.482700  0.760800  0.308600  1.0  -0.1535
  C  C166  1  0.475200  0.702100  0.347000  1.0  -0.1107
  C  C167  1  0.412600  0.982900  0.326000  1.0  0.7346
  C  C168  1  0.512900  0.723500  0.274300  1.0  0.6325
  C  C169  1  0.411400  0.703900  0.445700  1.0  0.267
  C  C170  1  0.459800  0.733900  0.507400  1.0  -0.1474
  C  C171  1  0.429000  0.763300  0.537800  1.0  -0.1207
  C  C172  1  0.347700  0.755800  0.505300  1.0  -0.008
  C  C173  1  0.302200  0.720700  0.445200  1.0  -0.1367
  C  C174  1  0.333700  0.694600  0.414400  1.0  -0.0998
  C  C175  1  0.476800  0.800400  0.601100  1.0  0.6361
  C  C176  1  0.216100  0.711500  0.407900  1.0  0.6746
  C  C177  1  0.126300  0.264300  0.045500  1.0  0.1606
  C  C178  1  0.198000  0.242400  0.102500  1.0  -0.0848
  C  C179  1  0.199200  0.215700  0.154500  1.0  -0.1452
  C  C180  1  0.134300  0.211700  0.150100  1.0  0.0273
  C  C181  1  0.064000  0.234800  0.094100  1.0  -0.1682
  C  C182  1  0.059400  0.257600  0.040800  1.0  -0.0804
  C  C183  1  0.275400  0.188900  0.215300  1.0  0.7311
  C  C184  1  0.991500  0.226100  0.090000  1.0  0.7014
  C  C185  1  0.100100  0.236100  0.946500  1.0  0.2537
  C  C186  1  0.062400  0.270200  0.885200  1.0  -0.1137
  C  C187  1  0.037500  0.212400  0.834400  1.0  -0.1504
  C  C188  1  0.049300  0.120300  0.844300  1.0  -0.0333
  C  C189  1  0.087200  0.084200  0.905200  1.0  -0.1652
  C  C190  1  0.112200  0.142500  0.957500  1.0  -0.0639
  C  C191  1  0.995500  0.247000  0.767500  1.0  0.6507
  C  C192  1  0.102800  0.982300  0.913800  1.0  0.7184
  O  O193  1  0.387000  0.487700  0.855300  1.0  -0.6588
  O  O194  1  0.419100  0.473300  0.788700  1.0  -0.584
  O  O195  1  0.521700  0.725300  0.742000  1.0  -0.5288
  O  O196  1  0.526900  0.860800  0.777600  1.0  -0.5327
  O  O197  1  0.550200  0.701300  0.133200  1.0  -0.6496
  O  O198  1  0.448600  0.665900  0.127400  1.0  -0.5819
  O  O199  1  0.185000  0.773900  0.935400  1.0  -0.6423
  O  O200  1  0.177200  0.811400  0.851000  1.0  -0.5364
  O  O201  1  0.442300  0.827200  0.914700  1.0  -0.2658
  O  O202  1  0.333000  0.301500  0.715600  1.0  -0.5948
  O  O203  1  0.275800  0.336600  0.760300  1.0  -0.6389
  O  O204  1  0.000600  0.275800  0.640200  1.0  -0.5725
  O  O205  1  0.929100  0.273200  0.534700  1.0  -0.6578
  O  O206  1  0.998200  0.168400  0.259300  1.0  -0.5479
  O  O207  1  0.959900  0.304900  0.222200  1.0  -0.5348
  O  O208  1  0.082100  0.558300  0.365200  1.0  -0.5763
  O  O209  1  0.135700  0.547600  0.468600  1.0  -0.6504
  O  O210  1  0.124200  0.202900  0.494900  1.0  -0.2783
  O  O211  1  0.613000  0.987700  0.644700  1.0  -0.6621
  O  O212  1  0.580900  0.973300  0.711300  1.0  -0.5867
  O  O213  1  0.478300  0.225300  0.758000  1.0  -0.5313
  O  O214  1  0.473100  0.360800  0.722400  1.0  -0.5339
  O  O215  1  0.449800  0.201300  0.366800  1.0  -0.6497
  O  O216  1  0.551400  0.165900  0.372600  1.0  -0.5823
  O  O217  1  0.815000  0.273900  0.564600  1.0  -0.6416
  O  O218  1  0.822800  0.311400  0.649000  1.0  -0.5367
  O  O219  1  0.557700  0.327200  0.585300  1.0  -0.2631
  O  O220  1  0.667000  0.801500  0.784400  1.0  -0.5949
  O  O221  1  0.724200  0.836600  0.739700  1.0  -0.6397
  O  O222  1  0.999400  0.775800  0.859800  1.0  -0.5728
  O  O223  1  0.070900  0.773200  0.965300  1.0  -0.657
  O  O224  1  0.001800  0.668400  0.240700  1.0  -0.548
  O  O225  1  0.040100  0.804900  0.277800  1.0  -0.5334
  O  O226  1  0.917900  0.058300  0.134800  1.0  -0.5778
  O  O227  1  0.864300  0.047600  0.031400  1.0  -0.6508
  O  O228  1  0.875800  0.702900  0.005100  1.0  -0.2779
  O  O229  1  0.613000  0.512300  0.144700  1.0  -0.6618
  O  O230  1  0.580900  0.526700  0.211300  1.0  -0.5859
  O  O231  1  0.478300  0.274700  0.258000  1.0  -0.5307
  O  O232  1  0.473100  0.139200  0.222400  1.0  -0.533
  O  O233  1  0.449800  0.298700  0.866800  1.0  -0.6488
  O  O234  1  0.551400  0.334100  0.872600  1.0  -0.583
  O  O235  1  0.815000  0.226100  0.064600  1.0  -0.6428
  O  O236  1  0.822800  0.188600  0.149000  1.0  -0.537
  O  O237  1  0.557700  0.172800  0.085300  1.0  -0.2643
  O  O238  1  0.667000  0.698500  0.284400  1.0  -0.5953
  O  O239  1  0.724200  0.663400  0.239700  1.0  -0.6395
  O  O240  1  0.999400  0.724200  0.359800  1.0  -0.5727
  O  O241  1  0.070900  0.726800  0.465300  1.0  -0.6564
  O  O242  1  0.001800  0.831600  0.740700  1.0  -0.5479
  O  O243  1  0.040100  0.695100  0.777800  1.0  -0.5344
  O  O244  1  0.917900  0.441700  0.634800  1.0  -0.5783
  O  O245  1  0.864300  0.452400  0.531400  1.0  -0.6508
  O  O246  1  0.875800  0.797100  0.505100  1.0  -0.2761
  O  O247  1  0.387000  0.012300  0.355300  1.0  -0.6591
  O  O248  1  0.419100  0.026700  0.288700  1.0  -0.5841
  O  O249  1  0.521700  0.774700  0.242000  1.0  -0.5301
  O  O250  1  0.526900  0.639200  0.277600  1.0  -0.5316
  O  O251  1  0.550200  0.798700  0.633200  1.0  -0.6489
  O  O252  1  0.448600  0.834100  0.627400  1.0  -0.5817
  O  O253  1  0.185000  0.726100  0.435400  1.0  -0.6439
  O  O254  1  0.177200  0.688600  0.351000  1.0  -0.5366
  O  O255  1  0.442300  0.672800  0.414700  1.0  -0.2656
  O  O256  1  0.333000  0.198500  0.215600  1.0  -0.5951
  O  O257  1  0.275800  0.163400  0.260300  1.0  -0.6387
  O  O258  1  0.000600  0.224200  0.140200  1.0  -0.5723
  O  O259  1  0.929100  0.226800  0.034700  1.0  -0.658
  O  O260  1  0.998200  0.331600  0.759300  1.0  -0.5474
  O  O261  1  0.959900  0.195100  0.722200  1.0  -0.535
  O  O262  1  0.082100  0.941700  0.865200  1.0  -0.5755
  O  O263  1  0.135700  0.952400  0.968600  1.0  -0.6508
  O  O264  1  0.124200  0.297100  0.994900  1.0  -0.2779
