# generated using pymatgen
data_Co2H6C16O9
_symmetry_space_group_name_H-M   'P 1'
_cell_length_a   10.11700000
_cell_length_b   16.76700000
_cell_length_c   22.41500000
_cell_angle_alpha   90.00000000
_cell_angle_beta   90.00000000
_cell_angle_gamma   90.00000000
_symmetry_Int_Tables_number   1
_chemical_formula_structural   Co2H6C16O9
_chemical_formula_sum   'Co8 H24 C64 O36'
_cell_volume   3802.29542969
_cell_formula_units_Z   4
loop_
 _symmetry_equiv_pos_site_id
 _symmetry_equiv_pos_as_xyz
  1  'x, y, z'
loop_
 _atom_site_type_symbol
 _atom_site_label
 _atom_site_symmetry_multiplicity
 _atom_site_fract_x
 _atom_site_fract_y
 _atom_site_fract_z
 _atom_site_occupancy
 _atom_site_charge
  Co  Co1  1  0.981500  0.884720  0.639370  1.0  1.1444
  Co  Co2  1  0.767400  0.836120  0.756160  1.0  0.9377
  Co  Co3  1  0.518500  0.115280  0.139370  1.0  1.1459
  Co  Co4  1  0.732600  0.163880  0.256160  1.0  0.9421
  Co  Co5  1  0.018500  0.384720  0.860630  1.0  1.1464
  Co  Co6  1  0.232600  0.336120  0.743840  1.0  0.9361
  Co  Co7  1  0.481500  0.615280  0.360630  1.0  1.144
  Co  Co8  1  0.267400  0.663880  0.243840  1.0  0.936
  H  H9  1  0.972000  0.922900  0.850200  1.0  0.1082
  H  H10  1  0.067800  0.108600  0.751500  1.0  0.1144
  H  H11  1  0.046200  0.129400  0.929000  1.0  0.1113
  H  H12  1  0.823700  0.027600  0.023300  1.0  0.1065
  H  H13  1  0.054400  0.119200  0.149800  1.0  0.1215
  H  H14  1  0.218700  0.024300  0.004100  1.0  0.1063
  H  H15  1  0.528000  0.077100  0.350200  1.0  0.1071
  H  H16  1  0.432200  0.891400  0.251500  1.0  0.1153
  H  H17  1  0.453800  0.870600  0.429000  1.0  0.1109
  H  H18  1  0.676300  0.972400  0.523300  1.0  0.1058
  H  H19  1  0.445600  0.880800  0.649800  1.0  0.1215
  H  H20  1  0.281300  0.975700  0.504100  1.0  0.1066
  H  H21  1  0.028000  0.422900  0.649800  1.0  0.1081
  H  H22  1  0.932200  0.608600  0.748500  1.0  0.1148
  H  H23  1  0.953800  0.629400  0.571000  1.0  0.1115
  H  H24  1  0.176300  0.527600  0.476700  1.0  0.1057
  H  H25  1  0.945600  0.619200  0.350200  1.0  0.1216
  H  H26  1  0.781300  0.524300  0.495900  1.0  0.107
  H  H27  1  0.472000  0.577100  0.149800  1.0  0.1073
  H  H28  1  0.567800  0.391400  0.248500  1.0  0.1151
  H  H29  1  0.546200  0.370600  0.071000  1.0  0.1111
  H  H30  1  0.323700  0.472400  0.976700  1.0  0.1068
  H  H31  1  0.554400  0.380800  0.850200  1.0  0.1212
  H  H32  1  0.718700  0.475700  0.995900  1.0  0.1066
  C  C33  1  0.015000  0.018800  0.898200  1.0  0.2504
  C  C34  1  0.997000  0.976100  0.847100  1.0  -0.1173
  C  C35  1  0.013500  0.007400  0.793200  1.0  -0.1566
  C  C36  1  0.051700  0.086500  0.788800  1.0  0.0087
  C  C37  1  0.066300  0.133200  0.840000  1.0  -0.122
  C  C38  1  0.043000  0.098600  0.894600  1.0  -0.0457
  C  C39  1  0.017000  0.019200  0.002800  1.0  0.1751
  C  C40  1  0.907700  0.038800  0.037900  1.0  -0.0899
  C  C41  1  0.918200  0.072800  0.091300  1.0  -0.1536
  C  C42  1  0.045000  0.094100  0.113000  1.0  0.0063
  C  C43  1  0.156600  0.076100  0.077700  1.0  -0.1588
  C  C44  1  0.143600  0.038300  0.025700  1.0  -0.0808
  C  C45  1  0.990200  0.963800  0.735900  1.0  0.6747
  C  C46  1  0.092600  0.220700  0.832300  1.0  0.7275
  C  C47  1  0.801500  0.091600  0.131500  1.0  0.7198
  C  C48  1  0.292900  0.097800  0.101700  1.0  0.6801
  C  C49  1  0.485000  0.981200  0.398200  1.0  0.25
  C  C50  1  0.503000  0.023900  0.347100  1.0  -0.1149
  C  C51  1  0.486500  0.992600  0.293200  1.0  -0.156
  C  C52  1  0.448300  0.913500  0.288800  1.0  0.0103
  C  C53  1  0.433700  0.866800  0.340000  1.0  -0.1255
  C  C54  1  0.457000  0.901400  0.394600  1.0  -0.0454
  C  C55  1  0.483000  0.980800  0.502800  1.0  0.1771
  C  C56  1  0.592300  0.961200  0.537900  1.0  -0.0895
  C  C57  1  0.581800  0.927200  0.591300  1.0  -0.1539
  C  C58  1  0.455000  0.905900  0.613000  1.0  0.0068
  C  C59  1  0.343400  0.923900  0.577700  1.0  -0.1583
  C  C60  1  0.356400  0.961700  0.525700  1.0  -0.0826
  C  C61  1  0.509800  0.036200  0.235900  1.0  0.6762
  C  C62  1  0.407400  0.779300  0.332300  1.0  0.7384
  C  C63  1  0.698500  0.908400  0.631500  1.0  0.7193
  C  C64  1  0.207100  0.902200  0.601700  1.0  0.6773
  C  C65  1  0.985000  0.518800  0.601800  1.0  0.2424
  C  C66  1  0.003000  0.476100  0.652900  1.0  -0.1164
  C  C67  1  0.986500  0.507400  0.706800  1.0  -0.1556
  C  C68  1  0.948300  0.586500  0.711200  1.0  0.0083
  C  C69  1  0.933700  0.633200  0.660000  1.0  -0.1207
  C  C70  1  0.957000  0.598600  0.605400  1.0  -0.0456
  C  C71  1  0.983000  0.519200  0.497200  1.0  0.1753
  C  C72  1  0.092300  0.538800  0.462100  1.0  -0.0898
  C  C73  1  0.081800  0.572800  0.408700  1.0  -0.1536
  C  C74  1  0.955000  0.594100  0.387000  1.0  0.0077
  C  C75  1  0.843400  0.576100  0.422300  1.0  -0.1585
  C  C76  1  0.856400  0.538300  0.474300  1.0  -0.0825
  C  C77  1  0.009800  0.463800  0.764100  1.0  0.6764
  C  C78  1  0.907400  0.720700  0.667700  1.0  0.728
  C  C79  1  0.198500  0.591600  0.368500  1.0  0.7191
  C  C80  1  0.707100  0.597800  0.398300  1.0  0.6795
  C  C81  1  0.515000  0.481200  0.101800  1.0  0.2448
  C  C82  1  0.497000  0.523900  0.152900  1.0  -0.1188
  C  C83  1  0.513500  0.492600  0.206800  1.0  -0.1559
  C  C84  1  0.551700  0.413500  0.211200  1.0  0.0089
  C  C85  1  0.566300  0.366800  0.160000  1.0  -0.1173
  C  C86  1  0.543000  0.401400  0.105400  1.0  -0.0456
  C  C87  1  0.517000  0.480800  0.997200  1.0  0.1769
  C  C88  1  0.407700  0.461200  0.962100  1.0  -0.0899
  C  C89  1  0.418200  0.427200  0.908700  1.0  -0.1542
  C  C90  1  0.545000  0.405900  0.887000  1.0  0.007
  C  C91  1  0.656600  0.423900  0.922300  1.0  -0.1584
  C  C92  1  0.643600  0.461700  0.974300  1.0  -0.0796
  C  C93  1  0.490200  0.536200  0.264100  1.0  0.6751
  C  C94  1  0.592600  0.279300  0.167700  1.0  0.7251
  C  C95  1  0.301500  0.408400  0.868500  1.0  0.7187
  C  C96  1  0.792900  0.402200  0.898300  1.0  0.6814
  O  O97  1  0.001300  0.977600  0.950800  1.0  -0.2878
  O  O98  1  0.950300  0.892500  0.736800  1.0  -0.6517
  O  O99  1  0.015500  0.994400  0.687300  1.0  -0.5913
  O  O100  1  0.156500  0.238700  0.786300  1.0  -0.6517
  O  O101  1  0.050000  0.269900  0.871100  1.0  -0.5975
  O  O102  1  0.389800  0.079000  0.069200  1.0  -0.5766
  O  O103  1  0.304700  0.133500  0.149100  1.0  -0.5124
  O  O104  1  0.691000  0.077400  0.104000  1.0  -0.5833
  O  O105  1  0.818000  0.118000  0.181100  1.0  -0.6179
  O  O106  1  0.498700  0.022400  0.450800  1.0  -0.2855
  O  O107  1  0.549700  0.107500  0.236800  1.0  -0.6534
  O  O108  1  0.484500  0.005600  0.187300  1.0  -0.5912
  O  O109  1  0.343500  0.761300  0.286300  1.0  -0.6508
  O  O110  1  0.450000  0.730100  0.371100  1.0  -0.5984
  O  O111  1  0.110200  0.921000  0.569200  1.0  -0.5766
  O  O112  1  0.195300  0.866500  0.649100  1.0  -0.5096
  O  O113  1  0.809000  0.922600  0.604000  1.0  -0.5841
  O  O114  1  0.682000  0.882000  0.681100  1.0  -0.6176
  O  O115  1  0.998700  0.477600  0.549200  1.0  -0.2875
  O  O116  1  0.049700  0.392500  0.763200  1.0  -0.6557
  O  O117  1  0.984500  0.494400  0.812700  1.0  -0.5905
  O  O118  1  0.843500  0.738700  0.713700  1.0  -0.6544
  O  O119  1  0.950000  0.769900  0.628900  1.0  -0.5962
  O  O120  1  0.610200  0.579000  0.430800  1.0  -0.5736
  O  O121  1  0.695300  0.633500  0.350900  1.0  -0.5098
  O  O122  1  0.309000  0.577400  0.396000  1.0  -0.5846
  O  O123  1  0.182000  0.618000  0.318900  1.0  -0.6219
  O  O124  1  0.501300  0.522400  0.049200  1.0  -0.2854
  O  O125  1  0.450300  0.607500  0.263200  1.0  -0.656
  O  O126  1  0.515500  0.505600  0.312700  1.0  -0.5913
  O  O127  1  0.656500  0.261300  0.213700  1.0  -0.6534
  O  O128  1  0.550000  0.230100  0.128900  1.0  -0.5974
  O  O129  1  0.889800  0.421000  0.930800  1.0  -0.5734
  O  O130  1  0.804700  0.366500  0.850900  1.0  -0.5124
  O  O131  1  0.191000  0.422600  0.896000  1.0  -0.5837
  O  O132  1  0.318000  0.382000  0.818900  1.0  -0.6197
