# generated using pymatgen
data_Cu2H35C41N15Cl
_symmetry_space_group_name_H-M   'P 1'
_cell_length_a   8.96800000
_cell_length_b   15.96400000
_cell_length_c   19.73700000
_cell_angle_alpha   77.56000000
_cell_angle_beta   85.31000000
_cell_angle_gamma   81.57000000
_symmetry_Int_Tables_number   1
_chemical_formula_structural   Cu2H35C41N15Cl
_chemical_formula_sum   'Cu4 H70 C82 N30 Cl2'
_cell_volume   2725.81197785
_cell_formula_units_Z   2
loop_
 _symmetry_equiv_pos_site_id
 _symmetry_equiv_pos_as_xyz
  1  'x, y, z'
loop_
 _atom_site_type_symbol
 _atom_site_label
 _atom_site_symmetry_multiplicity
 _atom_site_fract_x
 _atom_site_fract_y
 _atom_site_fract_z
 _atom_site_occupancy
 _atom_site_charge
  Cu  Cu1  1  0.162690  0.917180  0.019370  1.0  0.3976
  Cu  Cu2  1  0.305190  0.442840  0.674160  1.0  0.4675
  Cu  Cu3  1  0.837310  0.082820  0.980630  1.0  0.3983
  Cu  Cu4  1  0.694810  0.557160  0.325840  1.0  0.4672
  H  H5  1  0.250500  0.933400  0.749600  1.0  0.0955
  H  H6  1  0.398500  0.880000  0.657500  1.0  0.0891
  H  H7  1  0.459600  0.879000  0.540600  1.0  0.0908
  H  H8  1  0.104600  0.062700  0.487500  1.0  0.1013
  H  H9  1  0.039300  0.059600  0.605300  1.0  0.085
  H  H10  1  0.817300  0.043600  0.825100  1.0  0.0793
  H  H11  1  0.241800  0.937400  0.855500  1.0  0.0926
  H  H12  1  0.465300  0.940500  0.064400  1.0  0.0675
  H  H13  1  0.719000  0.898200  0.040600  1.0  0.0877
  H  H14  1  0.790500  0.800900  0.967200  1.0  0.0886
  H  H15  1  0.350000  0.799300  0.941200  1.0  0.0758
  H  H16  1  0.525600  0.698200  0.891400  1.0  0.0726
  H  H17  1  0.953800  0.645500  0.824600  1.0  0.0758
  H  H18  1  0.701500  0.504500  0.787300  1.0  0.0902
  H  H19  1  0.766500  0.404500  0.715600  1.0  0.0936
  H  H20  1  0.007300  0.390600  0.662500  1.0  0.072
  H  H21  1  0.116900  0.576300  0.744500  1.0  0.0828
  H  H22  1  0.962700  0.837700  0.146400  1.0  0.0563
  H  H23  1  0.858400  0.711800  0.192200  1.0  0.0929
  H  H24  1  0.890400  0.599900  0.130500  1.0  0.0939
  H  H25  1  0.119000  0.751300  0.979100  1.0  0.073
  H  H26  1  0.086600  0.611000  0.959700  1.0  0.0859
  H  H27  1  0.388300  0.615400  0.683200  1.0  0.058
  H  H28  1  0.588800  0.693700  0.652600  1.0  0.0962
  H  H29  1  0.787500  0.645700  0.579100  1.0  0.1075
  H  H30  1  0.558600  0.449100  0.567300  1.0  0.0781
  H  H31  1  0.796800  0.462200  0.497600  1.0  0.073
  H  H32  1  0.482500  0.276500  0.756800  1.0  0.0727
  H  H33  1  0.625300  0.233700  0.853900  1.0  0.0978
  H  H34  1  0.619900  0.326600  0.931700  1.0  0.0943
  H  H35  1  0.340800  0.501600  0.805100  1.0  0.0799
  H  H36  1  0.398000  0.540500  0.910300  1.0  0.0781
  H  H37  1  0.447100  0.195200  0.554500  1.0  0.119
  H  H38  1  0.272300  0.215900  0.537800  1.0  0.1339
  H  H39  1  0.322700  0.156100  0.610500  1.0  0.1359
  H  H40  1  0.749500  0.066600  0.250400  1.0  0.0959
  H  H41  1  0.601500  0.120000  0.342500  1.0  0.0894
  H  H42  1  0.540400  0.121000  0.459400  1.0  0.0908
  H  H43  1  0.895400  0.937300  0.512500  1.0  0.1007
  H  H44  1  0.960700  0.940400  0.394700  1.0  0.0851
  H  H45  1  0.182700  0.956400  0.174900  1.0  0.08
  H  H46  1  0.758200  0.062600  0.144500  1.0  0.0927
  H  H47  1  0.534700  0.059500  0.935600  1.0  0.0671
  H  H48  1  0.281000  0.101800  0.959400  1.0  0.0873
  H  H49  1  0.209500  0.199100  0.032800  1.0  0.0886
  H  H50  1  0.650000  0.200700  0.058800  1.0  0.0767
  H  H51  1  0.474400  0.301800  0.108600  1.0  0.0746
  H  H52  1  0.046200  0.354500  0.175400  1.0  0.0759
  H  H53  1  0.298500  0.495500  0.212700  1.0  0.0909
  H  H54  1  0.233500  0.595500  0.284400  1.0  0.0934
  H  H55  1  0.992700  0.609400  0.337500  1.0  0.0721
  H  H56  1  0.883100  0.423700  0.255500  1.0  0.0822
  H  H57  1  0.037300  0.162300  0.853600  1.0  0.0569
  H  H58  1  0.141600  0.288200  0.807800  1.0  0.0927
  H  H59  1  0.109600  0.400100  0.869500  1.0  0.094
  H  H60  1  0.881000  0.248700  0.020900  1.0  0.072
  H  H61  1  0.913400  0.389000  0.040300  1.0  0.0866
  H  H62  1  0.611700  0.384600  0.316800  1.0  0.0578
  H  H63  1  0.411200  0.306300  0.347400  1.0  0.0961
  H  H64  1  0.212500  0.354300  0.420900  1.0  0.1076
  H  H65  1  0.441400  0.550900  0.432700  1.0  0.078
  H  H66  1  0.203200  0.537800  0.502400  1.0  0.0752
  H  H67  1  0.517500  0.723500  0.243200  1.0  0.0717
  H  H68  1  0.374700  0.766300  0.146100  1.0  0.0974
  H  H69  1  0.380100  0.673400  0.068300  1.0  0.0945
  H  H70  1  0.659200  0.498400  0.194900  1.0  0.0797
  H  H71  1  0.602000  0.459500  0.089700  1.0  0.0784
  H  H72  1  0.552900  0.804800  0.445500  1.0  0.1188
  H  H73  1  0.727700  0.784100  0.462200  1.0  0.1317
  H  H74  1  0.677300  0.843900  0.389500  1.0  0.1357
  C  C75  1  0.178000  0.964240  0.717580  1.0  0.0943
  C  C76  1  0.210600  0.968640  0.643080  1.0  -0.0812
  C  C77  1  0.336700  0.916200  0.622980  1.0  -0.0951
  C  C78  1  0.373800  0.915500  0.553830  1.0  -0.0729
  C  C79  1  0.284600  0.968620  0.504570  1.0  0.0657
  C  C80  1  0.162300  0.024160  0.522360  1.0  -0.0953
  C  C81  1  0.125000  0.022780  0.592350  1.0  -0.0758
  C  C82  1  0.908900  0.019120  0.846830  1.0  0.1302
  C  C83  1  0.140000  0.960990  0.863410  1.0  0.0887
  C  C84  1  0.493100  0.902220  0.033330  1.0  0.1429
  C  C85  1  0.644600  0.876310  0.020140  1.0  -0.1495
  C  C86  1  0.686800  0.818710  0.977230  1.0  -0.0169
  C  C87  1  0.575400  0.786740  0.948510  1.0  -0.0844
  C  C88  1  0.426300  0.818630  0.962350  1.0  0.0931
  C  C89  1  0.607000  0.720870  0.905900  1.0  0.1116
  C  C90  1  0.874900  0.614960  0.817780  1.0  0.1403
  C  C91  1  0.904500  0.551330  0.773580  1.0  -0.0911
  C  C92  1  0.799100  0.499220  0.764720  1.0  -0.0287
  C  C93  1  0.837900  0.439840  0.722780  1.0  -0.1299
  C  C94  1  0.981900  0.431910  0.691130  1.0  0.1448
  C  C95  1  0.045200  0.539980  0.739460  1.0  0.0955
  C  C96  1  0.975400  0.793120  0.120580  1.0  0.1408
  C  C97  1  0.913000  0.718030  0.148460  1.0  -0.136
  C  C98  1  0.931100  0.652330  0.112000  1.0  -0.0404
  C  C99  1  0.010500  0.664080  0.046970  1.0  -0.0818
  C  C100  1  0.067000  0.742350  0.023400  1.0  0.1003
  C  C101  1  0.033600  0.599170  0.003700  1.0  0.1078
  C  C102  1  0.467000  0.596000  0.652660  1.0  0.1403
  C  C103  1  0.586400  0.642950  0.635100  1.0  -0.1623
  C  C104  1  0.703000  0.615020  0.591520  1.0  -0.049
  C  C105  1  0.694200  0.540920  0.566110  1.0  -0.1428
  C  C106  1  0.566600  0.498540  0.585660  1.0  0.1072
  C  C107  1  0.816600  0.502610  0.523610  1.0  0.1548
  C  C108  1  0.482400  0.315610  0.786870  1.0  0.1348
  C  C109  1  0.566000  0.289010  0.845390  1.0  -0.1413
  C  C110  1  0.562700  0.343470  0.891400  1.0  -0.0633
  C  C111  1  0.473200  0.423930  0.877300  1.0  -0.0765
  C  C112  1  0.398200  0.445860  0.815840  1.0  0.1076
  C  C113  1  0.455700  0.485300  0.923890  1.0  0.1355
  C  C114  1  0.330100  0.282630  0.605010  1.0  0.2481
  C  C115  1  0.344200  0.206200  0.574450  1.0  -0.4288
  C  C116  1  0.822000  0.035760  0.282420  1.0  0.094
  C  C117  1  0.789400  0.031360  0.356920  1.0  -0.0818
  C  C118  1  0.663300  0.083800  0.377020  1.0  -0.094
  C  C119  1  0.626200  0.084500  0.446170  1.0  -0.0739
  C  C120  1  0.715400  0.031380  0.495430  1.0  0.0708
  C  C121  1  0.837700  0.975840  0.477640  1.0  -0.0947
  C  C122  1  0.875000  0.977220  0.407650  1.0  -0.0762
  C  C123  1  0.091100  0.980880  0.153170  1.0  0.1319
  C  C124  1  0.860000  0.039010  0.136590  1.0  0.0873
  C  C125  1  0.506900  0.097780  0.966670  1.0  0.1441
  C  C126  1  0.355400  0.123690  0.979860  1.0  -0.1515
  C  C127  1  0.313200  0.181290  0.022770  1.0  -0.0171
  C  C128  1  0.424600  0.213260  0.051490  1.0  -0.082
  C  C129  1  0.573700  0.181370  0.037650  1.0  0.092
  C  C130  1  0.393000  0.279130  0.094100  1.0  0.1153
  C  C131  1  0.125100  0.385040  0.182220  1.0  0.1422
  C  C132  1  0.095500  0.448670  0.226420  1.0  -0.0932
  C  C133  1  0.200900  0.500780  0.235280  1.0  -0.0277
  C  C134  1  0.162100  0.560160  0.277220  1.0  -0.1278
  C  C135  1  0.018100  0.568090  0.308870  1.0  0.1428
  C  C136  1  0.954800  0.460020  0.260540  1.0  0.0963
  C  C137  1  0.024600  0.206880  0.879420  1.0  0.1404
  C  C138  1  0.087000  0.281970  0.851540  1.0  -0.1338
  C  C139  1  0.068900  0.347670  0.888000  1.0  -0.0398
  C  C140  1  0.989500  0.335920  0.953030  1.0  -0.0817
  C  C141  1  0.933000  0.257650  0.976600  1.0  0.1022
  C  C142  1  0.966400  0.400830  0.996300  1.0  0.107
  C  C143  1  0.533000  0.404000  0.347340  1.0  0.141
  C  C144  1  0.413600  0.357050  0.364900  1.0  -0.1631
  C  C145  1  0.297000  0.384980  0.408480  1.0  -0.05
  C  C146  1  0.305800  0.459080  0.433890  1.0  -0.1414
  C  C147  1  0.433400  0.501460  0.414340  1.0  0.1059
  C  C148  1  0.183400  0.497390  0.476390  1.0  0.1516
  C  C149  1  0.517600  0.684390  0.213130  1.0  0.1331
  C  C150  1  0.434000  0.710990  0.154610  1.0  -0.1407
  C  C151  1  0.437300  0.656530  0.108600  1.0  -0.0635
  C  C152  1  0.526800  0.576070  0.122700  1.0  -0.0773
  C  C153  1  0.601800  0.554140  0.184160  1.0  0.1067
  C  C154  1  0.544300  0.514700  0.076110  1.0  0.1378
  C  C155  1  0.669900  0.717370  0.394990  1.0  0.2528
  C  C156  1  0.655800  0.793800  0.425550  1.0  -0.4299
  N  N157  1  0.076600  0.968310  0.924250  1.0  -0.2582
  N  N158  1  0.927300  0.006760  0.913500  1.0  -0.2518
  N  N159  1  0.039500  0.991890  0.813150  1.0  0.0973
  N  N160  1  0.053900  0.001210  0.740260  1.0  -0.262
  N  N161  1  0.383200  0.875460  0.004090  1.0  -0.3531
  N  N162  1  0.741800  0.693570  0.888070  1.0  -0.216
  N  N163  1  0.745000  0.630200  0.847330  1.0  -0.2591
  N  N164  1  0.086900  0.480510  0.699520  1.0  -0.3712
  N  N165  1  0.053200  0.806140  0.058880  1.0  -0.3516
  N  N166  1  0.983200  0.526420  0.024560  1.0  -0.24
  N  N167  1  0.454800  0.524550  0.629310  1.0  -0.3477
  N  N168  1  0.949400  0.523180  0.521300  1.0  -0.2419
  N  N169  1  0.401200  0.393940  0.770650  1.0  -0.3539
  N  N170  1  0.516300  0.465980  0.981790  1.0  -0.245
  N  N171  1  0.321100  0.341900  0.628760  1.0  -0.3983
  N  N172  1  0.923400  0.031690  0.075750  1.0  -0.2562
  N  N173  1  0.072700  0.993240  0.086500  1.0  -0.2539
  N  N174  1  0.960500  0.008110  0.186850  1.0  0.0965
  N  N175  1  0.946100  0.998790  0.259740  1.0  -0.2654
  N  N176  1  0.616800  0.124540  0.995910  1.0  -0.3528
  N  N177  1  0.258200  0.306430  0.111930  1.0  -0.2156
  N  N178  1  0.255000  0.369800  0.152670  1.0  -0.263
  N  N179  1  0.913100  0.519490  0.300480  1.0  -0.3744
  N  N180  1  0.946800  0.193860  0.941120  1.0  -0.3541
  N  N181  1  0.016800  0.473580  0.975440  1.0  -0.2426
  N  N182  1  0.545200  0.475450  0.370690  1.0  -0.3463
  N  N183  1  0.050600  0.476820  0.478700  1.0  -0.2435
  N  N184  1  0.598800  0.606060  0.229350  1.0  -0.3493
  N  N185  1  0.483700  0.534020  0.018210  1.0  -0.2463
  N  N186  1  0.678900  0.658100  0.371240  1.0  -0.399
  Cl  Cl187  1  0.327150  0.966080  0.417150  1.0  -0.1224
  Cl  Cl188  1  0.672850  0.033920  0.582850  1.0  -0.1203
