# generated using pymatgen
data_FeH5C10N3O4
_symmetry_space_group_name_H-M   'P 1'
_cell_length_a   7.78500000
_cell_length_b   10.23800000
_cell_length_c   15.85100000
_cell_angle_alpha   90.00000000
_cell_angle_beta   90.00000000
_cell_angle_gamma   90.00000000
_symmetry_Int_Tables_number   1
_chemical_formula_structural   FeH5C10N3O4
_chemical_formula_sum   'Fe4 H20 C40 N12 O16'
_cell_volume   1263.36955833
_cell_formula_units_Z   4
loop_
 _symmetry_equiv_pos_site_id
 _symmetry_equiv_pos_as_xyz
  1  'x, y, z'
loop_
 _atom_site_type_symbol
 _atom_site_label
 _atom_site_symmetry_multiplicity
 _atom_site_fract_x
 _atom_site_fract_y
 _atom_site_fract_z
 _atom_site_occupancy
 _atom_site_charge
  Fe  Fe1  1  0.638120  0.529830  0.901660  1.0  0.9767
  Fe  Fe2  1  0.361880  0.470170  0.401660  1.0  0.9774
  Fe  Fe3  1  0.138120  0.970170  0.901660  1.0  0.9773
  Fe  Fe4  1  0.861880  0.029830  0.401660  1.0  0.9767
  H  H5  1  0.586000  0.949300  0.710700  1.0  0.3234
  H  H6  1  0.450800  0.411200  0.586400  1.0  0.1022
  H  H7  1  0.342400  0.751600  0.485400  1.0  0.0868
  H  H8  1  0.444300  0.859900  0.602700  1.0  0.1381
  H  H9  1  0.563400  0.509100  0.704500  1.0  0.132
  H  H10  1  0.414000  0.050700  0.210700  1.0  0.3225
  H  H11  1  0.549200  0.588800  0.086400  1.0  0.1021
  H  H12  1  0.657600  0.248400  0.985400  1.0  0.0868
  H  H13  1  0.555700  0.140100  0.102700  1.0  0.1385
  H  H14  1  0.436600  0.490900  0.204500  1.0  0.1319
  H  H15  1  0.086000  0.550700  0.710700  1.0  0.3228
  H  H16  1  0.950800  0.088800  0.586400  1.0  0.102
  H  H17  1  0.842400  0.748400  0.485400  1.0  0.0866
  H  H18  1  0.944300  0.640100  0.602700  1.0  0.1384
  H  H19  1  0.063400  0.990900  0.704500  1.0  0.1319
  H  H20  1  0.914000  0.449300  0.210700  1.0  0.3229
  H  H21  1  0.049200  0.911200  0.086400  1.0  0.1024
  H  H22  1  0.157600  0.251600  0.985400  1.0  0.0868
  H  H23  1  0.055700  0.359900  0.102700  1.0  0.1381
  H  H24  1  0.936600  0.009100  0.204500  1.0  0.1323
  C  C25  1  0.453000  0.503900  0.589130  1.0  0.1754
  C  C26  1  0.388900  0.701900  0.530560  1.0  0.1762
  C  C27  1  0.450400  0.767400  0.599960  1.0  -0.2042
  C  C28  1  0.519300  0.561300  0.659910  1.0  -0.1834
  C  C29  1  0.521500  0.696700  0.666000  1.0  0.0324
  C  C30  1  0.605400  0.759100  0.738150  1.0  0.3172
  C  C31  1  0.732400  0.913000  0.812530  1.0  0.0081
  C  C32  1  0.765000  0.791200  0.846980  1.0  -0.0136
  C  C33  1  0.780800  0.050200  0.835470  1.0  0.6662
  C  C34  1  0.866800  0.751100  0.921640  1.0  0.6862
  C  C35  1  0.547000  0.496100  0.089130  1.0  0.1759
  C  C36  1  0.611100  0.298100  0.030560  1.0  0.1762
  C  C37  1  0.549600  0.232600  0.099960  1.0  -0.2042
  C  C38  1  0.480700  0.438700  0.159910  1.0  -0.1814
  C  C39  1  0.478500  0.303300  0.166000  1.0  0.0319
  C  C40  1  0.394600  0.240900  0.238150  1.0  0.3183
  C  C41  1  0.267600  0.087000  0.312530  1.0  0.009
  C  C42  1  0.235000  0.208800  0.346980  1.0  -0.0137
  C  C43  1  0.219200  0.949800  0.335470  1.0  0.6641
  C  C44  1  0.133200  0.248900  0.421640  1.0  0.6863
  C  C45  1  0.953000  0.996100  0.589130  1.0  0.1758
  C  C46  1  0.888900  0.798100  0.530560  1.0  0.1765
  C  C47  1  0.950400  0.732600  0.599960  1.0  -0.2041
  C  C48  1  0.019300  0.938700  0.659910  1.0  -0.1824
  C  C49  1  0.021500  0.803300  0.666000  1.0  0.0319
  C  C50  1  0.105400  0.740900  0.738150  1.0  0.3179
  C  C51  1  0.232400  0.587000  0.812530  1.0  0.0088
  C  C52  1  0.265000  0.708800  0.846980  1.0  -0.0136
  C  C53  1  0.280800  0.449800  0.835470  1.0  0.6662
  C  C54  1  0.366800  0.748900  0.921640  1.0  0.6862
  C  C55  1  0.047000  0.003900  0.089130  1.0  0.1759
  C  C56  1  0.111100  0.201900  0.030560  1.0  0.176
  C  C57  1  0.049600  0.267400  0.099960  1.0  -0.2042
  C  C58  1  0.980700  0.061300  0.159910  1.0  -0.1813
  C  C59  1  0.978500  0.196700  0.166000  1.0  0.0325
  C  C60  1  0.894600  0.259100  0.238150  1.0  0.3174
  C  C61  1  0.767600  0.413000  0.312530  1.0  0.0085
  C  C62  1  0.735000  0.291200  0.346980  1.0  -0.0136
  C  C63  1  0.719200  0.550200  0.335470  1.0  0.6682
  C  C64  1  0.633200  0.251100  0.421640  1.0  0.6862
  N  N65  1  0.391000  0.571800  0.523280  1.0  -0.3572
  N  N66  1  0.629400  0.889680  0.744550  1.0  -0.2589
  N  N67  1  0.682200  0.696040  0.800500  1.0  -0.4739
  N  N68  1  0.609000  0.428200  0.023280  1.0  -0.3535
  N  N69  1  0.370600  0.110320  0.244550  1.0  -0.2595
  N  N70  1  0.317800  0.303960  0.300500  1.0  -0.475
  N  N71  1  0.891000  0.928200  0.523280  1.0  -0.355
  N  N72  1  0.129400  0.610320  0.744550  1.0  -0.2588
  N  N73  1  0.182200  0.803960  0.800500  1.0  -0.4758
  N  N74  1  0.109000  0.071800  0.023280  1.0  -0.3559
  N  N75  1  0.870600  0.389680  0.244550  1.0  -0.2592
  N  N76  1  0.817800  0.196040  0.300500  1.0  -0.4732
  O  O77  1  0.665200  0.133320  0.828980  1.0  -0.5716
  O  O78  1  0.932200  0.074570  0.856730  1.0  -0.5987
  O  O79  1  0.970500  0.828710  0.954120  1.0  -0.5852
  O  O80  1  0.844800  0.635180  0.947650  1.0  -0.5754
  O  O81  1  0.334800  0.866680  0.328980  1.0  -0.572
  O  O82  1  0.067800  0.925430  0.356730  1.0  -0.6008
  O  O83  1  0.029500  0.171290  0.454120  1.0  -0.585
  O  O84  1  0.155200  0.364820  0.447650  1.0  -0.5771
  O  O85  1  0.165200  0.366680  0.828980  1.0  -0.5714
  O  O86  1  0.432200  0.425430  0.856730  1.0  -0.599
  O  O87  1  0.470500  0.671290  0.954120  1.0  -0.5854
  O  O88  1  0.344800  0.864820  0.947650  1.0  -0.576
  O  O89  1  0.834800  0.633320  0.328980  1.0  -0.5732
  O  O90  1  0.567800  0.574570  0.356730  1.0  -0.6012
  O  O91  1  0.529500  0.328710  0.454120  1.0  -0.5849
  O  O92  1  0.655200  0.135180  0.447650  1.0  -0.5755
