# generated using pymatgen
data_NaCo2H53C78(N2O9)2
_symmetry_space_group_name_H-M   'P 1'
_cell_length_a   14.37000000
_cell_length_b   28.43100000
_cell_length_c   17.88300000
_cell_angle_alpha   90.00000000
_cell_angle_beta   100.67300000
_cell_angle_gamma   90.00000000
_symmetry_Int_Tables_number   1
_chemical_formula_structural   NaCo2H53C78(N2O9)2
_chemical_formula_sum   'Na4 Co8 H212 C312 N16 O72'
_cell_volume   7179.76642726
_cell_formula_units_Z   4
loop_
 _symmetry_equiv_pos_site_id
 _symmetry_equiv_pos_as_xyz
  1  'x, y, z'
loop_
 _atom_site_type_symbol
 _atom_site_label
 _atom_site_symmetry_multiplicity
 _atom_site_fract_x
 _atom_site_fract_y
 _atom_site_fract_z
 _atom_site_occupancy
 _atom_site_charge
  Na  Na1  1  0.331790  0.166950  0.391100  1.0  0.9651
  Na  Na2  1  0.168210  0.666950  0.108900  1.0  0.9651
  Na  Na3  1  0.668210  0.833050  0.608900  1.0  0.9652
  Na  Na4  1  0.831790  0.333050  0.891100  1.0  0.9651
  Co  Co5  1  0.136560  0.134660  0.442670  1.0  0.9329
  Co  Co6  1  0.511610  0.149200  0.533660  1.0  0.9714
  Co  Co7  1  0.363440  0.634660  0.057330  1.0  0.9309
  Co  Co8  1  0.988390  0.649200  0.966340  1.0  0.972
  Co  Co9  1  0.863440  0.865340  0.557330  1.0  0.9309
  Co  Co10  1  0.488390  0.850800  0.466340  1.0  0.9724
  Co  Co11  1  0.636560  0.365340  0.942670  1.0  0.9323
  Co  Co12  1  0.011610  0.350800  0.033660  1.0  0.9714
  H  H13  1  0.146400  0.060100  0.850400  1.0  0.0872
  H  H14  1  0.212600  0.101000  0.888300  1.0  0.0872
  H  H15  1  0.140300  0.989400  0.825200  1.0  0.0834
  H  H16  1  0.144700  0.940500  0.867100  1.0  0.0648
  H  H17  1  0.237300  0.901300  0.048900  1.0  0.0681
  H  H18  1  0.147700  0.919100  0.991200  1.0  0.0786
  H  H19  1  0.450100  0.955600  0.132100  1.0  0.0815
  H  H20  1  0.348300  0.940000  0.143000  1.0  0.0692
  H  H21  1  0.520500  0.008300  0.094000  1.0  0.0887
  H  H22  1  0.503900  0.060600  0.066400  1.0  0.085
  H  H23  1  0.449900  0.098300  0.976700  1.0  0.1161
  H  H24  1  0.354800  0.113200  0.922900  1.0  0.08
  H  H25  1  0.113100  0.127600  0.783500  1.0  0.119
  H  H26  1  0.072500  0.180800  0.685400  1.0  0.0998
  H  H27  1  0.161800  0.188200  0.591400  1.0  0.1076
  H  H28  1  0.333200  0.085600  0.691100  1.0  0.1176
  H  H29  1  0.907300  0.986600  0.950100  1.0  0.1214
  H  H30  1  0.762900  0.952300  0.898700  1.0  0.0862
  H  H31  1  0.743200  0.914300  0.783600  1.0  0.1048
  H  H32  1  0.012300  0.941400  0.771700  1.0  0.1023
  H  H33  1  0.236900  0.831600  0.830600  1.0  0.1227
  H  H34  1  0.168800  0.758500  0.806400  1.0  0.1098
  H  H35  1  0.089400  0.723800  0.892600  1.0  0.0964
  H  H36  1  0.138400  0.837000  0.027000  1.0  0.1227
  H  H37  1  0.331600  0.817700  0.057000  1.0  0.1103
  H  H38  1  0.494500  0.751800  0.230400  1.0  0.1129
  H  H39  1  0.562600  0.822300  0.271900  1.0  0.0907
  H  H40  1  0.520500  0.890400  0.204900  1.0  0.1155
  H  H41  1  0.358100  0.154400  0.163600  1.0  0.1151
  H  H42  1  0.492200  0.172400  0.988400  1.0  0.1126
  H  H43  1  0.595100  0.223800  0.059900  1.0  0.0947
  H  H44  1  0.584500  0.238800  0.184500  1.0  0.1098
  H  H45  1  0.436800  0.079100  0.285600  1.0  0.0988
  H  H46  1  0.634600  0.058300  0.156900  1.0  0.1143
  H  H47  1  0.745900  0.092500  0.250600  1.0  0.0987
  H  H48  1  0.706500  0.118000  0.361900  1.0  0.1204
  H  H49  1  0.601500  0.247200  0.600200  1.0  0.0816
  H  H50  1  0.719500  0.272300  0.697700  1.0  0.1209
  H  H51  1  0.806200  0.219400  0.776000  1.0  0.1167
  H  H52  1  0.807100  0.056100  0.787700  1.0  0.103
  H  H53  1  0.842400  0.131900  0.809500  1.0  0.1122
  H  H54  1  0.703000  0.993100  0.708600  1.0  0.092
  H  H55  1  0.579900  0.976600  0.612400  1.0  0.1134
  H  H56  1  0.500100  0.037100  0.541600  1.0  0.0774
  H  H57  1  0.278900  0.045600  0.464000  1.0  0.0756
  H  H58  1  0.293500  0.974500  0.528300  1.0  0.1124
  H  H59  1  0.183400  0.952900  0.598900  1.0  0.1126
  H  H60  1  0.914800  0.024400  0.652200  1.0  0.0953
  H  H61  1  0.029200  0.973200  0.646600  1.0  0.0926
  H  H62  1  0.954200  0.184900  0.477300  1.0  0.0837
  H  H63  1  0.835300  0.170800  0.544900  1.0  0.1224
  H  H64  1  0.835300  0.102000  0.611300  1.0  0.1031
  H  H65  1  0.494800  0.247800  0.340400  1.0  0.3611
  H  H66  1  0.353600  0.560100  0.649600  1.0  0.0879
  H  H67  1  0.287400  0.601000  0.611700  1.0  0.0875
  H  H68  1  0.359700  0.489400  0.674800  1.0  0.0833
  H  H69  1  0.355300  0.440500  0.632900  1.0  0.0655
  H  H70  1  0.262700  0.401300  0.451100  1.0  0.0681
  H  H71  1  0.352300  0.419100  0.508800  1.0  0.0778
  H  H72  1  0.049900  0.455600  0.367900  1.0  0.0813
  H  H73  1  0.151700  0.440000  0.357000  1.0  0.0686
  H  H74  1  0.979500  0.508300  0.406000  1.0  0.0874
  H  H75  1  0.996100  0.560600  0.433600  1.0  0.0847
  H  H76  1  0.050100  0.598300  0.523300  1.0  0.1115
  H  H77  1  0.145200  0.613200  0.577100  1.0  0.0809
  H  H78  1  0.386900  0.627600  0.716500  1.0  0.1191
  H  H79  1  0.427500  0.680800  0.814600  1.0  0.0999
  H  H80  1  0.338200  0.688200  0.908600  1.0  0.1073
  H  H81  1  0.166800  0.585600  0.808900  1.0  0.1181
  H  H82  1  0.592700  0.486600  0.549900  1.0  0.1218
  H  H83  1  0.737100  0.452300  0.601300  1.0  0.0854
  H  H84  1  0.756800  0.414300  0.716400  1.0  0.1045
  H  H85  1  0.487700  0.441400  0.728300  1.0  0.1019
  H  H86  1  0.263100  0.331600  0.669400  1.0  0.1222
  H  H87  1  0.331200  0.258500  0.693600  1.0  0.1098
  H  H88  1  0.410600  0.223800  0.607400  1.0  0.0964
  H  H89  1  0.361600  0.337000  0.473000  1.0  0.1234
  H  H90  1  0.168400  0.317700  0.443000  1.0  0.1109
  H  H91  1  0.005500  0.251800  0.269600  1.0  0.1129
  H  H92  1  0.937400  0.322300  0.228100  1.0  0.0908
  H  H93  1  0.979500  0.390400  0.295100  1.0  0.1161
  H  H94  1  0.141900  0.654400  0.336400  1.0  0.1146
  H  H95  1  0.007800  0.672400  0.511600  1.0  0.1107
  H  H96  1  0.904900  0.723800  0.440100  1.0  0.0952
  H  H97  1  0.915500  0.738800  0.315500  1.0  0.1096
  H  H98  1  0.063200  0.579100  0.214400  1.0  0.0988
  H  H99  1  0.865400  0.558300  0.343100  1.0  0.1128
  H  H100  1  0.754100  0.592500  0.249400  1.0  0.0991
  H  H101  1  0.793500  0.618000  0.138100  1.0  0.1203
  H  H102  1  0.898500  0.747200  0.899800  1.0  0.0825
  H  H103  1  0.780500  0.772300  0.802300  1.0  0.1206
  H  H104  1  0.693800  0.719400  0.724000  1.0  0.1173
  H  H105  1  0.692900  0.556100  0.712300  1.0  0.1029
  H  H106  1  0.657600  0.631900  0.690500  1.0  0.1122
  H  H107  1  0.797000  0.493100  0.791400  1.0  0.092
  H  H108  1  0.920100  0.476600  0.887600  1.0  0.1136
  H  H109  1  0.999900  0.537100  0.958400  1.0  0.0776
  H  H110  1  0.221100  0.545600  0.036000  1.0  0.0759
  H  H111  1  0.206500  0.474500  0.971700  1.0  0.1124
  H  H112  1  0.316600  0.452900  0.901100  1.0  0.1121
  H  H113  1  0.585200  0.524400  0.847800  1.0  0.0957
  H  H114  1  0.470800  0.473200  0.853400  1.0  0.0922
  H  H115  1  0.545800  0.684900  0.022700  1.0  0.0842
  H  H116  1  0.664700  0.670800  0.955100  1.0  0.1221
  H  H117  1  0.664700  0.602000  0.888700  1.0  0.1037
  H  H118  1  0.005200  0.747800  0.159600  1.0  0.361
  H  H119  1  0.853600  0.939900  0.149600  1.0  0.0875
  H  H120  1  0.787400  0.899000  0.111700  1.0  0.0872
  H  H121  1  0.859700  0.010600  0.174800  1.0  0.0835
  H  H122  1  0.855300  0.059500  0.132900  1.0  0.0649
  H  H123  1  0.762700  0.098700  0.951100  1.0  0.0681
  H  H124  1  0.852300  0.080900  0.008800  1.0  0.0782
  H  H125  1  0.549900  0.044400  0.867900  1.0  0.0811
  H  H126  1  0.651700  0.060000  0.857000  1.0  0.0675
  H  H127  1  0.479500  0.991700  0.906000  1.0  0.0879
  H  H128  1  0.496100  0.939400  0.933600  1.0  0.0847
  H  H129  1  0.550100  0.901700  0.023300  1.0  0.111
  H  H130  1  0.645200  0.886800  0.077100  1.0  0.0817
  H  H131  1  0.886900  0.872400  0.216500  1.0  0.1192
  H  H132  1  0.927500  0.819200  0.314600  1.0  0.0996
  H  H133  1  0.838200  0.811800  0.408600  1.0  0.1077
  H  H134  1  0.666800  0.914400  0.308900  1.0  0.1185
  H  H135  1  0.092700  0.013400  0.049900  1.0  0.122
  H  H136  1  0.237100  0.047700  0.101300  1.0  0.0852
  H  H137  1  0.256800  0.085700  0.216400  1.0  0.104
  H  H138  1  0.987700  0.058600  0.228300  1.0  0.1017
  H  H139  1  0.763100  0.168400  0.169400  1.0  0.1223
  H  H140  1  0.831200  0.241500  0.193600  1.0  0.1096
  H  H141  1  0.910600  0.276200  0.107400  1.0  0.0959
  H  H142  1  0.861600  0.163000  0.973000  1.0  0.1236
  H  H143  1  0.668400  0.182300  0.943000  1.0  0.1105
  H  H144  1  0.505500  0.248200  0.769600  1.0  0.1125
  H  H145  1  0.437400  0.177700  0.728100  1.0  0.0911
  H  H146  1  0.479500  0.109600  0.795100  1.0  0.116
  H  H147  1  0.641900  0.845600  0.836400  1.0  0.1145
  H  H148  1  0.507800  0.827600  0.011600  1.0  0.1115
  H  H149  1  0.404900  0.776200  0.940100  1.0  0.095
  H  H150  1  0.415500  0.761200  0.815500  1.0  0.1092
  H  H151  1  0.563200  0.920900  0.714400  1.0  0.0987
  H  H152  1  0.365400  0.941700  0.843100  1.0  0.1126
  H  H153  1  0.254100  0.907500  0.749400  1.0  0.0989
  H  H154  1  0.293500  0.882000  0.638100  1.0  0.1203
  H  H155  1  0.398500  0.752800  0.399800  1.0  0.0831
  H  H156  1  0.280500  0.727700  0.302300  1.0  0.1221
  H  H157  1  0.193800  0.780600  0.224000  1.0  0.1169
  H  H158  1  0.192900  0.943900  0.212300  1.0  0.1033
  H  H159  1  0.157600  0.868100  0.190500  1.0  0.1119
  H  H160  1  0.297000  0.006900  0.291400  1.0  0.0924
  H  H161  1  0.420100  0.023400  0.387600  1.0  0.1158
  H  H162  1  0.499900  0.962900  0.458400  1.0  0.0775
  H  H163  1  0.721100  0.954400  0.536000  1.0  0.0762
  H  H164  1  0.706500  0.025500  0.471700  1.0  0.1124
  H  H165  1  0.816600  0.047100  0.401100  1.0  0.1124
  H  H166  1  0.085200  0.975600  0.347800  1.0  0.0955
  H  H167  1  0.970800  0.026800  0.353400  1.0  0.0925
  H  H168  1  0.045800  0.815100  0.522700  1.0  0.0846
  H  H169  1  0.164700  0.829200  0.455100  1.0  0.1223
  H  H170  1  0.164700  0.898000  0.388700  1.0  0.1035
  H  H171  1  0.505200  0.752200  0.659600  1.0  0.3604
  H  H172  1  0.646400  0.439900  0.350400  1.0  0.0871
  H  H173  1  0.712600  0.399000  0.388300  1.0  0.0877
  H  H174  1  0.640300  0.510600  0.325200  1.0  0.0836
  H  H175  1  0.644700  0.559500  0.367100  1.0  0.0655
  H  H176  1  0.737300  0.598700  0.548900  1.0  0.0674
  H  H177  1  0.647700  0.580900  0.491200  1.0  0.0784
  H  H178  1  0.950100  0.544400  0.632100  1.0  0.0817
  H  H179  1  0.848300  0.560000  0.643000  1.0  0.069
  H  H180  1  0.020500  0.491700  0.594000  1.0  0.0884
  H  H181  1  0.003900  0.439400  0.566400  1.0  0.0848
  H  H182  1  0.949900  0.401700  0.476700  1.0  0.1155
  H  H183  1  0.854800  0.386800  0.422900  1.0  0.0804
  H  H184  1  0.613100  0.372400  0.283500  1.0  0.119
  H  H185  1  0.572500  0.319200  0.185400  1.0  0.0998
  H  H186  1  0.661800  0.311800  0.091400  1.0  0.1073
  H  H187  1  0.833200  0.414400  0.191100  1.0  0.1181
  H  H188  1  0.407300  0.513400  0.450100  1.0  0.1214
  H  H189  1  0.262900  0.547700  0.398700  1.0  0.0855
  H  H190  1  0.243200  0.585700  0.283600  1.0  0.1048
  H  H191  1  0.512300  0.558600  0.271700  1.0  0.1024
  H  H192  1  0.736900  0.668400  0.330600  1.0  0.1229
  H  H193  1  0.668800  0.741500  0.306400  1.0  0.1096
  H  H194  1  0.589400  0.776200  0.392600  1.0  0.0964
  H  H195  1  0.638400  0.663000  0.527000  1.0  0.1231
  H  H196  1  0.831600  0.682300  0.557000  1.0  0.1105
  H  H197  1  0.994500  0.748200  0.730400  1.0  0.1122
  H  H198  1  0.062600  0.677700  0.771900  1.0  0.0908
  H  H199  1  0.020500  0.609600  0.704900  1.0  0.1159
  H  H200  1  0.858100  0.345600  0.663600  1.0  0.1152
  H  H201  1  0.992200  0.327600  0.488400  1.0  0.1132
  H  H202  1  0.095100  0.276200  0.559900  1.0  0.0943
  H  H203  1  0.084500  0.261200  0.684500  1.0  0.11
  H  H204  1  0.936800  0.420900  0.785600  1.0  0.0987
  H  H205  1  0.134600  0.441700  0.656900  1.0  0.1141
  H  H206  1  0.245900  0.407500  0.750600  1.0  0.0986
  H  H207  1  0.206500  0.382000  0.861900  1.0  0.1207
  H  H208  1  0.101500  0.252800  0.100200  1.0  0.0826
  H  H209  1  0.219500  0.227700  0.197700  1.0  0.122
  H  H210  1  0.306200  0.280600  0.276000  1.0  0.1168
  H  H211  1  0.307100  0.443900  0.287700  1.0  0.1028
  H  H212  1  0.342400  0.368100  0.309500  1.0  0.1123
  H  H213  1  0.203000  0.506900  0.208600  1.0  0.0917
  H  H214  1  0.079900  0.523400  0.112400  1.0  0.1161
  H  H215  1  0.000100  0.462900  0.041600  1.0  0.0776
  H  H216  1  0.778900  0.454400  0.964000  1.0  0.0757
  H  H217  1  0.793500  0.525500  0.028300  1.0  0.1123
  H  H218  1  0.683400  0.547100  0.098900  1.0  0.1126
  H  H219  1  0.414800  0.475600  0.152200  1.0  0.0952
  H  H220  1  0.529200  0.526800  0.146600  1.0  0.0924
  H  H221  1  0.454200  0.315100  0.977300  1.0  0.0839
  H  H222  1  0.335300  0.329200  0.044900  1.0  0.1218
  H  H223  1  0.335300  0.398000  0.111300  1.0  0.1032
  H  H224  1  0.994800  0.252200  0.840400  1.0  0.3604
  C  C225  1  0.262000  0.035820  0.925300  1.0  -0.0474
  C  C226  1  0.224700  0.991110  0.931300  1.0  -0.0693
  C  C227  1  0.265200  0.961180  0.990900  1.0  -0.1113
  C  C228  1  0.346200  0.974890  0.041800  1.0  -0.0467
  C  C229  1  0.386800  0.019240  0.033300  1.0  -0.0952
  C  C230  1  0.343300  0.050040  0.976400  1.0  -0.0819
  C  C231  1  0.211800  0.069680  0.866800  1.0  0.0839
  C  C232  1  0.141100  0.974240  0.873900  1.0  0.0797
  C  C233  1  0.215700  0.914620  0.998700  1.0  0.0671
  C  C234  1  0.389900  0.942940  0.106300  1.0  0.0647
  C  C235  1  0.475200  0.033930  0.087300  1.0  0.047
  C  C236  1  0.381500  0.099000  0.971400  1.0  0.0829
  C  C237  1  0.227800  0.101800  0.747200  1.0  0.2767
  C  C238  1  0.149300  0.129990  0.745600  1.0  -0.2705
  C  C239  1  0.125400  0.161820  0.686800  1.0  -0.0859
  C  C240  1  0.178300  0.166100  0.629900  1.0  -0.0933
  C  C241  1  0.255900  0.137230  0.630800  1.0  -0.1105
  C  C242  1  0.280800  0.105020  0.690000  1.0  -0.1448
  C  C243  1  0.312400  0.141170  0.568900  1.0  0.6903
  C  C244  1  0.974400  0.966240  0.866400  1.0  0.2537
  C  C245  1  0.899900  0.970460  0.904100  1.0  -0.1399
  C  C246  1  0.813300  0.950300  0.872800  1.0  -0.0904
  C  C247  1  0.801400  0.927560  0.804200  1.0  -0.044
  C  C248  1  0.875000  0.924370  0.766000  1.0  -0.1625
  C  C249  1  0.962000  0.943700  0.797500  1.0  -0.1446
  C  C250  1  0.861800  0.901210  0.689200  1.0  0.6455
  C  C251  1  0.194900  0.841420  0.931100  1.0  0.279
  C  C252  1  0.203900  0.817960  0.865200  1.0  -0.2021
  C  C253  1  0.163800  0.774170  0.851100  1.0  -0.0959
  C  C254  1  0.116400  0.753430  0.902600  1.0  -0.0765
  C  C255  1  0.108800  0.776320  0.968700  1.0  -0.1248
  C  C256  1  0.145900  0.820960  0.983200  1.0  -0.1644
  C  C257  1  0.424900  0.860130  0.123000  1.0  0.2766
  C  C258  1  0.380000  0.818240  0.099500  1.0  -0.141
  C  C259  1  0.406800  0.777120  0.139000  1.0  -0.0505
  C  C260  1  0.475700  0.779140  0.203200  1.0  -0.1035
  C  C261  1  0.517000  0.821300  0.227600  1.0  -0.0802
  C  C262  1  0.492100  0.861960  0.188000  1.0  -0.2284
  C  C263  1  0.355800  0.731530  0.113800  1.0  0.7034
  C  C264  1  0.467500  0.199540  0.185600  1.0  -0.1862
  C  C265  1  0.406200  0.168280  0.142900  1.0  -0.1512
  C  C266  1  0.415900  0.157420  0.069300  1.0  0.2331
  C  C267  1  0.486500  0.178810  0.038400  1.0  -0.244
  C  C268  1  0.547900  0.209430  0.081100  1.0  -0.0895
  C  C269  1  0.540500  0.219110  0.155000  1.0  -0.0539
  C  C270  1  0.452200  0.210640  0.263200  1.0  0.659
  C  C271  1  0.567400  0.100700  0.335600  1.0  -0.1764
  C  C272  1  0.499300  0.081290  0.278800  1.0  -0.172
  C  C273  1  0.524000  0.065180  0.212100  1.0  0.254
  C  C274  1  0.617400  0.069120  0.201400  1.0  -0.282
  C  C275  1  0.683800  0.089360  0.258000  1.0  -0.1044
  C  C276  1  0.660500  0.104810  0.324300  1.0  -0.0671
  C  C277  1  0.542200  0.117240  0.408100  1.0  0.6541
  C  C278  1  0.060900  0.752570  0.027000  1.0  0.6391
  C  C279  1  0.635900  0.224930  0.632100  1.0  0.1846
  C  C280  1  0.707500  0.240330  0.690800  1.0  -0.116
  C  C281  1  0.758600  0.209100  0.737000  1.0  -0.0324
  C  C282  1  0.740400  0.160430  0.726600  1.0  0.0156
  C  C283  1  0.667600  0.147890  0.666667  1.0  0.1554
  C  C284  1  0.644800  0.099200  0.652500  1.0  0.131
  C  C285  1  0.697000  0.064450  0.698100  1.0  0.025
  C  C286  1  0.771900  0.078800  0.757500  1.0  -0.0871
  C  C287  1  0.792600  0.123800  0.770600  1.0  -0.0776
  C  C288  1  0.670300  0.017460  0.680500  1.0  -0.0297
  C  C289  1  0.597900  0.007580  0.623500  1.0  -0.1266
  C  C290  1  0.549900  0.044320  0.581100  1.0  0.1943
  C  C291  1  0.233600  0.037410  0.492700  1.0  0.1864
  C  C292  1  0.242800  0.994200  0.531400  1.0  -0.1138
  C  C293  1  0.177800  0.981500  0.573300  1.0  -0.0075
  C  C294  1  0.103300  0.011070  0.578000  1.0  -0.0357
  C  C295  1  0.098600  0.053860  0.537800  1.0  0.1512
  C  C296  1  0.024100  0.086630  0.541000  1.0  0.1619
  C  C297  1  0.954500  0.075200  0.584100  1.0  0.0027
  C  C298  1  0.960600  0.031700  0.623400  1.0  -0.1501
  C  C299  1  0.028600  0.001500  0.620600  1.0  -0.0966
  C  C300  1  0.954900  0.156900  0.504100  1.0  0.1837
  C  C301  1  0.883000  0.148600  0.544800  1.0  -0.1516
  C  C302  1  0.883300  0.108000  0.584100  1.0  -0.0083
  C  C303  1  0.238000  0.535820  0.574700  1.0  -0.0474
  C  C304  1  0.275300  0.491110  0.568700  1.0  -0.0692
  C  C305  1  0.234800  0.461180  0.509100  1.0  -0.1119
  C  C306  1  0.153800  0.474890  0.458200  1.0  -0.0484
  C  C307  1  0.113200  0.519240  0.466700  1.0  -0.0942
  C  C308  1  0.156700  0.550040  0.523600  1.0  -0.0818
  C  C309  1  0.288200  0.569680  0.633200  1.0  0.0841
  C  C310  1  0.358900  0.474240  0.626100  1.0  0.0795
  C  C311  1  0.284300  0.414620  0.501300  1.0  0.0651
  C  C312  1  0.110100  0.442940  0.393700  1.0  0.0617
  C  C313  1  0.024800  0.533930  0.412700  1.0  0.0443
  C  C314  1  0.118500  0.599000  0.528600  1.0  0.0819
  C  C315  1  0.272200  0.601800  0.752800  1.0  0.2766
  C  C316  1  0.350700  0.629990  0.754400  1.0  -0.2702
  C  C317  1  0.374600  0.661820  0.813200  1.0  -0.0883
  C  C318  1  0.321700  0.666100  0.870100  1.0  -0.0954
  C  C319  1  0.244100  0.637230  0.869200  1.0  -0.1101
  C  C320  1  0.219200  0.605020  0.810000  1.0  -0.1436
  C  C321  1  0.187600  0.641170  0.931100  1.0  0.6911
  C  C322  1  0.525600  0.466240  0.633600  1.0  0.253
  C  C323  1  0.600100  0.470460  0.595900  1.0  -0.1411
  C  C324  1  0.686700  0.450300  0.627200  1.0  -0.0908
  C  C325  1  0.698600  0.427560  0.695800  1.0  -0.0452
  C  C326  1  0.625000  0.424370  0.734000  1.0  -0.162
  C  C327  1  0.538000  0.443700  0.702500  1.0  -0.1454
  C  C328  1  0.638200  0.401210  0.810800  1.0  0.6458
  C  C329  1  0.305100  0.341420  0.568900  1.0  0.2791
  C  C330  1  0.296100  0.317960  0.634800  1.0  -0.2028
  C  C331  1  0.336200  0.274170  0.648900  1.0  -0.0944
  C  C332  1  0.383600  0.253430  0.597400  1.0  -0.0764
  C  C333  1  0.391200  0.276320  0.531300  1.0  -0.1254
  C  C334  1  0.354100  0.320960  0.516800  1.0  -0.1658
  C  C335  1  0.075100  0.360130  0.377000  1.0  0.2766
  C  C336  1  0.120000  0.318240  0.400500  1.0  -0.1418
  C  C337  1  0.093200  0.277120  0.361000  1.0  -0.0502
  C  C338  1  0.024300  0.279140  0.296800  1.0  -0.1034
  C  C339  1  0.983000  0.321300  0.272400  1.0  -0.079
  C  C340  1  0.007900  0.361960  0.312000  1.0  -0.2283
  C  C341  1  0.144200  0.231530  0.386200  1.0  0.7045
  C  C342  1  0.032500  0.699540  0.314400  1.0  -0.1864
  C  C343  1  0.093800  0.668280  0.357100  1.0  -0.1521
  C  C344  1  0.084100  0.657420  0.430700  1.0  0.2325
  C  C345  1  0.013500  0.678810  0.461600  1.0  -0.2469
  C  C346  1  0.952100  0.709430  0.418900  1.0  -0.089
  C  C347  1  0.959500  0.719110  0.345000  1.0  -0.0547
  C  C348  1  0.047800  0.710640  0.236800  1.0  0.659
  C  C349  1  0.932600  0.600700  0.164400  1.0  -0.1764
  C  C350  1  0.000700  0.581290  0.221200  1.0  -0.1743
  C  C351  1  0.976000  0.565180  0.287900  1.0  0.2532
  C  C352  1  0.882600  0.569120  0.298600  1.0  -0.2833
  C  C353  1  0.816200  0.589360  0.242000  1.0  -0.1055
  C  C354  1  0.839500  0.604810  0.175700  1.0  -0.0675
  C  C355  1  0.957800  0.617240  0.091900  1.0  0.6531
  C  C356  1  0.439100  0.252570  0.473000  1.0  0.6403
  C  C357  1  0.864100  0.724930  0.867900  1.0  0.1855
  C  C358  1  0.792500  0.740330  0.809200  1.0  -0.1184
  C  C359  1  0.741400  0.709100  0.763000  1.0  -0.0315
  C  C360  1  0.759600  0.660430  0.773400  1.0  0.0145
  C  C361  1  0.832400  0.647890  0.833400  1.0  0.1539
  C  C362  1  0.855200  0.599200  0.847500  1.0  0.1304
  C  C363  1  0.803000  0.564450  0.801900  1.0  0.0253
  C  C364  1  0.728100  0.578800  0.742500  1.0  -0.0835
  C  C365  1  0.707400  0.623800  0.729400  1.0  -0.0778
  C  C366  1  0.829700  0.517460  0.819500  1.0  -0.029
  C  C367  1  0.902100  0.507580  0.876500  1.0  -0.1261
  C  C368  1  0.950100  0.544320  0.918900  1.0  0.1945
  C  C369  1  0.266400  0.537410  0.007300  1.0  0.1869
  C  C370  1  0.257200  0.494200  0.968600  1.0  -0.115
  C  C371  1  0.322200  0.481500  0.926700  1.0  -0.0068
  C  C372  1  0.396700  0.511070  0.922000  1.0  -0.0345
  C  C373  1  0.401400  0.553860  0.962200  1.0  0.1511
  C  C374  1  0.475900  0.586630  0.959000  1.0  0.1616
  C  C375  1  0.545500  0.575200  0.915900  1.0  0.0029
  C  C376  1  0.539400  0.531700  0.876600  1.0  -0.1502
  C  C377  1  0.471400  0.501500  0.879400  1.0  -0.097
  C  C378  1  0.545100  0.656900  0.995900  1.0  0.1828
  C  C379  1  0.617000  0.648600  0.955200  1.0  -0.1488
  C  C380  1  0.616700  0.608000  0.915900  1.0  -0.0082
  C  C381  1  0.738000  0.964180  0.074700  1.0  -0.0466
  C  C382  1  0.775300  0.008890  0.068700  1.0  -0.0699
  C  C383  1  0.734800  0.038820  0.009100  1.0  -0.1121
  C  C384  1  0.653800  0.025110  0.958200  1.0  -0.0485
  C  C385  1  0.613200  0.980760  0.966700  1.0  -0.0939
  C  C386  1  0.656700  0.949960  0.023600  1.0  -0.082
  C  C387  1  0.788200  0.930320  0.133200  1.0  0.0838
  C  C388  1  0.858900  0.025760  0.126100  1.0  0.0811
  C  C389  1  0.784300  0.085380  0.001300  1.0  0.0643
  C  C390  1  0.610100  0.057060  0.893700  1.0  0.062
  C  C391  1  0.524800  0.966070  0.912700  1.0  0.0447
  C  C392  1  0.618500  0.901000  0.028600  1.0  0.0817
  C  C393  1  0.772200  0.898200  0.252800  1.0  0.2767
  C  C394  1  0.850700  0.870010  0.254400  1.0  -0.2703
  C  C395  1  0.874600  0.838180  0.313200  1.0  -0.0878
  C  C396  1  0.821700  0.833900  0.370100  1.0  -0.095
  C  C397  1  0.744100  0.862770  0.369200  1.0  -0.1101
  C  C398  1  0.719200  0.894980  0.310000  1.0  -0.1455
  C  C399  1  0.687600  0.858830  0.431100  1.0  0.6906
  C  C400  1  0.025600  0.033760  0.133600  1.0  0.2532
  C  C401  1  0.100100  0.029540  0.095900  1.0  -0.1414
  C  C402  1  0.186700  0.049700  0.127200  1.0  -0.0906
  C  C403  1  0.198600  0.072440  0.195800  1.0  -0.0453
  C  C404  1  0.125000  0.075630  0.234000  1.0  -0.1647
  C  C405  1  0.038000  0.056300  0.202500  1.0  -0.1448
  C  C406  1  0.138200  0.098790  0.310800  1.0  0.6459
  C  C407  1  0.805100  0.158580  0.068900  1.0  0.279
  C  C408  1  0.796100  0.182040  0.134800  1.0  -0.2018
  C  C409  1  0.836200  0.225830  0.148900  1.0  -0.0937
  C  C410  1  0.883600  0.246570  0.097400  1.0  -0.0756
  C  C411  1  0.891200  0.223680  0.031300  1.0  -0.1251
  C  C412  1  0.854100  0.179040  0.016800  1.0  -0.1658
  C  C413  1  0.575100  0.139870  0.877000  1.0  0.2763
  C  C414  1  0.620000  0.181760  0.900500  1.0  -0.1414
  C  C415  1  0.593200  0.222880  0.861000  1.0  -0.0511
  C  C416  1  0.524300  0.220860  0.796800  1.0  -0.104
  C  C417  1  0.483000  0.178700  0.772400  1.0  -0.0791
  C  C418  1  0.507900  0.138040  0.812000  1.0  -0.2281
  C  C419  1  0.644200  0.268470  0.886200  1.0  0.7038
  C  C420  1  0.532500  0.800460  0.814400  1.0  -0.1871
  C  C421  1  0.593800  0.831720  0.857100  1.0  -0.1521
  C  C422  1  0.584100  0.842580  0.930700  1.0  0.2334
  C  C423  1  0.513500  0.821190  0.961600  1.0  -0.2458
  C  C424  1  0.452100  0.790570  0.918900  1.0  -0.0888
  C  C425  1  0.459500  0.780890  0.845000  1.0  -0.0545
  C  C426  1  0.547800  0.789360  0.736800  1.0  0.6592
  C  C427  1  0.432600  0.899300  0.664400  1.0  -0.177
  C  C428  1  0.500700  0.918710  0.721200  1.0  -0.1737
  C  C429  1  0.476000  0.934820  0.787900  1.0  0.2528
  C  C430  1  0.382600  0.930880  0.798600  1.0  -0.2836
  C  C431  1  0.316200  0.910640  0.742000  1.0  -0.1056
  C  C432  1  0.339500  0.895190  0.675700  1.0  -0.0687
  C  C433  1  0.457800  0.882760  0.591900  1.0  0.6528
  C  C434  1  0.939100  0.247430  0.973000  1.0  0.64
  C  C435  1  0.364100  0.775070  0.367900  1.0  0.1873
  C  C436  1  0.292500  0.759670  0.309200  1.0  -0.118
  C  C437  1  0.241400  0.790900  0.263000  1.0  -0.0315
  C  C438  1  0.259600  0.839570  0.273400  1.0  0.0141
  C  C439  1  0.332400  0.852110  0.333400  1.0  0.1538
  C  C440  1  0.355200  0.900800  0.347500  1.0  0.1304
  C  C441  1  0.303000  0.935550  0.301900  1.0  0.0256
  C  C442  1  0.228100  0.921200  0.242500  1.0  -0.0834
  C  C443  1  0.207400  0.876200  0.229400  1.0  -0.0786
  C  C444  1  0.329700  0.982540  0.319500  1.0  -0.0293
  C  C445  1  0.402100  0.992420  0.376500  1.0  -0.1259
  C  C446  1  0.450100  0.955680  0.418900  1.0  0.1944
  C  C447  1  0.766400  0.962590  0.507300  1.0  0.1871
  C  C448  1  0.757200  0.005800  0.468600  1.0  -0.1155
  C  C449  1  0.822200  0.018500  0.426700  1.0  -0.0075
  C  C450  1  0.896700  0.988930  0.422000  1.0  -0.0347
  C  C451  1  0.901400  0.946140  0.462200  1.0  0.1508
  C  C452  1  0.975900  0.913370  0.459000  1.0  0.1619
  C  C453  1  0.045500  0.924800  0.415900  1.0  0.0029
  C  C454  1  0.039400  0.968300  0.376600  1.0  -0.1502
  C  C455  1  0.971400  0.998500  0.379400  1.0  -0.0977
  C  C456  1  0.045100  0.843100  0.495900  1.0  0.184
  C  C457  1  0.117000  0.851400  0.455200  1.0  -0.1495
  C  C458  1  0.116700  0.892000  0.415900  1.0  -0.0088
  C  C459  1  0.762000  0.464180  0.425300  1.0  -0.0463
  C  C460  1  0.724700  0.508890  0.431300  1.0  -0.0695
  C  C461  1  0.765200  0.538820  0.490900  1.0  -0.1114
  C  C462  1  0.846200  0.525110  0.541800  1.0  -0.0469
  C  C463  1  0.886800  0.480760  0.533300  1.0  -0.0955
  C  C464  1  0.843300  0.449960  0.476400  1.0  -0.0816
  C  C465  1  0.711800  0.430320  0.366800  1.0  0.0835
  C  C466  1  0.641100  0.525760  0.373900  1.0  0.0797
  C  C467  1  0.715700  0.585380  0.498700  1.0  0.0668
  C  C468  1  0.889900  0.557060  0.606300  1.0  0.0643
  C  C469  1  0.975200  0.466070  0.587300  1.0  0.0471
  C  C470  1  0.881500  0.401000  0.471400  1.0  0.0825
  C  C471  1  0.727800  0.398200  0.247200  1.0  0.2768
  C  C472  1  0.649300  0.370010  0.245600  1.0  -0.2701
  C  C473  1  0.625400  0.338180  0.186800  1.0  -0.0854
  C  C474  1  0.678300  0.333900  0.129900  1.0  -0.0928
  C  C475  1  0.755900  0.362770  0.130800  1.0  -0.1105
  C  C476  1  0.780800  0.394980  0.190000  1.0  -0.1465
  C  C477  1  0.812400  0.358830  0.068900  1.0  0.6921
  C  C478  1  0.474400  0.533760  0.366400  1.0  0.2542
  C  C479  1  0.399900  0.529540  0.404100  1.0  -0.1399
  C  C480  1  0.313300  0.549700  0.372800  1.0  -0.0912
  C  C481  1  0.301400  0.572440  0.304200  1.0  -0.0447
  C  C482  1  0.375000  0.575630  0.266000  1.0  -0.1652
  C  C483  1  0.462000  0.556300  0.297500  1.0  -0.1433
  C  C484  1  0.361800  0.598790  0.189200  1.0  0.6457
  C  C485  1  0.694900  0.658580  0.431100  1.0  0.2788
  C  C486  1  0.703900  0.682040  0.365200  1.0  -0.2019
  C  C487  1  0.663800  0.725830  0.351100  1.0  -0.0951
  C  C488  1  0.616400  0.746570  0.402600  1.0  -0.0756
  C  C489  1  0.608800  0.723680  0.468700  1.0  -0.1249
  C  C490  1  0.645900  0.679040  0.483200  1.0  -0.1645
  C  C491  1  0.924900  0.639870  0.623000  1.0  0.2764
  C  C492  1  0.880000  0.681760  0.599500  1.0  -0.1412
  C  C493  1  0.906800  0.722880  0.639000  1.0  -0.051
  C  C494  1  0.975700  0.720860  0.703200  1.0  -0.1045
  C  C495  1  0.017000  0.678700  0.727600  1.0  -0.0803
  C  C496  1  0.992100  0.638040  0.688000  1.0  -0.2285
  C  C497  1  0.855800  0.768470  0.613800  1.0  0.7029
  C  C498  1  0.967500  0.300460  0.685600  1.0  -0.1869
  C  C499  1  0.906200  0.331720  0.642900  1.0  -0.1515
  C  C500  1  0.915900  0.342580  0.569300  1.0  0.2327
  C  C501  1  0.986500  0.321190  0.538400  1.0  -0.2425
  C  C502  1  0.047900  0.290570  0.581100  1.0  -0.0898
  C  C503  1  0.040500  0.280890  0.655000  1.0  -0.0541
  C  C504  1  0.952200  0.289360  0.763200  1.0  0.6596
  C  C505  1  0.067400  0.399300  0.835600  1.0  -0.1757
  C  C506  1  0.999300  0.418710  0.778800  1.0  -0.1718
  C  C507  1  0.024000  0.434820  0.712100  1.0  0.2532
  C  C508  1  0.117400  0.430880  0.701400  1.0  -0.2823
  C  C509  1  0.183800  0.410640  0.758000  1.0  -0.1043
  C  C510  1  0.160500  0.395190  0.824300  1.0  -0.067
  C  C511  1  0.042200  0.382760  0.908100  1.0  0.6542
  C  C512  1  0.560900  0.747430  0.527000  1.0  0.6388
  C  C513  1  0.135900  0.275070  0.132100  1.0  0.1859
  C  C514  1  0.207500  0.259670  0.190800  1.0  -0.1178
  C  C515  1  0.258600  0.290900  0.237000  1.0  -0.0323
  C  C516  1  0.240400  0.339570  0.226600  1.0  0.0145
  C  C517  1  0.167600  0.352110  0.166600  1.0  0.1549
  C  C518  1  0.144800  0.400800  0.152500  1.0  0.1313
  C  C519  1  0.197000  0.435550  0.198100  1.0  0.0253
  C  C520  1  0.271900  0.421200  0.257500  1.0  -0.0868
  C  C521  1  0.292600  0.376200  0.270600  1.0  -0.0782
  C  C522  1  0.170300  0.482540  0.180500  1.0  -0.0302
  C  C523  1  0.097900  0.492420  0.123500  1.0  -0.126
  C  C524  1  0.049900  0.455680  0.081100  1.0  0.1946
  C  C525  1  0.733600  0.462590  0.992700  1.0  0.1861
  C  C526  1  0.742800  0.505800  0.031400  1.0  -0.114
  C  C527  1  0.677800  0.518500  0.073300  1.0  -0.0077
  C  C528  1  0.603300  0.488930  0.078000  1.0  -0.0358
  C  C529  1  0.598600  0.446140  0.037800  1.0  0.1509
  C  C530  1  0.524100  0.413370  0.041000  1.0  0.162
  C  C531  1  0.454500  0.424800  0.084100  1.0  0.0029
  C  C532  1  0.460600  0.468300  0.123400  1.0  -0.15
  C  C533  1  0.528600  0.498500  0.120600  1.0  -0.0965
  C  C534  1  0.454900  0.343100  0.004100  1.0  0.1848
  C  C535  1  0.383000  0.351400  0.044800  1.0  -0.1518
  C  C536  1  0.383300  0.392000  0.084100  1.0  -0.0079
  N  N537  1  0.572400  0.089100  0.594730  1.0  -0.3287
  N  N538  1  0.615200  0.179660  0.620200  1.0  -0.3408
  N  N539  1  0.163800  0.066510  0.495300  1.0  -0.3686
  N  N540  1  0.023900  0.126860  0.501600  1.0  -0.3252
  N  N541  1  0.927600  0.589100  0.905270  1.0  -0.3278
  N  N542  1  0.884800  0.679660  0.879800  1.0  -0.3402
  N  N543  1  0.336200  0.566510  0.004700  1.0  -0.369
  N  N544  1  0.476100  0.626860  0.998400  1.0  -0.3257
  N  N545  1  0.427600  0.910900  0.405270  1.0  -0.3269
  N  N546  1  0.384800  0.820340  0.379800  1.0  -0.3397
  N  N547  1  0.836200  0.933490  0.504700  1.0  -0.3696
  N  N548  1  0.976100  0.873140  0.498400  1.0  -0.3261
  N  N549  1  0.072400  0.410900  0.094730  1.0  -0.3287
  N  N550  1  0.115200  0.320340  0.120200  1.0  -0.3389
  N  N551  1  0.663800  0.433490  0.995300  1.0  -0.3695
  N  N552  1  0.523900  0.373140  0.001600  1.0  -0.3252
  O  O553  1  0.057790  0.986090  0.902580  1.0  -0.2685
  O  O554  1  0.239700  0.884120  0.941110  1.0  -0.2658
  O  O555  1  0.403600  0.898080  0.073850  1.0  -0.2771
  O  O556  1  0.452170  0.046420  0.159280  1.0  -0.2647
  O  O557  1  0.354400  0.124760  0.032360  1.0  -0.3039
  O  O558  1  0.260100  0.069560  0.803400  1.0  -0.2527
  O  O559  1  0.932500  0.898970  0.656670  1.0  -0.5742
  O  O560  1  0.783700  0.886630  0.658050  1.0  -0.6075
  O  O561  1  0.460550  0.110730  0.423210  1.0  -0.6406
  O  O562  1  0.605090  0.137980  0.455810  1.0  -0.5725
  O  O563  1  0.391100  0.191420  0.290120  1.0  -0.585
  O  O564  1  0.507200  0.243470  0.298000  1.0  -0.5152
  O  O565  1  0.044500  0.777090  0.081840  1.0  -0.6137
  O  O566  1  0.041100  0.709890  0.019950  1.0  -0.6779
  O  O567  1  0.400830  0.134920  0.587630  1.0  -0.5992
  O  O568  1  0.271300  0.150670  0.502680  1.0  -0.6297
  O  O569  1  0.271200  0.728980  0.115100  1.0  -0.6276
  O  O570  1  0.405000  0.699760  0.091420  1.0  -0.6001
  O  O571  1  0.442210  0.486090  0.597420  1.0  -0.2695
  O  O572  1  0.260300  0.384120  0.558890  1.0  -0.2659
  O  O573  1  0.096400  0.398080  0.426150  1.0  -0.2756
  O  O574  1  0.047830  0.546420  0.340720  1.0  -0.2635
  O  O575  1  0.145600  0.624760  0.467640  1.0  -0.3052
  O  O576  1  0.239900  0.569560  0.696600  1.0  -0.2538
  O  O577  1  0.567500  0.398970  0.843330  1.0  -0.5754
  O  O578  1  0.716300  0.386630  0.841950  1.0  -0.6083
  O  O579  1  0.039450  0.610730  0.076790  1.0  -0.6414
  O  O580  1  0.894910  0.637980  0.044190  1.0  -0.5733
  O  O581  1  0.108900  0.691420  0.209880  1.0  -0.5842
  O  O582  1  0.992800  0.743470  0.202000  1.0  -0.5143
  O  O583  1  0.455500  0.277090  0.418160  1.0  -0.6156
  O  O584  1  0.458900  0.209890  0.480050  1.0  -0.6794
  O  O585  1  0.099170  0.634920  0.912370  1.0  -0.6
  O  O586  1  0.228700  0.650670  0.997320  1.0  -0.6294
  O  O587  1  0.228800  0.228980  0.384900  1.0  -0.6285
  O  O588  1  0.095000  0.199760  0.408580  1.0  -0.6015
  O  O589  1  0.942210  0.013910  0.097420  1.0  -0.2688
  O  O590  1  0.760300  0.115880  0.058890  1.0  -0.266
  O  O591  1  0.596400  0.101920  0.926150  1.0  -0.2752
  O  O592  1  0.547830  0.953580  0.840720  1.0  -0.2632
  O  O593  1  0.645600  0.875240  0.967640  1.0  -0.3045
  O  O594  1  0.739900  0.930440  0.196600  1.0  -0.2528
  O  O595  1  0.067500  0.101030  0.343330  1.0  -0.5755
  O  O596  1  0.216300  0.113370  0.341950  1.0  -0.6081
  O  O597  1  0.539450  0.889270  0.576790  1.0  -0.6415
  O  O598  1  0.394910  0.862020  0.544190  1.0  -0.5734
  O  O599  1  0.608900  0.808580  0.709880  1.0  -0.5843
  O  O600  1  0.492800  0.756530  0.702000  1.0  -0.5146
  O  O601  1  0.955500  0.222910  0.918160  1.0  -0.6145
  O  O602  1  0.958900  0.290110  0.980050  1.0  -0.6783
  O  O603  1  0.599170  0.865080  0.412370  1.0  -0.5997
  O  O604  1  0.728700  0.849330  0.497320  1.0  -0.6296
  O  O605  1  0.728800  0.271020  0.884900  1.0  -0.6279
  O  O606  1  0.595000  0.300240  0.908580  1.0  -0.6018
  O  O607  1  0.557790  0.513910  0.402580  1.0  -0.2683
  O  O608  1  0.739700  0.615880  0.441110  1.0  -0.2658
  O  O609  1  0.903600  0.601920  0.573850  1.0  -0.2759
  O  O610  1  0.952170  0.453580  0.659280  1.0  -0.2648
  O  O611  1  0.854400  0.375240  0.532360  1.0  -0.3051
  O  O612  1  0.760100  0.430440  0.303400  1.0  -0.2518
  O  O613  1  0.432500  0.601030  0.156670  1.0  -0.5747
  O  O614  1  0.283700  0.613370  0.158050  1.0  -0.6073
  O  O615  1  0.960550  0.389270  0.923210  1.0  -0.6404
  O  O616  1  0.105090  0.362020  0.955810  1.0  -0.5736
  O  O617  1  0.891100  0.308580  0.790120  1.0  -0.5848
  O  O618  1  0.007200  0.256530  0.798000  1.0  -0.5154
  O  O619  1  0.544500  0.722910  0.581840  1.0  -0.6112
  O  O620  1  0.541100  0.790110  0.519950  1.0  -0.678
  O  O621  1  0.900830  0.365080  0.087630  1.0  -0.5993
  O  O622  1  0.771300  0.349330  0.002680  1.0  -0.6302
  O  O623  1  0.771200  0.771020  0.615100  1.0  -0.6272
  O  O624  1  0.905000  0.800240  0.591420  1.0  -0.6002
