# generated using pymatgen
data_CaZnH6C16O9
_symmetry_space_group_name_H-M   'P 1'
_cell_length_a   11.15770000
_cell_length_b   17.49450000
_cell_length_c   13.04190000
_cell_angle_alpha   90.00000000
_cell_angle_beta   102.31600000
_cell_angle_gamma   90.00000000
_symmetry_Int_Tables_number   1
_chemical_formula_structural   CaZnH6C16O9
_chemical_formula_sum   'Ca4 Zn4 H24 C64 O36'
_cell_volume   2487.16983672
_cell_formula_units_Z   4
loop_
 _symmetry_equiv_pos_site_id
 _symmetry_equiv_pos_as_xyz
  1  'x, y, z'
loop_
 _atom_site_type_symbol
 _atom_site_label
 _atom_site_symmetry_multiplicity
 _atom_site_fract_x
 _atom_site_fract_y
 _atom_site_fract_z
 _atom_site_occupancy
 _atom_site_charge
  Ca  Ca1  1  0.446250  0.131790  0.574410  1.0  1.629
  Ca  Ca2  1  0.053750  0.631790  0.925590  1.0  1.6303
  Ca  Ca3  1  0.553750  0.868210  0.425590  1.0  1.6295
  Ca  Ca4  1  0.946250  0.368210  0.074410  1.0  1.6284
  Zn  Zn5  1  0.368020  0.940080  0.645360  1.0  1.0179
  Zn  Zn6  1  0.131980  0.440080  0.854640  1.0  1.0179
  Zn  Zn7  1  0.631980  0.059920  0.354640  1.0  1.0182
  Zn  Zn8  1  0.868020  0.559920  0.145360  1.0  1.0181
  H  H9  1  0.788800  0.796600  0.216900  1.0  0.1047
  H  H10  1  0.831200  0.811900  0.919000  1.0  0.1125
  H  H11  1  0.710100  0.992700  0.057600  1.0  0.116
  H  H12  1  0.997000  0.984600  0.609600  1.0  0.0959
  H  H13  1  0.092700  0.950000  0.777500  1.0  0.0906
  H  H14  1  0.980100  0.931700  0.905400  1.0  0.1112
  H  H15  1  0.711200  0.296600  0.283100  1.0  0.1049
  H  H16  1  0.668800  0.311900  0.581000  1.0  0.1125
  H  H17  1  0.789900  0.492700  0.442400  1.0  0.1154
  H  H18  1  0.503000  0.484600  0.890400  1.0  0.0959
  H  H19  1  0.407300  0.450000  0.722500  1.0  0.0909
  H  H20  1  0.519900  0.431700  0.594600  1.0  0.1117
  H  H21  1  0.211200  0.203400  0.783100  1.0  0.1045
  H  H22  1  0.168800  0.188100  0.081000  1.0  0.1123
  H  H23  1  0.289900  0.007300  0.942400  1.0  0.1157
  H  H24  1  0.003000  0.015400  0.390400  1.0  0.096
  H  H25  1  0.907300  0.050000  0.222500  1.0  0.0906
  H  H26  1  0.019900  0.068300  0.094600  1.0  0.1116
  H  H27  1  0.288800  0.703400  0.716900  1.0  0.1045
  H  H28  1  0.331200  0.688100  0.419000  1.0  0.1118
  H  H29  1  0.210100  0.507300  0.557600  1.0  0.1157
  H  H30  1  0.497000  0.515400  0.109600  1.0  0.0961
  H  H31  1  0.592700  0.550000  0.277500  1.0  0.0905
  H  H32  1  0.480100  0.568300  0.405400  1.0  0.111
  C  C33  1  0.745000  0.900370  0.152300  1.0  -0.1593
  C  C34  1  0.784100  0.824970  0.155900  1.0  0.0394
  C  C35  1  0.816200  0.791540  0.069100  1.0  -0.156
  C  C36  1  0.808600  0.833600  0.977200  1.0  -0.1094
  C  C37  1  0.766900  0.908300  0.974100  1.0  0.2808
  C  C38  1  0.736300  0.942150  0.060700  1.0  -0.0882
  C  C39  1  0.705000  0.935580  0.245200  1.0  0.6868
  C  C40  1  0.854200  0.708500  0.073100  1.0  0.7579
  C  C41  1  0.814900  0.952950  0.811100  1.0  0.2595
  C  C42  1  0.754400  0.971970  0.710000  1.0  -0.0986
  C  C43  1  0.823700  0.983700  0.633800  1.0  -0.1211
  C  C44  1  0.950800  0.976100  0.660000  1.0  -0.0914
  C  C45  1  0.008000  0.956000  0.760800  1.0  -0.1141
  C  C46  1  0.940900  0.944700  0.837400  1.0  -0.2223
  C  C47  1  0.618000  0.986010  0.687500  1.0  0.7067
  C  C48  1  0.762100  0.008900  0.525200  1.0  0.6527
  C  C49  1  0.755000  0.400370  0.347700  1.0  -0.1591
  C  C50  1  0.715900  0.324970  0.344100  1.0  0.0399
  C  C51  1  0.683800  0.291540  0.430900  1.0  -0.1562
  C  C52  1  0.691400  0.333600  0.522800  1.0  -0.1109
  C  C53  1  0.733100  0.408300  0.525900  1.0  0.2796
  C  C54  1  0.763700  0.442150  0.439300  1.0  -0.089
  C  C55  1  0.795000  0.435580  0.254800  1.0  0.6881
  C  C56  1  0.645800  0.208500  0.426900  1.0  0.7588
  C  C57  1  0.685100  0.452950  0.688900  1.0  0.2596
  C  C58  1  0.745600  0.471970  0.790000  1.0  -0.099
  C  C59  1  0.676300  0.483700  0.866200  1.0  -0.1222
  C  C60  1  0.549200  0.476100  0.840000  1.0  -0.0917
  C  C61  1  0.492000  0.456000  0.739200  1.0  -0.1167
  C  C62  1  0.559100  0.444700  0.662600  1.0  -0.223
  C  C63  1  0.882000  0.486010  0.812500  1.0  0.7071
  C  C64  1  0.737900  0.508900  0.974800  1.0  0.6537
  C  C65  1  0.255000  0.099630  0.847700  1.0  -0.1592
  C  C66  1  0.215900  0.175030  0.844100  1.0  0.0399
  C  C67  1  0.183800  0.208460  0.930900  1.0  -0.1559
  C  C68  1  0.191400  0.166400  0.022800  1.0  -0.1112
  C  C69  1  0.233100  0.091700  0.025900  1.0  0.2799
  C  C70  1  0.263700  0.057850  0.939300  1.0  -0.0867
  C  C71  1  0.295000  0.064420  0.754800  1.0  0.6885
  C  C72  1  0.145800  0.291500  0.926900  1.0  0.7583
  C  C73  1  0.185100  0.047050  0.188900  1.0  0.2594
  C  C74  1  0.245600  0.028030  0.290000  1.0  -0.0988
  C  C75  1  0.176300  0.016300  0.366200  1.0  -0.1223
  C  C76  1  0.049200  0.023900  0.340000  1.0  -0.0917
  C  C77  1  0.992000  0.044000  0.239200  1.0  -0.1172
  C  C78  1  0.059100  0.055300  0.162600  1.0  -0.2231
  C  C79  1  0.382000  0.013990  0.312500  1.0  0.707
  C  C80  1  0.237900  0.991100  0.474800  1.0  0.6536
  C  C81  1  0.245000  0.599630  0.652300  1.0  -0.1591
  C  C82  1  0.284100  0.675030  0.655900  1.0  0.0394
  C  C83  1  0.316200  0.708460  0.569100  1.0  -0.1561
  C  C84  1  0.308600  0.666400  0.477200  1.0  -0.1093
  C  C85  1  0.266900  0.591700  0.474100  1.0  0.2808
  C  C86  1  0.236300  0.557850  0.560700  1.0  -0.0866
  C  C87  1  0.205000  0.564420  0.745200  1.0  0.6868
  C  C88  1  0.354200  0.791500  0.573100  1.0  0.7575
  C  C89  1  0.314900  0.547050  0.311100  1.0  0.2593
  C  C90  1  0.254400  0.528030  0.210000  1.0  -0.0985
  C  C91  1  0.323700  0.516300  0.133800  1.0  -0.121
  C  C92  1  0.450800  0.523900  0.160000  1.0  -0.0909
  C  C93  1  0.508000  0.544000  0.260800  1.0  -0.1146
  C  C94  1  0.440900  0.555300  0.337400  1.0  -0.223
  C  C95  1  0.118000  0.513990  0.187500  1.0  0.7067
  C  C96  1  0.262100  0.491100  0.025200  1.0  0.6527
  O  O97  1  0.681300  0.006620  0.238600  1.0  -0.6091
  O  O98  1  0.696700  0.893510  0.320340  1.0  -0.7385
  O  O99  1  0.835400  0.670820  0.150810  1.0  -0.5793
  O  O100  1  0.898700  0.681690  0.000800  1.0  -0.7448
  O  O101  1  0.740900  0.952170  0.883400  1.0  -0.3065
  O  O102  1  0.818600  0.047450  0.472400  1.0  -0.5903
  O  O103  1  0.649900  0.990840  0.491320  1.0  -0.6668
  O  O104  1  0.582100  0.053020  0.684060  1.0  -0.6903
  O  O105  1  0.549500  0.928220  0.675100  1.0  -0.5734
  O  O106  1  0.818700  0.506620  0.261400  1.0  -0.6088
  O  O107  1  0.803300  0.393510  0.179660  1.0  -0.7365
  O  O108  1  0.664600  0.170820  0.349190  1.0  -0.58
  O  O109  1  0.601300  0.181690  0.499200  1.0  -0.7469
  O  O110  1  0.759100  0.452170  0.616600  1.0  -0.3097
  O  O111  1  0.681400  0.547450  0.027600  1.0  -0.5902
  O  O112  1  0.850100  0.490840  0.008680  1.0  -0.6676
  O  O113  1  0.917900  0.553020  0.815940  1.0  -0.6902
  O  O114  1  0.950500  0.428220  0.824900  1.0  -0.5733
  O  O115  1  0.318700  0.993380  0.761400  1.0  -0.6074
  O  O116  1  0.303300  0.106490  0.679660  1.0  -0.7362
  O  O117  1  0.164600  0.329180  0.849190  1.0  -0.5794
  O  O118  1  0.101300  0.318310  0.999200  1.0  -0.7464
  O  O119  1  0.259100  0.047830  0.116600  1.0  -0.3088
  O  O120  1  0.181400  0.952550  0.527600  1.0  -0.5908
  O  O121  1  0.350100  0.009160  0.508680  1.0  -0.6677
  O  O122  1  0.417900  0.946980  0.315940  1.0  -0.6888
  O  O123  1  0.450500  0.071780  0.324900  1.0  -0.5738
  O  O124  1  0.181300  0.493380  0.738600  1.0  -0.6079
  O  O125  1  0.196700  0.606490  0.820340  1.0  -0.7393
  O  O126  1  0.335400  0.829180  0.650810  1.0  -0.579
  O  O127  1  0.398700  0.818310  0.500800  1.0  -0.7445
  O  O128  1  0.240900  0.547830  0.383400  1.0  -0.307
  O  O129  1  0.318600  0.452550  0.972400  1.0  -0.5915
  O  O130  1  0.149900  0.509160  0.991320  1.0  -0.6664
  O  O131  1  0.082100  0.446980  0.184060  1.0  -0.6885
  O  O132  1  0.049500  0.571780  0.175100  1.0  -0.5729
