# generated using pymatgen
data_NaZnH6C16O9
_symmetry_space_group_name_H-M   'P 1'
_cell_length_a   15.11530000
_cell_length_b   14.87860000
_cell_length_c   21.86130000
_cell_angle_alpha   90.00000000
_cell_angle_beta   90.89500000
_cell_angle_gamma   90.00000000
_symmetry_Int_Tables_number   1
_chemical_formula_structural   NaZnH6C16O9
_chemical_formula_sum   'Na8 Zn8 H48 C128 O72'
_cell_volume   4915.88637497
_cell_formula_units_Z   8
loop_
 _symmetry_equiv_pos_site_id
 _symmetry_equiv_pos_as_xyz
  1  'x, y, z'
loop_
 _atom_site_type_symbol
 _atom_site_label
 _atom_site_symmetry_multiplicity
 _atom_site_fract_x
 _atom_site_fract_y
 _atom_site_fract_z
 _atom_site_occupancy
 _atom_site_charge
  Na  Na1  1  0.252830  0.373080  0.517870  1.0  0.9463
  Na  Na2  1  0.752830  0.873080  0.517870  1.0  0.9463
  Na  Na3  1  0.747170  0.373080  0.982130  1.0  0.947
  Na  Na4  1  0.247170  0.873080  0.982130  1.0  0.947
  Na  Na5  1  0.747170  0.626920  0.482130  1.0  0.9478
  Na  Na6  1  0.247170  0.126920  0.482130  1.0  0.9478
  Na  Na7  1  0.252830  0.626920  0.017870  1.0  0.9467
  Na  Na8  1  0.752830  0.126920  0.017870  1.0  0.9467
  Zn  Zn9  1  0.273930  0.314870  0.376130  1.0  1.0487
  Zn  Zn10  1  0.773930  0.814870  0.376130  1.0  1.0487
  Zn  Zn11  1  0.726070  0.314870  0.123870  1.0  1.0483
  Zn  Zn12  1  0.226070  0.814870  0.123870  1.0  1.0483
  Zn  Zn13  1  0.726070  0.685130  0.623870  1.0  1.0484
  Zn  Zn14  1  0.226070  0.185130  0.623870  1.0  1.0484
  Zn  Zn15  1  0.273930  0.685130  0.876130  1.0  1.049
  Zn  Zn16  1  0.773930  0.185130  0.876130  1.0  1.049
  H  H17  1  0.545600  0.270900  0.647300  1.0  0.1183
  H  H18  1  0.677800  0.308400  0.604400  1.0  0.1025
  H  H19  1  0.689900  0.316600  0.499300  1.0  0.1401
  H  H20  1  0.625300  0.132100  0.449200  1.0  0.1221
  H  H21  1  0.722600  0.062400  0.286000  1.0  0.1185
  H  H22  1  0.610300  0.304400  0.308200  1.0  0.1375
  H  H23  1  0.045600  0.770900  0.647300  1.0  0.1183
  H  H24  1  0.177800  0.808400  0.604400  1.0  0.1025
  H  H25  1  0.189900  0.816600  0.499300  1.0  0.1401
  H  H26  1  0.125300  0.632100  0.449200  1.0  0.1221
  H  H27  1  0.222600  0.562400  0.286000  1.0  0.1185
  H  H28  1  0.110300  0.804400  0.308200  1.0  0.1375
  H  H29  1  0.454400  0.270900  0.852700  1.0  0.1179
  H  H30  1  0.322200  0.308400  0.895600  1.0  0.1025
  H  H31  1  0.310100  0.316600  0.000700  1.0  0.1397
  H  H32  1  0.374700  0.132100  0.050800  1.0  0.1219
  H  H33  1  0.277400  0.062400  0.214000  1.0  0.1186
  H  H34  1  0.389700  0.304400  0.191800  1.0  0.1378
  H  H35  1  0.954400  0.770900  0.852700  1.0  0.1179
  H  H36  1  0.822200  0.808400  0.895600  1.0  0.1025
  H  H37  1  0.810100  0.816600  0.000700  1.0  0.1397
  H  H38  1  0.874700  0.632100  0.050800  1.0  0.1219
  H  H39  1  0.777400  0.562400  0.214000  1.0  0.1186
  H  H40  1  0.889700  0.804400  0.191800  1.0  0.1378
  H  H41  1  0.454400  0.729100  0.352700  1.0  0.118
  H  H42  1  0.322200  0.691600  0.395600  1.0  0.1026
  H  H43  1  0.310100  0.683400  0.500700  1.0  0.1396
  H  H44  1  0.374700  0.867900  0.550800  1.0  0.1221
  H  H45  1  0.277400  0.937600  0.714000  1.0  0.1182
  H  H46  1  0.389700  0.695600  0.691800  1.0  0.1377
  H  H47  1  0.954400  0.229100  0.352700  1.0  0.118
  H  H48  1  0.822200  0.191600  0.395600  1.0  0.1026
  H  H49  1  0.810100  0.183400  0.500700  1.0  0.1396
  H  H50  1  0.874700  0.367900  0.550800  1.0  0.1221
  H  H51  1  0.777400  0.437600  0.714000  1.0  0.1182
  H  H52  1  0.889700  0.195600  0.691800  1.0  0.1377
  H  H53  1  0.545600  0.729100  0.147300  1.0  0.1181
  H  H54  1  0.677800  0.691600  0.104400  1.0  0.1027
  H  H55  1  0.689900  0.683400  0.999300  1.0  0.1398
  H  H56  1  0.625300  0.867900  0.949200  1.0  0.1222
  H  H57  1  0.722600  0.937600  0.786000  1.0  0.1184
  H  H58  1  0.610300  0.695600  0.808200  1.0  0.1378
  H  H59  1  0.045600  0.229100  0.147300  1.0  0.1181
  H  H60  1  0.177800  0.191600  0.104400  1.0  0.1027
  H  H61  1  0.189900  0.183400  0.999300  1.0  0.1398
  H  H62  1  0.125300  0.367900  0.949200  1.0  0.1222
  H  H63  1  0.222600  0.437600  0.786000  1.0  0.1184
  H  H64  1  0.110300  0.195600  0.808200  1.0  0.1378
  C  C65  1  0.481100  0.265500  0.505090  1.0  -0.067
  C  C66  1  0.474900  0.260000  0.568970  1.0  -0.1343
  C  C67  1  0.549500  0.275300  0.605010  1.0  -0.0375
  C  C68  1  0.628800  0.297000  0.579400  1.0  -0.1032
  C  C69  1  0.636200  0.302000  0.516900  1.0  -0.1605
  C  C70  1  0.562600  0.284900  0.480570  1.0  0.2425
  C  C71  1  0.404400  0.249800  0.461260  1.0  0.6371
  C  C72  1  0.389800  0.235600  0.599980  1.0  0.7
  C  C73  1  0.610700  0.227500  0.384220  1.0  0.2846
  C  C74  1  0.636200  0.145500  0.408480  1.0  -0.1197
  C  C75  1  0.678500  0.082900  0.371340  1.0  -0.1111
  C  C76  1  0.694200  0.104000  0.310760  1.0  0.016
  C  C77  1  0.668300  0.186200  0.286420  1.0  -0.1282
  C  C78  1  0.626900  0.248600  0.323790  1.0  -0.0823
  C  C79  1  0.708000  0.993700  0.397270  1.0  0.7235
  C  C80  1  0.688700  0.208400  0.220650  1.0  0.7068
  C  C81  1  0.981100  0.765500  0.505090  1.0  -0.067
  C  C82  1  0.974900  0.760000  0.568970  1.0  -0.1343
  C  C83  1  0.049500  0.775300  0.605010  1.0  -0.0375
  C  C84  1  0.128800  0.797000  0.579400  1.0  -0.1032
  C  C85  1  0.136200  0.802000  0.516900  1.0  -0.1605
  C  C86  1  0.062600  0.784900  0.480570  1.0  0.2425
  C  C87  1  0.904400  0.749800  0.461260  1.0  0.6371
  C  C88  1  0.889800  0.735600  0.599980  1.0  0.7
  C  C89  1  0.110700  0.727500  0.384220  1.0  0.2846
  C  C90  1  0.136200  0.645500  0.408480  1.0  -0.1197
  C  C91  1  0.178500  0.582900  0.371340  1.0  -0.1111
  C  C92  1  0.194200  0.604000  0.310760  1.0  0.016
  C  C93  1  0.168300  0.686200  0.286420  1.0  -0.1282
  C  C94  1  0.126900  0.748600  0.323790  1.0  -0.0823
  C  C95  1  0.208000  0.493700  0.397270  1.0  0.7235
  C  C96  1  0.188700  0.708400  0.220650  1.0  0.7068
  C  C97  1  0.518900  0.265500  0.994910  1.0  -0.0674
  C  C98  1  0.525100  0.260000  0.931030  1.0  -0.1336
  C  C99  1  0.450500  0.275300  0.894990  1.0  -0.0385
  C  C100  1  0.371200  0.297000  0.920600  1.0  -0.1027
  C  C101  1  0.363800  0.302000  0.983100  1.0  -0.1591
  C  C102  1  0.437400  0.284900  0.019430  1.0  0.2422
  C  C103  1  0.595600  0.249800  0.038740  1.0  0.637
  C  C104  1  0.610200  0.235600  0.900020  1.0  0.7011
  C  C105  1  0.389300  0.227500  0.115780  1.0  0.2836
  C  C106  1  0.363800  0.145500  0.091520  1.0  -0.1189
  C  C107  1  0.321500  0.082900  0.128660  1.0  -0.1109
  C  C108  1  0.305800  0.104000  0.189240  1.0  0.0165
  C  C109  1  0.331700  0.186200  0.213580  1.0  -0.1286
  C  C110  1  0.373100  0.248600  0.176210  1.0  -0.0811
  C  C111  1  0.292000  0.993700  0.102730  1.0  0.7236
  C  C112  1  0.311300  0.208400  0.279350  1.0  0.7078
  C  C113  1  0.018900  0.765500  0.994910  1.0  -0.0674
  C  C114  1  0.025100  0.760000  0.931030  1.0  -0.1336
  C  C115  1  0.950500  0.775300  0.894990  1.0  -0.0385
  C  C116  1  0.871200  0.797000  0.920600  1.0  -0.1027
  C  C117  1  0.863800  0.802000  0.983100  1.0  -0.1591
  C  C118  1  0.937400  0.784900  0.019430  1.0  0.2422
  C  C119  1  0.095600  0.749800  0.038740  1.0  0.637
  C  C120  1  0.110200  0.735600  0.900020  1.0  0.7011
  C  C121  1  0.889300  0.727500  0.115780  1.0  0.2836
  C  C122  1  0.863800  0.645500  0.091520  1.0  -0.1189
  C  C123  1  0.821500  0.582900  0.128660  1.0  -0.1109
  C  C124  1  0.805800  0.604000  0.189240  1.0  0.0165
  C  C125  1  0.831700  0.686200  0.213580  1.0  -0.1286
  C  C126  1  0.873100  0.748600  0.176210  1.0  -0.0811
  C  C127  1  0.792000  0.493700  0.102730  1.0  0.7236
  C  C128  1  0.811300  0.708400  0.279350  1.0  0.7078
  C  C129  1  0.518900  0.734500  0.494910  1.0  -0.0673
  C  C130  1  0.525100  0.740000  0.431030  1.0  -0.1336
  C  C131  1  0.450500  0.724700  0.394990  1.0  -0.0385
  C  C132  1  0.371200  0.703000  0.420600  1.0  -0.1027
  C  C133  1  0.363800  0.698000  0.483100  1.0  -0.1576
  C  C134  1  0.437400  0.715100  0.519430  1.0  0.2416
  C  C135  1  0.595600  0.750200  0.538740  1.0  0.637
  C  C136  1  0.610200  0.764400  0.400020  1.0  0.701
  C  C137  1  0.389300  0.772500  0.615780  1.0  0.2833
  C  C138  1  0.363800  0.854500  0.591520  1.0  -0.1203
  C  C139  1  0.321500  0.917100  0.628660  1.0  -0.1088
  C  C140  1  0.305800  0.896000  0.689240  1.0  0.0161
  C  C141  1  0.331700  0.813800  0.713580  1.0  -0.1285
  C  C142  1  0.373100  0.751400  0.676210  1.0  -0.0821
  C  C143  1  0.292000  0.006300  0.602730  1.0  0.7235
  C  C144  1  0.311300  0.791600  0.779350  1.0  0.7077
  C  C145  1  0.018900  0.234500  0.494910  1.0  -0.0673
  C  C146  1  0.025100  0.240000  0.431030  1.0  -0.1336
  C  C147  1  0.950500  0.224700  0.394990  1.0  -0.0385
  C  C148  1  0.871200  0.203000  0.420600  1.0  -0.1027
  C  C149  1  0.863800  0.198000  0.483100  1.0  -0.1576
  C  C150  1  0.937400  0.215100  0.519430  1.0  0.2416
  C  C151  1  0.095600  0.250200  0.538740  1.0  0.637
  C  C152  1  0.110200  0.264400  0.400020  1.0  0.701
  C  C153  1  0.889300  0.272500  0.615780  1.0  0.2833
  C  C154  1  0.863800  0.354500  0.591520  1.0  -0.1203
  C  C155  1  0.821500  0.417100  0.628660  1.0  -0.1088
  C  C156  1  0.805800  0.396000  0.689240  1.0  0.0161
  C  C157  1  0.831700  0.313800  0.713580  1.0  -0.1285
  C  C158  1  0.873100  0.251400  0.676210  1.0  -0.0821
  C  C159  1  0.792000  0.506300  0.602730  1.0  0.7235
  C  C160  1  0.811300  0.291600  0.779350  1.0  0.7077
  C  C161  1  0.481100  0.734500  0.005090  1.0  -0.0669
  C  C162  1  0.474900  0.740000  0.068970  1.0  -0.1345
  C  C163  1  0.549500  0.724700  0.105010  1.0  -0.0374
  C  C164  1  0.628800  0.703000  0.079400  1.0  -0.103
  C  C165  1  0.636200  0.698000  0.016900  1.0  -0.1598
  C  C166  1  0.562600  0.715100  0.980570  1.0  0.2414
  C  C167  1  0.404400  0.750200  0.961260  1.0  0.6372
  C  C168  1  0.389800  0.764400  0.099980  1.0  0.7001
  C  C169  1  0.610700  0.772500  0.884220  1.0  0.2835
  C  C170  1  0.636200  0.854500  0.908480  1.0  -0.1203
  C  C171  1  0.678500  0.917100  0.871340  1.0  -0.1086
  C  C172  1  0.694200  0.896000  0.810760  1.0  0.0159
  C  C173  1  0.668300  0.813800  0.786420  1.0  -0.1287
  C  C174  1  0.626900  0.751400  0.823790  1.0  -0.0827
  C  C175  1  0.708000  0.006300  0.897270  1.0  0.7234
  C  C176  1  0.688700  0.791600  0.720650  1.0  0.7071
  C  C177  1  0.981100  0.234500  0.005090  1.0  -0.0669
  C  C178  1  0.974900  0.240000  0.068970  1.0  -0.1345
  C  C179  1  0.049500  0.224700  0.105010  1.0  -0.0374
  C  C180  1  0.128800  0.203000  0.079400  1.0  -0.103
  C  C181  1  0.136200  0.198000  0.016900  1.0  -0.1598
  C  C182  1  0.062600  0.215100  0.980570  1.0  0.2414
  C  C183  1  0.904400  0.250200  0.961260  1.0  0.6372
  C  C184  1  0.889800  0.264400  0.099980  1.0  0.7001
  C  C185  1  0.110700  0.272500  0.884220  1.0  0.2835
  C  C186  1  0.136200  0.354500  0.908480  1.0  -0.1203
  C  C187  1  0.178500  0.417100  0.871340  1.0  -0.1086
  C  C188  1  0.194200  0.396000  0.810760  1.0  0.0159
  C  C189  1  0.168300  0.313800  0.786420  1.0  -0.1287
  C  C190  1  0.126900  0.251400  0.823790  1.0  -0.0827
  C  C191  1  0.208000  0.506300  0.897270  1.0  0.7234
  C  C192  1  0.188700  0.291600  0.720650  1.0  0.7071
  O  O193  1  0.386100  0.172840  0.444850  1.0  -0.5538
  O  O194  1  0.365430  0.321830  0.443420  1.0  -0.6473
  O  O195  1  0.317690  0.241740  0.569810  1.0  -0.7669
  O  O196  1  0.392500  0.209500  0.653810  1.0  -0.5515
  O  O197  1  0.567040  0.293370  0.417140  1.0  -0.276
  O  O198  1  0.747780  0.942660  0.360820  1.0  -0.5795
  O  O199  1  0.692500  0.976300  0.451030  1.0  -0.6641
  O  O200  1  0.712500  0.148400  0.185940  1.0  -0.4856
  O  O201  1  0.680000  0.290210  0.205030  1.0  -0.5771
  O  O202  1  0.886100  0.672840  0.444850  1.0  -0.5538
  O  O203  1  0.865430  0.821830  0.443420  1.0  -0.6473
  O  O204  1  0.817690  0.741740  0.569810  1.0  -0.7669
  O  O205  1  0.892500  0.709500  0.653810  1.0  -0.5515
  O  O206  1  0.067040  0.793370  0.417140  1.0  -0.276
  O  O207  1  0.247780  0.442660  0.360820  1.0  -0.5795
  O  O208  1  0.192500  0.476300  0.451030  1.0  -0.6641
  O  O209  1  0.212500  0.648400  0.185940  1.0  -0.4856
  O  O210  1  0.180000  0.790210  0.205030  1.0  -0.5771
  O  O211  1  0.613900  0.172840  0.055150  1.0  -0.5535
  O  O212  1  0.634570  0.321830  0.056580  1.0  -0.6476
  O  O213  1  0.682310  0.241740  0.930190  1.0  -0.7682
  O  O214  1  0.607500  0.209500  0.846190  1.0  -0.5516
  O  O215  1  0.432960  0.293370  0.082860  1.0  -0.2758
  O  O216  1  0.252220  0.942660  0.139180  1.0  -0.5789
  O  O217  1  0.307500  0.976300  0.048970  1.0  -0.6601
  O  O218  1  0.287500  0.148400  0.314060  1.0  -0.4877
  O  O219  1  0.320000  0.290210  0.294970  1.0  -0.5779
  O  O220  1  0.113900  0.672840  0.055150  1.0  -0.5535
  O  O221  1  0.134570  0.821830  0.056580  1.0  -0.6476
  O  O222  1  0.182310  0.741740  0.930190  1.0  -0.7682
  O  O223  1  0.107500  0.709500  0.846190  1.0  -0.5516
  O  O224  1  0.932960  0.793370  0.082860  1.0  -0.2758
  O  O225  1  0.752220  0.442660  0.139180  1.0  -0.5789
  O  O226  1  0.807500  0.476300  0.048970  1.0  -0.6601
  O  O227  1  0.787500  0.648400  0.314060  1.0  -0.4877
  O  O228  1  0.820000  0.790210  0.294970  1.0  -0.5781
  O  O229  1  0.613900  0.827160  0.555150  1.0  -0.5539
  O  O230  1  0.634570  0.678170  0.556580  1.0  -0.6486
  O  O231  1  0.682310  0.758260  0.430190  1.0  -0.7684
  O  O232  1  0.607500  0.790500  0.346190  1.0  -0.5518
  O  O233  1  0.432960  0.706630  0.582860  1.0  -0.2754
  O  O234  1  0.252220  0.057340  0.639180  1.0  -0.5789
  O  O235  1  0.307500  0.023700  0.548970  1.0  -0.6594
  O  O236  1  0.287500  0.851600  0.814060  1.0  -0.4891
  O  O237  1  0.320000  0.709790  0.794970  1.0  -0.5777
  O  O238  1  0.113900  0.327160  0.555150  1.0  -0.5539
  O  O239  1  0.134570  0.178170  0.556580  1.0  -0.6486
  O  O240  1  0.182310  0.258260  0.430190  1.0  -0.7684
  O  O241  1  0.107500  0.290500  0.346190  1.0  -0.5518
  O  O242  1  0.932960  0.206630  0.582860  1.0  -0.2754
  O  O243  1  0.752220  0.557340  0.639180  1.0  -0.5789
  O  O244  1  0.807500  0.523700  0.548970  1.0  -0.6594
  O  O245  1  0.787500  0.351600  0.814060  1.0  -0.4891
  O  O246  1  0.820000  0.209790  0.794970  1.0  -0.5777
  O  O247  1  0.386100  0.827160  0.944850  1.0  -0.5541
  O  O248  1  0.365430  0.678170  0.943420  1.0  -0.6486
  O  O249  1  0.317690  0.758260  0.069810  1.0  -0.7672
  O  O250  1  0.392500  0.790500  0.153810  1.0  -0.5519
  O  O251  1  0.567040  0.706630  0.917140  1.0  -0.2762
  O  O252  1  0.747780  0.057340  0.860820  1.0  -0.5801
  O  O253  1  0.692500  0.023700  0.951030  1.0  -0.6641
  O  O254  1  0.712500  0.851600  0.685940  1.0  -0.4863
  O  O255  1  0.680000  0.709790  0.705030  1.0  -0.5774
  O  O256  1  0.886100  0.327160  0.944850  1.0  -0.5541
  O  O257  1  0.865430  0.178170  0.943420  1.0  -0.6486
  O  O258  1  0.817690  0.258260  0.069810  1.0  -0.7672
  O  O259  1  0.892500  0.290500  0.153810  1.0  -0.5519
  O  O260  1  0.067040  0.206630  0.917140  1.0  -0.2762
  O  O261  1  0.247780  0.557340  0.860820  1.0  -0.5801
  O  O262  1  0.192500  0.523700  0.951030  1.0  -0.6641
  O  O263  1  0.212500  0.351600  0.685940  1.0  -0.4863
  O  O264  1  0.180000  0.209790  0.705030  1.0  -0.5775
