# generated using pymatgen
data_BaZnH6C16O9
_symmetry_space_group_name_H-M   'P 1'
_cell_length_a   12.82100000
_cell_length_b   11.09440000
_cell_length_c   19.20420000
_cell_angle_alpha   90.00000000
_cell_angle_beta   103.32500000
_cell_angle_gamma   90.00000000
_symmetry_Int_Tables_number   1
_chemical_formula_structural   BaZnH6C16O9
_chemical_formula_sum   'Ba4 Zn4 H24 C64 O36'
_cell_volume   2658.09056353
_cell_formula_units_Z   4
loop_
 _symmetry_equiv_pos_site_id
 _symmetry_equiv_pos_as_xyz
  1  'x, y, z'
loop_
 _atom_site_type_symbol
 _atom_site_label
 _atom_site_symmetry_multiplicity
 _atom_site_fract_x
 _atom_site_fract_y
 _atom_site_fract_z
 _atom_site_occupancy
 _atom_site_charge
  Ba  Ba1  1  0.870840  0.957360  0.887320  1.0  1.6184
  Ba  Ba2  1  0.629160  0.457360  0.612680  1.0  1.6183
  Ba  Ba3  1  0.129160  0.042640  0.112680  1.0  1.6186
  Ba  Ba4  1  0.370840  0.542640  0.387320  1.0  1.6188
  Zn  Zn5  1  0.163220  0.820620  0.971690  1.0  1.0277
  Zn  Zn6  1  0.336780  0.320620  0.528310  1.0  1.0274
  Zn  Zn7  1  0.836780  0.179380  0.028310  1.0  1.0274
  Zn  Zn8  1  0.663220  0.679380  0.471690  1.0  1.0278
  H  H9  1  0.940100  0.533700  0.047800  1.0  0.0912
  H  H10  1  0.799800  0.471200  0.095600  1.0  0.0919
  H  H11  1  0.691000  0.612100  0.133900  1.0  0.102
  H  H12  1  0.702400  0.805300  0.261400  1.0  0.1083
  H  H13  1  0.382400  0.783200  0.232600  1.0  0.105
  H  H14  1  0.514500  0.821900  0.063800  1.0  0.1158
  H  H15  1  0.559900  0.033700  0.452200  1.0  0.0911
  H  H16  1  0.700200  0.971200  0.404400  1.0  0.0919
  H  H17  1  0.809000  0.112100  0.366100  1.0  0.1016
  H  H18  1  0.797600  0.305300  0.238600  1.0  0.1092
  H  H19  1  0.117600  0.283200  0.267400  1.0  0.1048
  H  H20  1  0.985500  0.321900  0.436200  1.0  0.1157
  H  H21  1  0.059900  0.466300  0.952200  1.0  0.0909
  H  H22  1  0.200200  0.528800  0.904400  1.0  0.0921
  H  H23  1  0.309000  0.387900  0.866100  1.0  0.1022
  H  H24  1  0.297600  0.194700  0.738600  1.0  0.1091
  H  H25  1  0.617600  0.216800  0.767400  1.0  0.1048
  H  H26  1  0.485500  0.178100  0.936200  1.0  0.1159
  H  H27  1  0.440100  0.966300  0.547800  1.0  0.0909
  H  H28  1  0.299800  0.028800  0.595600  1.0  0.0919
  H  H29  1  0.191000  0.887900  0.633900  1.0  0.1023
  H  H30  1  0.202400  0.694700  0.761400  1.0  0.1083
  H  H31  1  0.882400  0.716800  0.732600  1.0  0.1048
  H  H32  1  0.014500  0.678100  0.563800  1.0  0.1157
  C  C33  1  0.008700  0.749900  0.025650  1.0  0.6713
  C  C34  1  0.915300  0.713400  0.055480  1.0  -0.1315
  C  C35  1  0.896300  0.590400  0.062540  1.0  -0.0687
  C  C36  1  0.812600  0.553100  0.091400  1.0  -0.1039
  C  C37  1  0.747100  0.637400  0.114160  1.0  -0.1554
  C  C38  1  0.766300  0.759600  0.107180  1.0  0.217
  C  C39  1  0.849600  0.798900  0.077040  1.0  -0.0999
  C  C40  1  0.621200  0.820200  0.158980  1.0  0.243
  C  C41  1  0.634300  0.804100  0.231380  1.0  -0.118
  C  C42  1  0.544600  0.786000  0.259400  1.0  -0.1429
  C  C43  1  0.442800  0.789900  0.213770  1.0  0.0143
  C  C44  1  0.430800  0.803700  0.140720  1.0  -0.1527
  C  C45  1  0.521300  0.816200  0.112960  1.0  -0.0906
  C  C46  1  0.555900  0.756500  0.337390  1.0  0.6694
  C  C47  1  0.321100  0.809900  0.091720  1.0  0.7152
  C  C48  1  0.867700  0.934400  0.076300  1.0  0.6884
  C  C49  1  0.491300  0.249900  0.474350  1.0  0.6697
  C  C50  1  0.584700  0.213400  0.444520  1.0  -0.1323
  C  C51  1  0.603700  0.090400  0.437460  1.0  -0.0683
  C  C52  1  0.687400  0.053100  0.408600  1.0  -0.1029
  C  C53  1  0.752900  0.137400  0.385840  1.0  -0.1566
  C  C54  1  0.733700  0.259600  0.392820  1.0  0.2161
  C  C55  1  0.650400  0.298900  0.422960  1.0  -0.1003
  C  C56  1  0.878800  0.320200  0.341020  1.0  0.2436
  C  C57  1  0.865700  0.304100  0.268620  1.0  -0.1191
  C  C58  1  0.955400  0.286000  0.240600  1.0  -0.1433
  C  C59  1  0.057200  0.289900  0.286230  1.0  0.0153
  C  C60  1  0.069200  0.303700  0.359280  1.0  -0.1518
  C  C61  1  0.978700  0.316200  0.387040  1.0  -0.0896
  C  C62  1  0.944100  0.256500  0.162610  1.0  0.6691
  C  C63  1  0.178900  0.309900  0.408280  1.0  0.7142
  C  C64  1  0.632300  0.434400  0.423700  1.0  0.6888
  C  C65  1  0.991300  0.250100  0.974350  1.0  0.6694
  C  C66  1  0.084700  0.286600  0.944520  1.0  -0.1324
  C  C67  1  0.103700  0.409600  0.937460  1.0  -0.0695
  C  C68  1  0.187400  0.446900  0.908600  1.0  -0.1042
  C  C69  1  0.252900  0.362600  0.885840  1.0  -0.1567
  C  C70  1  0.233700  0.240400  0.892820  1.0  0.2154
  C  C71  1  0.150400  0.201100  0.922960  1.0  -0.1009
  C  C72  1  0.378800  0.179800  0.841020  1.0  0.2434
  C  C73  1  0.365700  0.195900  0.768620  1.0  -0.1192
  C  C74  1  0.455400  0.214000  0.740600  1.0  -0.1432
  C  C75  1  0.557200  0.210100  0.786230  1.0  0.0154
  C  C76  1  0.569200  0.196300  0.859280  1.0  -0.1519
  C  C77  1  0.478700  0.183800  0.887040  1.0  -0.09
  C  C78  1  0.444100  0.243500  0.662610  1.0  0.6691
  C  C79  1  0.678900  0.190100  0.908280  1.0  0.7142
  C  C80  1  0.132300  0.065600  0.923700  1.0  0.6903
  C  C81  1  0.508700  0.750100  0.525650  1.0  0.6713
  C  C82  1  0.415300  0.786600  0.555480  1.0  -0.1318
  C  C83  1  0.396300  0.909600  0.562540  1.0  -0.07
  C  C84  1  0.312600  0.946900  0.591400  1.0  -0.1047
  C  C85  1  0.247100  0.862600  0.614160  1.0  -0.1553
  C  C86  1  0.266300  0.740400  0.607180  1.0  0.2162
  C  C87  1  0.349600  0.701100  0.577040  1.0  -0.1005
  C  C88  1  0.121200  0.679800  0.658980  1.0  0.243
  C  C89  1  0.134300  0.695900  0.731380  1.0  -0.118
  C  C90  1  0.044600  0.714000  0.759400  1.0  -0.1428
  C  C91  1  0.942800  0.710100  0.713770  1.0  0.0147
  C  C92  1  0.930800  0.696300  0.640720  1.0  -0.1526
  C  C93  1  0.021300  0.683800  0.612960  1.0  -0.0904
  C  C94  1  0.055900  0.743500  0.837390  1.0  0.6692
  C  C95  1  0.821100  0.690100  0.591720  1.0  0.7153
  C  C96  1  0.367700  0.565600  0.576300  1.0  0.6899
  O  O97  1  0.017970  0.862200  0.010300  1.0  -0.7841
  O  O98  1  0.076050  0.675300  0.016030  1.0  -0.5592
  O  O99  1  0.709750  0.849400  0.131340  1.0  -0.2906
  O  O100  1  0.651380  0.746600  0.375610  1.0  -0.6171
  O  O101  1  0.473190  0.740600  0.359480  1.0  -0.6232
  O  O102  1  0.245080  0.842300  0.117480  1.0  -0.694
  O  O103  1  0.312780  0.783800  0.026470  1.0  -0.596
  O  O104  1  0.933610  0.977900  0.127200  1.0  -0.6277
  O  O105  1  0.812390  0.994200  0.023950  1.0  -0.6193
  O  O106  1  0.482030  0.362200  0.489700  1.0  -0.7845
  O  O107  1  0.423950  0.175300  0.483970  1.0  -0.5601
  O  O108  1  0.790250  0.349400  0.368660  1.0  -0.2904
  O  O109  1  0.848620  0.246600  0.124390  1.0  -0.6165
  O  O110  1  0.026810  0.240600  0.140520  1.0  -0.6223
  O  O111  1  0.254920  0.342300  0.382520  1.0  -0.696
  O  O112  1  0.187220  0.283800  0.473530  1.0  -0.5971
  O  O113  1  0.566390  0.477900  0.372800  1.0  -0.6283
  O  O114  1  0.687610  0.494200  0.476050  1.0  -0.62
  O  O115  1  0.982030  0.137800  0.989700  1.0  -0.786
  O  O116  1  0.923950  0.324700  0.983970  1.0  -0.5587
  O  O117  1  0.290250  0.150600  0.868660  1.0  -0.2897
  O  O118  1  0.348620  0.253400  0.624390  1.0  -0.6157
  O  O119  1  0.526810  0.259400  0.640520  1.0  -0.6213
  O  O120  1  0.754920  0.157700  0.882520  1.0  -0.6968
  O  O121  1  0.687220  0.216200  0.973530  1.0  -0.5982
  O  O122  1  0.066390  0.022100  0.872800  1.0  -0.628
  O  O123  1  0.187610  0.005800  0.976050  1.0  -0.6201
  O  O124  1  0.517970  0.637800  0.510300  1.0  -0.7856
  O  O125  1  0.576050  0.824700  0.516030  1.0  -0.5587
  O  O126  1  0.209750  0.650600  0.631340  1.0  -0.2892
  O  O127  1  0.151380  0.753400  0.875610  1.0  -0.6168
  O  O128  1  0.973190  0.759400  0.859480  1.0  -0.6229
  O  O129  1  0.745080  0.657700  0.617480  1.0  -0.6947
  O  O130  1  0.812780  0.716200  0.526470  1.0  -0.5963
  O  O131  1  0.433610  0.522100  0.627200  1.0  -0.6273
  O  O132  1  0.312390  0.505800  0.523950  1.0  -0.6195
