# generated using pymatgen
data_Co2H16C24N6O7
_symmetry_space_group_name_H-M   'P 1'
_cell_length_a   6.63740000
_cell_length_b   9.57140000
_cell_length_c   19.89000000
_cell_angle_alpha   85.19000000
_cell_angle_beta   82.97100000
_cell_angle_gamma   88.01600000
_symmetry_Int_Tables_number   1
_chemical_formula_structural   Co2H16C24N6O7
_chemical_formula_sum   'Co4 H32 C48 N12 O14'
_cell_volume   1249.30347442
_cell_formula_units_Z   2
loop_
 _symmetry_equiv_pos_site_id
 _symmetry_equiv_pos_as_xyz
  1  'x, y, z'
loop_
 _atom_site_type_symbol
 _atom_site_label
 _atom_site_symmetry_multiplicity
 _atom_site_fract_x
 _atom_site_fract_y
 _atom_site_fract_z
 _atom_site_occupancy
 _atom_site_charge
  Co  Co1  1  0.451590  0.841450  0.490750  1.0  0.9668
  Co  Co2  1  0.844240  0.981860  0.390890  1.0  1.0546
  Co  Co3  1  0.548410  0.158550  0.509250  1.0  0.9667
  Co  Co4  1  0.155760  0.018140  0.609110  1.0  1.0542
  H  H5  1  0.156600  0.395400  0.172200  1.0  0.1043
  H  H6  1  0.073900  0.470600  0.280500  1.0  0.1104
  H  H7  1  0.982700  0.867000  0.199100  1.0  0.0989
  H  H8  1  0.071600  0.794400  0.090800  1.0  0.1287
  H  H9  1  0.330400  0.606000  0.867700  1.0  0.1144
  H  H10  1  0.300500  0.769300  0.775200  1.0  0.093
  H  H11  1  0.497600  0.477000  0.644900  1.0  0.1211
  H  H12  1  0.506800  0.308900  0.737000  1.0  0.102
  H  H13  1  0.648000  0.965400  0.150500  1.0  0.1124
  H  H14  1  0.608700  0.916100  0.268200  1.0  0.1123
  H  H15  1  0.070900  0.131100  0.281900  1.0  0.1066
  H  H16  1  0.101300  0.170700  0.163800  1.0  0.12
  H  H17  1  0.164600  0.624000  0.022800  1.0  0.2606
  H  H18  1  0.486200  0.253100  0.849600  1.0  0.2767
  H  H19  1  0.451200  0.016800  0.051800  1.0  0.2841
  H  H20  1  0.787000  0.956000  0.510600  1.0  0.4457
  H  H21  1  0.843400  0.604600  0.827800  1.0  0.1034
  H  H22  1  0.926100  0.529400  0.719500  1.0  0.11
  H  H23  1  0.017300  0.133000  0.800900  1.0  0.099
  H  H24  1  0.928400  0.205600  0.909200  1.0  0.1285
  H  H25  1  0.669600  0.394000  0.132300  1.0  0.115
  H  H26  1  0.699500  0.230700  0.224800  1.0  0.0929
  H  H27  1  0.502400  0.523000  0.355100  1.0  0.1205
  H  H28  1  0.493200  0.691100  0.263000  1.0  0.1016
  H  H29  1  0.352000  0.034600  0.849500  1.0  0.1119
  H  H30  1  0.391300  0.083900  0.731800  1.0  0.1127
  H  H31  1  0.929100  0.868900  0.718100  1.0  0.1062
  H  H32  1  0.898700  0.829300  0.836200  1.0  0.1207
  H  H33  1  0.835400  0.376000  0.977200  1.0  0.2601
  H  H34  1  0.513800  0.746900  0.150400  1.0  0.276
  H  H35  1  0.548800  0.983200  0.948200  1.0  0.2843
  H  H36  1  0.213000  0.044000  0.489400  1.0  0.4444
  C  C37  1  0.257000  0.434100  0.026870  1.0  0.6556
  C  C38  1  0.381500  0.331700  0.931720  1.0  0.6555
  C  C39  1  0.363800  0.209900  0.034730  1.0  0.624
  C  C40  1  0.123600  0.587100  0.120370  1.0  0.2035
  C  C41  1  0.122700  0.491400  0.177590  1.0  -0.1246
  C  C42  1  0.072700  0.536200  0.241940  1.0  -0.056
  C  C43  1  0.020300  0.676400  0.251230  1.0  -0.1422
  C  C44  1  0.019500  0.771400  0.193620  1.0  -0.0837
  C  C45  1  0.071300  0.728400  0.129290  1.0  -0.1971
  C  C46  1  0.967500  0.726800  0.320340  1.0  0.7137
  C  C47  1  0.416800  0.440300  0.811610  1.0  0.2097
  C  C48  1  0.359600  0.578400  0.822690  1.0  -0.1389
  C  C49  1  0.345200  0.676000  0.767470  1.0  -0.0588
  C  C50  1  0.395100  0.639400  0.701020  1.0  -0.1343
  C  C51  1  0.459200  0.502600  0.689880  1.0  -0.0696
  C  C52  1  0.467000  0.403000  0.744830  1.0  -0.1622
  C  C53  1  0.373700  0.749200  0.644130  1.0  0.7068
  C  C54  1  0.376900  0.070900  0.145380  1.0  0.2364
  C  C55  1  0.528700  0.996700  0.176990  1.0  -0.1712
  C  C56  1  0.506000  0.968400  0.247130  1.0  -0.1097
  C  C57  1  0.333600  0.016200  0.286810  1.0  -0.1307
  C  C58  1  0.186000  0.094600  0.255150  1.0  -0.0491
  C  C59  1  0.205300  0.119900  0.184960  1.0  -0.1373
  C  C60  1  0.306900  0.979900  0.362260  1.0  0.6613
  C  C61  1  0.743000  0.565900  0.973130  1.0  0.6563
  C  C62  1  0.618500  0.668300  0.068280  1.0  0.6528
  C  C63  1  0.636200  0.790100  0.965270  1.0  0.6232
  C  C64  1  0.876400  0.412900  0.879630  1.0  0.2041
  C  C65  1  0.877300  0.508600  0.822410  1.0  -0.1264
  C  C66  1  0.927300  0.463800  0.758060  1.0  -0.06
  C  C67  1  0.979700  0.323600  0.748770  1.0  -0.1416
  C  C68  1  0.980500  0.228600  0.806380  1.0  -0.0823
  C  C69  1  0.928700  0.271600  0.870710  1.0  -0.196
  C  C70  1  0.032500  0.273200  0.679660  1.0  0.7142
  C  C71  1  0.583200  0.559700  0.188390  1.0  0.209
  C  C72  1  0.640400  0.421600  0.177310  1.0  -0.1386
  C  C73  1  0.654800  0.324000  0.232530  1.0  -0.0591
  C  C74  1  0.604900  0.360600  0.298980  1.0  -0.136
  C  C75  1  0.540800  0.497400  0.310120  1.0  -0.0717
  C  C76  1  0.533000  0.597000  0.255170  1.0  -0.1598
  C  C77  1  0.626300  0.250800  0.355870  1.0  0.7078
  C  C78  1  0.623100  0.929100  0.854620  1.0  0.2369
  C  C79  1  0.471300  0.003300  0.823010  1.0  -0.169
  C  C80  1  0.494000  0.031600  0.752870  1.0  -0.107
  C  C81  1  0.666400  0.983800  0.713190  1.0  -0.1297
  C  C82  1  0.814000  0.905400  0.744850  1.0  -0.0499
  C  C83  1  0.794700  0.880100  0.815040  1.0  -0.1394
  C  C84  1  0.693100  0.020100  0.637740  1.0  0.6593
  N  N85  1  0.304100  0.447400  0.958910  1.0  -0.5866
  N  N86  1  0.418000  0.206800  0.967690  1.0  -0.5766
  N  N87  1  0.279400  0.317600  0.067590  1.0  -0.4821
  N  N88  1  0.180900  0.554000  0.053490  1.0  -0.4092
  N  N89  1  0.433500  0.332700  0.863610  1.0  -0.4333
  N  N90  1  0.404000  0.089600  0.073620  1.0  -0.4243
  N  N91  1  0.695900  0.552600  0.041090  1.0  -0.5854
  N  N92  1  0.582000  0.793200  0.032310  1.0  -0.5784
  N  N93  1  0.720600  0.682400  0.932410  1.0  -0.481
  N  N94  1  0.819100  0.446000  0.946510  1.0  -0.4083
  N  N95  1  0.566500  0.667300  0.136390  1.0  -0.4326
  N  N96  1  0.596000  0.910400  0.926380  1.0  -0.4218
  O  O97  1  0.484700  0.741800  0.588040  1.0  -0.6413
  O  O98  1  0.241300  0.843900  0.656710  1.0  -0.5924
  O  O99  1  0.452300  0.915300  0.387810  1.0  -0.6191
  O  O100  1  0.140800  0.015000  0.396990  1.0  -0.6044
  O  O101  1  0.885400  0.848800  0.321590  1.0  -0.5946
  O  O102  1  0.002500  0.652100  0.372800  1.0  -0.5771
  O  O103  1  0.703600  0.969000  0.482340  1.0  -0.9717
  O  O104  1  0.515300  0.258200  0.411960  1.0  -0.6426
  O  O105  1  0.758700  0.156100  0.343290  1.0  -0.5935
  O  O106  1  0.547700  0.084700  0.612190  1.0  -0.6177
  O  O107  1  0.859200  0.985000  0.603010  1.0  -0.6046
  O  O108  1  0.114600  0.151200  0.678410  1.0  -0.5944
  O  O109  1  0.997500  0.347900  0.627200  1.0  -0.575
  O  O110  1  0.296400  0.031000  0.517660  1.0  -0.9706
