# generated using pymatgen
data_Gd2H7C18S3O13
_symmetry_space_group_name_H-M   'P 1'
_cell_length_a   10.80380000
_cell_length_b   17.53870000
_cell_length_c   17.72830000
_cell_angle_alpha   104.79300000
_cell_angle_beta   90.00000000
_cell_angle_gamma   90.00000000
_symmetry_Int_Tables_number   1
_chemical_formula_structural   Gd2H7C18S3O13
_chemical_formula_sum   'Gd8 H28 C72 S12 O52'
_cell_volume   3247.89657352
_cell_formula_units_Z   4
loop_
 _symmetry_equiv_pos_site_id
 _symmetry_equiv_pos_as_xyz
  1  'x, y, z'
loop_
 _atom_site_type_symbol
 _atom_site_label
 _atom_site_symmetry_multiplicity
 _atom_site_fract_x
 _atom_site_fract_y
 _atom_site_fract_z
 _atom_site_occupancy
 _atom_site_charge
  Gd  Gd1  1  0.615050  0.583110  0.986980  1.0  2.1441
  Gd  Gd2  1  0.573620  0.888330  0.012720  1.0  2.148
  Gd  Gd3  1  0.115050  0.916890  0.513020  1.0  2.1446
  Gd  Gd4  1  0.073620  0.611670  0.487280  1.0  2.1489
  Gd  Gd5  1  0.384950  0.416890  0.013020  1.0  2.1457
  Gd  Gd6  1  0.426380  0.111670  0.987280  1.0  2.1507
  Gd  Gd7  1  0.884950  0.083110  0.486980  1.0  2.1453
  Gd  Gd8  1  0.926380  0.388330  0.512720  1.0  2.1501
  H  H9  1  0.738000  0.793700  0.779600  1.0  0.105
  H  H10  1  0.852400  0.725400  0.661300  1.0  0.1162
  H  H11  1  0.672100  0.176100  0.682700  1.0  0.1195
  H  H12  1  0.578700  0.234100  0.811900  1.0  0.1235
  H  H13  1  0.376300  0.587600  0.674500  1.0  0.1263
  H  H14  1  0.458100  0.581500  0.802100  1.0  0.102
  H  H15  1  0.448000  0.750000  0.975000  1.0  0.3106
  H  H16  1  0.238000  0.706300  0.720400  1.0  0.1056
  H  H17  1  0.352400  0.774600  0.838700  1.0  0.1158
  H  H18  1  0.172100  0.323900  0.817300  1.0  0.1221
  H  H19  1  0.078700  0.265900  0.688100  1.0  0.1233
  H  H20  1  0.876300  0.912400  0.825500  1.0  0.1258
  H  H21  1  0.958100  0.918500  0.697900  1.0  0.1027
  H  H22  1  0.948000  0.750000  0.525000  1.0  0.3108
  H  H23  1  0.262000  0.206300  0.220400  1.0  0.1055
  H  H24  1  0.147600  0.274600  0.338700  1.0  0.1151
  H  H25  1  0.327900  0.823900  0.317300  1.0  0.1202
  H  H26  1  0.421300  0.765900  0.188100  1.0  0.1241
  H  H27  1  0.623700  0.412400  0.325500  1.0  0.1263
  H  H28  1  0.541900  0.418500  0.197900  1.0  0.1025
  H  H29  1  0.552000  0.250000  0.025000  1.0  0.3087
  H  H30  1  0.762000  0.293700  0.279600  1.0  0.1049
  H  H31  1  0.647600  0.225400  0.161300  1.0  0.1156
  H  H32  1  0.827900  0.676100  0.182700  1.0  0.1213
  H  H33  1  0.921300  0.734100  0.311900  1.0  0.1241
  H  H34  1  0.123700  0.087600  0.174500  1.0  0.1266
  H  H35  1  0.041900  0.081500  0.302100  1.0  0.1018
  H  H36  1  0.052000  0.250000  0.475000  1.0  0.3083
  C  C37  1  0.619500  0.710600  0.872300  1.0  0.7937
  C  C38  1  0.690000  0.688900  0.798300  1.0  -0.2287
  C  C39  1  0.743300  0.737900  0.761600  1.0  -0.0351
  C  C40  1  0.808400  0.699000  0.693600  1.0  -0.0603
  C  C41  1  0.800500  0.619500  0.679800  1.0  -0.1737
  C  C42  1  0.854400  0.558100  0.614500  1.0  0.7941
  C  C43  1  0.837600  0.265500  0.616600  1.0  0.7836
  C  C44  1  0.766900  0.278800  0.691800  1.0  -0.2028
  C  C45  1  0.689000  0.228000  0.713400  1.0  -0.0548
  C  C46  1  0.635600  0.261300  0.787300  1.0  -0.0429
  C  C47  1  0.674200  0.336500  0.819400  1.0  -0.1973
  C  C48  1  0.635500  0.390500  0.893800  1.0  0.7929
  C  C49  1  0.161600  0.502100  0.611900  1.0  0.7914
  C  C50  1  0.235600  0.514000  0.685200  1.0  -0.1812
  C  C51  1  0.339100  0.557600  0.706000  1.0  -0.0686
  C  C52  1  0.386300  0.554000  0.778800  1.0  -0.0274
  C  C53  1  0.317600  0.507000  0.811700  1.0  -0.1947
  C  C54  1  0.334700  0.489400  0.888000  1.0  0.7432
  C  C55  1  0.119500  0.789400  0.627700  1.0  0.7934
  C  C56  1  0.190000  0.811100  0.701700  1.0  -0.2293
  C  C57  1  0.243300  0.762100  0.738400  1.0  -0.0338
  C  C58  1  0.308400  0.801000  0.806400  1.0  -0.0607
  C  C59  1  0.300500  0.880500  0.820200  1.0  -0.1741
  C  C60  1  0.354400  0.941900  0.885500  1.0  0.7945
  C  C61  1  0.337600  0.234500  0.883400  1.0  0.7837
  C  C62  1  0.266900  0.221200  0.808200  1.0  -0.2023
  C  C63  1  0.189000  0.272000  0.786600  1.0  -0.0537
  C  C64  1  0.135600  0.238700  0.712700  1.0  -0.0421
  C  C65  1  0.174200  0.163500  0.680600  1.0  -0.1963
  C  C66  1  0.135500  0.109500  0.606200  1.0  0.7935
  C  C67  1  0.661600  0.997900  0.888100  1.0  0.7917
  C  C68  1  0.735600  0.986000  0.814800  1.0  -0.1818
  C  C69  1  0.839100  0.942400  0.794000  1.0  -0.0695
  C  C70  1  0.886300  0.946000  0.721200  1.0  -0.0275
  C  C71  1  0.817600  0.993000  0.688300  1.0  -0.1936
  C  C72  1  0.834700  0.010600  0.612000  1.0  0.7426
  C  C73  1  0.380500  0.289400  0.127700  1.0  0.7936
  C  C74  1  0.310000  0.311100  0.201700  1.0  -0.23
  C  C75  1  0.256700  0.262100  0.238400  1.0  -0.0335
  C  C76  1  0.191600  0.301000  0.306400  1.0  -0.0605
  C  C77  1  0.199500  0.380500  0.320200  1.0  -0.1735
  C  C78  1  0.145600  0.441900  0.385500  1.0  0.7936
  C  C79  1  0.162400  0.734500  0.383400  1.0  0.7832
  C  C80  1  0.233100  0.721200  0.308200  1.0  -0.2027
  C  C81  1  0.311000  0.772000  0.286600  1.0  -0.0536
  C  C82  1  0.364400  0.738700  0.212700  1.0  -0.0417
  C  C83  1  0.325800  0.663500  0.180600  1.0  -0.1968
  C  C84  1  0.364500  0.609500  0.106200  1.0  0.7915
  C  C85  1  0.838400  0.497900  0.388100  1.0  0.791
  C  C86  1  0.764400  0.486000  0.314800  1.0  -0.1821
  C  C87  1  0.660900  0.442400  0.294000  1.0  -0.0704
  C  C88  1  0.613700  0.446000  0.221200  1.0  -0.027
  C  C89  1  0.682400  0.493000  0.188300  1.0  -0.1938
  C  C90  1  0.665300  0.510600  0.112000  1.0  0.7437
  C  C91  1  0.880500  0.210600  0.372300  1.0  0.7933
  C  C92  1  0.810000  0.188900  0.298300  1.0  -0.2293
  C  C93  1  0.756700  0.237900  0.261600  1.0  -0.0344
  C  C94  1  0.691600  0.199000  0.193600  1.0  -0.0601
  C  C95  1  0.699500  0.119500  0.179800  1.0  -0.1728
  C  C96  1  0.645600  0.058100  0.114500  1.0  0.7937
  C  C97  1  0.662400  0.765500  0.116600  1.0  0.7825
  C  C98  1  0.733100  0.778800  0.191800  1.0  -0.2029
  C  C99  1  0.811000  0.728000  0.213400  1.0  -0.0548
  C  C100  1  0.864400  0.761300  0.287300  1.0  -0.0424
  C  C101  1  0.825800  0.836500  0.319400  1.0  -0.1972
  C  C102  1  0.864500  0.890500  0.393800  1.0  0.7909
  C  C103  1  0.338400  0.002100  0.111900  1.0  0.7904
  C  C104  1  0.264400  0.014000  0.185200  1.0  -0.1815
  C  C105  1  0.160900  0.057600  0.206000  1.0  -0.0695
  C  C106  1  0.113700  0.054000  0.278800  1.0  -0.0269
  C  C107  1  0.182400  0.007000  0.311700  1.0  -0.1944
  C  C108  1  0.165300  0.989400  0.388000  1.0  0.744
  S  S109  1  0.715340  0.591620  0.750110  1.0  0.1618
  S  S110  1  0.777590  0.368030  0.759880  1.0  0.1836
  S  S111  1  0.193500  0.466440  0.754200  1.0  0.1999
  S  S112  1  0.215340  0.908380  0.749890  1.0  0.162
  S  S113  1  0.277590  0.131970  0.740120  1.0  0.1805
  S  S114  1  0.693500  0.033560  0.745800  1.0  0.199
  S  S115  1  0.284660  0.408380  0.249890  1.0  0.1623
  S  S116  1  0.222410  0.631970  0.240120  1.0  0.1803
  S  S117  1  0.806500  0.533560  0.245800  1.0  0.198
  S  S118  1  0.784660  0.091620  0.250110  1.0  0.1622
  S  S119  1  0.722410  0.868030  0.259880  1.0  0.183
  S  S120  1  0.306500  0.966440  0.254200  1.0  0.1997
  O  O121  1  0.573700  0.656200  0.898700  1.0  -0.7316
  O  O122  1  0.608000  0.782300  0.903000  1.0  -0.6937
  O  O123  1  0.822800  0.487900  0.608600  1.0  -0.6711
  O  O124  1  0.927800  0.579600  0.568800  1.0  -0.7459
  O  O125  1  0.909200  0.320100  0.609800  1.0  -0.681
  O  O126  1  0.818000  0.202600  0.566600  1.0  -0.7391
  O  O127  1  0.677700  0.458700  0.911700  1.0  -0.7297
  O  O128  1  0.555600  0.363500  0.934100  1.0  -0.6705
  O  O129  1  0.082900  0.447900  0.599700  1.0  -0.6663
  O  O130  1  0.186100  0.547400  0.569300  1.0  -0.7019
  O  O131  1  0.256300  0.450200  0.912900  1.0  -0.63
  O  O132  1  0.437000  0.510900  0.926200  1.0  -0.8227
  O  O133  1  0.395000  0.783300  0.004100  1.0  -0.5861
  O  O134  1  0.073700  0.843800  0.601300  1.0  -0.732
  O  O135  1  0.108000  0.717700  0.597000  1.0  -0.6929
  O  O136  1  0.322800  0.012100  0.891400  1.0  -0.673
  O  O137  1  0.427800  0.920400  0.931200  1.0  -0.7457
  O  O138  1  0.409200  0.179900  0.890200  1.0  -0.6804
  O  O139  1  0.318000  0.297400  0.933400  1.0  -0.739
  O  O140  1  0.177700  0.041300  0.588300  1.0  -0.7302
  O  O141  1  0.055600  0.136500  0.565900  1.0  -0.6706
  O  O142  1  0.582900  0.052100  0.900300  1.0  -0.6673
  O  O143  1  0.686100  0.952600  0.930700  1.0  -0.7017
  O  O144  1  0.756300  0.049800  0.587100  1.0  -0.6299
  O  O145  1  0.937000  0.989100  0.573800  1.0  -0.8232
  O  O146  1  0.895000  0.716700  0.495900  1.0  -0.5851
  O  O147  1  0.426300  0.343800  0.101300  1.0  -0.7331
  O  O148  1  0.392000  0.217700  0.097000  1.0  -0.6932
  O  O149  1  0.177200  0.512100  0.391400  1.0  -0.6716
  O  O150  1  0.072200  0.420400  0.431200  1.0  -0.7462
  O  O151  1  0.090800  0.679900  0.390200  1.0  -0.6794
  O  O152  1  0.182000  0.797400  0.433400  1.0  -0.7398
  O  O153  1  0.322300  0.541300  0.088300  1.0  -0.7319
  O  O154  1  0.444400  0.636500  0.065900  1.0  -0.6713
  O  O155  1  0.917100  0.552100  0.400300  1.0  -0.6674
  O  O156  1  0.813900  0.452600  0.430700  1.0  -0.7005
  O  O157  1  0.743700  0.549800  0.087100  1.0  -0.6308
  O  O158  1  0.563000  0.489100  0.073800  1.0  -0.8248
  O  O159  1  0.605000  0.216700  0.995900  1.0  -0.5844
  O  O160  1  0.926300  0.156200  0.398700  1.0  -0.7324
  O  O161  1  0.892000  0.282300  0.403000  1.0  -0.6948
  O  O162  1  0.677200  0.987900  0.108600  1.0  -0.6717
  O  O163  1  0.572200  0.079600  0.068800  1.0  -0.7461
  O  O164  1  0.590800  0.820100  0.109800  1.0  -0.6789
  O  O165  1  0.682000  0.702600  0.066600  1.0  -0.7388
  O  O166  1  0.822300  0.958700  0.411700  1.0  -0.7317
  O  O167  1  0.944400  0.863500  0.434100  1.0  -0.6716
  O  O168  1  0.417100  0.947900  0.099700  1.0  -0.6656
  O  O169  1  0.313900  0.047400  0.069300  1.0  -0.7017
  O  O170  1  0.243700  0.950200  0.412900  1.0  -0.6309
  O  O171  1  0.063000  0.010900  0.426200  1.0  -0.8239
  O  O172  1  0.105000  0.283300  0.504100  1.0  -0.5861
