# generated using pymatgen
data_La2H7C18S3O13
_symmetry_space_group_name_H-M   'P 1'
_cell_length_a   11.22700000
_cell_length_b   17.43400000
_cell_length_c   17.98000000
_cell_angle_alpha   90.00000000
_cell_angle_beta   90.00000000
_cell_angle_gamma   90.00000000
_symmetry_Int_Tables_number   1
_chemical_formula_structural   La2H7C18S3O13
_chemical_formula_sum   'La8 H28 C72 S12 O52'
_cell_volume   3519.25269364
_cell_formula_units_Z   4
loop_
 _symmetry_equiv_pos_site_id
 _symmetry_equiv_pos_as_xyz
  1  'x, y, z'
loop_
 _atom_site_type_symbol
 _atom_site_label
 _atom_site_symmetry_multiplicity
 _atom_site_fract_x
 _atom_site_fract_y
 _atom_site_fract_z
 _atom_site_occupancy
 _atom_site_charge
  La  La1  1  0.142600  0.184200  0.480340  1.0  2.1786
  La  La2  1  0.318510  0.967190  0.479900  1.0  2.1848
  La  La3  1  0.857400  0.815800  0.980340  1.0  2.178
  La  La4  1  0.681490  0.032810  0.979900  1.0  2.1848
  La  La5  1  0.357400  0.684200  0.480340  1.0  2.178
  La  La6  1  0.181490  0.467190  0.479900  1.0  2.1849
  La  La7  1  0.642600  0.315800  0.980340  1.0  2.1785
  La  La8  1  0.818510  0.532810  0.979900  1.0  2.1848
  H  H9  1  0.085600  0.882000  0.669100  1.0  0.121
  H  H10  1  0.986300  0.863700  0.789800  1.0  0.1074
  H  H11  1  0.950100  0.208600  0.673000  1.0  0.1125
  H  H12  1  0.862800  0.224300  0.798200  1.0  0.1196
  H  H13  1  0.029800  0.466000  0.288600  1.0  0.1078
  H  H14  1  0.929900  0.481000  0.168600  1.0  0.0954
  H  H15  1  0.153000  0.821000  0.461000  1.0  0.4233
  H  H16  1  0.914400  0.118000  0.169100  1.0  0.1214
  H  H17  1  0.013700  0.136300  0.289800  1.0  0.1093
  H  H18  1  0.049900  0.791400  0.173000  1.0  0.1127
  H  H19  1  0.137200  0.775700  0.298200  1.0  0.1192
  H  H20  1  0.970200  0.534000  0.788600  1.0  0.1079
  H  H21  1  0.070100  0.519000  0.668600  1.0  0.0963
  H  H22  1  0.847000  0.179000  0.961000  1.0  0.4253
  H  H23  1  0.414400  0.382000  0.669100  1.0  0.1206
  H  H24  1  0.513700  0.363700  0.789800  1.0  0.1079
  H  H25  1  0.549900  0.708600  0.673000  1.0  0.1121
  H  H26  1  0.637200  0.724300  0.798200  1.0  0.1196
  H  H27  1  0.470200  0.966000  0.288600  1.0  0.1077
  H  H28  1  0.570100  0.981000  0.168600  1.0  0.096
  H  H29  1  0.347000  0.321000  0.461000  1.0  0.4255
  H  H30  1  0.585600  0.618000  0.169100  1.0  0.1212
  H  H31  1  0.486300  0.636300  0.289800  1.0  0.1087
  H  H32  1  0.450100  0.291400  0.173000  1.0  0.1132
  H  H33  1  0.362800  0.275700  0.298200  1.0  0.1194
  H  H34  1  0.529800  0.034000  0.788600  1.0  0.1082
  H  H35  1  0.429900  0.019000  0.668600  1.0  0.0959
  H  H36  1  0.653000  0.679000  0.961000  1.0  0.423
  C  C37  1  0.033700  0.995800  0.668100  1.0  -0.1818
  C  C38  1  0.044500  0.921000  0.694400  1.0  -0.0511
  C  C39  1  0.986500  0.910300  0.763500  1.0  -0.0533
  C  C40  1  0.930700  0.975700  0.788000  1.0  -0.1945
  C  C41  1  0.081400  0.025300  0.594700  1.0  0.7823
  C  C42  1  0.862100  0.986900  0.856800  1.0  0.7793
  C  C43  1  0.020700  0.316700  0.679500  1.0  -0.1982
  C  C44  1  0.958100  0.253300  0.701900  1.0  -0.0501
  C  C45  1  0.906800  0.262500  0.773500  1.0  -0.0581
  C  C46  1  0.929300  0.334300  0.802200  1.0  -0.2061
  C  C47  1  0.075400  0.331300  0.605200  1.0  0.8065
  C  C48  1  0.885500  0.365200  0.873900  1.0  0.7771
  C  C49  1  0.012800  0.350500  0.281600  1.0  -0.2022
  C  C50  1  0.001200  0.424600  0.260300  1.0  -0.0308
  C  C51  1  0.942600  0.433600  0.192300  1.0  -0.0599
  C  C52  1  0.906300  0.364300  0.164800  1.0  -0.1827
  C  C53  1  0.060700  0.324000  0.354500  1.0  0.7898
  C  C54  1  0.835200  0.353400  0.097000  1.0  0.7473
  C  C55  1  0.966300  0.004200  0.168100  1.0  -0.1822
  C  C56  1  0.955500  0.079000  0.194400  1.0  -0.0514
  C  C57  1  0.013500  0.089700  0.263500  1.0  -0.0523
  C  C58  1  0.069300  0.024300  0.288000  1.0  -0.1939
  C  C59  1  0.918600  0.974700  0.094700  1.0  0.7837
  C  C60  1  0.137900  0.013100  0.356800  1.0  0.7781
  C  C61  1  0.979300  0.683300  0.179500  1.0  -0.1985
  C  C62  1  0.041900  0.746700  0.201900  1.0  -0.0515
  C  C63  1  0.093200  0.737500  0.273500  1.0  -0.0579
  C  C64  1  0.070700  0.665700  0.302200  1.0  -0.206
  C  C65  1  0.924600  0.668700  0.105200  1.0  0.8071
  C  C66  1  0.114500  0.634800  0.373900  1.0  0.776
  C  C67  1  0.987200  0.649500  0.781600  1.0  -0.2004
  C  C68  1  0.998800  0.575400  0.760300  1.0  -0.0313
  C  C69  1  0.057400  0.566400  0.692300  1.0  -0.059
  C  C70  1  0.093700  0.635700  0.664800  1.0  -0.1827
  C  C71  1  0.939300  0.676000  0.854500  1.0  0.7912
  C  C72  1  0.164800  0.646600  0.597000  1.0  0.7458
  C  C73  1  0.466300  0.495800  0.668100  1.0  -0.182
  C  C74  1  0.455500  0.421000  0.694400  1.0  -0.0514
  C  C75  1  0.513500  0.410300  0.763500  1.0  -0.0529
  C  C76  1  0.569300  0.475700  0.788000  1.0  -0.1946
  C  C77  1  0.418600  0.525300  0.594700  1.0  0.7837
  C  C78  1  0.637900  0.486900  0.856800  1.0  0.7776
  C  C79  1  0.479300  0.816700  0.679500  1.0  -0.1982
  C  C80  1  0.541900  0.753300  0.701900  1.0  -0.0512
  C  C81  1  0.593200  0.762500  0.773500  1.0  -0.0578
  C  C82  1  0.570700  0.834300  0.802200  1.0  -0.2056
  C  C83  1  0.424600  0.831300  0.605200  1.0  0.8069
  C  C84  1  0.614500  0.865200  0.873900  1.0  0.7761
  C  C85  1  0.487200  0.850500  0.281600  1.0  -0.2015
  C  C86  1  0.498800  0.924600  0.260300  1.0  -0.0311
  C  C87  1  0.557400  0.933600  0.192300  1.0  -0.0591
  C  C88  1  0.593700  0.864300  0.164800  1.0  -0.1828
  C  C89  1  0.439300  0.824000  0.354500  1.0  0.7916
  C  C90  1  0.664800  0.853400  0.097000  1.0  0.7461
  C  C91  1  0.533700  0.504200  0.168100  1.0  -0.1822
  C  C92  1  0.544500  0.579000  0.194400  1.0  -0.0514
  C  C93  1  0.486500  0.589700  0.263500  1.0  -0.0528
  C  C94  1  0.430700  0.524300  0.288000  1.0  -0.1935
  C  C95  1  0.581400  0.474700  0.094700  1.0  0.782
  C  C96  1  0.362100  0.513100  0.356800  1.0  0.7794
  C  C97  1  0.520700  0.183300  0.179500  1.0  -0.1987
  C  C98  1  0.458100  0.246700  0.201900  1.0  -0.0506
  C  C99  1  0.406800  0.237500  0.273500  1.0  -0.058
  C  C100  1  0.429300  0.165700  0.302200  1.0  -0.2062
  C  C101  1  0.575400  0.168700  0.105200  1.0  0.8063
  C  C102  1  0.385500  0.134800  0.373900  1.0  0.7773
  C  C103  1  0.512800  0.149500  0.781600  1.0  -0.2011
  C  C104  1  0.501200  0.075400  0.760300  1.0  -0.0308
  C  C105  1  0.442600  0.066400  0.692300  1.0  -0.06
  C  C106  1  0.406300  0.135700  0.664800  1.0  -0.183
  C  C107  1  0.560700  0.176000  0.854500  1.0  0.7899
  C  C108  1  0.335200  0.146600  0.597000  1.0  0.7468
  S  S109  1  0.953700  0.051150  0.727780  1.0  0.1885
  S  S110  1  0.016500  0.387920  0.745200  1.0  0.184
  S  S111  1  0.947200  0.289310  0.219720  1.0  0.2001
  S  S112  1  0.046300  0.948850  0.227780  1.0  0.1906
  S  S113  1  0.983500  0.612080  0.245200  1.0  0.1857
  S  S114  1  0.052800  0.710690  0.719720  1.0  0.1998
  S  S115  1  0.546300  0.551150  0.727780  1.0  0.1894
  S  S116  1  0.483500  0.887920  0.745200  1.0  0.1851
  S  S117  1  0.552800  0.789310  0.219720  1.0  0.2002
  S  S118  1  0.453700  0.448850  0.227780  1.0  0.1897
  S  S119  1  0.516500  0.112080  0.245200  1.0  0.1851
  S  S120  1  0.447200  0.210690  0.719720  1.0  0.2
  O  O121  1  0.134400  0.977500  0.554500  1.0  -0.6828
  O  O122  1  0.062400  0.094400  0.581500  1.0  -0.707
  O  O123  1  0.857700  0.936000  0.905300  1.0  -0.783
  O  O124  1  0.810400  0.051400  0.865500  1.0  -0.6558
  O  O125  1  0.053000  0.281700  0.556200  1.0  -0.7456
  O  O126  1  0.130600  0.392600  0.597000  1.0  -0.6776
  O  O127  1  0.827400  0.319400  0.914200  1.0  -0.7
  O  O128  1  0.906600  0.434800  0.888500  1.0  -0.7107
  O  O129  1  0.082300  0.253300  0.364300  1.0  -0.7155
  O  O130  1  0.075200  0.374600  0.403700  1.0  -0.7213
  O  O131  1  0.788400  0.287900  0.085900  1.0  -0.6178
  O  O132  1  0.817900  0.408700  0.053700  1.0  -0.8102
  O  O133  1  0.210800  0.830500  0.485300  1.0  -0.7104
  O  O134  1  0.865600  0.022500  0.054500  1.0  -0.68
  O  O135  1  0.937600  0.905600  0.081500  1.0  -0.7106
  O  O136  1  0.142300  0.064000  0.405300  1.0  -0.7845
  O  O137  1  0.189600  0.948600  0.365500  1.0  -0.6554
  O  O138  1  0.947000  0.718300  0.056200  1.0  -0.7454
  O  O139  1  0.869400  0.607400  0.097000  1.0  -0.6786
  O  O140  1  0.172600  0.680600  0.414200  1.0  -0.6998
  O  O141  1  0.093400  0.565200  0.388500  1.0  -0.7125
  O  O142  1  0.917700  0.746700  0.864300  1.0  -0.7154
  O  O143  1  0.924800  0.625400  0.903700  1.0  -0.7217
  O  O144  1  0.211600  0.712100  0.585900  1.0  -0.6178
  O  O145  1  0.182100  0.591300  0.553700  1.0  -0.8127
  O  O146  1  0.789200  0.169500  0.985300  1.0  -0.7098
  O  O147  1  0.365600  0.477500  0.554500  1.0  -0.6815
  O  O148  1  0.437600  0.594400  0.581500  1.0  -0.707
  O  O149  1  0.642300  0.436000  0.905300  1.0  -0.7834
  O  O150  1  0.689600  0.551400  0.865500  1.0  -0.6555
  O  O151  1  0.447000  0.781700  0.556200  1.0  -0.7457
  O  O152  1  0.369400  0.892600  0.597000  1.0  -0.6789
  O  O153  1  0.672600  0.819400  0.914200  1.0  -0.6997
  O  O154  1  0.593400  0.934800  0.888500  1.0  -0.7125
  O  O155  1  0.417700  0.753300  0.364300  1.0  -0.7147
  O  O156  1  0.424800  0.874600  0.403700  1.0  -0.7216
  O  O157  1  0.711600  0.787900  0.085900  1.0  -0.6176
  O  O158  1  0.682100  0.908700  0.053700  1.0  -0.8117
  O  O159  1  0.289200  0.330500  0.485300  1.0  -0.7099
  O  O160  1  0.634400  0.522500  0.054500  1.0  -0.6809
  O  O161  1  0.562400  0.405600  0.081500  1.0  -0.7094
  O  O162  1  0.357700  0.564000  0.405300  1.0  -0.7841
  O  O163  1  0.310400  0.448600  0.365500  1.0  -0.6571
  O  O164  1  0.553000  0.218300  0.056200  1.0  -0.745
  O  O165  1  0.630600  0.107400  0.097000  1.0  -0.6778
  O  O166  1  0.327400  0.180600  0.414200  1.0  -0.6998
  O  O167  1  0.406600  0.065200  0.388500  1.0  -0.7125
  O  O168  1  0.582300  0.246700  0.864300  1.0  -0.7171
  O  O169  1  0.575200  0.125400  0.903700  1.0  -0.7213
  O  O170  1  0.288400  0.212100  0.585900  1.0  -0.6171
  O  O171  1  0.317900  0.091300  0.553700  1.0  -0.8107
  O  O172  1  0.710800  0.669500  0.985300  1.0  -0.71
