# generated using pymatgen
data_CsSmMoH4C9N8O
_symmetry_space_group_name_H-M   'P 1'
_cell_length_a   9.90500000
_cell_length_b   10.33300000
_cell_length_c   13.56200000
_cell_angle_alpha   82.00000000
_cell_angle_beta   86.62000000
_cell_angle_gamma   65.76000000
_symmetry_Int_Tables_number   1
_chemical_formula_structural   CsSmMoH4C9N8O
_chemical_formula_sum   'Cs2 Sm2 Mo2 H8 C18 N16 O2'
_cell_volume   1253.34949101
_cell_formula_units_Z   2
loop_
 _symmetry_equiv_pos_site_id
 _symmetry_equiv_pos_as_xyz
  1  'x, y, z'
loop_
 _atom_site_type_symbol
 _atom_site_label
 _atom_site_symmetry_multiplicity
 _atom_site_fract_x
 _atom_site_fract_y
 _atom_site_fract_z
 _atom_site_occupancy
 _atom_site_charge
  Cs  Cs1  1  0.648540  0.050380  0.384110  1.0  0.875
  Cs  Cs2  1  0.351460  0.949620  0.615890  1.0  0.8744
  Sm  Sm3  1  0.166450  0.283250  0.816300  1.0  1.9837
  Sm  Sm4  1  0.833550  0.716750  0.183700  1.0  1.9856
  Mo  Mo5  1  0.756000  0.876600  0.758860  1.0  -0.166
  Mo  Mo6  1  0.244000  0.123400  0.241140  1.0  -0.1614
  H  H7  1  0.107800  0.039400  0.756900  1.0  0.1119
  H  H8  1  0.287700  0.920800  0.920000  1.0  0.1147
  H  H9  1  0.197600  0.849400  0.869600  1.0  0.1148
  H  H10  1  0.117500  0.959800  0.948100  1.0  0.1184
  H  H11  1  0.892200  0.960600  0.243100  1.0  0.1164
  H  H12  1  0.712300  0.079200  0.080000  1.0  0.1119
  H  H13  1  0.802400  0.150600  0.130400  1.0  0.1174
  H  H14  1  0.882500  0.040200  0.051900  1.0  0.1188
  C  C15  1  0.539400  0.009100  0.808900  1.0  0.1566
  C  C16  1  0.656400  0.062000  0.648600  1.0  0.1599
  C  C17  1  0.753700  0.799800  0.617500  1.0  0.1639
  C  C18  1  0.957500  0.885300  0.695100  1.0  0.2043
  C  C19  1  0.796900  0.039900  0.819900  1.0  0.1896
  C  C20  1  0.927000  0.661600  0.779200  1.0  0.1871
  C  C21  1  0.217800  0.186300  0.083500  1.0  0.1602
  C  C22  1  0.627600  0.748600  0.784200  1.0  0.1783
  C  C23  1  0.191000  0.936400  0.894400  1.0  -0.0561
  C  C24  1  0.460600  0.990900  0.191100  1.0  0.1578
  C  C25  1  0.343600  0.938000  0.351400  1.0  0.1595
  C  C26  1  0.246300  0.200200  0.382500  1.0  0.1614
  C  C27  1  0.042500  0.114700  0.304900  1.0  0.203
  C  C28  1  0.203100  0.960100  0.180100  1.0  0.1919
  C  C29  1  0.073000  0.338400  0.220800  1.0  0.186
  C  C30  1  0.782200  0.813700  0.916500  1.0  0.1591
  C  C31  1  0.372400  0.251400  0.215800  1.0  0.176
  C  C32  1  0.809000  0.063600  0.105600  1.0  -0.0559
  N  N33  1  0.420700  0.085100  0.828300  1.0  -0.4803
  N  N34  1  0.596100  0.160500  0.593400  1.0  -0.4839
  N  N35  1  0.750000  0.764100  0.542100  1.0  -0.47
  N  N36  1  0.067500  0.890900  0.666667  1.0  -0.4411
  N  N37  1  0.821600  0.126600  0.849300  1.0  -0.4204
  N  N38  1  0.014900  0.546100  0.789200  1.0  -0.5928
  N  N39  1  0.206600  0.219200  0.999200  1.0  -0.4878
  N  N40  1  0.554400  0.685200  0.795500  1.0  -0.4626
  N  N41  1  0.579300  0.914900  0.171700  1.0  -0.4778
  N  N42  1  0.403900  0.839500  0.406600  1.0  -0.4835
  N  N43  1  0.250000  0.235900  0.457900  1.0  -0.4705
  N  N44  1  0.932500  0.109100  0.333400  1.0  -0.4422
  N  N45  1  0.178400  0.873400  0.150700  1.0  -0.4195
  N  N46  1  0.985100  0.453900  0.210800  1.0  -0.5923
  N  N47  1  0.793400  0.780800  0.000800  1.0  -0.4852
  N  N48  1  0.445600  0.314800  0.204500  1.0  -0.4645
  O  O49  1  0.147400  0.052400  0.815100  1.0  -0.6624
  O  O50  1  0.852600  0.947600  0.184900  1.0  -0.6615
