# generated using pymatgen
data_CoH24C28N7O4
_symmetry_space_group_name_H-M   'P 1'
_cell_length_a   10.74400000
_cell_length_b   11.97100000
_cell_length_c   13.30400000
_cell_angle_alpha   91.51200000
_cell_angle_beta   111.41800000
_cell_angle_gamma   106.33400000
_symmetry_Int_Tables_number   1
_chemical_formula_structural   CoH24C28N7O4
_chemical_formula_sum   'Co2 H48 C56 N14 O8'
_cell_volume   1512.60994010
_cell_formula_units_Z   2
loop_
 _symmetry_equiv_pos_site_id
 _symmetry_equiv_pos_as_xyz
  1  'x, y, z'
loop_
 _atom_site_type_symbol
 _atom_site_label
 _atom_site_symmetry_multiplicity
 _atom_site_fract_x
 _atom_site_fract_y
 _atom_site_fract_z
 _atom_site_occupancy
 _atom_site_charge
  Co  Co1  1  0.500000  0.000000  0.000000  1.0  0.8358
  Co  Co2  1  0.000000  0.000000  0.000000  1.0  0.6722
  H  H3  1  0.228300  0.035700  0.803400  1.0  0.085
  H  H4  1  0.709200  0.971500  0.795600  1.0  0.0751
  H  H5  1  0.983100  0.346300  0.882300  1.0  0.0966
  H  H6  1  0.767500  0.229300  0.065000  1.0  0.0867
  H  H7  1  0.240800  0.796900  0.598600  1.0  0.1295
  H  H8  1  0.901800  0.169100  0.631600  1.0  0.122
  H  H9  1  0.364800  0.807400  0.429100  1.0  0.1052
  H  H10  1  0.075400  0.173600  0.814700  1.0  0.1011
  H  H11  1  0.564600  0.663400  0.881700  1.0  0.1175
  H  H12  1  0.782000  0.868900  0.395500  1.0  0.1113
  H  H13  1  0.994100  0.779600  0.854200  1.0  0.0818
  H  H14  1  0.502200  0.110400  0.765400  1.0  0.0922
  H  H15  1  0.675100  0.292200  0.761300  1.0  0.116
  H  H16  1  0.406100  0.797700  0.782100  1.0  0.103
  H  H17  1  0.227900  0.433100  0.911600  1.0  0.1325
  H  H18  1  0.314100  0.557500  0.981200  1.0  0.1132
  H  H19  1  0.210500  0.546700  0.859800  1.0  0.1246
  H  H20  1  0.621900  0.538400  0.779500  1.0  0.1092
  H  H21  1  0.694200  0.823200  0.616300  1.0  0.1112
  H  H22  1  0.546800  0.736500  0.540400  1.0  0.1175
  H  H23  1  0.570700  0.790000  0.657300  1.0  0.1125
  H  H24  1  0.978400  0.716200  0.532100  1.0  0.1243
  H  H25  1  0.822200  0.717400  0.490200  1.0  0.1199
  H  H26  1  0.919300  0.754800  0.614300  1.0  0.1241
  H  H27  1  0.771700  0.964300  0.196600  1.0  0.0858
  H  H28  1  0.290800  0.028500  0.204400  1.0  0.0746
  H  H29  1  0.016900  0.653700  0.117700  1.0  0.0964
  H  H30  1  0.232500  0.770700  0.935000  1.0  0.0872
  H  H31  1  0.759200  0.203100  0.401400  1.0  0.1298
  H  H32  1  0.098200  0.830900  0.368400  1.0  0.1216
  H  H33  1  0.635200  0.192600  0.570900  1.0  0.1052
  H  H34  1  0.924600  0.826400  0.185300  1.0  0.1014
  H  H35  1  0.435400  0.336600  0.118300  1.0  0.1175
  H  H36  1  0.218000  0.131100  0.604500  1.0  0.1127
  H  H37  1  0.005900  0.220400  0.145800  1.0  0.0824
  H  H38  1  0.497800  0.889600  0.234600  1.0  0.0919
  H  H39  1  0.324900  0.707800  0.238700  1.0  0.1164
  H  H40  1  0.593900  0.202300  0.217900  1.0  0.1042
  H  H41  1  0.772100  0.566900  0.088400  1.0  0.1324
  H  H42  1  0.685900  0.442500  0.018800  1.0  0.1135
  H  H43  1  0.789500  0.453300  0.140200  1.0  0.1253
  H  H44  1  0.378100  0.461600  0.220500  1.0  0.1099
  H  H45  1  0.305800  0.176800  0.383700  1.0  0.1114
  H  H46  1  0.453200  0.263500  0.459600  1.0  0.1209
  H  H47  1  0.429300  0.210000  0.342700  1.0  0.1127
  H  H48  1  0.021600  0.283800  0.467900  1.0  0.1242
  H  H49  1  0.177800  0.282600  0.509800  1.0  0.1196
  H  H50  1  0.080700  0.245200  0.385700  1.0  0.124
  C  C51  1  0.963400  0.882800  0.522000  1.0  0.0993
  C  C52  1  0.718100  0.889300  0.981500  1.0  0.6165
  C  C53  1  0.747900  0.794700  0.923300  1.0  0.1441
  C  C54  1  0.253000  0.976900  0.775700  1.0  0.1526
  C  C55  1  0.854500  0.574200  0.733300  1.0  0.6667
  C  C56  1  0.779900  0.019900  0.777400  1.0  0.1718
  C  C57  1  0.093900  0.964400  0.582100  1.0  0.1509
  C  C58  1  0.991300  0.409100  0.929500  1.0  -0.1851
  C  C59  1  0.883800  0.403200  0.966000  1.0  0.1434
  C  C60  1  0.722300  0.221100  0.989600  1.0  0.1514
  C  C61  1  0.110500  0.507400  0.962500  1.0  0.0648
  C  C62  1  0.625300  0.024400  0.586900  1.0  0.1367
  C  C63  1  0.258500  0.845000  0.661600  1.0  -0.1516
  C  C64  1  0.549000  0.908400  0.548500  1.0  0.0715
  C  C65  1  0.884200  0.128600  0.686200  1.0  -0.137
  C  C66  1  0.419900  0.884900  0.458300  1.0  -0.1928
  C  C67  1  0.980000  0.131300  0.788100  1.0  0.0228
  C  C68  1  0.650800  0.686500  0.874500  1.0  -0.1091
  C  C69  1  0.870000  0.921100  0.438300  1.0  -0.1479
  C  C70  1  0.810900  0.647300  0.804000  1.0  -0.1657
  C  C71  1  0.906400  0.756100  0.858800  1.0  0.1521
  C  C72  1  0.578200  0.157000  0.825800  1.0  0.028
  C  C73  1  0.672800  0.257600  0.822700  1.0  -0.1531
  C  C74  1  0.349600  0.846300  0.763000  1.0  0.0192
  C  C75  1  0.225900  0.511600  0.925500  1.0  -0.3927
  C  C76  1  0.685500  0.612200  0.813500  1.0  0.0258
  C  C77  1  0.594300  0.805000  0.594900  1.0  -0.3931
  C  C78  1  0.916500  0.756100  0.541400  1.0  -0.3645
  C  C79  1  0.036600  0.117200  0.478000  1.0  0.0997
  C  C80  1  0.281900  0.110700  0.018500  1.0  0.617
  C  C81  1  0.252100  0.205300  0.076700  1.0  0.1451
  C  C82  1  0.747000  0.023100  0.224300  1.0  0.1528
  C  C83  1  0.145500  0.425800  0.266700  1.0  0.6661
  C  C84  1  0.220100  0.980100  0.222600  1.0  0.1714
  C  C85  1  0.906100  0.035600  0.417900  1.0  0.1512
  C  C86  1  0.008700  0.590900  0.070500  1.0  -0.1914
  C  C87  1  0.116200  0.596800  0.034000  1.0  0.1443
  C  C88  1  0.277700  0.778900  0.010400  1.0  0.1524
  C  C89  1  0.889500  0.492600  0.037500  1.0  0.066
  C  C90  1  0.374700  0.975600  0.413100  1.0  0.1375
  C  C91  1  0.741500  0.155000  0.338400  1.0  -0.1517
  C  C92  1  0.451000  0.091600  0.451500  1.0  0.0724
  C  C93  1  0.115800  0.871400  0.313800  1.0  -0.1301
  C  C94  1  0.580100  0.115100  0.541700  1.0  -0.1941
  C  C95  1  0.020000  0.868700  0.211900  1.0  0.0233
  C  C96  1  0.349200  0.313500  0.125500  1.0  -0.1113
  C  C97  1  0.130000  0.078900  0.561700  1.0  -0.1513
  C  C98  1  0.189100  0.352700  0.196000  1.0  -0.1679
  C  C99  1  0.093600  0.243900  0.141200  1.0  0.1533
  C  C100  1  0.421800  0.843000  0.174200  1.0  0.0288
  C  C101  1  0.327200  0.742400  0.177300  1.0  -0.152
  C  C102  1  0.650400  0.153700  0.237000  1.0  0.0198
  C  C103  1  0.774100  0.488400  0.074500  1.0  -0.3916
  C  C104  1  0.314500  0.387800  0.186500  1.0  0.0258
  C  C105  1  0.405700  0.195000  0.405100  1.0  -0.3925
  C  C106  1  0.083500  0.243900  0.458600  1.0  -0.3646
  N  N107  1  0.757700  0.055100  0.679300  1.0  0.0268
  N  N108  1  0.196300  0.929700  0.669900  1.0  0.0034
  N  N109  1  0.346900  0.930500  0.835100  1.0  -0.3882
  N  N110  1  0.763800  0.297600  0.928200  1.0  0.0237
  N  N111  1  0.875200  0.828200  0.918300  1.0  -0.3323
  N  N112  1  0.912700  0.061400  0.845400  1.0  -0.4062
  N  N113  1  0.611300  0.133600  0.931900  1.0  -0.4074
  N  N114  1  0.242300  0.944900  0.320700  1.0  0.0264
  N  N115  1  0.803700  0.070300  0.330100  1.0  0.0031
  N  N116  1  0.653100  0.069500  0.164900  1.0  -0.3886
  N  N117  1  0.236200  0.702400  0.071800  1.0  0.0235
  N  N118  1  0.124800  0.171800  0.081700  1.0  -0.3323
  N  N119  1  0.087300  0.938600  0.154600  1.0  -0.4069
  N  N120  1  0.388700  0.866400  0.068100  1.0  -0.4075
  O  O121  1  0.596200  0.869900  0.977900  1.0  -0.5953
  O  O122  1  0.818900  0.982400  0.025900  1.0  -0.5736
  O  O123  1  0.979700  0.610300  0.744300  1.0  -0.5544
  O  O124  1  0.757900  0.484000  0.674200  1.0  -0.5934
  O  O125  1  0.403800  0.130100  0.022100  1.0  -0.5955
  O  O126  1  0.181100  0.017600  0.974100  1.0  -0.5735
  O  O127  1  0.020300  0.389700  0.255700  1.0  -0.5546
  O  O128  1  0.242100  0.516000  0.325800  1.0  -0.5916
