# generated using pymatgen
data_CdH3(C3O2)3
_symmetry_space_group_name_H-M   'P 1'
_cell_length_a   10.24100000
_cell_length_b   13.76900000
_cell_length_c   13.32600000
_cell_angle_alpha   90.00000000
_cell_angle_beta   90.76800000
_cell_angle_gamma   90.00000000
_symmetry_Int_Tables_number   1
_chemical_formula_structural   CdH3(C3O2)3
_chemical_formula_sum   'Cd4 H12 C36 O24'
_cell_volume   1878.90818728
_cell_formula_units_Z   4
loop_
 _symmetry_equiv_pos_site_id
 _symmetry_equiv_pos_as_xyz
  1  'x, y, z'
loop_
 _atom_site_type_symbol
 _atom_site_label
 _atom_site_symmetry_multiplicity
 _atom_site_fract_x
 _atom_site_fract_y
 _atom_site_fract_z
 _atom_site_occupancy
 _atom_site_charge
  Cd  Cd1  1  0.144040  0.424120  0.061830  1.0  1.1029
  Cd  Cd2  1  0.355970  0.924120  0.438170  1.0  1.1017
  Cd  Cd3  1  0.855970  0.575880  0.938170  1.0  1.1017
  Cd  Cd4  1  0.644040  0.075880  0.561830  1.0  1.1031
  H  H5  1  0.155900  0.719400  0.722000  1.0  0.1444
  H  H6  1  0.374100  0.575200  0.926100  1.0  0.1451
  H  H7  1  0.546400  0.727100  0.707100  1.0  0.1432
  H  H8  1  0.344100  0.219400  0.778000  1.0  0.1451
  H  H9  1  0.125900  0.075200  0.573900  1.0  0.1448
  H  H10  1  0.953600  0.227100  0.792900  1.0  0.1433
  H  H11  1  0.844100  0.280600  0.278000  1.0  0.145
  H  H12  1  0.625900  0.424800  0.073900  1.0  0.145
  H  H13  1  0.453600  0.272900  0.292900  1.0  0.1431
  H  H14  1  0.655900  0.780600  0.222000  1.0  0.1444
  H  H15  1  0.874100  0.924800  0.426100  1.0  0.1453
  H  H16  1  0.046400  0.772900  0.207100  1.0  0.1428
  C  C17  1  0.349700  0.730740  0.698930  1.0  -0.1303
  C  C18  1  0.246200  0.643350  0.833160  1.0  -0.1252
  C  C19  1  0.481100  0.645420  0.822330  1.0  -0.1308
  C  C20  1  0.121600  0.610410  0.881380  1.0  0.751
  C  C21  1  0.237300  0.700980  0.747060  1.0  0.0676
  C  C22  1  0.614100  0.614550  0.859380  1.0  0.7125
  C  C23  1  0.368100  0.614870  0.869700  1.0  0.057
  C  C24  1  0.471100  0.704740  0.737750  1.0  0.0642
  C  C25  1  0.337800  0.790260  0.604250  1.0  0.7664
  C  C26  1  0.150300  0.230740  0.801070  1.0  -0.1325
  C  C27  1  0.253800  0.143350  0.666840  1.0  -0.1252
  C  C28  1  0.018900  0.145420  0.677670  1.0  -0.1305
  C  C29  1  0.378400  0.110410  0.618620  1.0  0.7492
  C  C30  1  0.262700  0.200980  0.752940  1.0  0.0679
  C  C31  1  0.885900  0.114550  0.640620  1.0  0.7102
  C  C32  1  0.131900  0.114870  0.630300  1.0  0.0567
  C  C33  1  0.028900  0.204740  0.762250  1.0  0.064
  C  C34  1  0.162200  0.290260  0.895750  1.0  0.7657
  C  C35  1  0.650300  0.269260  0.301070  1.0  -0.1319
  C  C36  1  0.753800  0.356650  0.166840  1.0  -0.1254
  C  C37  1  0.518900  0.354580  0.177670  1.0  -0.1303
  C  C38  1  0.878400  0.389590  0.118620  1.0  0.7495
  C  C39  1  0.762700  0.299020  0.252940  1.0  0.0684
  C  C40  1  0.385900  0.385450  0.140620  1.0  0.71
  C  C41  1  0.631900  0.385130  0.130300  1.0  0.0561
  C  C42  1  0.528900  0.295260  0.262250  1.0  0.0641
  C  C43  1  0.662200  0.209740  0.395750  1.0  0.7646
  C  C44  1  0.849700  0.769260  0.198930  1.0  -0.1305
  C  C45  1  0.746200  0.856650  0.333160  1.0  -0.1255
  C  C46  1  0.981100  0.854580  0.322330  1.0  -0.1306
  C  C47  1  0.621600  0.889590  0.381380  1.0  0.7512
  C  C48  1  0.737300  0.799020  0.247060  1.0  0.0672
  C  C49  1  0.114100  0.885450  0.359380  1.0  0.7124
  C  C50  1  0.868100  0.885130  0.369700  1.0  0.0567
  C  C51  1  0.971100  0.795260  0.237750  1.0  0.0645
  C  C52  1  0.837800  0.709740  0.104250  1.0  0.7651
  O  O53  1  0.622680  0.546920  0.922710  1.0  -0.548
  O  O54  1  0.713020  0.656490  0.825740  1.0  -0.5726
  O  O55  1  0.017450  0.648620  0.851620  1.0  -0.5358
  O  O56  1  0.437650  0.832450  0.573180  1.0  -0.5611
  O  O57  1  0.127530  0.545450  0.946730  1.0  -0.7533
  O  O58  1  0.230480  0.793800  0.559100  1.0  -0.5944
  O  O59  1  0.877320  0.046920  0.577290  1.0  -0.5465
  O  O60  1  0.786980  0.156490  0.674260  1.0  -0.5705
  O  O61  1  0.482550  0.148620  0.648380  1.0  -0.535
  O  O62  1  0.062350  0.332450  0.926820  1.0  -0.5602
  O  O63  1  0.372470  0.045450  0.553270  1.0  -0.7536
  O  O64  1  0.269520  0.293800  0.940900  1.0  -0.5938
  O  O65  1  0.377320  0.453080  0.077290  1.0  -0.5471
  O  O66  1  0.286980  0.343510  0.174260  1.0  -0.5705
  O  O67  1  0.982550  0.351380  0.148380  1.0  -0.5356
  O  O68  1  0.562350  0.167550  0.426820  1.0  -0.5612
  O  O69  1  0.872470  0.454550  0.053270  1.0  -0.7536
  O  O70  1  0.769520  0.206200  0.440900  1.0  -0.5939
  O  O71  1  0.122680  0.953080  0.422710  1.0  -0.5482
  O  O72  1  0.213020  0.843510  0.325740  1.0  -0.5729
  O  O73  1  0.517450  0.851380  0.351620  1.0  -0.5366
  O  O74  1  0.937650  0.667550  0.073180  1.0  -0.5616
  O  O75  1  0.627530  0.954550  0.446730  1.0  -0.7539
  O  O76  1  0.730480  0.706200  0.059100  1.0  -0.5947
