# generated using pymatgen
data_ZnH13C22NO4
_symmetry_space_group_name_H-M   'P 1'
_cell_length_a   11.52100000
_cell_length_b   14.00800000
_cell_length_c   15.70100000
_cell_angle_alpha   96.67900000
_cell_angle_beta   90.00000000
_cell_angle_gamma   90.00000000
_symmetry_Int_Tables_number   1
_chemical_formula_structural   ZnH13C22NO4
_chemical_formula_sum   'Zn4 H52 C88 N4 O16'
_cell_volume   2516.72735398
_cell_formula_units_Z   4
loop_
 _symmetry_equiv_pos_site_id
 _symmetry_equiv_pos_as_xyz
  1  'x, y, z'
loop_
 _atom_site_type_symbol
 _atom_site_label
 _atom_site_symmetry_multiplicity
 _atom_site_fract_x
 _atom_site_fract_y
 _atom_site_fract_z
 _atom_site_occupancy
 _atom_site_charge
  Zn  Zn1  1  0.095200  0.195700  0.983080  1.0  0.9249
  Zn  Zn2  1  0.095600  0.404600  0.002100  1.0  0.9013
  Zn  Zn3  1  0.595200  0.804300  0.016920  1.0  0.9254
  Zn  Zn4  1  0.595600  0.595400  0.997900  1.0  0.9014
  H  H5  1  0.406900  0.179900  0.151600  1.0  0.101
  H  H6  1  0.520200  0.174600  0.274700  1.0  0.1175
  H  H7  1  0.389000  0.431900  0.374700  1.0  0.1067
  H  H8  1  0.275800  0.437200  0.251600  1.0  0.1063
  H  H9  1  0.796400  0.296600  0.495600  1.0  0.1218
  H  H10  1  0.399100  0.277600  0.483400  1.0  0.0863
  H  H11  1  0.810500  0.412500  0.636700  1.0  0.114
  H  H12  1  0.926500  0.412100  0.766000  1.0  0.1088
  H  H13  1  0.764500  0.167700  0.807200  1.0  0.1119
  H  H14  1  0.660000  0.165700  0.685400  1.0  0.12
  H  H15  1  0.801600  0.164200  0.328000  1.0  0.1108
  H  H16  1  0.898600  0.170200  0.210300  1.0  0.0634
  H  H17  1  0.771700  0.428500  0.186400  1.0  0.1118
  H  H18  1  0.659500  0.415600  0.310700  1.0  0.1175
  H  H19  1  0.368400  0.167800  0.609700  1.0  0.1033
  H  H20  1  0.287200  0.154700  0.736000  1.0  0.1004
  H  H21  1  0.404400  0.419700  0.827300  1.0  0.0807
  H  H22  1  0.533700  0.402800  0.717200  1.0  0.1177
  H  H23  1  0.272100  0.567800  0.991200  1.0  0.1051
  H  H24  1  0.267800  0.716800  0.028500  1.0  0.0884
  H  H25  1  0.917400  0.738800  0.998600  1.0  0.1491
  H  H26  1  0.932800  0.564900  0.021000  1.0  0.0746
  H  H27  1  0.265000  0.852200  0.972400  1.0  0.151
  H  H28  1  0.251000  0.035200  0.928600  1.0  0.1146
  H  H29  1  0.952000  0.038800  0.037500  1.0  0.0653
  H  H30  1  0.941000  0.878600  0.073800  1.0  0.1297
  H  H31  1  0.906900  0.820100  0.848400  1.0  0.1016
  H  H32  1  0.020200  0.825400  0.725300  1.0  0.1181
  H  H33  1  0.889000  0.568100  0.625300  1.0  0.1076
  H  H34  1  0.775800  0.562800  0.748400  1.0  0.1049
  H  H35  1  0.296400  0.703400  0.504400  1.0  0.1218
  H  H36  1  0.899100  0.722400  0.516600  1.0  0.0862
  H  H37  1  0.310500  0.587500  0.363300  1.0  0.1143
  H  H38  1  0.426500  0.587900  0.234000  1.0  0.1089
  H  H39  1  0.264500  0.832300  0.192800  1.0  0.1102
  H  H40  1  0.160000  0.834300  0.314600  1.0  0.1198
  H  H41  1  0.301600  0.835800  0.672000  1.0  0.1105
  H  H42  1  0.398600  0.829800  0.789700  1.0  0.0632
  H  H43  1  0.271700  0.571500  0.813600  1.0  0.1122
  H  H44  1  0.159500  0.584400  0.689300  1.0  0.1161
  H  H45  1  0.868400  0.832200  0.390300  1.0  0.1033
  H  H46  1  0.787200  0.845300  0.264000  1.0  0.1006
  H  H47  1  0.904400  0.580300  0.172700  1.0  0.0812
  H  H48  1  0.033700  0.597200  0.282800  1.0  0.1176
  H  H49  1  0.772100  0.432200  0.008800  1.0  0.1051
  H  H50  1  0.767800  0.283200  0.971500  1.0  0.0896
  H  H51  1  0.417400  0.261200  0.001400  1.0  0.1496
  H  H52  1  0.432800  0.435100  0.979000  1.0  0.0747
  H  H53  1  0.765000  0.147800  0.027600  1.0  0.1507
  H  H54  1  0.751000  0.964800  0.071400  1.0  0.1139
  H  H55  1  0.452000  0.961200  0.962500  1.0  0.0651
  H  H56  1  0.441000  0.121400  0.926200  1.0  0.1314
  C  C57  1  0.240000  0.313000  0.114000  1.0  0.6065
  C  C58  1  0.330700  0.309000  0.190000  1.0  -0.1223
  C  C59  1  0.403300  0.231000  0.196900  1.0  -0.0514
  C  C60  1  0.470600  0.227900  0.270000  1.0  -0.141
  C  C61  1  0.465200  0.302700  0.336300  1.0  0.0562
  C  C62  1  0.392700  0.380700  0.329400  1.0  -0.1562
  C  C63  1  0.325400  0.383900  0.256300  1.0  -0.0438
  C  C64  1  0.532000  0.281000  0.415000  1.0  0.0436
  C  C65  1  0.649000  0.302000  0.411000  1.0  -0.0181
  C  C66  1  0.714000  0.292000  0.493000  1.0  -0.1664
  C  C67  1  0.650000  0.275000  0.566000  1.0  -0.0274
  C  C68  1  0.525000  0.295000  0.569000  1.0  -0.0079
  C  C69  1  0.481000  0.284000  0.487000  1.0  -0.1174
  C  C70  1  0.727000  0.288000  0.650000  1.0  0.0466
  C  C71  1  0.804000  0.362000  0.672000  1.0  -0.1505
  C  C72  1  0.874000  0.361000  0.748000  1.0  -0.0226
  C  C73  1  0.862000  0.286000  0.789000  1.0  -0.1196
  C  C74  1  0.777000  0.216000  0.770000  1.0  -0.0526
  C  C75  1  0.714000  0.216000  0.701000  1.0  -0.1419
  C  C76  1  0.732000  0.293000  0.333000  1.0  0.1118
  C  C77  1  0.799000  0.221000  0.301000  1.0  -0.1515
  C  C78  1  0.860000  0.227000  0.235000  1.0  -0.0149
  C  C79  1  0.874000  0.304000  0.197000  1.0  -0.1106
  C  C80  1  0.783000  0.377000  0.220000  1.0  -0.0688
  C  C81  1  0.716000  0.368000  0.292000  1.0  -0.164
  C  C82  1  0.464000  0.276000  0.647000  1.0  0.1074
  C  C83  1  0.386000  0.215000  0.657000  1.0  -0.1605
  C  C84  1  0.328000  0.212000  0.729000  1.0  -0.0402
  C  C85  1  0.319000  0.297000  0.806000  1.0  -0.1468
  C  C86  1  0.399000  0.363000  0.788000  1.0  -0.0219
  C  C87  1  0.474000  0.356000  0.719000  1.0  -0.1474
  C  C88  1  0.201000  0.601000  0.001900  1.0  0.1298
  C  C89  1  0.197000  0.685000  0.012000  1.0  -0.1625
  C  C90  1  0.101000  0.745000  0.002300  1.0  0.0667
  C  C91  1  0.989000  0.705000  0.002700  1.0  -0.1949
  C  C92  1  0.002000  0.599000  0.011000  1.0  0.1819
  C  C93  1  0.085000  0.852000  0.001000  1.0  0.106
  C  C94  1  0.196000  0.889000  0.977000  1.0  -0.1248
  C  C95  1  0.190000  0.006000  0.957000  1.0  0.1672
  C  C96  1  0.018000  0.001000  0.020000  1.0  0.1298
  C  C97  1  0.001000  0.902000  0.040000  1.0  -0.1672
  C  C98  1  0.246000  0.296000  0.869000  1.0  0.6305
  C  C99  1  0.937000  0.306000  0.116000  1.0  0.6333
  C  C100  1  0.946000  0.283000  0.875000  1.0  0.6683
  C  C101  1  0.740000  0.687000  0.886000  1.0  0.6065
  C  C102  1  0.830700  0.691000  0.810000  1.0  -0.1191
  C  C103  1  0.903300  0.769000  0.803100  1.0  -0.0574
  C  C104  1  0.970600  0.772100  0.730000  1.0  -0.1415
  C  C105  1  0.965200  0.697300  0.663700  1.0  0.0554
  C  C106  1  0.892700  0.619300  0.670600  1.0  -0.1564
  C  C107  1  0.825400  0.616100  0.743700  1.0  -0.0432
  C  C108  1  0.032000  0.719000  0.585000  1.0  0.0451
  C  C109  1  0.149000  0.698000  0.589000  1.0  -0.0181
  C  C110  1  0.214000  0.708000  0.507000  1.0  -0.1669
  C  C111  1  0.150000  0.725000  0.434000  1.0  -0.0281
  C  C112  1  0.025000  0.705000  0.431000  1.0  -0.0087
  C  C113  1  0.981000  0.716000  0.513000  1.0  -0.1169
  C  C114  1  0.227000  0.712000  0.350000  1.0  0.0478
  C  C115  1  0.304000  0.638000  0.328000  1.0  -0.1506
  C  C116  1  0.374000  0.639000  0.252000  1.0  -0.0248
  C  C117  1  0.362000  0.714000  0.211000  1.0  -0.1192
  C  C118  1  0.277000  0.784000  0.230000  1.0  -0.0523
  C  C119  1  0.214000  0.784000  0.299000  1.0  -0.1392
  C  C120  1  0.232000  0.707000  0.667000  1.0  0.1102
  C  C121  1  0.299000  0.779000  0.699000  1.0  -0.1496
  C  C122  1  0.360000  0.773000  0.765000  1.0  -0.0151
  C  C123  1  0.374000  0.696000  0.803000  1.0  -0.1119
  C  C124  1  0.283000  0.623000  0.780000  1.0  -0.0701
  C  C125  1  0.216000  0.632000  0.708000  1.0  -0.165
  C  C126  1  0.964000  0.724000  0.353000  1.0  0.1075
  C  C127  1  0.886000  0.785000  0.343000  1.0  -0.1587
  C  C128  1  0.828000  0.788000  0.271000  1.0  -0.0416
  C  C129  1  0.819000  0.703000  0.194000  1.0  -0.1468
  C  C130  1  0.899000  0.637000  0.212000  1.0  -0.024
  C  C131  1  0.974000  0.644000  0.281000  1.0  -0.1485
  C  C132  1  0.701000  0.399000  0.998100  1.0  0.1299
  C  C133  1  0.697000  0.315000  0.988000  1.0  -0.1629
  C  C134  1  0.601000  0.255000  0.997700  1.0  0.0673
  C  C135  1  0.489000  0.295000  0.997300  1.0  -0.1955
  C  C136  1  0.502000  0.401000  0.989000  1.0  0.1811
  C  C137  1  0.585000  0.148000  0.999000  1.0  0.1058
  C  C138  1  0.696000  0.111000  0.023000  1.0  -0.1445
  C  C139  1  0.690000  0.994000  0.043000  1.0  0.175
  C  C140  1  0.518000  0.999000  0.980000  1.0  0.1296
  C  C141  1  0.501000  0.098000  0.960000  1.0  -0.1668
  C  C142  1  0.746000  0.704000  0.131000  1.0  0.6306
  C  C143  1  0.437000  0.694000  0.884000  1.0  0.6346
  C  C144  1  0.446000  0.717000  0.125000  1.0  0.6689
  N  N145  1  0.097000  0.549900  0.006200  1.0  -0.3208
  N  N146  1  0.094000  0.055300  0.985700  1.0  -0.269
  N  N147  1  0.597000  0.450100  0.993800  1.0  -0.321
  N  N148  1  0.594000  0.944700  0.014300  1.0  -0.2667
  O  O149  1  0.229000  0.385000  0.086200  1.0  -0.495
  O  O150  1  0.229100  0.223200  0.067400  1.0  -0.6449
  O  O151  1  0.232000  0.376000  0.919700  1.0  -0.5622
  O  O152  1  0.233800  0.209000  0.903600  1.0  -0.615
  O  O153  1  0.991200  0.234700  0.085400  1.0  -0.5766
  O  O154  1  0.986000  0.390000  0.101200  1.0  -0.6118
  O  O155  1  0.983300  0.364000  0.904700  1.0  -0.6321
  O  O156  1  0.983400  0.216000  0.887700  1.0  -0.5401
  O  O157  1  0.729000  0.615000  0.913800  1.0  -0.4935
  O  O158  1  0.729100  0.776800  0.932600  1.0  -0.6451
  O  O159  1  0.732000  0.624000  0.080300  1.0  -0.561
  O  O160  1  0.733800  0.791000  0.096400  1.0  -0.6151
  O  O161  1  0.491200  0.765300  0.914600  1.0  -0.5764
  O  O162  1  0.486000  0.610000  0.898800  1.0  -0.6121
  O  O163  1  0.483300  0.636000  0.095300  1.0  -0.6317
  O  O164  1  0.483400  0.784000  0.112300  1.0  -0.541
