# generated using pymatgen
data_ZnH13C23N3O4
_symmetry_space_group_name_H-M   'P 1'
_cell_length_a   11.58570000
_cell_length_b   15.67400000
_cell_length_c   18.11800000
_cell_angle_alpha   90.00000000
_cell_angle_beta   90.00000000
_cell_angle_gamma   90.00000000
_symmetry_Int_Tables_number   1
_chemical_formula_structural   ZnH13C23N3O4
_chemical_formula_sum   'Zn4 H52 C92 N12 O16'
_cell_volume   3290.12483529
_cell_formula_units_Z   4
loop_
 _symmetry_equiv_pos_site_id
 _symmetry_equiv_pos_as_xyz
  1  'x, y, z'
loop_
 _atom_site_type_symbol
 _atom_site_label
 _atom_site_symmetry_multiplicity
 _atom_site_fract_x
 _atom_site_fract_y
 _atom_site_fract_z
 _atom_site_occupancy
 _atom_site_charge
  Zn  Zn1  1  0.250740  0.507190  0.774150  1.0  0.885
  Zn  Zn2  1  0.257770  0.505730  0.935520  1.0  0.8992
  Zn  Zn3  1  0.750740  0.492810  0.225850  1.0  0.8843
  Zn  Zn4  1  0.757770  0.494270  0.064480  1.0  0.8991
  H  H5  1  0.089800  0.477300  0.182400  1.0  0.1073
  H  H6  1  0.427800  0.509700  0.184300  1.0  0.1014
  H  H7  1  0.952700  0.010200  0.858000  1.0  0.1253
  H  H8  1  0.561900  0.004000  0.823800  1.0  0.0737
  H  H9  1  0.417500  0.761500  0.939000  1.0  0.1263
  H  H10  1  0.074100  0.261300  0.950500  1.0  0.0911
  H  H11  1  0.540000  0.875500  0.932400  1.0  0.1138
  H  H12  1  0.963400  0.140700  0.951500  1.0  0.1283
  H  H13  1  0.575600  0.669600  0.759900  1.0  0.0969
  H  H14  1  0.952500  0.333100  0.759100  1.0  0.0865
  H  H15  1  0.704100  0.779500  0.762300  1.0  0.1133
  H  H16  1  0.837400  0.214400  0.753100  1.0  0.1345
  H  H17  1  0.092600  0.491400  0.058400  1.0  0.0891
  H  H18  1  0.425000  0.522100  0.060800  1.0  0.0872
  H  H19  1  0.086200  0.753000  0.764700  1.0  0.1073
  H  H20  1  0.430200  0.266200  0.750300  1.0  0.1026
  H  H21  1  0.921200  0.668700  0.943700  1.0  0.1167
  H  H22  1  0.568400  0.331400  0.946900  1.0  0.1187
  H  H23  1  0.975200  0.876700  0.761900  1.0  0.1326
  H  H24  1  0.554800  0.153800  0.737400  1.0  0.1358
  H  H25  1  0.810900  0.791100  0.941400  1.0  0.1148
  H  H26  1  0.685500  0.211500  0.935600  1.0  0.1107
  H  H27  1  0.086500  0.479300  0.522200  1.0  0.0952
  H  H28  1  0.422400  0.511300  0.519900  1.0  0.0973
  H  H29  1  0.088600  0.487600  0.647400  1.0  0.0915
  H  H30  1  0.422200  0.519200  0.645200  1.0  0.0994
  H  H31  1  0.589800  0.522700  0.817600  1.0  0.1075
  H  H32  1  0.927800  0.490300  0.815700  1.0  0.1011
  H  H33  1  0.452700  0.989800  0.142000  1.0  0.1256
  H  H34  1  0.061900  0.996000  0.176200  1.0  0.0717
  H  H35  1  0.917500  0.238500  0.061000  1.0  0.1272
  H  H36  1  0.574100  0.738700  0.049500  1.0  0.0911
  H  H37  1  0.040000  0.124500  0.067600  1.0  0.1135
  H  H38  1  0.463400  0.859300  0.048500  1.0  0.1292
  H  H39  1  0.075600  0.330400  0.240100  1.0  0.0967
  H  H40  1  0.452500  0.666900  0.240900  1.0  0.0854
  H  H41  1  0.204100  0.220500  0.237700  1.0  0.1128
  H  H42  1  0.337400  0.785600  0.246900  1.0  0.1346
  H  H43  1  0.592600  0.508600  0.941600  1.0  0.0892
  H  H44  1  0.925000  0.477900  0.939200  1.0  0.0874
  H  H45  1  0.586200  0.247000  0.235300  1.0  0.1074
  H  H46  1  0.930200  0.733800  0.249700  1.0  0.1027
  H  H47  1  0.421200  0.331300  0.056300  1.0  0.1162
  H  H48  1  0.068400  0.668600  0.053100  1.0  0.1189
  H  H49  1  0.475200  0.123300  0.238100  1.0  0.1316
  H  H50  1  0.054800  0.846200  0.262600  1.0  0.1369
  H  H51  1  0.310900  0.208900  0.058600  1.0  0.1147
  H  H52  1  0.185500  0.788500  0.064400  1.0  0.1105
  H  H53  1  0.586500  0.520700  0.477800  1.0  0.0954
  H  H54  1  0.922400  0.488700  0.480100  1.0  0.0978
  H  H55  1  0.588600  0.512400  0.352600  1.0  0.092
  H  H56  1  0.922200  0.480800  0.354800  1.0  0.0997
  C  C57  1  0.478200  0.702380  0.846650  1.0  -0.0668
  C  C58  1  0.030590  0.314650  0.855540  1.0  -0.1309
  C  C59  1  0.400600  0.626800  0.848300  1.0  0.5246
  C  C60  1  0.099730  0.393630  0.850960  1.0  0.5877
  C  C61  1  0.626800  0.851460  0.839590  1.0  0.0523
  C  C62  1  0.886800  0.164530  0.851980  1.0  0.0986
  C  C63  1  0.890000  0.849300  0.857620  1.0  0.0675
  C  C64  1  0.623500  0.166420  0.839640  1.0  0.0621
  C  C65  1  0.160500  0.487640  0.159730  1.0  -0.1347
  C  C66  1  0.356600  0.506250  0.160840  1.0  -0.1248
  C  C67  1  0.815600  0.925900  0.855000  1.0  0.0007
  C  C68  1  0.689200  0.085600  0.836900  1.0  0.0328
  C  C69  1  0.105900  0.628800  0.859600  1.0  0.7294
  C  C70  1  0.406500  0.383200  0.855500  1.0  0.6948
  C  C71  1  0.027100  0.703800  0.860070  1.0  -0.1161
  C  C72  1  0.486900  0.311900  0.847470  1.0  -0.166
  C  C73  1  0.872900  0.008200  0.852800  1.0  -0.1378
  C  C74  1  0.640900  0.006200  0.832700  1.0  -0.1252
  C  C75  1  0.693900  0.932700  0.839900  1.0  0.0496
  C  C76  1  0.808200  0.089900  0.842300  1.0  -0.0091
  C  C77  1  0.470500  0.765600  0.900600  1.0  -0.1198
  C  C78  1  0.026170  0.252440  0.910030  1.0  -0.0003
  C  C79  1  0.545000  0.835100  0.895000  1.0  -0.1348
  C  C80  1  0.959600  0.178700  0.912100  1.0  -0.1829
  C  C81  1  0.566300  0.711800  0.795500  1.0  -0.0538
  C  C82  1  0.955800  0.294830  0.798300  1.0  -0.0189
  C  C83  1  0.641500  0.780700  0.794500  1.0  -0.1324
  C  C84  1  0.884900  0.223060  0.793800  1.0  -0.1812
  C  C85  1  0.162500  0.494890  0.083480  1.0  0.1687
  C  C86  1  0.355100  0.512800  0.084800  1.0  0.1577
  C  C87  1  0.259000  0.494910  0.205100  1.0  0.0021
  C  C88  1  0.034400  0.763300  0.802900  1.0  -0.0427
  C  C89  1  0.483600  0.255650  0.787540  1.0  -0.025
  C  C90  1  0.936900  0.711700  0.909800  1.0  -0.0827
  C  C91  1  0.563500  0.295700  0.906000  1.0  -0.1315
  C  C92  1  0.258730  0.487660  0.286330  1.0  0.3624
  C  C93  1  0.967900  0.837400  0.800100  1.0  -0.1742
  C  C94  1  0.553900  0.186300  0.780400  1.0  -0.1934
  C  C95  1  0.870800  0.785000  0.907600  1.0  -0.1135
  C  C96  1  0.631600  0.223000  0.898840  1.0  -0.1
  C  C97  1  0.254860  0.490580  0.421460  1.0  0.3405
  C  C98  1  0.253910  0.495200  0.502730  1.0  0.0101
  C  C99  1  0.156900  0.487880  0.545710  1.0  -0.1282
  C  C100  1  0.352200  0.506470  0.544470  1.0  -0.1276
  C  C101  1  0.157700  0.492520  0.621630  1.0  0.1591
  C  C102  1  0.352800  0.511020  0.620400  1.0  0.1648
  C  C103  1  0.978200  0.297620  0.153350  1.0  -0.067
  C  C104  1  0.530590  0.685350  0.144460  1.0  -0.1314
  C  C105  1  0.900600  0.373200  0.151700  1.0  0.5252
  C  C106  1  0.599730  0.606370  0.149040  1.0  0.588
  C  C107  1  0.126800  0.148540  0.160410  1.0  0.0523
  C  C108  1  0.386800  0.835470  0.148020  1.0  0.0989
  C  C109  1  0.390000  0.150700  0.142380  1.0  0.0682
  C  C110  1  0.123500  0.833580  0.160360  1.0  0.0621
  C  C111  1  0.660500  0.512360  0.840270  1.0  -0.1352
  C  C112  1  0.856600  0.493750  0.839160  1.0  -0.1252
  C  C113  1  0.315600  0.074100  0.145000  1.0  0.0015
  C  C114  1  0.189200  0.914400  0.163100  1.0  0.0327
  C  C115  1  0.605900  0.371200  0.140400  1.0  0.7303
  C  C116  1  0.906500  0.616800  0.144500  1.0  0.6941
  C  C117  1  0.527100  0.296200  0.139930  1.0  -0.1146
  C  C118  1  0.986900  0.688100  0.152530  1.0  -0.1658
  C  C119  1  0.372900  0.991800  0.147200  1.0  -0.138
  C  C120  1  0.140900  0.993800  0.167300  1.0  -0.1251
  C  C121  1  0.193900  0.067300  0.160100  1.0  0.048
  C  C122  1  0.308200  0.910100  0.157700  1.0  -0.0099
  C  C123  1  0.970500  0.234400  0.099400  1.0  -0.1286
  C  C124  1  0.526170  0.747560  0.089970  1.0  -0.0013
  C  C125  1  0.045000  0.164900  0.105000  1.0  -0.1359
  C  C126  1  0.459600  0.821300  0.087900  1.0  -0.1828
  C  C127  1  0.066300  0.288200  0.204500  1.0  -0.0512
  C  C128  1  0.455800  0.705170  0.201700  1.0  -0.0177
  C  C129  1  0.141500  0.219300  0.205500  1.0  -0.1289
  C  C130  1  0.384900  0.776940  0.206200  1.0  -0.1808
  C  C131  1  0.662500  0.505110  0.916520  1.0  0.1684
  C  C132  1  0.855100  0.487200  0.915200  1.0  0.1583
  C  C133  1  0.759000  0.505090  0.794900  1.0  0.0028
  C  C134  1  0.534400  0.236700  0.197100  1.0  -0.0413
  C  C135  1  0.983600  0.744350  0.212460  1.0  -0.0235
  C  C136  1  0.436900  0.288300  0.090200  1.0  -0.0842
  C  C137  1  0.063500  0.704300  0.094000  1.0  -0.1229
  C  C138  1  0.758730  0.512340  0.713670  1.0  0.3622
  C  C139  1  0.467900  0.162600  0.199900  1.0  -0.1758
  C  C140  1  0.053900  0.813700  0.219600  1.0  -0.1939
  C  C141  1  0.370800  0.215000  0.092400  1.0  -0.113
  C  C142  1  0.131600  0.777000  0.101160  1.0  -0.0988
  C  C143  1  0.754860  0.509420  0.578540  1.0  0.341
  C  C144  1  0.753910  0.504800  0.497270  1.0  0.0091
  C  C145  1  0.656900  0.512120  0.454290  1.0  -0.1284
  C  C146  1  0.852200  0.493530  0.455530  1.0  -0.1279
  C  C147  1  0.657700  0.507480  0.378370  1.0  0.1586
  C  C148  1  0.852800  0.488980  0.379600  1.0  0.1643
  N  N149  1  0.259260  0.506640  0.043100  1.0  -0.2737
  N  N150  1  0.359800  0.494640  0.318120  1.0  -0.2207
  N  N151  1  0.159300  0.475600  0.321080  1.0  -0.1751
  N  N152  1  0.356300  0.498060  0.388990  1.0  -0.1819
  N  N153  1  0.150200  0.478810  0.392300  1.0  -0.1344
  N  N154  1  0.255370  0.503920  0.658790  1.0  -0.2747
  N  N155  1  0.759260  0.493360  0.956900  1.0  -0.2725
  N  N156  1  0.859800  0.505360  0.681880  1.0  -0.2211
  N  N157  1  0.659300  0.524400  0.678920  1.0  -0.1758
  N  N158  1  0.856300  0.501940  0.611010  1.0  -0.1825
  N  N159  1  0.650200  0.521190  0.607700  1.0  -0.1344
  N  N160  1  0.755370  0.496080  0.341210  1.0  -0.274
  O  O161  1  0.395500  0.585500  0.918400  1.0  -0.5577
  O  O162  1  0.139000  0.421800  0.923500  1.0  -0.6323
  O  O163  1  0.146000  0.603450  0.916130  1.0  -0.5837
  O  O164  1  0.382100  0.413580  0.911160  1.0  -0.5375
  O  O165  1  0.394700  0.586600  0.783500  1.0  -0.54
  O  O166  1  0.114900  0.425200  0.789900  1.0  -0.5202
  O  O167  1  0.146100  0.609300  0.802130  1.0  -0.6104
  O  O168  1  0.355600  0.404500  0.793790  1.0  -0.6547
  O  O169  1  0.895500  0.414500  0.081600  1.0  -0.5592
  O  O170  1  0.639000  0.578200  0.076500  1.0  -0.63
  O  O171  1  0.646000  0.396550  0.083870  1.0  -0.5847
  O  O172  1  0.882100  0.586420  0.088840  1.0  -0.5379
  O  O173  1  0.894700  0.413400  0.216500  1.0  -0.5389
  O  O174  1  0.614900  0.574800  0.210100  1.0  -0.5199
  O  O175  1  0.646100  0.390700  0.197870  1.0  -0.6099
  O  O176  1  0.855600  0.595500  0.206210  1.0  -0.6523
