# generated using pymatgen
data_ZnH12C23BrN3O4
_symmetry_space_group_name_H-M   'P 1'
_cell_length_a   11.61510000
_cell_length_b   15.64800000
_cell_length_c   18.16300000
_cell_angle_alpha   90.00000000
_cell_angle_beta   93.20200000
_cell_angle_gamma   90.00000000
_symmetry_Int_Tables_number   1
_chemical_formula_structural   ZnH12C23BrN3O4
_chemical_formula_sum   'Zn2 H24 C46 Br2 N6 O8'
_cell_volume   3296.02752464
_cell_formula_units_Z   2
loop_
 _symmetry_equiv_pos_site_id
 _symmetry_equiv_pos_as_xyz
  1  'x, y, z'
loop_
 _atom_site_type_symbol
 _atom_site_label
 _atom_site_symmetry_multiplicity
 _atom_site_fract_x
 _atom_site_fract_y
 _atom_site_fract_z
 _atom_site_occupancy
 _atom_site_charge
  Zn  Zn1  1  0.992380  0.000000  0.918930  1.0  0.88
  Zn  Zn2  1  0.007620  0.000000  0.081070  1.0  0.8802
  H  H3  1  0.742400  0.795400  0.888800  1.0  0.1124
  H  H4  1  0.758000  0.798000  0.110000  1.0  0.1093
  H  H5  1  0.648800  0.671700  0.109800  1.0  0.1123
  H  H6  1  0.621000  0.671800  0.893100  1.0  0.1005
  H  H7  1  0.257600  0.795400  0.111200  1.0  0.113
  H  H8  1  0.242000  0.798000  0.890000  1.0  0.1086
  H  H9  1  0.351200  0.671700  0.890200  1.0  0.1138
  H  H10  1  0.379000  0.671800  0.106900  1.0  0.102
  H  H11  1  0.257600  0.204600  0.111200  1.0  0.1132
  H  H12  1  0.242000  0.202000  0.890000  1.0  0.1087
  H  H13  1  0.351200  0.328300  0.890200  1.0  0.1131
  H  H14  1  0.379000  0.328200  0.106900  1.0  0.1016
  H  H15  1  0.742400  0.204600  0.888800  1.0  0.1127
  H  H16  1  0.758000  0.202000  0.110000  1.0  0.1091
  H  H17  1  0.648800  0.328300  0.109800  1.0  0.1129
  H  H18  1  0.621000  0.328200  0.893100  1.0  0.1012
  H  H19  1  0.159800  0.000000  0.802600  1.0  0.0904
  H  H20  1  0.827000  0.000000  0.789900  1.0  0.0931
  H  H21  1  0.167100  0.000000  0.678900  1.0  0.121
  H  H22  1  0.823500  0.000000  0.663400  1.0  0.1231
  H  H23  1  0.840200  0.000000  0.197400  1.0  0.0894
  H  H24  1  0.173000  0.000000  0.210100  1.0  0.093
  H  H25  1  0.832900  0.000000  0.321100  1.0  0.1205
  H  H26  1  0.176500  0.000000  0.336600  1.0  0.1234
  C  C27  1  0.764800  0.805900  0.000000  1.0  -0.1316
  C  C28  1  0.848500  0.884400  0.001000  1.0  0.6944
  C  C29  1  0.562600  0.577700  0.999500  1.0  -0.0074
  C  C30  1  0.626600  0.660700  0.999900  1.0  0.0779
  C  C31  1  0.724100  0.771500  0.933500  1.0  -0.0501
  C  C32  1  0.734300  0.771900  0.065700  1.0  -0.0424
  C  C33  1  0.666400  0.696700  0.065500  1.0  -0.1421
  C  C34  1  0.651100  0.695900  0.936800  1.0  -0.1417
  C  C35  1  0.235200  0.805900  0.000000  1.0  -0.1319
  C  C36  1  0.151500  0.884400  0.999000  1.0  0.695
  C  C37  1  0.437400  0.577700  0.000500  1.0  -0.0079
  C  C38  1  0.373400  0.660700  0.000100  1.0  0.0778
  C  C39  1  0.275900  0.771500  0.066500  1.0  -0.0504
  C  C40  1  0.265700  0.771900  0.934300  1.0  -0.0401
  C  C41  1  0.333600  0.696700  0.934500  1.0  -0.1409
  C  C42  1  0.348900  0.695900  0.063200  1.0  -0.1404
  C  C43  1  0.235200  0.194100  0.000000  1.0  -0.1317
  C  C44  1  0.151500  0.115600  0.999000  1.0  0.6946
  C  C45  1  0.437400  0.422300  0.000500  1.0  -0.008
  C  C46  1  0.373400  0.339300  0.000100  1.0  0.078
  C  C47  1  0.275900  0.228500  0.066500  1.0  -0.0499
  C  C48  1  0.265700  0.228100  0.934300  1.0  -0.0402
  C  C49  1  0.333600  0.303300  0.934500  1.0  -0.1409
  C  C50  1  0.348900  0.304100  0.063200  1.0  -0.1401
  C  C51  1  0.764800  0.194100  0.000000  1.0  -0.1318
  C  C52  1  0.848500  0.115600  0.001000  1.0  0.6941
  C  C53  1  0.562600  0.422300  0.999500  1.0  -0.0075
  C  C54  1  0.626600  0.339300  0.999900  1.0  0.0777
  C  C55  1  0.724100  0.228500  0.933500  1.0  -0.0498
  C  C56  1  0.734300  0.228100  0.065700  1.0  -0.0425
  C  C57  1  0.666400  0.303300  0.065500  1.0  -0.1423
  C  C58  1  0.651100  0.304100  0.936800  1.0  -0.1415
  C  C59  1  0.090200  0.000000  0.774700  1.0  0.169
  C  C60  1  0.896900  0.000000  0.767300  1.0  0.1492
  C  C61  1  0.095400  0.000000  0.699200  1.0  -0.1534
  C  C62  1  0.997210  0.000000  0.652900  1.0  -0.0068
  C  C63  1  0.894100  0.000000  0.690200  1.0  -0.1539
  C  C64  1  0.998720  0.000000  0.569900  1.0  0.325
  C  C65  1  0.909800  0.000000  0.225300  1.0  0.1689
  C  C66  1  0.103100  0.000000  0.232700  1.0  0.1484
  C  C67  1  0.904600  0.000000  0.300800  1.0  -0.154
  C  C68  1  0.002790  0.000000  0.347100  1.0  -0.0066
  C  C69  1  0.105900  0.000000  0.309800  1.0  -0.1523
  C  C70  1  0.001280  0.000000  0.430100  1.0  0.324
  C  C71  1  0.615600  0.500000  0.002900  1.0  0.0239
  C  C72  1  0.384400  0.500000  0.997100  1.0  0.0274
  Br  Br73  1  0.780670  0.500000  0.999380  1.0  -0.0889
  Br  Br74  1  0.219330  0.500000  0.000620  1.0  -0.0899
  N  N75  1  0.994340  0.000000  0.810700  1.0  -0.2534
  N  N76  1  0.099800  0.000000  0.538700  1.0  -0.2037
  N  N77  1  0.896900  0.000000  0.532800  1.0  -0.1919
  N  N78  1  0.005660  0.000000  0.189300  1.0  -0.2522
  N  N79  1  0.900200  0.000000  0.461300  1.0  -0.2
  N  N80  1  0.103100  0.000000  0.467200  1.0  -0.1936
  O  O81  1  0.870300  0.908900  0.939500  1.0  -0.5752
  O  O82  1  0.883800  0.909100  0.062600  1.0  -0.5832
  O  O83  1  0.129700  0.908900  0.060500  1.0  -0.5744
  O  O84  1  0.116200  0.909100  0.937400  1.0  -0.5823
  O  O85  1  0.129700  0.091100  0.060500  1.0  -0.5745
  O  O86  1  0.116200  0.090900  0.937400  1.0  -0.5823
  O  O87  1  0.870300  0.091100  0.939500  1.0  -0.575
  O  O88  1  0.883800  0.090900  0.062600  1.0  -0.5835
