# generated using pymatgen
data_Co3H42C66(N5O3)4
_symmetry_space_group_name_H-M   'P 1'
_cell_length_a   10.05100000
_cell_length_b   17.77000000
_cell_length_c   17.95340000
_cell_angle_alpha   67.25000000
_cell_angle_beta   74.92800000
_cell_angle_gamma   81.56900000
_symmetry_Int_Tables_number   1
_chemical_formula_structural   Co3H42C66(N5O3)4
_chemical_formula_sum   'Co3 H42 C66 N20 O12'
_cell_volume   2851.57230561
_cell_formula_units_Z   1
loop_
 _symmetry_equiv_pos_site_id
 _symmetry_equiv_pos_as_xyz
  1  'x, y, z'
loop_
 _atom_site_type_symbol
 _atom_site_label
 _atom_site_symmetry_multiplicity
 _atom_site_fract_x
 _atom_site_fract_y
 _atom_site_fract_z
 _atom_site_occupancy
 _atom_site_charge
  Co  Co1  1  0.702280  0.431090  0.487000  1.0  0.9951
  Co  Co2  1  0.297720  0.568910  0.513000  1.0  0.9949
  Co  Co3  1  0.500000  0.000000  0.500000  1.0  0.8931
  H  H4  1  0.074300  0.235200  0.462700  1.0  0.1025
  H  H5  1  0.447300  0.251400  0.495100  1.0  0.0975
  H  H6  1  0.142300  0.417600  0.525100  1.0  0.097
  H  H7  1  0.765500  0.550300  0.282300  1.0  0.1047
  H  H8  1  0.682000  0.322000  0.385500  1.0  0.0883
  H  H9  1  0.807200  0.411600  0.116700  1.0  0.1214
  H  H10  1  0.843900  0.476800  0.976400  1.0  0.1012
  H  H11  1  0.748600  0.692300  0.003300  1.0  0.1176
  H  H12  1  0.716700  0.626800  0.145200  1.0  0.1162
  H  H13  1  0.840900  0.736400  0.738600  1.0  0.1093
  H  H14  1  0.985400  0.843400  0.663400  1.0  0.1188
  H  H15  1  0.145700  0.795700  0.858700  1.0  0.1247
  H  H16  1  0.005100  0.687500  0.933400  1.0  0.0975
  H  H17  1  0.247500  0.876000  0.595400  1.0  0.0946
  H  H18  1  0.352600  0.022800  0.678300  1.0  0.1125
  H  H19  1  0.983200  0.588000  0.765900  1.0  0.1016
  H  H20  1  0.927000  0.519400  0.693900  1.0  0.1096
  H  H21  1  0.541800  0.501700  0.831900  1.0  0.1124
  H  H22  1  0.600400  0.568200  0.905000  1.0  0.1078
  H  H23  1  0.847300  0.476700  0.607900  1.0  0.1036
  H  H24  1  0.490800  0.384700  0.670500  1.0  0.0903
  H  H25  1  0.925700  0.764800  0.537300  1.0  0.1023
  H  H26  1  0.552700  0.748600  0.504900  1.0  0.0972
  H  H27  1  0.857700  0.582400  0.474900  1.0  0.0968
  H  H28  1  0.234500  0.449700  0.717700  1.0  0.1052
  H  H29  1  0.318000  0.678000  0.614500  1.0  0.0879
  H  H30  1  0.192800  0.588400  0.883300  1.0  0.1218
  H  H31  1  0.156100  0.523200  0.023600  1.0  0.1004
  H  H32  1  0.251400  0.307700  0.996700  1.0  0.118
  H  H33  1  0.283300  0.373200  0.854800  1.0  0.1154
  H  H34  1  0.159100  0.263600  0.261400  1.0  0.1094
  H  H35  1  0.014600  0.156600  0.336600  1.0  0.1191
  H  H36  1  0.854300  0.204300  0.141300  1.0  0.1244
  H  H37  1  0.994900  0.312500  0.066600  1.0  0.0987
  H  H38  1  0.752500  0.124000  0.404600  1.0  0.0942
  H  H39  1  0.647400  0.977200  0.321700  1.0  0.1111
  H  H40  1  0.016800  0.412000  0.234100  1.0  0.101
  H  H41  1  0.073000  0.480600  0.306100  1.0  0.1096
  H  H42  1  0.458200  0.498300  0.168100  1.0  0.1125
  H  H43  1  0.399600  0.431800  0.095000  1.0  0.1078
  H  H44  1  0.152700  0.523300  0.392100  1.0  0.1029
  H  H45  1  0.509200  0.615300  0.329500  1.0  0.0898
  C  C46  1  0.943300  0.366980  0.488340  1.0  0.6402
  C  C47  1  0.086900  0.331720  0.492310  1.0  -0.1381
  C  C48  1  0.133200  0.261440  0.475900  1.0  0.0126
  C  C49  1  0.267700  0.229720  0.479200  1.0  -0.1525
  C  C50  1  0.356200  0.271100  0.495600  1.0  0.0253
  C  C51  1  0.311500  0.341500  0.512790  1.0  -0.1578
  C  C52  1  0.174600  0.371310  0.512180  1.0  -0.0322
  C  C53  1  0.316100  0.151420  0.463100  1.0  0.7315
  C  C54  1  0.407900  0.388540  0.527850  1.0  0.7085
  C  C55  1  0.746500  0.497400  0.291100  1.0  0.1491
  C  C56  1  0.702000  0.373500  0.345400  1.0  0.2884
  C  C57  1  0.758300  0.513600  0.144400  1.0  0.1103
  C  C58  1  0.796600  0.468200  0.093800  1.0  -0.2054
  C  C59  1  0.818600  0.507400  0.010300  1.0  -0.1273
  C  C60  1  0.804300  0.591200  0.974700  1.0  0.162
  C  C61  1  0.762600  0.635800  0.026000  1.0  -0.1451
  C  C62  1  0.741800  0.596600  0.110900  1.0  -0.1724
  C  C63  1  0.909700  0.699400  0.844300  1.0  0.1616
  C  C64  1  0.903400  0.747400  0.762800  1.0  -0.1259
  C  C65  1  0.990000  0.811500  0.717700  1.0  -0.1648
  C  C66  1  0.081900  0.827900  0.752700  1.0  0.1512
  C  C67  1  0.085900  0.782800  0.834100  1.0  -0.1588
  C  C68  1  0.000700  0.718500  0.878800  1.0  -0.101
  C  C69  1  0.253400  0.904000  0.628600  1.0  0.145
  C  C70  1  0.307400  0.982600  0.675000  1.0  0.2671
  C  C71  1  0.796400  0.587400  0.841300  1.0  0.1584
  C  C72  1  0.893900  0.571100  0.779000  1.0  -0.1285
  C  C73  1  0.860500  0.530200  0.735900  1.0  -0.1687
  C  C74  1  0.729100  0.505400  0.754800  1.0  0.0969
  C  C75  1  0.630600  0.519400  0.818400  1.0  -0.1012
  C  C76  1  0.665800  0.559500  0.861400  1.0  -0.1261
  C  C77  1  0.758700  0.459640  0.635840  1.0  0.1281
  C  C78  1  0.564700  0.410200  0.671200  1.0  0.2665
  C  C79  1  0.056700  0.633020  0.511660  1.0  0.6396
  C  C80  1  0.913100  0.668280  0.507690  1.0  -0.1384
  C  C81  1  0.866800  0.738560  0.524100  1.0  0.0125
  C  C82  1  0.732300  0.770280  0.520800  1.0  -0.1519
  C  C83  1  0.643800  0.728900  0.504400  1.0  0.0244
  C  C84  1  0.688500  0.658500  0.487210  1.0  -0.1586
  C  C85  1  0.825400  0.628690  0.487820  1.0  -0.0327
  C  C86  1  0.683900  0.848580  0.536900  1.0  0.7321
  C  C87  1  0.592100  0.611460  0.472150  1.0  0.7111
  C  C88  1  0.253500  0.502600  0.708900  1.0  0.1488
  C  C89  1  0.298000  0.626500  0.654600  1.0  0.2876
  C  C90  1  0.241700  0.486400  0.855600  1.0  0.1103
  C  C91  1  0.203400  0.531800  0.906200  1.0  -0.2063
  C  C92  1  0.181400  0.492600  0.989700  1.0  -0.1274
  C  C93  1  0.195700  0.408800  0.025300  1.0  0.163
  C  C94  1  0.237400  0.364200  0.974000  1.0  -0.145
  C  C95  1  0.258200  0.403400  0.889100  1.0  -0.1732
  C  C96  1  0.090300  0.300600  0.155700  1.0  0.1621
  C  C97  1  0.096600  0.252600  0.237200  1.0  -0.1228
  C  C98  1  0.010000  0.188500  0.282300  1.0  -0.1668
  C  C99  1  0.918100  0.172100  0.247300  1.0  0.1497
  C  C100  1  0.914100  0.217200  0.165900  1.0  -0.154
  C  C101  1  0.999300  0.281500  0.121200  1.0  -0.1021
  C  C102  1  0.746600  0.096000  0.371400  1.0  0.1433
  C  C103  1  0.692600  0.017400  0.325000  1.0  0.2689
  C  C104  1  0.203600  0.412600  0.158700  1.0  0.1591
  C  C105  1  0.106100  0.428900  0.221000  1.0  -0.1252
  C  C106  1  0.139500  0.469800  0.264100  1.0  -0.1678
  C  C107  1  0.270900  0.494600  0.245200  1.0  0.0966
  C  C108  1  0.369400  0.480600  0.181600  1.0  -0.0997
  C  C109  1  0.334200  0.440500  0.138600  1.0  -0.1254
  C  C110  1  0.241300  0.540360  0.364160  1.0  0.1268
  C  C111  1  0.435300  0.589800  0.328800  1.0  0.2641
  N  N112  1  0.722600  0.437160  0.364260  1.0  -0.396
  N  N113  1  0.739200  0.471280  0.232120  1.0  0.1683
  N  N114  1  0.712400  0.389740  0.266870  1.0  -0.3776
  N  N115  1  0.829100  0.630670  0.886650  1.0  -0.2069
  N  N116  1  0.178600  0.890190  0.704200  1.0  0.1373
  N  N117  1  0.212200  0.942100  0.735000  1.0  -0.3429
  N  N118  1  0.337200  0.962490  0.606710  1.0  -0.4086
  N  N119  1  0.680500  0.425190  0.610400  1.0  -0.4185
  N  N120  1  0.691500  0.466220  0.707640  1.0  0.1094
  N  N121  1  0.565100  0.434700  0.731220  1.0  -0.3918
  N  N122  1  0.277400  0.562840  0.635740  1.0  -0.3968
  N  N123  1  0.260800  0.528720  0.767880  1.0  0.1683
  N  N124  1  0.287600  0.610260  0.733130  1.0  -0.3797
  N  N125  1  0.170900  0.369330  0.113350  1.0  -0.2059
  N  N126  1  0.821400  0.109810  0.295800  1.0  0.1389
  N  N127  1  0.787800  0.057900  0.265000  1.0  -0.3359
  N  N128  1  0.662800  0.037510  0.393290  1.0  -0.4102
  N  N129  1  0.319500  0.574810  0.389600  1.0  -0.4197
  N  N130  1  0.308500  0.533780  0.292360  1.0  0.108
  N  N131  1  0.434900  0.565300  0.268780  1.0  -0.3911
  O  O132  1  0.846500  0.321150  0.504720  1.0  -0.5621
  O  O133  1  0.920800  0.443010  0.468850  1.0  -0.5619
  O  O134  1  0.237600  0.122020  0.439300  1.0  -0.5598
  O  O135  1  0.431400  0.121140  0.476700  1.0  -0.6069
  O  O136  1  0.360000  0.449170  0.547750  1.0  -0.6543
  O  O137  1  0.532800  0.364320  0.518210  1.0  -0.6019
  O  O138  1  0.153500  0.678850  0.495280  1.0  -0.5616
  O  O139  1  0.079200  0.556990  0.531150  1.0  -0.5609
  O  O140  1  0.762400  0.877980  0.560700  1.0  -0.5555
  O  O141  1  0.568600  0.878860  0.523300  1.0  -0.6057
  O  O142  1  0.640000  0.550830  0.452250  1.0  -0.6542
  O  O143  1  0.467200  0.635680  0.481790  1.0  -0.6015
