# generated using pymatgen
data_CoH22C31(N5O)2
_symmetry_space_group_name_H-M   'P 1'
_cell_length_a   28.64570000
_cell_length_b   12.54400000
_cell_length_c   21.60160000
_cell_angle_alpha   90.00000000
_cell_angle_beta   103.19500000
_cell_angle_gamma   90.00000000
_symmetry_Int_Tables_number   1
_chemical_formula_structural   CoH22C31(N5O)2
_chemical_formula_sum   'Co8 H176 C248 N80 O16'
_cell_volume   7557.20923094
_cell_formula_units_Z   8
loop_
 _symmetry_equiv_pos_site_id
 _symmetry_equiv_pos_as_xyz
  1  'x, y, z'
loop_
 _atom_site_type_symbol
 _atom_site_label
 _atom_site_symmetry_multiplicity
 _atom_site_fract_x
 _atom_site_fract_y
 _atom_site_fract_z
 _atom_site_occupancy
 _atom_site_charge
  Co  Co1  1  0.218070  0.683280  0.337770  1.0  0.9401
  Co  Co2  1  0.781930  0.683280  0.162230  1.0  0.9436
  Co  Co3  1  0.281930  0.816720  0.662230  1.0  0.9435
  Co  Co4  1  0.718070  0.816720  0.837770  1.0  0.9396
  Co  Co5  1  0.718070  0.183280  0.337770  1.0  0.9401
  Co  Co6  1  0.281930  0.183280  0.162230  1.0  0.9436
  Co  Co7  1  0.781930  0.316720  0.662230  1.0  0.9435
  Co  Co8  1  0.218070  0.316720  0.837770  1.0  0.9396
  H  H9  1  0.204500  0.421700  0.350500  1.0  0.0697
  H  H10  1  0.113500  0.617600  0.251600  1.0  0.0947
  H  H11  1  0.832600  0.916600  0.167300  1.0  0.0889
  H  H12  1  0.860500  0.673800  0.072300  1.0  0.0655
  H  H13  1  0.800200  0.695000  0.784800  1.0  0.0799
  H  H14  1  0.773600  0.642900  0.948400  1.0  0.0895
  H  H15  1  0.034800  0.564000  0.205200  1.0  0.0991
  H  H16  1  0.967200  0.508600  0.133100  1.0  0.1005
  H  H17  1  0.021300  0.213300  0.138600  1.0  0.0998
  H  H18  1  0.090300  0.270800  0.208500  1.0  0.1004
  H  H19  1  0.904200  0.044700  0.195000  1.0  0.1088
  H  H20  1  0.931600  0.216600  0.186300  1.0  0.0931
  H  H21  1  0.918400  0.173900  0.999800  1.0  0.1142
  H  H22  1  0.889300  0.003600  0.007600  1.0  0.1164
  H  H23  1  0.854000  0.356800  0.069900  1.0  0.0865
  H  H24  1  0.805200  0.467900  0.997400  1.0  0.1042
  H  H25  1  0.917500  0.552800  0.928900  1.0  0.0939
  H  H26  1  0.966200  0.442300  0.000700  1.0  0.0925
  H  H27  1  0.178800  0.816700  0.126700  1.0  0.0962
  H  H28  1  0.191100  0.843800  0.026300  1.0  0.1048
  H  H29  1  0.301500  0.642600  0.064900  1.0  0.1043
  H  H30  1  0.288800  0.616400  0.164700  1.0  0.0849
  H  H31  1  0.795500  0.421700  0.149500  1.0  0.0702
  H  H32  1  0.886500  0.617600  0.248400  1.0  0.094
  H  H33  1  0.167400  0.916600  0.332700  1.0  0.0893
  H  H34  1  0.139500  0.673800  0.427700  1.0  0.0649
  H  H35  1  0.199800  0.695000  0.715200  1.0  0.0794
  H  H36  1  0.226400  0.642900  0.551600  1.0  0.0899
  H  H37  1  0.965200  0.564000  0.294800  1.0  0.0991
  H  H38  1  0.032800  0.508600  0.366900  1.0  0.1005
  H  H39  1  0.978700  0.213300  0.361400  1.0  0.0996
  H  H40  1  0.909700  0.270800  0.291500  1.0  0.1004
  H  H41  1  0.095800  0.044700  0.305000  1.0  0.1091
  H  H42  1  0.068400  0.216600  0.313700  1.0  0.0927
  H  H43  1  0.081600  0.173900  0.500200  1.0  0.1138
  H  H44  1  0.110700  0.003600  0.492400  1.0  0.1163
  H  H45  1  0.146000  0.356800  0.430100  1.0  0.0868
  H  H46  1  0.194800  0.467900  0.502600  1.0  0.1037
  H  H47  1  0.082500  0.552800  0.571100  1.0  0.0936
  H  H48  1  0.033800  0.442300  0.499300  1.0  0.0928
  H  H49  1  0.821200  0.816700  0.373300  1.0  0.0968
  H  H50  1  0.808900  0.843800  0.473700  1.0  0.1041
  H  H51  1  0.698500  0.642600  0.435100  1.0  0.1041
  H  H52  1  0.711200  0.616400  0.335300  1.0  0.0845
  H  H53  1  0.295500  0.078300  0.649500  1.0  0.0702
  H  H54  1  0.386500  0.882400  0.748400  1.0  0.0954
  H  H55  1  0.667400  0.583400  0.832700  1.0  0.0896
  H  H56  1  0.639500  0.826200  0.927700  1.0  0.0642
  H  H57  1  0.699800  0.805000  0.215200  1.0  0.0797
  H  H58  1  0.726400  0.857100  0.051600  1.0  0.0899
  H  H59  1  0.465200  0.936000  0.794800  1.0  0.0996
  H  H60  1  0.532800  0.991400  0.866900  1.0  0.1009
  H  H61  1  0.478700  0.286700  0.861400  1.0  0.0989
  H  H62  1  0.409700  0.229200  0.791500  1.0  0.1007
  H  H63  1  0.595800  0.455300  0.805000  1.0  0.1089
  H  H64  1  0.568400  0.283400  0.813700  1.0  0.0931
  H  H65  1  0.581600  0.326100  0.000200  1.0  0.1139
  H  H66  1  0.610700  0.496400  0.992400  1.0  0.1165
  H  H67  1  0.646000  0.143200  0.930100  1.0  0.0865
  H  H68  1  0.694800  0.032100  0.002600  1.0  0.1037
  H  H69  1  0.582500  0.947200  0.071100  1.0  0.0941
  H  H70  1  0.533800  0.057700  0.999300  1.0  0.0926
  H  H71  1  0.321200  0.683300  0.873300  1.0  0.0965
  H  H72  1  0.308900  0.656200  0.973700  1.0  0.1043
  H  H73  1  0.198500  0.857400  0.935100  1.0  0.1043
  H  H74  1  0.211200  0.883600  0.835300  1.0  0.0848
  H  H75  1  0.704500  0.078300  0.850500  1.0  0.07
  H  H76  1  0.613500  0.882400  0.751600  1.0  0.0954
  H  H77  1  0.332600  0.583400  0.667300  1.0  0.0894
  H  H78  1  0.360500  0.826200  0.572300  1.0  0.0647
  H  H79  1  0.300200  0.805000  0.284800  1.0  0.08
  H  H80  1  0.273600  0.857100  0.448400  1.0  0.0893
  H  H81  1  0.534800  0.936000  0.705200  1.0  0.0995
  H  H82  1  0.467200  0.991400  0.633100  1.0  0.1004
  H  H83  1  0.521300  0.286700  0.638600  1.0  0.0994
  H  H84  1  0.590300  0.229200  0.708500  1.0  0.1007
  H  H85  1  0.404200  0.455300  0.695000  1.0  0.109
  H  H86  1  0.431600  0.283400  0.686300  1.0  0.0933
  H  H87  1  0.418400  0.326100  0.499800  1.0  0.1136
  H  H88  1  0.389300  0.496400  0.507600  1.0  0.1165
  H  H89  1  0.354000  0.143200  0.569900  1.0  0.0861
  H  H90  1  0.305200  0.032100  0.497400  1.0  0.1041
  H  H91  1  0.417500  0.947200  0.428900  1.0  0.0939
  H  H92  1  0.466200  0.057700  0.500700  1.0  0.0922
  H  H93  1  0.678800  0.683300  0.626700  1.0  0.0966
  H  H94  1  0.691100  0.656200  0.526300  1.0  0.1051
  H  H95  1  0.801500  0.857400  0.564900  1.0  0.1042
  H  H96  1  0.788800  0.883600  0.664700  1.0  0.0848
  H  H97  1  0.704500  0.921700  0.350500  1.0  0.0697
  H  H98  1  0.613500  0.117600  0.251600  1.0  0.0947
  H  H99  1  0.332600  0.416600  0.167300  1.0  0.0887
  H  H100  1  0.360500  0.173800  0.072300  1.0  0.0655
  H  H101  1  0.300200  0.195000  0.784800  1.0  0.0799
  H  H102  1  0.273600  0.142900  0.948400  1.0  0.0895
  H  H103  1  0.534800  0.064000  0.205200  1.0  0.0991
  H  H104  1  0.467200  0.008600  0.133100  1.0  0.1005
  H  H105  1  0.521300  0.713300  0.138600  1.0  0.0998
  H  H106  1  0.590300  0.770800  0.208500  1.0  0.1004
  H  H107  1  0.404200  0.544700  0.195000  1.0  0.1088
  H  H108  1  0.431600  0.716600  0.186300  1.0  0.0931
  H  H109  1  0.418400  0.673900  0.999800  1.0  0.1142
  H  H110  1  0.389300  0.503600  0.007600  1.0  0.1164
  H  H111  1  0.354000  0.856800  0.069900  1.0  0.0865
  H  H112  1  0.305200  0.967900  0.997400  1.0  0.1042
  H  H113  1  0.417500  0.052800  0.928900  1.0  0.0939
  H  H114  1  0.466200  0.942300  0.000700  1.0  0.0925
  H  H115  1  0.678800  0.316700  0.126700  1.0  0.0962
  H  H116  1  0.691100  0.343800  0.026300  1.0  0.1048
  H  H117  1  0.801500  0.142600  0.064900  1.0  0.1043
  H  H118  1  0.788800  0.116400  0.164700  1.0  0.0849
  H  H119  1  0.295500  0.921700  0.149500  1.0  0.0702
  H  H120  1  0.386500  0.117600  0.248400  1.0  0.094
  H  H121  1  0.667400  0.416600  0.332700  1.0  0.089
  H  H122  1  0.639500  0.173800  0.427700  1.0  0.0649
  H  H123  1  0.699800  0.195000  0.715200  1.0  0.0794
  H  H124  1  0.726400  0.142900  0.551600  1.0  0.0899
  H  H125  1  0.465200  0.064000  0.294800  1.0  0.0991
  H  H126  1  0.532800  0.008600  0.366900  1.0  0.1005
  H  H127  1  0.478700  0.713300  0.361400  1.0  0.0996
  H  H128  1  0.409700  0.770800  0.291500  1.0  0.1004
  H  H129  1  0.595800  0.544700  0.305000  1.0  0.1091
  H  H130  1  0.568400  0.716600  0.313700  1.0  0.0927
  H  H131  1  0.581600  0.673900  0.500200  1.0  0.1138
  H  H132  1  0.610700  0.503600  0.492400  1.0  0.1163
  H  H133  1  0.646000  0.856800  0.430100  1.0  0.0868
  H  H134  1  0.694800  0.967900  0.502600  1.0  0.1037
  H  H135  1  0.582500  0.052800  0.571100  1.0  0.0936
  H  H136  1  0.533800  0.942300  0.499300  1.0  0.0928
  H  H137  1  0.321200  0.316700  0.373300  1.0  0.0968
  H  H138  1  0.308900  0.343800  0.473700  1.0  0.1041
  H  H139  1  0.198500  0.142600  0.435100  1.0  0.1041
  H  H140  1  0.211200  0.116400  0.335300  1.0  0.0845
  H  H141  1  0.795500  0.578300  0.649500  1.0  0.0702
  H  H142  1  0.886500  0.382400  0.748400  1.0  0.0954
  H  H143  1  0.167400  0.083400  0.832700  1.0  0.0892
  H  H144  1  0.139500  0.326200  0.927700  1.0  0.0642
  H  H145  1  0.199800  0.305000  0.215200  1.0  0.0797
  H  H146  1  0.226400  0.357100  0.051600  1.0  0.0899
  H  H147  1  0.965200  0.436000  0.794800  1.0  0.0996
  H  H148  1  0.032800  0.491400  0.866900  1.0  0.1009
  H  H149  1  0.978700  0.786700  0.861400  1.0  0.0989
  H  H150  1  0.909700  0.729200  0.791500  1.0  0.1007
  H  H151  1  0.095800  0.955300  0.805000  1.0  0.1089
  H  H152  1  0.068400  0.783400  0.813700  1.0  0.0931
  H  H153  1  0.081600  0.826100  0.000200  1.0  0.1139
  H  H154  1  0.110700  0.996400  0.992400  1.0  0.1165
  H  H155  1  0.146000  0.643200  0.930100  1.0  0.0865
  H  H156  1  0.194800  0.532100  0.002600  1.0  0.1037
  H  H157  1  0.082500  0.447200  0.071100  1.0  0.0941
  H  H158  1  0.033800  0.557700  0.999300  1.0  0.0927
  H  H159  1  0.821200  0.183300  0.873300  1.0  0.0965
  H  H160  1  0.808900  0.156200  0.973700  1.0  0.1043
  H  H161  1  0.698500  0.357400  0.935100  1.0  0.1043
  H  H162  1  0.711200  0.383600  0.835300  1.0  0.0848
  H  H163  1  0.204500  0.578300  0.850500  1.0  0.07
  H  H164  1  0.113500  0.382400  0.751600  1.0  0.0954
  H  H165  1  0.832600  0.083400  0.667300  1.0  0.0892
  H  H166  1  0.860500  0.326200  0.572300  1.0  0.0647
  H  H167  1  0.800200  0.305000  0.284800  1.0  0.08
  H  H168  1  0.773600  0.357100  0.448400  1.0  0.0893
  H  H169  1  0.034800  0.436000  0.705200  1.0  0.0995
  H  H170  1  0.967200  0.491400  0.633100  1.0  0.1004
  H  H171  1  0.021300  0.786700  0.638600  1.0  0.0994
  H  H172  1  0.090300  0.729200  0.708500  1.0  0.1007
  H  H173  1  0.904200  0.955300  0.695000  1.0  0.109
  H  H174  1  0.931600  0.783400  0.686300  1.0  0.0933
  H  H175  1  0.918400  0.826100  0.499800  1.0  0.1136
  H  H176  1  0.889300  0.996400  0.507600  1.0  0.1165
  H  H177  1  0.854000  0.643200  0.569900  1.0  0.0861
  H  H178  1  0.805200  0.532100  0.497400  1.0  0.1041
  H  H179  1  0.917500  0.447200  0.428900  1.0  0.0939
  H  H180  1  0.966200  0.557700  0.500700  1.0  0.0923
  H  H181  1  0.178800  0.183300  0.626700  1.0  0.0966
  H  H182  1  0.191100  0.156200  0.526300  1.0  0.1051
  H  H183  1  0.301500  0.357400  0.564900  1.0  0.1042
  H  H184  1  0.288800  0.383600  0.664700  1.0  0.0848
  C  C185  1  0.177370  0.448100  0.322550  1.0  0.2636
  C  C186  1  0.128640  0.555800  0.269670  1.0  0.1194
  C  C187  1  0.845150  0.872700  0.140470  1.0  0.1192
  C  C188  1  0.860760  0.742600  0.088520  1.0  0.274
  C  C189  1  0.802840  0.669700  0.825900  1.0  0.2704
  C  C190  1  0.787880  0.643300  0.913820  1.0  0.1607
  C  C191  1  0.068920  0.423000  0.214160  1.0  0.1197
  C  C192  1  0.032120  0.493500  0.191560  1.0  -0.1701
  C  C193  1  0.991510  0.460100  0.148870  1.0  -0.1644
  C  C194  1  0.986460  0.353800  0.128890  1.0  0.1584
  C  C195  1  0.023920  0.284100  0.151750  1.0  -0.1775
  C  C196  1  0.065220  0.318200  0.193930  1.0  -0.1614
  C  C197  1  0.894900  0.007800  0.102350  1.0  0.1459
  C  C198  1  0.907030  0.070800  0.155690  1.0  -0.2078
  C  C199  1  0.923500  0.173400  0.150440  1.0  -0.2019
  C  C200  1  0.927840  0.211600  0.092470  1.0  0.1627
  C  C201  1  0.915330  0.148000  0.038970  1.0  -0.1533
  C  C202  1  0.898340  0.046100  0.043680  1.0  -0.1486
  C  C203  1  0.914980  0.387200  0.042840  1.0  0.172
  C  C204  1  0.867010  0.396000  0.041400  1.0  -0.1098
  C  C205  1  0.837700  0.462600  0.998130  1.0  -0.1963
  C  C206  1  0.857020  0.520400  0.956480  1.0  0.1358
  C  C207  1  0.904680  0.513000  0.957400  1.0  -0.1344
  C  C208  1  0.933740  0.447000  0.000200  1.0  -0.1272
  C  C209  1  0.224780  0.698700  0.222250  1.0  0.6638
  C  C210  1  0.232240  0.713200  0.156320  1.0  -0.1676
  C  C211  1  0.203530  0.780800  0.114280  1.0  -0.0624
  C  C212  1  0.210740  0.796500  0.053600  1.0  -0.1322
  C  C213  1  0.246680  0.743000  0.032960  1.0  0.0286
  C  C214  1  0.276080  0.677300  0.076540  1.0  -0.1354
  C  C215  1  0.268680  0.662100  0.136780  1.0  -0.0482
  C  C216  1  0.822630  0.448100  0.177450  1.0  0.2638
  C  C217  1  0.871360  0.555800  0.230330  1.0  0.1188
  C  C218  1  0.154850  0.872700  0.359530  1.0  0.1195
  C  C219  1  0.139240  0.742600  0.411480  1.0  0.2727
  C  C220  1  0.197160  0.669700  0.674100  1.0  0.2714
  C  C221  1  0.212120  0.643300  0.586180  1.0  0.1619
  C  C222  1  0.931080  0.423000  0.285840  1.0  0.1201
  C  C223  1  0.967880  0.493500  0.308440  1.0  -0.1697
  C  C224  1  0.008490  0.460100  0.351130  1.0  -0.1658
  C  C225  1  0.013540  0.353800  0.371110  1.0  0.1581
  C  C226  1  0.976080  0.284100  0.348250  1.0  -0.1767
  C  C227  1  0.934780  0.318200  0.306070  1.0  -0.1598
  C  C228  1  0.105100  0.007800  0.397650  1.0  0.1441
  C  C229  1  0.092970  0.070800  0.344310  1.0  -0.2057
  C  C230  1  0.076500  0.173400  0.349560  1.0  -0.2037
  C  C231  1  0.072160  0.211600  0.407530  1.0  0.1627
  C  C232  1  0.084670  0.148000  0.461030  1.0  -0.1537
  C  C233  1  0.101660  0.046100  0.456320  1.0  -0.1479
  C  C234  1  0.085020  0.387200  0.457160  1.0  0.1722
  C  C235  1  0.132990  0.396000  0.458600  1.0  -0.1103
  C  C236  1  0.162300  0.462600  0.501870  1.0  -0.1988
  C  C237  1  0.142980  0.520400  0.543520  1.0  0.136
  C  C238  1  0.095320  0.513000  0.542600  1.0  -0.1345
  C  C239  1  0.066260  0.447000  0.499800  1.0  -0.1273
  C  C240  1  0.775220  0.698700  0.277750  1.0  0.6634
  C  C241  1  0.767760  0.713200  0.343680  1.0  -0.1682
  C  C242  1  0.796470  0.780800  0.385720  1.0  -0.0621
  C  C243  1  0.789260  0.796500  0.446400  1.0  -0.134
  C  C244  1  0.753320  0.743000  0.467040  1.0  0.0288
  C  C245  1  0.723920  0.677300  0.423460  1.0  -0.1348
  C  C246  1  0.731320  0.662100  0.363220  1.0  -0.049
  C  C247  1  0.322630  0.051900  0.677450  1.0  0.2633
  C  C248  1  0.371360  0.944200  0.730330  1.0  0.119
  C  C249  1  0.654850  0.627300  0.859530  1.0  0.1198
  C  C250  1  0.639240  0.757400  0.911480  1.0  0.2721
  C  C251  1  0.697160  0.830300  0.174100  1.0  0.2715
  C  C252  1  0.712120  0.856700  0.086180  1.0  0.1612
  C  C253  1  0.431080  0.077000  0.785840  1.0  0.1203
  C  C254  1  0.467880  0.006500  0.808440  1.0  -0.1703
  C  C255  1  0.508490  0.039900  0.851130  1.0  -0.1647
  C  C256  1  0.513540  0.146200  0.871110  1.0  0.1578
  C  C257  1  0.476080  0.215900  0.848250  1.0  -0.1806
  C  C258  1  0.434780  0.181800  0.806070  1.0  -0.1623
  C  C259  1  0.605100  0.492200  0.897650  1.0  0.1452
  C  C260  1  0.592970  0.429200  0.844310  1.0  -0.2065
  C  C261  1  0.576500  0.326600  0.849560  1.0  -0.204
  C  C262  1  0.572160  0.288400  0.907530  1.0  0.1635
  C  C263  1  0.584670  0.352000  0.961030  1.0  -0.1544
  C  C264  1  0.601660  0.453900  0.956320  1.0  -0.1489
  C  C265  1  0.585020  0.112800  0.957160  1.0  0.1721
  C  C266  1  0.632990  0.104000  0.958600  1.0  -0.1102
  C  C267  1  0.662300  0.037400  0.001870  1.0  -0.1991
  C  C268  1  0.642980  0.979600  0.043520  1.0  0.1365
  C  C269  1  0.595320  0.987000  0.042600  1.0  -0.1349
  C  C270  1  0.566260  0.053000  0.999800  1.0  -0.1276
  C  C271  1  0.275220  0.801300  0.777750  1.0  0.6632
  C  C272  1  0.267760  0.786800  0.843680  1.0  -0.1676
  C  C273  1  0.296470  0.719200  0.885720  1.0  -0.0634
  C  C274  1  0.289260  0.703500  0.946400  1.0  -0.1333
  C  C275  1  0.253320  0.757000  0.967040  1.0  0.0288
  C  C276  1  0.223920  0.822700  0.923460  1.0  -0.1286
  C  C277  1  0.231320  0.837900  0.863220  1.0  -0.0484
  C  C278  1  0.677370  0.051900  0.822550  1.0  0.2649
  C  C279  1  0.628640  0.944200  0.769670  1.0  0.1203
  C  C280  1  0.345150  0.627300  0.640470  1.0  0.119
  C  C281  1  0.360760  0.757400  0.588520  1.0  0.2732
  C  C282  1  0.302840  0.830300  0.325900  1.0  0.2694
  C  C283  1  0.287880  0.856700  0.413820  1.0  0.1615
  C  C284  1  0.568920  0.077000  0.714160  1.0  0.1199
  C  C285  1  0.532120  0.006500  0.691560  1.0  -0.1707
  C  C286  1  0.491510  0.039900  0.648870  1.0  -0.1634
  C  C287  1  0.486460  0.146200  0.628890  1.0  0.158
  C  C288  1  0.523920  0.215900  0.651750  1.0  -0.1801
  C  C289  1  0.565220  0.181800  0.693930  1.0  -0.1625
  C  C290  1  0.394900  0.492200  0.602350  1.0  0.1461
  C  C291  1  0.407030  0.429200  0.655690  1.0  -0.2079
  C  C292  1  0.423500  0.326600  0.650440  1.0  -0.2006
  C  C293  1  0.427840  0.288400  0.592470  1.0  0.1633
  C  C294  1  0.415330  0.352000  0.538970  1.0  -0.1521
  C  C295  1  0.398340  0.453900  0.543680  1.0  -0.1475
  C  C296  1  0.414980  0.112800  0.542840  1.0  0.172
  C  C297  1  0.367010  0.104000  0.541400  1.0  -0.1097
  C  C298  1  0.337700  0.037400  0.498130  1.0  -0.1967
  C  C299  1  0.357020  0.979600  0.456480  1.0  0.1359
  C  C300  1  0.404680  0.987000  0.457400  1.0  -0.1349
  C  C301  1  0.433740  0.053000  0.500200  1.0  -0.1273
  C  C302  1  0.724780  0.801300  0.722250  1.0  0.6636
  C  C303  1  0.732240  0.786800  0.656320  1.0  -0.1676
  C  C304  1  0.703530  0.719200  0.614280  1.0  -0.0628
  C  C305  1  0.710740  0.703500  0.553600  1.0  -0.1301
  C  C306  1  0.746680  0.757000  0.532960  1.0  0.0287
  C  C307  1  0.776080  0.822700  0.576540  1.0  -0.1294
  C  C308  1  0.768680  0.837900  0.636780  1.0  -0.0484
  C  C309  1  0.677370  0.948100  0.322550  1.0  0.2636
  C  C310  1  0.628640  0.055800  0.269670  1.0  0.1194
  C  C311  1  0.345150  0.372700  0.140470  1.0  0.1192
  C  C312  1  0.360760  0.242600  0.088520  1.0  0.274
  C  C313  1  0.302840  0.169700  0.825900  1.0  0.2704
  C  C314  1  0.287880  0.143300  0.913820  1.0  0.1607
  C  C315  1  0.568920  0.923000  0.214160  1.0  0.1197
  C  C316  1  0.532120  0.993500  0.191560  1.0  -0.1701
  C  C317  1  0.491510  0.960100  0.148870  1.0  -0.1644
  C  C318  1  0.486460  0.853800  0.128890  1.0  0.1584
  C  C319  1  0.523920  0.784100  0.151750  1.0  -0.1775
  C  C320  1  0.565220  0.818200  0.193930  1.0  -0.1614
  C  C321  1  0.394900  0.507800  0.102350  1.0  0.1459
  C  C322  1  0.407030  0.570800  0.155690  1.0  -0.2078
  C  C323  1  0.423500  0.673400  0.150440  1.0  -0.2019
  C  C324  1  0.427840  0.711600  0.092470  1.0  0.1627
  C  C325  1  0.415330  0.648000  0.038970  1.0  -0.1533
  C  C326  1  0.398340  0.546100  0.043680  1.0  -0.1486
  C  C327  1  0.414980  0.887200  0.042840  1.0  0.172
  C  C328  1  0.367010  0.896000  0.041400  1.0  -0.1098
  C  C329  1  0.337700  0.962600  0.998130  1.0  -0.1963
  C  C330  1  0.357020  0.020400  0.956480  1.0  0.1358
  C  C331  1  0.404680  0.013000  0.957400  1.0  -0.1344
  C  C332  1  0.433740  0.947000  0.000200  1.0  -0.1272
  C  C333  1  0.724780  0.198700  0.222250  1.0  0.6638
  C  C334  1  0.732240  0.213200  0.156320  1.0  -0.1676
  C  C335  1  0.703530  0.280800  0.114280  1.0  -0.0624
  C  C336  1  0.710740  0.296500  0.053600  1.0  -0.1322
  C  C337  1  0.746680  0.243000  0.032960  1.0  0.0286
  C  C338  1  0.776080  0.177300  0.076540  1.0  -0.1354
  C  C339  1  0.768680  0.162100  0.136780  1.0  -0.0482
  C  C340  1  0.322630  0.948100  0.177450  1.0  0.2638
  C  C341  1  0.371360  0.055800  0.230330  1.0  0.1188
  C  C342  1  0.654850  0.372700  0.359530  1.0  0.1195
  C  C343  1  0.639240  0.242600  0.411480  1.0  0.2727
  C  C344  1  0.697160  0.169700  0.674100  1.0  0.2714
  C  C345  1  0.712120  0.143300  0.586180  1.0  0.1619
  C  C346  1  0.431080  0.923000  0.285840  1.0  0.1201
  C  C347  1  0.467880  0.993500  0.308440  1.0  -0.1697
  C  C348  1  0.508490  0.960100  0.351130  1.0  -0.1658
  C  C349  1  0.513540  0.853800  0.371110  1.0  0.1581
  C  C350  1  0.476080  0.784100  0.348250  1.0  -0.1767
  C  C351  1  0.434780  0.818200  0.306070  1.0  -0.1598
  C  C352  1  0.605100  0.507800  0.397650  1.0  0.1441
  C  C353  1  0.592970  0.570800  0.344310  1.0  -0.2057
  C  C354  1  0.576500  0.673400  0.349560  1.0  -0.2037
  C  C355  1  0.572160  0.711600  0.407530  1.0  0.1627
  C  C356  1  0.584670  0.648000  0.461030  1.0  -0.1537
  C  C357  1  0.601660  0.546100  0.456320  1.0  -0.1479
  C  C358  1  0.585020  0.887200  0.457160  1.0  0.1722
  C  C359  1  0.632990  0.896000  0.458600  1.0  -0.1103
  C  C360  1  0.662300  0.962600  0.501870  1.0  -0.1988
  C  C361  1  0.642980  0.020400  0.543520  1.0  0.136
  C  C362  1  0.595320  0.013000  0.542600  1.0  -0.1345
  C  C363  1  0.566260  0.947000  0.499800  1.0  -0.1273
  C  C364  1  0.275220  0.198700  0.277750  1.0  0.6634
  C  C365  1  0.267760  0.213200  0.343680  1.0  -0.1682
  C  C366  1  0.296470  0.280800  0.385720  1.0  -0.0621
  C  C367  1  0.289260  0.296500  0.446400  1.0  -0.134
  C  C368  1  0.253320  0.243000  0.467040  1.0  0.0288
  C  C369  1  0.223920  0.177300  0.423460  1.0  -0.1348
  C  C370  1  0.231320  0.162100  0.363220  1.0  -0.049
  C  C371  1  0.822630  0.551900  0.677450  1.0  0.2633
  C  C372  1  0.871360  0.444200  0.730330  1.0  0.119
  C  C373  1  0.154850  0.127300  0.859530  1.0  0.1198
  C  C374  1  0.139240  0.257400  0.911480  1.0  0.2721
  C  C375  1  0.197160  0.330300  0.174100  1.0  0.2715
  C  C376  1  0.212120  0.356700  0.086180  1.0  0.1612
  C  C377  1  0.931080  0.577000  0.785840  1.0  0.1203
  C  C378  1  0.967880  0.506500  0.808440  1.0  -0.1703
  C  C379  1  0.008490  0.539900  0.851130  1.0  -0.1647
  C  C380  1  0.013540  0.646200  0.871110  1.0  0.1578
  C  C381  1  0.976080  0.715900  0.848250  1.0  -0.1806
  C  C382  1  0.934780  0.681800  0.806070  1.0  -0.1623
  C  C383  1  0.105100  0.992200  0.897650  1.0  0.1452
  C  C384  1  0.092970  0.929200  0.844310  1.0  -0.2065
  C  C385  1  0.076500  0.826600  0.849560  1.0  -0.204
  C  C386  1  0.072160  0.788400  0.907530  1.0  0.1635
  C  C387  1  0.084670  0.852000  0.961030  1.0  -0.1544
  C  C388  1  0.101660  0.953900  0.956320  1.0  -0.1489
  C  C389  1  0.085020  0.612800  0.957160  1.0  0.1721
  C  C390  1  0.132990  0.604000  0.958600  1.0  -0.1102
  C  C391  1  0.162300  0.537400  0.001870  1.0  -0.1991
  C  C392  1  0.142980  0.479600  0.043520  1.0  0.1365
  C  C393  1  0.095320  0.487000  0.042600  1.0  -0.1349
  C  C394  1  0.066260  0.553000  0.999800  1.0  -0.1276
  C  C395  1  0.775220  0.301300  0.777750  1.0  0.6632
  C  C396  1  0.767760  0.286800  0.843680  1.0  -0.1676
  C  C397  1  0.796470  0.219200  0.885720  1.0  -0.0634
  C  C398  1  0.789260  0.203500  0.946400  1.0  -0.1333
  C  C399  1  0.753320  0.257000  0.967040  1.0  0.0288
  C  C400  1  0.723920  0.322700  0.923460  1.0  -0.1286
  C  C401  1  0.731320  0.337900  0.863220  1.0  -0.0484
  C  C402  1  0.177370  0.551900  0.822550  1.0  0.2649
  C  C403  1  0.128640  0.444200  0.769670  1.0  0.1203
  C  C404  1  0.845150  0.127300  0.640470  1.0  0.119
  C  C405  1  0.860760  0.257400  0.588520  1.0  0.2732
  C  C406  1  0.802840  0.330300  0.325900  1.0  0.2694
  C  C407  1  0.787880  0.356700  0.413820  1.0  0.1615
  C  C408  1  0.068920  0.577000  0.714160  1.0  0.1199
  C  C409  1  0.032120  0.506500  0.691560  1.0  -0.1707
  C  C410  1  0.991510  0.539900  0.648870  1.0  -0.1634
  C  C411  1  0.986460  0.646200  0.628890  1.0  0.158
  C  C412  1  0.023920  0.715900  0.651750  1.0  -0.1801
  C  C413  1  0.065220  0.681800  0.693930  1.0  -0.1625
  C  C414  1  0.894900  0.992200  0.602350  1.0  0.1461
  C  C415  1  0.907030  0.929200  0.655690  1.0  -0.2079
  C  C416  1  0.923500  0.826600  0.650440  1.0  -0.2006
  C  C417  1  0.927840  0.788400  0.592470  1.0  0.1633
  C  C418  1  0.915330  0.852000  0.538970  1.0  -0.1521
  C  C419  1  0.898340  0.953900  0.543680  1.0  -0.1475
  C  C420  1  0.914980  0.612800  0.542840  1.0  0.172
  C  C421  1  0.867010  0.604000  0.541400  1.0  -0.1097
  C  C422  1  0.837700  0.537400  0.498130  1.0  -0.1967
  C  C423  1  0.857020  0.479600  0.456480  1.0  0.1359
  C  C424  1  0.904680  0.487000  0.457400  1.0  -0.1349
  C  C425  1  0.933740  0.553000  0.500200  1.0  -0.1273
  C  C426  1  0.224780  0.301300  0.722250  1.0  0.6636
  C  C427  1  0.232240  0.286800  0.656320  1.0  -0.1676
  C  C428  1  0.203530  0.219200  0.614280  1.0  -0.0628
  C  C429  1  0.210740  0.203500  0.553600  1.0  -0.1301
  C  C430  1  0.246680  0.257000  0.532960  1.0  0.0287
  C  C431  1  0.276080  0.322700  0.576540  1.0  -0.1294
  C  C432  1  0.268680  0.337900  0.636780  1.0  -0.0484
  N  N433  1  0.170360  0.552800  0.311250  1.0  -0.4155
  N  N434  1  0.111540  0.457720  0.257530  1.0  0.1203
  N  N435  1  0.143290  0.386000  0.291500  1.0  -0.3803
  N  N436  1  0.834520  0.770900  0.129970  1.0  -0.4078
  N  N437  1  0.876320  0.903300  0.107160  1.0  0.1253
  N  N438  1  0.886900  0.819700  0.072560  1.0  -0.3724
  N  N439  1  0.772120  0.698300  0.861340  1.0  -0.4241
  N  N440  1  0.836880  0.603800  0.853080  1.0  -0.3739
  N  N441  1  0.827010  0.588200  0.910890  1.0  0.1321
  N  N442  1  0.944720  0.317600  0.086620  1.0  -0.1681
  N  N443  1  0.829640  0.552800  0.188750  1.0  -0.415
  N  N444  1  0.888460  0.457720  0.242470  1.0  0.1213
  N  N445  1  0.856710  0.386000  0.208500  1.0  -0.3801
  N  N446  1  0.165480  0.770900  0.370030  1.0  -0.4091
  N  N447  1  0.123680  0.903300  0.392840  1.0  0.1241
  N  N448  1  0.113100  0.819700  0.427440  1.0  -0.3734
  N  N449  1  0.227880  0.698300  0.638660  1.0  -0.4262
  N  N450  1  0.163120  0.603800  0.646920  1.0  -0.3725
  N  N451  1  0.172990  0.588200  0.589110  1.0  0.1311
  N  N452  1  0.055280  0.317600  0.413380  1.0  -0.1691
  N  N453  1  0.329640  0.947200  0.688750  1.0  -0.4163
  N  N454  1  0.388460  0.042280  0.742470  1.0  0.1217
  N  N455  1  0.356710  0.114000  0.708500  1.0  -0.3824
  N  N456  1  0.665480  0.729100  0.870030  1.0  -0.4092
  N  N457  1  0.623680  0.596700  0.892840  1.0  0.1247
  N  N458  1  0.613100  0.680300  0.927440  1.0  -0.3731
  N  N459  1  0.727880  0.801700  0.138660  1.0  -0.4241
  N  N460  1  0.663120  0.896200  0.146920  1.0  -0.372
  N  N461  1  0.672990  0.911800  0.089110  1.0  0.1307
  N  N462  1  0.555280  0.182400  0.913380  1.0  -0.1689
  N  N463  1  0.670360  0.947200  0.811250  1.0  -0.4141
  N  N464  1  0.611540  0.042280  0.757530  1.0  0.1207
  N  N465  1  0.643290  0.114000  0.791500  1.0  -0.3821
  N  N466  1  0.334520  0.729100  0.629970  1.0  -0.4084
  N  N467  1  0.376320  0.596700  0.607160  1.0  0.1258
  N  N468  1  0.386900  0.680300  0.572560  1.0  -0.3731
  N  N469  1  0.272120  0.801700  0.361340  1.0  -0.4238
  N  N470  1  0.336880  0.896200  0.353080  1.0  -0.3741
  N  N471  1  0.327010  0.911800  0.410890  1.0  0.1319
  N  N472  1  0.444720  0.182400  0.586620  1.0  -0.1682
  N  N473  1  0.670360  0.052800  0.311250  1.0  -0.4155
  N  N474  1  0.611540  0.957720  0.257530  1.0  0.1203
  N  N475  1  0.643290  0.886000  0.291500  1.0  -0.3803
  N  N476  1  0.334520  0.270900  0.129970  1.0  -0.4078
  N  N477  1  0.376320  0.403300  0.107160  1.0  0.1253
  N  N478  1  0.386900  0.319700  0.072560  1.0  -0.3724
  N  N479  1  0.272120  0.198300  0.861340  1.0  -0.4241
  N  N480  1  0.336880  0.103800  0.853080  1.0  -0.3739
  N  N481  1  0.327010  0.088200  0.910890  1.0  0.1321
  N  N482  1  0.444720  0.817600  0.086620  1.0  -0.1681
  N  N483  1  0.329640  0.052800  0.188750  1.0  -0.415
  N  N484  1  0.388460  0.957720  0.242470  1.0  0.1213
  N  N485  1  0.356710  0.886000  0.208500  1.0  -0.3801
  N  N486  1  0.665480  0.270900  0.370030  1.0  -0.4091
  N  N487  1  0.623680  0.403300  0.392840  1.0  0.1241
  N  N488  1  0.613100  0.319700  0.427440  1.0  -0.3734
  N  N489  1  0.727880  0.198300  0.638660  1.0  -0.4262
  N  N490  1  0.663120  0.103800  0.646920  1.0  -0.3725
  N  N491  1  0.672990  0.088200  0.589110  1.0  0.1311
  N  N492  1  0.555280  0.817600  0.413380  1.0  -0.1691
  N  N493  1  0.829640  0.447200  0.688750  1.0  -0.4163
  N  N494  1  0.888460  0.542280  0.742470  1.0  0.1217
  N  N495  1  0.856710  0.614000  0.708500  1.0  -0.3824
  N  N496  1  0.165480  0.229100  0.870030  1.0  -0.4092
  N  N497  1  0.123680  0.096700  0.892840  1.0  0.1247
  N  N498  1  0.113100  0.180300  0.927440  1.0  -0.3731
  N  N499  1  0.227880  0.301700  0.138660  1.0  -0.4241
  N  N500  1  0.163120  0.396200  0.146920  1.0  -0.372
  N  N501  1  0.172990  0.411800  0.089110  1.0  0.1307
  N  N502  1  0.055280  0.682400  0.913380  1.0  -0.1689
  N  N503  1  0.170360  0.447200  0.811250  1.0  -0.4141
  N  N504  1  0.111540  0.542280  0.757530  1.0  0.1207
  N  N505  1  0.143290  0.614000  0.791500  1.0  -0.3821
  N  N506  1  0.834520  0.229100  0.629970  1.0  -0.4084
  N  N507  1  0.876320  0.096700  0.607160  1.0  0.1258
  N  N508  1  0.886900  0.180300  0.572560  1.0  -0.3731
  N  N509  1  0.772120  0.301700  0.361340  1.0  -0.4238
  N  N510  1  0.836880  0.396200  0.353080  1.0  -0.3741
  N  N511  1  0.827010  0.411800  0.410890  1.0  0.1319
  N  N512  1  0.944720  0.682400  0.586620  1.0  -0.1682
  O  O513  1  0.249900  0.632710  0.259780  1.0  -0.5888
  O  O514  1  0.194710  0.755930  0.241540  1.0  -0.5674
  O  O515  1  0.750100  0.632710  0.240220  1.0  -0.5882
  O  O516  1  0.805290  0.755930  0.258460  1.0  -0.5683
  O  O517  1  0.250100  0.867290  0.740220  1.0  -0.5897
  O  O518  1  0.305290  0.744070  0.758460  1.0  -0.5689
  O  O519  1  0.749900  0.867290  0.759780  1.0  -0.5893
  O  O520  1  0.694710  0.744070  0.741540  1.0  -0.5685
  O  O521  1  0.749900  0.132710  0.259780  1.0  -0.5888
  O  O522  1  0.694710  0.255930  0.241540  1.0  -0.5674
  O  O523  1  0.250100  0.132710  0.240220  1.0  -0.5882
  O  O524  1  0.305290  0.255930  0.258460  1.0  -0.5683
  O  O525  1  0.750100  0.367290  0.740220  1.0  -0.5897
  O  O526  1  0.805290  0.244070  0.758460  1.0  -0.5689
  O  O527  1  0.249900  0.367290  0.759780  1.0  -0.5893
  O  O528  1  0.194710  0.244070  0.741540  1.0  -0.5685
