# generated using pymatgen
data_ZnH20C30NO4
_symmetry_space_group_name_H-M   'P 1'
_cell_length_a   15.08400000
_cell_length_b   27.43000000
_cell_length_c   15.79900000
_cell_angle_alpha   90.00000000
_cell_angle_beta   95.44700000
_cell_angle_gamma   90.00000000
_symmetry_Int_Tables_number   1
_chemical_formula_structural   ZnH20C30NO4
_chemical_formula_sum   'Zn8 H160 C240 N8 O32'
_cell_volume   6507.38352040
_cell_formula_units_Z   8
loop_
 _symmetry_equiv_pos_site_id
 _symmetry_equiv_pos_as_xyz
  1  'x, y, z'
loop_
 _atom_site_type_symbol
 _atom_site_label
 _atom_site_symmetry_multiplicity
 _atom_site_fract_x
 _atom_site_fract_y
 _atom_site_fract_z
 _atom_site_occupancy
 _atom_site_charge
  Zn  Zn1  1  0.063490  0.503730  0.435430  1.0  0.9609
  Zn  Zn2  1  0.436510  0.003730  0.064570  1.0  0.9606
  Zn  Zn3  1  0.936510  0.496270  0.564570  1.0  0.9601
  Zn  Zn4  1  0.563490  0.996270  0.935430  1.0  0.9601
  Zn  Zn5  1  0.563490  0.003730  0.435430  1.0  0.9609
  Zn  Zn6  1  0.936510  0.503730  0.064570  1.0  0.9606
  Zn  Zn7  1  0.436510  0.996270  0.564570  1.0  0.9601
  Zn  Zn8  1  0.063490  0.496270  0.935430  1.0  0.9601
  H  H9  1  0.032100  0.359400  0.677200  1.0  0.1042
  H  H10  1  0.096600  0.285700  0.722900  1.0  0.1203
  H  H11  1  0.267500  0.295800  0.542000  1.0  0.0974
  H  H12  1  0.202500  0.368200  0.495600  1.0  0.1
  H  H13  1  0.283300  0.226900  0.636300  1.0  0.0876
  H  H14  1  0.150200  0.214700  0.741300  1.0  0.1149
  H  H15  1  0.173500  0.157800  0.852000  1.0  0.1112
  H  H16  1  0.253000  0.096400  0.924300  1.0  0.1021
  H  H17  1  0.418900  0.088500  0.738800  1.0  0.0998
  H  H18  1  0.341000  0.151900  0.667000  1.0  0.1134
  H  H19  1  0.242100  0.467700  0.427700  1.0  0.0808
  H  H20  1  0.359200  0.469600  0.342900  1.0  0.1182
  H  H21  1  0.201800  0.544500  0.169700  1.0  0.1057
  H  H22  1  0.092000  0.541500  0.260400  1.0  0.0763
  H  H23  1  0.426900  0.504200  0.218500  1.0  0.0712
  H  H24  1  0.300500  0.512300  0.084500  1.0  0.0822
  H  H25  1  0.575500  0.577800  0.853600  1.0  0.0889
  H  H26  1  0.486400  0.644800  0.851300  1.0  0.1052
  H  H27  1  0.372900  0.651100  0.944700  1.0  0.1082
  H  H28  1  0.351900  0.589400  0.038300  1.0  0.1
  H  H29  1  0.467900  0.859400  0.822800  1.0  0.104
  H  H30  1  0.403400  0.785700  0.777100  1.0  0.1214
  H  H31  1  0.232500  0.795800  0.958000  1.0  0.0973
  H  H32  1  0.297500  0.868200  0.004400  1.0  0.1006
  H  H33  1  0.216700  0.726900  0.863700  1.0  0.0868
  H  H34  1  0.349800  0.714700  0.758700  1.0  0.1153
  H  H35  1  0.326500  0.657800  0.648000  1.0  0.1109
  H  H36  1  0.247000  0.596400  0.575700  1.0  0.1024
  H  H37  1  0.081100  0.588500  0.761200  1.0  0.1002
  H  H38  1  0.159000  0.651900  0.833000  1.0  0.113
  H  H39  1  0.257900  0.967700  0.072300  1.0  0.0807
  H  H40  1  0.140800  0.969600  0.157100  1.0  0.1189
  H  H41  1  0.298200  0.044500  0.330300  1.0  0.1056
  H  H42  1  0.408000  0.041500  0.239600  1.0  0.0763
  H  H43  1  0.073100  0.004200  0.281500  1.0  0.0715
  H  H44  1  0.199500  0.012300  0.415500  1.0  0.0822
  H  H45  1  0.924500  0.077800  0.646400  1.0  0.089
  H  H46  1  0.013600  0.144800  0.648700  1.0  0.1053
  H  H47  1  0.127100  0.151100  0.555300  1.0  0.1081
  H  H48  1  0.148100  0.089400  0.461700  1.0  0.1004
  H  H49  1  0.967900  0.640600  0.322800  1.0  0.1043
  H  H50  1  0.903400  0.714300  0.277100  1.0  0.1212
  H  H51  1  0.732500  0.704200  0.458000  1.0  0.0974
  H  H52  1  0.797500  0.631800  0.504400  1.0  0.1005
  H  H53  1  0.716700  0.773100  0.363700  1.0  0.0872
  H  H54  1  0.849800  0.785300  0.258700  1.0  0.1148
  H  H55  1  0.826500  0.842200  0.148000  1.0  0.1111
  H  H56  1  0.747000  0.903600  0.075700  1.0  0.1031
  H  H57  1  0.581100  0.911500  0.261200  1.0  0.0999
  H  H58  1  0.659000  0.848100  0.333000  1.0  0.1135
  H  H59  1  0.757900  0.532300  0.572300  1.0  0.0805
  H  H60  1  0.640800  0.530400  0.657100  1.0  0.1188
  H  H61  1  0.798200  0.455500  0.830300  1.0  0.1059
  H  H62  1  0.908000  0.458500  0.739600  1.0  0.0766
  H  H63  1  0.573100  0.495800  0.781500  1.0  0.071
  H  H64  1  0.699500  0.487700  0.915500  1.0  0.0823
  H  H65  1  0.424500  0.422200  0.146400  1.0  0.0894
  H  H66  1  0.513600  0.355200  0.148700  1.0  0.106
  H  H67  1  0.627100  0.348900  0.055300  1.0  0.1081
  H  H68  1  0.648100  0.410600  0.961700  1.0  0.0999
  H  H69  1  0.532100  0.140600  0.177200  1.0  0.1042
  H  H70  1  0.596600  0.214300  0.222900  1.0  0.1202
  H  H71  1  0.767500  0.204200  0.042000  1.0  0.0976
  H  H72  1  0.702500  0.131800  0.995600  1.0  0.1002
  H  H73  1  0.783300  0.273100  0.136300  1.0  0.0877
  H  H74  1  0.650200  0.285300  0.241300  1.0  0.1147
  H  H75  1  0.673500  0.342200  0.352000  1.0  0.1112
  H  H76  1  0.753000  0.403600  0.424300  1.0  0.1019
  H  H77  1  0.918900  0.411500  0.238800  1.0  0.0997
  H  H78  1  0.841000  0.348100  0.167000  1.0  0.1134
  H  H79  1  0.742100  0.032300  0.927700  1.0  0.0808
  H  H80  1  0.859200  0.030400  0.842900  1.0  0.118
  H  H81  1  0.701800  0.955500  0.669700  1.0  0.1055
  H  H82  1  0.592000  0.958500  0.760400  1.0  0.0766
  H  H83  1  0.926900  0.995800  0.718500  1.0  0.0712
  H  H84  1  0.800500  0.987700  0.584500  1.0  0.0822
  H  H85  1  0.075500  0.922200  0.353600  1.0  0.0891
  H  H86  1  0.986400  0.855200  0.351300  1.0  0.1054
  H  H87  1  0.872900  0.848900  0.444700  1.0  0.108
  H  H88  1  0.851900  0.910600  0.538300  1.0  0.0997
  H  H89  1  0.532100  0.859400  0.677200  1.0  0.1042
  H  H90  1  0.596600  0.785700  0.722900  1.0  0.1203
  H  H91  1  0.767500  0.795800  0.542000  1.0  0.0974
  H  H92  1  0.702500  0.868200  0.495600  1.0  0.1
  H  H93  1  0.783300  0.726900  0.636300  1.0  0.0876
  H  H94  1  0.650200  0.714700  0.741300  1.0  0.1149
  H  H95  1  0.673500  0.657800  0.852000  1.0  0.1112
  H  H96  1  0.753000  0.596400  0.924300  1.0  0.1021
  H  H97  1  0.918900  0.588500  0.738800  1.0  0.0998
  H  H98  1  0.841000  0.651900  0.667000  1.0  0.1134
  H  H99  1  0.742100  0.967700  0.427700  1.0  0.0808
  H  H100  1  0.859200  0.969600  0.342900  1.0  0.1182
  H  H101  1  0.701800  0.044500  0.169700  1.0  0.1058
  H  H102  1  0.592000  0.041500  0.260400  1.0  0.0763
  H  H103  1  0.926900  0.004200  0.218500  1.0  0.0712
  H  H104  1  0.800500  0.012300  0.084500  1.0  0.0822
  H  H105  1  0.075500  0.077800  0.853600  1.0  0.0889
  H  H106  1  0.986400  0.144800  0.851300  1.0  0.1052
  H  H107  1  0.872900  0.151100  0.944700  1.0  0.1082
  H  H108  1  0.851900  0.089400  0.038300  1.0  0.0998
  H  H109  1  0.967900  0.359400  0.822800  1.0  0.104
  H  H110  1  0.903400  0.285700  0.777100  1.0  0.1213
  H  H111  1  0.732500  0.295800  0.958000  1.0  0.0973
  H  H112  1  0.797500  0.368200  0.004400  1.0  0.1006
  H  H113  1  0.716700  0.226900  0.863700  1.0  0.0868
  H  H114  1  0.849800  0.214700  0.758700  1.0  0.1153
  H  H115  1  0.826500  0.157800  0.648000  1.0  0.1109
  H  H116  1  0.747000  0.096400  0.575700  1.0  0.1024
  H  H117  1  0.581100  0.088500  0.761200  1.0  0.1002
  H  H118  1  0.659000  0.151900  0.833000  1.0  0.113
  H  H119  1  0.757900  0.467700  0.072300  1.0  0.0807
  H  H120  1  0.640800  0.469600  0.157100  1.0  0.1189
  H  H121  1  0.798200  0.544500  0.330300  1.0  0.1057
  H  H122  1  0.908000  0.541500  0.239600  1.0  0.0763
  H  H123  1  0.573100  0.504200  0.281500  1.0  0.0715
  H  H124  1  0.699500  0.512300  0.415500  1.0  0.0822
  H  H125  1  0.424500  0.577800  0.646400  1.0  0.089
  H  H126  1  0.513600  0.644800  0.648700  1.0  0.1053
  H  H127  1  0.627100  0.651100  0.555300  1.0  0.1082
  H  H128  1  0.648100  0.589400  0.461700  1.0  0.1002
  H  H129  1  0.467900  0.140600  0.322800  1.0  0.1043
  H  H130  1  0.403400  0.214300  0.277100  1.0  0.1211
  H  H131  1  0.232500  0.204200  0.458000  1.0  0.0974
  H  H132  1  0.297500  0.131800  0.504400  1.0  0.1005
  H  H133  1  0.216700  0.273100  0.363700  1.0  0.0872
  H  H134  1  0.349800  0.285300  0.258700  1.0  0.1148
  H  H135  1  0.326500  0.342200  0.148000  1.0  0.1111
  H  H136  1  0.247000  0.403600  0.075700  1.0  0.1031
  H  H137  1  0.081100  0.411500  0.261200  1.0  0.0999
  H  H138  1  0.159000  0.348100  0.333000  1.0  0.1135
  H  H139  1  0.257900  0.032300  0.572300  1.0  0.0805
  H  H140  1  0.140800  0.030400  0.657100  1.0  0.1188
  H  H141  1  0.298200  0.955500  0.830300  1.0  0.106
  H  H142  1  0.408000  0.958500  0.739600  1.0  0.0766
  H  H143  1  0.073100  0.995800  0.781500  1.0  0.071
  H  H144  1  0.199500  0.987700  0.915500  1.0  0.0823
  H  H145  1  0.924500  0.922200  0.146400  1.0  0.0894
  H  H146  1  0.013600  0.855200  0.148700  1.0  0.106
  H  H147  1  0.127100  0.848900  0.055300  1.0  0.1081
  H  H148  1  0.148100  0.910600  0.961700  1.0  0.0998
  H  H149  1  0.032100  0.640600  0.177200  1.0  0.1042
  H  H150  1  0.096600  0.714300  0.222900  1.0  0.1201
  H  H151  1  0.267500  0.704200  0.042000  1.0  0.0976
  H  H152  1  0.202500  0.631800  0.995600  1.0  0.1002
  H  H153  1  0.283300  0.773100  0.136300  1.0  0.0877
  H  H154  1  0.150200  0.785300  0.241300  1.0  0.1147
  H  H155  1  0.173500  0.842200  0.352000  1.0  0.1112
  H  H156  1  0.253000  0.903600  0.424300  1.0  0.1019
  H  H157  1  0.418900  0.911500  0.238800  1.0  0.0997
  H  H158  1  0.341000  0.848100  0.167000  1.0  0.1134
  H  H159  1  0.242100  0.532300  0.927700  1.0  0.0808
  H  H160  1  0.359200  0.530400  0.842900  1.0  0.118
  H  H161  1  0.201800  0.455500  0.669700  1.0  0.1056
  H  H162  1  0.092000  0.458500  0.760400  1.0  0.0766
  H  H163  1  0.426900  0.495800  0.718500  1.0  0.0712
  H  H164  1  0.300500  0.487700  0.584500  1.0  0.0822
  H  H165  1  0.575500  0.422200  0.353600  1.0  0.0891
  H  H166  1  0.486400  0.355200  0.351300  1.0  0.1054
  H  H167  1  0.372900  0.348900  0.444700  1.0  0.108
  H  H168  1  0.351900  0.410600  0.538300  1.0  0.0995
  C  C169  1  0.071500  0.419200  0.554300  1.0  0.6813
  C  C170  1  0.112100  0.371530  0.582700  1.0  -0.1481
  C  C171  1  0.080200  0.346400  0.649600  1.0  -0.0459
  C  C172  1  0.118200  0.302500  0.676400  1.0  -0.134
  C  C173  1  0.188200  0.282600  0.635300  1.0  0.0477
  C  C174  1  0.218900  0.308400  0.569400  1.0  -0.0899
  C  C175  1  0.181100  0.351650  0.542400  1.0  -0.0603
  C  C176  1  0.231800  0.236100  0.662700  1.0  -0.1337
  C  C177  1  0.205300  0.207000  0.719900  1.0  -0.0714
  C  C178  1  0.251900  0.163000  0.755300  1.0  0.0081
  C  C179  1  0.224900  0.144800  0.829800  1.0  -0.1651
  C  C180  1  0.271700  0.108060  0.872200  1.0  -0.0354
  C  C181  1  0.346200  0.087440  0.840600  1.0  -0.1518
  C  C182  1  0.370300  0.103420  0.762900  1.0  0.0055
  C  C183  1  0.324000  0.141000  0.720100  1.0  -0.123
  C  C184  1  0.400900  0.051200  0.893300  1.0  0.6766
  C  C185  1  0.235600  0.485700  0.376000  1.0  0.1752
  C  C186  1  0.305100  0.485900  0.325200  1.0  -0.1791
  C  C187  1  0.294800  0.510300  0.247800  1.0  0.1038
  C  C188  1  0.213600  0.529850  0.224100  1.0  -0.1995
  C  C189  1  0.148600  0.528260  0.279000  1.0  0.1767
  C  C190  1  0.368000  0.507200  0.191700  1.0  -0.0676
  C  C191  1  0.359100  0.508280  0.111300  1.0  -0.1211
  C  C192  1  0.431900  0.503800  0.055400  1.0  -0.0073
  C  C193  1  0.447200  0.542110  0.000400  1.0  -0.0048
  C  C194  1  0.515700  0.538100  0.943400  1.0  0.0301
  C  C195  1  0.528900  0.578900  0.889900  1.0  -0.145
  C  C196  1  0.477300  0.618900  0.889400  1.0  -0.0989
  C  C197  1  0.409100  0.622700  0.945500  1.0  -0.1083
  C  C198  1  0.396100  0.586000  0.999600  1.0  -0.0991
  C  C199  1  0.428500  0.919200  0.945700  1.0  0.6816
  C  C200  1  0.387900  0.871530  0.917300  1.0  -0.1474
  C  C201  1  0.419800  0.846400  0.850400  1.0  -0.0462
  C  C202  1  0.381800  0.802500  0.823600  1.0  -0.1355
  C  C203  1  0.311800  0.782600  0.864700  1.0  0.0484
  C  C204  1  0.281100  0.808400  0.930600  1.0  -0.0898
  C  C205  1  0.318900  0.851650  0.957600  1.0  -0.0588
  C  C206  1  0.268200  0.736100  0.837300  1.0  -0.1318
  C  C207  1  0.294700  0.707000  0.780100  1.0  -0.0733
  C  C208  1  0.248100  0.663000  0.744700  1.0  0.0081
  C  C209  1  0.275100  0.644800  0.670200  1.0  -0.1607
  C  C210  1  0.228300  0.608060  0.627800  1.0  -0.0339
  C  C211  1  0.153800  0.587440  0.659400  1.0  -0.1532
  C  C212  1  0.129700  0.603420  0.737100  1.0  0.0054
  C  C213  1  0.176000  0.641000  0.779900  1.0  -0.126
  C  C214  1  0.099100  0.551200  0.606700  1.0  0.6776
  C  C215  1  0.264400  0.985700  0.124000  1.0  0.1754
  C  C216  1  0.194900  0.985900  0.174800  1.0  -0.1794
  C  C217  1  0.205200  0.010300  0.252200  1.0  0.1025
  C  C218  1  0.286400  0.029850  0.275900  1.0  -0.1993
  C  C219  1  0.351400  0.028260  0.221000  1.0  0.1769
  C  C220  1  0.132000  0.007200  0.308300  1.0  -0.0681
  C  C221  1  0.140900  0.008280  0.388700  1.0  -0.1233
  C  C222  1  0.068100  0.003800  0.444600  1.0  -0.0078
  C  C223  1  0.052800  0.042110  0.499600  1.0  -0.0046
  C  C224  1  0.984300  0.038100  0.556600  1.0  0.0289
  C  C225  1  0.971100  0.078900  0.610100  1.0  -0.1447
  C  C226  1  0.022700  0.118900  0.610600  1.0  -0.1002
  C  C227  1  0.090900  0.122700  0.554500  1.0  -0.1087
  C  C228  1  0.103900  0.086000  0.500400  1.0  -0.1016
  C  C229  1  0.928500  0.580800  0.445700  1.0  0.6819
  C  C230  1  0.887900  0.628470  0.417300  1.0  -0.1475
  C  C231  1  0.919800  0.653600  0.350400  1.0  -0.046
  C  C232  1  0.881800  0.697500  0.323600  1.0  -0.1353
  C  C233  1  0.811800  0.717400  0.364700  1.0  0.048
  C  C234  1  0.781100  0.691600  0.430600  1.0  -0.0897
  C  C235  1  0.818900  0.648350  0.457600  1.0  -0.058
  C  C236  1  0.768200  0.763900  0.337300  1.0  -0.1317
  C  C237  1  0.794700  0.793000  0.280100  1.0  -0.0728
  C  C238  1  0.748100  0.837000  0.244700  1.0  0.0083
  C  C239  1  0.775100  0.855200  0.170200  1.0  -0.16
  C  C240  1  0.728300  0.891940  0.127800  1.0  -0.0332
  C  C241  1  0.653800  0.912560  0.159400  1.0  -0.1528
  C  C242  1  0.629700  0.896580  0.237100  1.0  0.0052
  C  C243  1  0.676000  0.859000  0.279900  1.0  -0.1262
  C  C244  1  0.599100  0.948800  0.106700  1.0  0.6773
  C  C245  1  0.764400  0.514300  0.624000  1.0  0.174
  C  C246  1  0.694900  0.514100  0.674800  1.0  -0.1789
  C  C247  1  0.705200  0.489700  0.752200  1.0  0.1041
  C  C248  1  0.786400  0.470150  0.775900  1.0  -0.1981
  C  C249  1  0.851400  0.471740  0.721000  1.0  0.1761
  C  C250  1  0.632000  0.492800  0.808300  1.0  -0.0682
  C  C251  1  0.640900  0.491720  0.888700  1.0  -0.1238
  C  C252  1  0.568100  0.496200  0.944600  1.0  -0.0074
  C  C253  1  0.552800  0.457890  0.999600  1.0  -0.0054
  C  C254  1  0.484300  0.461900  0.056600  1.0  0.0286
  C  C255  1  0.471100  0.421100  0.110100  1.0  -0.1435
  C  C256  1  0.522700  0.381100  0.110600  1.0  -0.1003
  C  C257  1  0.590900  0.377300  0.054500  1.0  -0.1106
  C  C258  1  0.603900  0.414000  0.000400  1.0  -0.101
  C  C259  1  0.571500  0.080800  0.054300  1.0  0.6813
  C  C260  1  0.612100  0.128470  0.082700  1.0  -0.1484
  C  C261  1  0.580200  0.153600  0.149600  1.0  -0.0463
  C  C262  1  0.618200  0.197500  0.176400  1.0  -0.1336
  C  C263  1  0.688200  0.217400  0.135300  1.0  0.0471
  C  C264  1  0.718900  0.191600  0.069400  1.0  -0.0898
  C  C265  1  0.681100  0.148350  0.042400  1.0  -0.0597
  C  C266  1  0.731800  0.263900  0.162700  1.0  -0.1335
  C  C267  1  0.705300  0.293000  0.219900  1.0  -0.071
  C  C268  1  0.751900  0.337000  0.255300  1.0  0.0086
  C  C269  1  0.724900  0.355200  0.329800  1.0  -0.1663
  C  C270  1  0.771700  0.391940  0.372200  1.0  -0.0369
  C  C271  1  0.846200  0.412560  0.340600  1.0  -0.1527
  C  C272  1  0.870300  0.396580  0.262900  1.0  0.0049
  C  C273  1  0.824000  0.359000  0.220100  1.0  -0.1232
  C  C274  1  0.900900  0.448800  0.393300  1.0  0.6767
  C  C275  1  0.735600  0.014300  0.876000  1.0  0.1741
  C  C276  1  0.805100  0.014100  0.825200  1.0  -0.179
  C  C277  1  0.794800  0.989700  0.747800  1.0  0.1037
  C  C278  1  0.713600  0.970150  0.724100  1.0  -0.1987
  C  C279  1  0.648600  0.971740  0.779000  1.0  0.1773
  C  C280  1  0.868000  0.992800  0.691700  1.0  -0.0675
  C  C281  1  0.859100  0.991720  0.611300  1.0  -0.1212
  C  C282  1  0.931900  0.996200  0.555400  1.0  -0.0071
  C  C283  1  0.947200  0.957890  0.500400  1.0  -0.0046
  C  C284  1  0.015700  0.961900  0.443400  1.0  0.0301
  C  C285  1  0.028900  0.921100  0.389900  1.0  -0.1437
  C  C286  1  0.977300  0.881100  0.389400  1.0  -0.1003
  C  C287  1  0.909100  0.877300  0.445500  1.0  -0.1096
  C  C288  1  0.896100  0.914000  0.499600  1.0  -0.0977
  C  C289  1  0.571500  0.919200  0.554300  1.0  0.6813
  C  C290  1  0.612100  0.871530  0.582700  1.0  -0.1481
  C  C291  1  0.580200  0.846400  0.649600  1.0  -0.0459
  C  C292  1  0.618200  0.802500  0.676400  1.0  -0.134
  C  C293  1  0.688200  0.782600  0.635300  1.0  0.0477
  C  C294  1  0.718900  0.808400  0.569400  1.0  -0.0899
  C  C295  1  0.681100  0.851650  0.542400  1.0  -0.0603
  C  C296  1  0.731800  0.736100  0.662700  1.0  -0.1337
  C  C297  1  0.705300  0.707000  0.719900  1.0  -0.0714
  C  C298  1  0.751900  0.663000  0.755300  1.0  0.0081
  C  C299  1  0.724900  0.644800  0.829800  1.0  -0.1651
  C  C300  1  0.771700  0.608060  0.872200  1.0  -0.0354
  C  C301  1  0.846200  0.587440  0.840600  1.0  -0.1518
  C  C302  1  0.870300  0.603420  0.762900  1.0  0.0055
  C  C303  1  0.824000  0.641000  0.720100  1.0  -0.123
  C  C304  1  0.900900  0.551200  0.893300  1.0  0.6766
  C  C305  1  0.735600  0.985700  0.376000  1.0  0.1752
  C  C306  1  0.805100  0.985900  0.325200  1.0  -0.1791
  C  C307  1  0.794800  0.010300  0.247800  1.0  0.1038
  C  C308  1  0.713600  0.029850  0.224100  1.0  -0.1995
  C  C309  1  0.648600  0.028260  0.279000  1.0  0.1767
  C  C310  1  0.868000  0.007200  0.191700  1.0  -0.0676
  C  C311  1  0.859100  0.008280  0.111300  1.0  -0.1211
  C  C312  1  0.931900  0.003800  0.055400  1.0  -0.0073
  C  C313  1  0.947200  0.042110  0.000400  1.0  -0.0048
  C  C314  1  0.015700  0.038100  0.943400  1.0  0.0301
  C  C315  1  0.028900  0.078900  0.889900  1.0  -0.145
  C  C316  1  0.977300  0.118900  0.889400  1.0  -0.0989
  C  C317  1  0.909100  0.122700  0.945500  1.0  -0.1083
  C  C318  1  0.896100  0.086000  0.999600  1.0  -0.0991
  C  C319  1  0.928500  0.419200  0.945700  1.0  0.6816
  C  C320  1  0.887900  0.371530  0.917300  1.0  -0.1474
  C  C321  1  0.919800  0.346400  0.850400  1.0  -0.0462
  C  C322  1  0.881800  0.302500  0.823600  1.0  -0.1355
  C  C323  1  0.811800  0.282600  0.864700  1.0  0.0484
  C  C324  1  0.781100  0.308400  0.930600  1.0  -0.0898
  C  C325  1  0.818900  0.351650  0.957600  1.0  -0.0588
  C  C326  1  0.768200  0.236100  0.837300  1.0  -0.1318
  C  C327  1  0.794700  0.207000  0.780100  1.0  -0.0733
  C  C328  1  0.748100  0.163000  0.744700  1.0  0.0081
  C  C329  1  0.775100  0.144800  0.670200  1.0  -0.1607
  C  C330  1  0.728300  0.108060  0.627800  1.0  -0.0339
  C  C331  1  0.653800  0.087440  0.659400  1.0  -0.1532
  C  C332  1  0.629700  0.103420  0.737100  1.0  0.0054
  C  C333  1  0.676000  0.141000  0.779900  1.0  -0.126
  C  C334  1  0.599100  0.051200  0.606700  1.0  0.6776
  C  C335  1  0.764400  0.485700  0.124000  1.0  0.1754
  C  C336  1  0.694900  0.485900  0.174800  1.0  -0.1794
  C  C337  1  0.705200  0.510300  0.252200  1.0  0.1025
  C  C338  1  0.786400  0.529850  0.275900  1.0  -0.1993
  C  C339  1  0.851400  0.528260  0.221000  1.0  0.1769
  C  C340  1  0.632000  0.507200  0.308300  1.0  -0.0681
  C  C341  1  0.640900  0.508280  0.388700  1.0  -0.1233
  C  C342  1  0.568100  0.503800  0.444600  1.0  -0.0078
  C  C343  1  0.552800  0.542110  0.499600  1.0  -0.0046
  C  C344  1  0.484300  0.538100  0.556600  1.0  0.0289
  C  C345  1  0.471100  0.578900  0.610100  1.0  -0.1447
  C  C346  1  0.522700  0.618900  0.610600  1.0  -0.1002
  C  C347  1  0.590900  0.622700  0.554500  1.0  -0.1087
  C  C348  1  0.603900  0.586000  0.500400  1.0  -0.1016
  C  C349  1  0.428500  0.080800  0.445700  1.0  0.6819
  C  C350  1  0.387900  0.128470  0.417300  1.0  -0.1475
  C  C351  1  0.419800  0.153600  0.350400  1.0  -0.046
  C  C352  1  0.381800  0.197500  0.323600  1.0  -0.1353
  C  C353  1  0.311800  0.217400  0.364700  1.0  0.048
  C  C354  1  0.281100  0.191600  0.430600  1.0  -0.0897
  C  C355  1  0.318900  0.148350  0.457600  1.0  -0.058
  C  C356  1  0.268200  0.263900  0.337300  1.0  -0.1317
  C  C357  1  0.294700  0.293000  0.280100  1.0  -0.0728
  C  C358  1  0.248100  0.337000  0.244700  1.0  0.0083
  C  C359  1  0.275100  0.355200  0.170200  1.0  -0.16
  C  C360  1  0.228300  0.391940  0.127800  1.0  -0.0332
  C  C361  1  0.153800  0.412560  0.159400  1.0  -0.1528
  C  C362  1  0.129700  0.396580  0.237100  1.0  0.0052
  C  C363  1  0.176000  0.359000  0.279900  1.0  -0.1262
  C  C364  1  0.099100  0.448800  0.106700  1.0  0.6773
  C  C365  1  0.264400  0.014300  0.624000  1.0  0.174
  C  C366  1  0.194900  0.014100  0.674800  1.0  -0.1789
  C  C367  1  0.205200  0.989700  0.752200  1.0  0.1041
  C  C368  1  0.286400  0.970150  0.775900  1.0  -0.1981
  C  C369  1  0.351400  0.971740  0.721000  1.0  0.1761
  C  C370  1  0.132000  0.992800  0.808300  1.0  -0.0682
  C  C371  1  0.140900  0.991720  0.888700  1.0  -0.1238
  C  C372  1  0.068100  0.996200  0.944600  1.0  -0.0074
  C  C373  1  0.052800  0.957890  0.999600  1.0  -0.0054
  C  C374  1  0.984300  0.961900  0.056600  1.0  0.0286
  C  C375  1  0.971100  0.921100  0.110100  1.0  -0.1435
  C  C376  1  0.022700  0.881100  0.110600  1.0  -0.1003
  C  C377  1  0.090900  0.877300  0.054500  1.0  -0.1106
  C  C378  1  0.103900  0.914000  0.000400  1.0  -0.101
  C  C379  1  0.071500  0.580800  0.054300  1.0  0.6813
  C  C380  1  0.112100  0.628470  0.082700  1.0  -0.1484
  C  C381  1  0.080200  0.653600  0.149600  1.0  -0.0463
  C  C382  1  0.118200  0.697500  0.176400  1.0  -0.1336
  C  C383  1  0.188200  0.717400  0.135300  1.0  0.0471
  C  C384  1  0.218900  0.691600  0.069400  1.0  -0.0898
  C  C385  1  0.181100  0.648350  0.042400  1.0  -0.0597
  C  C386  1  0.231800  0.763900  0.162700  1.0  -0.1335
  C  C387  1  0.205300  0.793000  0.219900  1.0  -0.071
  C  C388  1  0.251900  0.837000  0.255300  1.0  0.0086
  C  C389  1  0.224900  0.855200  0.329800  1.0  -0.1663
  C  C390  1  0.271700  0.891940  0.372200  1.0  -0.0369
  C  C391  1  0.346200  0.912560  0.340600  1.0  -0.1527
  C  C392  1  0.370300  0.896580  0.262900  1.0  0.0049
  C  C393  1  0.324000  0.859000  0.220100  1.0  -0.1232
  C  C394  1  0.400900  0.948800  0.393300  1.0  0.6767
  C  C395  1  0.235600  0.514300  0.876000  1.0  0.1741
  C  C396  1  0.305100  0.514100  0.825200  1.0  -0.179
  C  C397  1  0.294800  0.489700  0.747800  1.0  0.1037
  C  C398  1  0.213600  0.470150  0.724100  1.0  -0.1987
  C  C399  1  0.148600  0.471740  0.779000  1.0  0.1773
  C  C400  1  0.368000  0.492800  0.691700  1.0  -0.0675
  C  C401  1  0.359100  0.491720  0.611300  1.0  -0.1212
  C  C402  1  0.431900  0.496200  0.555400  1.0  -0.0071
  C  C403  1  0.447200  0.457890  0.500400  1.0  -0.0046
  C  C404  1  0.515700  0.461900  0.443400  1.0  0.0301
  C  C405  1  0.528900  0.421100  0.389900  1.0  -0.1437
  C  C406  1  0.477300  0.381100  0.389400  1.0  -0.1003
  C  C407  1  0.409100  0.377300  0.445500  1.0  -0.1096
  C  C408  1  0.396100  0.414000  0.499600  1.0  -0.0977
  N  N409  1  0.159700  0.509620  0.355400  1.0  -0.3142
  N  N410  1  0.340300  0.009620  0.144600  1.0  -0.3145
  N  N411  1  0.840300  0.490380  0.644600  1.0  -0.3153
  N  N412  1  0.659700  0.990380  0.855400  1.0  -0.316
  N  N413  1  0.659700  0.009620  0.355400  1.0  -0.3142
  N  N414  1  0.840300  0.509620  0.144600  1.0  -0.3145
  N  N415  1  0.340300  0.990380  0.644600  1.0  -0.3153
  N  N416  1  0.159700  0.490380  0.855400  1.0  -0.316
  O  O417  1  0.104000  0.440270  0.494200  1.0  -0.5847
  O  O418  1  0.008300  0.435000  0.592600  1.0  -0.5876
  O  O419  1  0.374200  0.039090  0.962500  1.0  -0.5938
  O  O420  1  0.470600  0.036190  0.865200  1.0  -0.5823
  O  O421  1  0.396000  0.940270  0.005800  1.0  -0.5832
  O  O422  1  0.491700  0.935000  0.907400  1.0  -0.5874
  O  O423  1  0.125800  0.539090  0.537500  1.0  -0.5929
  O  O424  1  0.029400  0.536190  0.634800  1.0  -0.5826
  O  O425  1  0.896000  0.559730  0.505800  1.0  -0.5836
  O  O426  1  0.991700  0.565000  0.407400  1.0  -0.5879
  O  O427  1  0.625800  0.960910  0.037500  1.0  -0.5927
  O  O428  1  0.529400  0.963810  0.134800  1.0  -0.5824
  O  O429  1  0.604000  0.059730  0.994200  1.0  -0.5848
  O  O430  1  0.508300  0.065000  0.092600  1.0  -0.5885
  O  O431  1  0.874200  0.460910  0.462500  1.0  -0.5934
  O  O432  1  0.970600  0.463810  0.365200  1.0  -0.5822
  O  O433  1  0.604000  0.940270  0.494200  1.0  -0.5847
  O  O434  1  0.508300  0.935000  0.592600  1.0  -0.5876
  O  O435  1  0.874200  0.539090  0.962500  1.0  -0.5938
  O  O436  1  0.970600  0.536190  0.865200  1.0  -0.5823
  O  O437  1  0.896000  0.440270  0.005800  1.0  -0.5832
  O  O438  1  0.991700  0.435000  0.907400  1.0  -0.5874
  O  O439  1  0.625800  0.039090  0.537500  1.0  -0.5929
  O  O440  1  0.529400  0.036190  0.634800  1.0  -0.5826
  O  O441  1  0.396000  0.059730  0.505800  1.0  -0.5836
  O  O442  1  0.491700  0.065000  0.407400  1.0  -0.5879
  O  O443  1  0.125800  0.460910  0.037500  1.0  -0.5927
  O  O444  1  0.029400  0.463810  0.134800  1.0  -0.5824
  O  O445  1  0.104000  0.559730  0.994200  1.0  -0.5848
  O  O446  1  0.008300  0.565000  0.092600  1.0  -0.5885
  O  O447  1  0.374200  0.960910  0.462500  1.0  -0.5934
  O  O448  1  0.470600  0.963810  0.365200  1.0  -0.5822
