# generated using pymatgen
data_Cu3H12C18N15O
_symmetry_space_group_name_H-M   'P 1'
_cell_length_a   25.64770000
_cell_length_b   25.64770000
_cell_length_c   25.64770000
_cell_angle_alpha   60.00000000
_cell_angle_beta   60.00000000
_cell_angle_gamma   60.00000000
_symmetry_Int_Tables_number   1
_chemical_formula_structural   Cu3H12C18N15O
_chemical_formula_sum   'Cu24 H96 C144 N120 O8'
_cell_volume   11929.72074069
_cell_formula_units_Z   8
loop_
 _symmetry_equiv_pos_site_id
 _symmetry_equiv_pos_as_xyz
  1  'x, y, z'
loop_
 _atom_site_type_symbol
 _atom_site_label
 _atom_site_symmetry_multiplicity
 _atom_site_fract_x
 _atom_site_fract_y
 _atom_site_fract_z
 _atom_site_occupancy
 _atom_site_charge
  Cu  Cu1  1  0.673220  0.250000  0.750000  1.0  0.6109
  Cu  Cu2  1  0.750000  0.173220  0.326780  1.0  0.6122
  Cu  Cu3  1  0.250000  0.326780  0.173220  1.0  0.6127
  Cu  Cu4  1  0.826780  0.750000  0.250000  1.0  0.6113
  Cu  Cu5  1  0.673220  0.750000  0.326780  1.0  0.6106
  Cu  Cu6  1  0.750000  0.326780  0.750000  1.0  0.6123
  Cu  Cu7  1  0.250000  0.173220  0.250000  1.0  0.6121
  Cu  Cu8  1  0.826780  0.250000  0.173220  1.0  0.6116
  Cu  Cu9  1  0.673220  0.326780  0.250000  1.0  0.6102
  Cu  Cu10  1  0.750000  0.750000  0.173220  1.0  0.6133
  Cu  Cu11  1  0.250000  0.250000  0.326780  1.0  0.6122
  Cu  Cu12  1  0.826780  0.173220  0.750000  1.0  0.6105
  Cu  Cu13  1  0.326780  0.750000  0.250000  1.0  0.6113
  Cu  Cu14  1  0.250000  0.826780  0.673220  1.0  0.6127
  Cu  Cu15  1  0.750000  0.673220  0.826780  1.0  0.6122
  Cu  Cu16  1  0.173220  0.250000  0.750000  1.0  0.6109
  Cu  Cu17  1  0.326780  0.250000  0.673220  1.0  0.6116
  Cu  Cu18  1  0.250000  0.673220  0.250000  1.0  0.6121
  Cu  Cu19  1  0.750000  0.826780  0.750000  1.0  0.6123
  Cu  Cu20  1  0.173220  0.750000  0.826780  1.0  0.6106
  Cu  Cu21  1  0.326780  0.673220  0.750000  1.0  0.6105
  Cu  Cu22  1  0.250000  0.250000  0.826780  1.0  0.6122
  Cu  Cu23  1  0.750000  0.750000  0.673220  1.0  0.6133
  Cu  Cu24  1  0.173220  0.826780  0.250000  1.0  0.6102
  H  H25  1  0.552900  0.548100  0.732700  1.0  0.1086
  H  H26  1  0.460500  0.636900  0.734500  1.0  0.0856
  H  H27  1  0.048100  0.052900  0.166300  1.0  0.1085
  H  H28  1  0.136900  0.960500  0.168100  1.0  0.0846
  H  H29  1  0.232700  0.166300  0.052900  1.0  0.109
  H  H30  1  0.234500  0.168100  0.960500  1.0  0.0852
  H  H31  1  0.666300  0.732700  0.548100  1.0  0.1089
  H  H32  1  0.668100  0.734500  0.636900  1.0  0.0841
  H  H33  1  0.552900  0.732700  0.166300  1.0  0.1085
  H  H34  1  0.460500  0.734500  0.168100  1.0  0.0858
  H  H35  1  0.048100  0.166300  0.732700  1.0  0.1075
  H  H36  1  0.136900  0.168100  0.734500  1.0  0.0859
  H  H37  1  0.232700  0.052900  0.548100  1.0  0.1087
  H  H38  1  0.234500  0.960500  0.636900  1.0  0.0854
  H  H39  1  0.666300  0.548100  0.052900  1.0  0.1076
  H  H40  1  0.668100  0.636900  0.960500  1.0  0.086
  H  H41  1  0.552900  0.166300  0.548100  1.0  0.1085
  H  H42  1  0.460500  0.168100  0.636900  1.0  0.0848
  H  H43  1  0.048100  0.732700  0.052900  1.0  0.1092
  H  H44  1  0.136900  0.734500  0.960500  1.0  0.0841
  H  H45  1  0.232700  0.548100  0.166300  1.0  0.1089
  H  H46  1  0.234500  0.636900  0.168100  1.0  0.0854
  H  H47  1  0.666300  0.052900  0.732700  1.0  0.1086
  H  H48  1  0.668100  0.960500  0.734500  1.0  0.0848
  H  H49  1  0.451900  0.447100  0.767300  1.0  0.1085
  H  H50  1  0.363100  0.539500  0.765500  1.0  0.0842
  H  H51  1  0.947100  0.951900  0.333700  1.0  0.1099
  H  H52  1  0.039500  0.863100  0.331900  1.0  0.0861
  H  H53  1  0.833700  0.767300  0.447100  1.0  0.1083
  H  H54  1  0.831900  0.765500  0.539500  1.0  0.084
  H  H55  1  0.267300  0.333700  0.951900  1.0  0.1086
  H  H56  1  0.265500  0.331900  0.863100  1.0  0.0859
  H  H57  1  0.267300  0.447100  0.333700  1.0  0.1088
  H  H58  1  0.265500  0.539500  0.331900  1.0  0.0861
  H  H59  1  0.833700  0.951900  0.767300  1.0  0.1074
  H  H60  1  0.831900  0.863100  0.765500  1.0  0.0858
  H  H61  1  0.947100  0.767300  0.951900  1.0  0.1092
  H  H62  1  0.039500  0.765500  0.863100  1.0  0.0862
  H  H63  1  0.451900  0.333700  0.447100  1.0  0.1081
  H  H64  1  0.363100  0.331900  0.539500  1.0  0.0862
  H  H65  1  0.833700  0.447100  0.951900  1.0  0.1081
  H  H66  1  0.831900  0.539500  0.863100  1.0  0.0844
  H  H67  1  0.267300  0.951900  0.447100  1.0  0.1089
  H  H68  1  0.265500  0.863100  0.539500  1.0  0.0851
  H  H69  1  0.451900  0.767300  0.333700  1.0  0.1093
  H  H70  1  0.363100  0.765500  0.331900  1.0  0.0849
  H  H71  1  0.947100  0.333700  0.767300  1.0  0.1091
  H  H72  1  0.039500  0.331900  0.765500  1.0  0.085
  H  H73  1  0.447100  0.451900  0.267300  1.0  0.1096
  H  H74  1  0.539500  0.363100  0.265500  1.0  0.0852
  H  H75  1  0.951900  0.947100  0.833700  1.0  0.109
  H  H76  1  0.863100  0.039500  0.831900  1.0  0.0852
  H  H77  1  0.767300  0.833700  0.947100  1.0  0.1086
  H  H78  1  0.765500  0.831900  0.039500  1.0  0.0855
  H  H79  1  0.333700  0.267300  0.451900  1.0  0.1082
  H  H80  1  0.331900  0.265500  0.363100  1.0  0.0845
  H  H81  1  0.447100  0.267300  0.833700  1.0  0.1093
  H  H82  1  0.539500  0.265500  0.831900  1.0  0.0862
  H  H83  1  0.951900  0.833700  0.267300  1.0  0.1076
  H  H84  1  0.863100  0.831900  0.265500  1.0  0.0861
  H  H85  1  0.767300  0.947100  0.451900  1.0  0.1083
  H  H86  1  0.765500  0.039500  0.363100  1.0  0.0858
  H  H87  1  0.333700  0.451900  0.947100  1.0  0.1077
  H  H88  1  0.331900  0.363100  0.039500  1.0  0.086
  H  H89  1  0.447100  0.833700  0.451900  1.0  0.1095
  H  H90  1  0.539500  0.831900  0.363100  1.0  0.0854
  H  H91  1  0.951900  0.267300  0.947100  1.0  0.1096
  H  H92  1  0.863100  0.265500  0.039500  1.0  0.0842
  H  H93  1  0.767300  0.451900  0.833700  1.0  0.1088
  H  H94  1  0.765500  0.363100  0.831900  1.0  0.086
  H  H95  1  0.333700  0.947100  0.267300  1.0  0.1076
  H  H96  1  0.331900  0.039500  0.265500  1.0  0.0842
  H  H97  1  0.548100  0.552900  0.232700  1.0  0.1087
  H  H98  1  0.636900  0.460500  0.234500  1.0  0.0846
  H  H99  1  0.052900  0.048100  0.666300  1.0  0.1085
  H  H100  1  0.960500  0.136900  0.668100  1.0  0.0856
  H  H101  1  0.166300  0.232700  0.552900  1.0  0.1089
  H  H102  1  0.168100  0.234500  0.460500  1.0  0.0843
  H  H103  1  0.732700  0.666300  0.048100  1.0  0.1088
  H  H104  1  0.734500  0.668100  0.136900  1.0  0.0851
  H  H105  1  0.732700  0.552900  0.666300  1.0  0.1084
  H  H106  1  0.734500  0.460500  0.668100  1.0  0.0858
  H  H107  1  0.166300  0.048100  0.232700  1.0  0.108
  H  H108  1  0.168100  0.136900  0.234500  1.0  0.086
  H  H109  1  0.052900  0.232700  0.048100  1.0  0.1088
  H  H110  1  0.960500  0.234500  0.136900  1.0  0.0855
  H  H111  1  0.548100  0.666300  0.552900  1.0  0.1075
  H  H112  1  0.636900  0.668100  0.460500  1.0  0.0859
  H  H113  1  0.166300  0.552900  0.048100  1.0  0.1083
  H  H114  1  0.168100  0.460500  0.136900  1.0  0.0846
  H  H115  1  0.732700  0.048100  0.552900  1.0  0.1087
  H  H116  1  0.734500  0.136900  0.460500  1.0  0.0853
  H  H117  1  0.548100  0.232700  0.666300  1.0  0.1094
  H  H118  1  0.636900  0.234500  0.668100  1.0  0.0842
  H  H119  1  0.052900  0.666300  0.232700  1.0  0.1088
  H  H120  1  0.960500  0.668100  0.234500  1.0  0.0846
  C  C121  1  0.514220  0.545060  0.740020  1.0  -0.1312
  C  C122  1  0.459230  0.597750  0.740770  1.0  0.1209
  C  C123  1  0.045060  0.014220  0.200700  1.0  -0.1315
  C  C124  1  0.097750  0.959230  0.202250  1.0  0.1198
  C  C125  1  0.240020  0.200700  0.014220  1.0  -0.1315
  C  C126  1  0.240770  0.202250  0.959230  1.0  0.1234
  C  C127  1  0.700700  0.740020  0.545060  1.0  -0.13
  C  C128  1  0.702250  0.740770  0.597750  1.0  0.1242
  C  C129  1  0.514220  0.740020  0.200700  1.0  -0.1331
  C  C130  1  0.459230  0.740770  0.202250  1.0  0.1228
  C  C131  1  0.045060  0.200700  0.740020  1.0  -0.1328
  C  C132  1  0.097750  0.202250  0.740770  1.0  0.1215
  C  C133  1  0.240020  0.014220  0.545060  1.0  -0.132
  C  C134  1  0.240770  0.959230  0.597750  1.0  0.1204
  C  C135  1  0.700700  0.545060  0.014220  1.0  -0.1319
  C  C136  1  0.702250  0.597750  0.959230  1.0  0.1233
  C  C137  1  0.514220  0.200700  0.545060  1.0  -0.1336
  C  C138  1  0.459230  0.202250  0.597750  1.0  0.1219
  C  C139  1  0.045060  0.740020  0.014220  1.0  -0.1332
  C  C140  1  0.097750  0.740770  0.959230  1.0  0.1213
  C  C141  1  0.240020  0.545060  0.200700  1.0  -0.1328
  C  C142  1  0.240770  0.597750  0.202250  1.0  0.1195
  C  C143  1  0.700700  0.014220  0.740020  1.0  -0.1313
  C  C144  1  0.702250  0.959230  0.740770  1.0  0.1218
  C  C145  1  0.454940  0.485780  0.759980  1.0  -0.1331
  C  C146  1  0.402250  0.540770  0.759230  1.0  0.1229
  C  C147  1  0.985780  0.954940  0.299300  1.0  -0.1328
  C  C148  1  0.040770  0.902250  0.297750  1.0  0.1243
  C  C149  1  0.799300  0.759980  0.485780  1.0  -0.1293
  C  C150  1  0.797750  0.759230  0.540770  1.0  0.1265
  C  C151  1  0.259980  0.299300  0.954940  1.0  -0.1313
  C  C152  1  0.259230  0.297750  0.902250  1.0  0.1264
  C  C153  1  0.259980  0.485780  0.299300  1.0  -0.1339
  C  C154  1  0.259230  0.540770  0.297750  1.0  0.1234
  C  C155  1  0.799300  0.954940  0.759980  1.0  -0.1306
  C  C156  1  0.797750  0.902250  0.759230  1.0  0.1244
  C  C157  1  0.985780  0.759980  0.954940  1.0  -0.1351
  C  C158  1  0.040770  0.759230  0.902250  1.0  0.1249
  C  C159  1  0.454940  0.299300  0.485780  1.0  -0.1322
  C  C160  1  0.402250  0.297750  0.540770  1.0  0.1238
  C  C161  1  0.799300  0.485780  0.954940  1.0  -0.1327
  C  C162  1  0.797750  0.540770  0.902250  1.0  0.1242
  C  C163  1  0.259980  0.954940  0.485780  1.0  -0.1332
  C  C164  1  0.259230  0.902250  0.540770  1.0  0.1228
  C  C165  1  0.454940  0.759980  0.299300  1.0  -0.1331
  C  C166  1  0.402250  0.759230  0.297750  1.0  0.1239
  C  C167  1  0.985780  0.299300  0.759980  1.0  -0.1334
  C  C168  1  0.040770  0.297750  0.759230  1.0  0.1236
  C  C169  1  0.485780  0.454940  0.259980  1.0  -0.132
  C  C170  1  0.540770  0.402250  0.259230  1.0  0.121
  C  C171  1  0.954940  0.985780  0.799300  1.0  -0.1318
  C  C172  1  0.902250  0.040770  0.797750  1.0  0.121
  C  C173  1  0.759980  0.799300  0.985780  1.0  -0.1308
  C  C174  1  0.759230  0.797750  0.040770  1.0  0.1238
  C  C175  1  0.299300  0.259980  0.454940  1.0  -0.1285
  C  C176  1  0.297750  0.259230  0.402250  1.0  0.1239
  C  C177  1  0.485780  0.259980  0.799300  1.0  -0.1342
  C  C178  1  0.540770  0.259230  0.797750  1.0  0.1213
  C  C179  1  0.954940  0.799300  0.259980  1.0  -0.132
  C  C180  1  0.902250  0.797750  0.259230  1.0  0.1219
  C  C181  1  0.759980  0.985780  0.454940  1.0  -0.1334
  C  C182  1  0.759230  0.040770  0.402250  1.0  0.1228
  C  C183  1  0.299300  0.454940  0.985780  1.0  -0.1299
  C  C184  1  0.297750  0.402250  0.040770  1.0  0.1224
  C  C185  1  0.485780  0.799300  0.454940  1.0  -0.1324
  C  C186  1  0.540770  0.797750  0.402250  1.0  0.1224
  C  C187  1  0.954940  0.259980  0.985780  1.0  -0.1324
  C  C188  1  0.902250  0.259230  0.040770  1.0  0.1217
  C  C189  1  0.759980  0.454940  0.799300  1.0  -0.1322
  C  C190  1  0.759230  0.402250  0.797750  1.0  0.1218
  C  C191  1  0.299300  0.985780  0.259980  1.0  -0.1319
  C  C192  1  0.297750  0.040770  0.259230  1.0  0.1229
  C  C193  1  0.545060  0.514220  0.240020  1.0  -0.1319
  C  C194  1  0.597750  0.459230  0.240770  1.0  0.1223
  C  C195  1  0.014220  0.045060  0.700700  1.0  -0.1315
  C  C196  1  0.959230  0.097750  0.702250  1.0  0.1222
  C  C197  1  0.200700  0.240020  0.514220  1.0  -0.1304
  C  C198  1  0.202250  0.240770  0.459230  1.0  0.1259
  C  C199  1  0.740020  0.700700  0.045060  1.0  -0.1321
  C  C200  1  0.740770  0.702250  0.097750  1.0  0.1268
  C  C201  1  0.740020  0.514220  0.700700  1.0  -0.1334
  C  C202  1  0.740770  0.459230  0.702250  1.0  0.1235
  C  C203  1  0.200700  0.045060  0.240020  1.0  -0.1321
  C  C204  1  0.202250  0.097750  0.240770  1.0  0.1251
  C  C205  1  0.014220  0.240020  0.045060  1.0  -0.133
  C  C206  1  0.959230  0.240770  0.097750  1.0  0.1236
  C  C207  1  0.545060  0.700700  0.514220  1.0  -0.1335
  C  C208  1  0.597750  0.702250  0.459230  1.0  0.1235
  C  C209  1  0.200700  0.514220  0.045060  1.0  -0.1324
  C  C210  1  0.202250  0.459230  0.097750  1.0  0.1243
  C  C211  1  0.740020  0.045060  0.514220  1.0  -0.1332
  C  C212  1  0.740770  0.097750  0.459230  1.0  0.1225
  C  C213  1  0.545060  0.240020  0.700700  1.0  -0.1337
  C  C214  1  0.597750  0.240770  0.702250  1.0  0.122
  C  C215  1  0.014220  0.700700  0.240020  1.0  -0.1343
  C  C216  1  0.959230  0.702250  0.240770  1.0  0.1228
  C  C217  1  0.569120  0.430880  0.750000  1.0  0.3551
  C  C218  1  0.512160  0.487840  0.750000  1.0  -0.0359
  C  C219  1  0.930880  0.069120  0.250000  1.0  0.355
  C  C220  1  0.987840  0.012160  0.250000  1.0  -0.0349
  C  C221  1  0.250000  0.250000  0.069120  1.0  0.3577
  C  C222  1  0.250000  0.250000  0.012160  1.0  -0.0354
  C  C223  1  0.750000  0.750000  0.430880  1.0  0.3576
  C  C224  1  0.750000  0.750000  0.487840  1.0  -0.0343
  C  C225  1  0.569120  0.750000  0.250000  1.0  0.3549
  C  C226  1  0.512160  0.750000  0.250000  1.0  -0.0363
  C  C227  1  0.930880  0.250000  0.750000  1.0  0.3551
  C  C228  1  0.987840  0.250000  0.750000  1.0  -0.036
  C  C229  1  0.250000  0.069120  0.430880  1.0  0.355
  C  C230  1  0.250000  0.012160  0.487840  1.0  -0.0343
  C  C231  1  0.750000  0.430880  0.069120  1.0  0.3552
  C  C232  1  0.750000  0.487840  0.012160  1.0  -0.0364
  C  C233  1  0.569120  0.250000  0.430880  1.0  0.3551
  C  C234  1  0.512160  0.250000  0.487840  1.0  -0.0357
  C  C235  1  0.930880  0.750000  0.069120  1.0  0.355
  C  C236  1  0.987840  0.750000  0.012160  1.0  -0.0363
  C  C237  1  0.250000  0.430880  0.250000  1.0  0.3552
  C  C238  1  0.250000  0.487840  0.250000  1.0  -0.0361
  C  C239  1  0.750000  0.069120  0.750000  1.0  0.355
  C  C240  1  0.750000  0.012160  0.750000  1.0  -0.0349
  C  C241  1  0.430880  0.569120  0.250000  1.0  0.355
  C  C242  1  0.487840  0.512160  0.250000  1.0  -0.0349
  C  C243  1  0.069120  0.930880  0.750000  1.0  0.3551
  C  C244  1  0.012160  0.987840  0.750000  1.0  -0.0359
  C  C245  1  0.750000  0.750000  0.930880  1.0  0.3576
  C  C246  1  0.750000  0.750000  0.987840  1.0  -0.0343
  C  C247  1  0.250000  0.250000  0.569120  1.0  0.3577
  C  C248  1  0.250000  0.250000  0.512160  1.0  -0.0354
  C  C249  1  0.430880  0.250000  0.750000  1.0  0.3551
  C  C250  1  0.487840  0.250000  0.750000  1.0  -0.036
  C  C251  1  0.069120  0.750000  0.250000  1.0  0.3549
  C  C252  1  0.012160  0.750000  0.250000  1.0  -0.0363
  C  C253  1  0.750000  0.930880  0.569120  1.0  0.3552
  C  C254  1  0.750000  0.987840  0.512160  1.0  -0.0364
  C  C255  1  0.250000  0.569120  0.930880  1.0  0.355
  C  C256  1  0.250000  0.512160  0.987840  1.0  -0.0343
  C  C257  1  0.430880  0.750000  0.569120  1.0  0.355
  C  C258  1  0.487840  0.750000  0.512160  1.0  -0.0363
  C  C259  1  0.069120  0.250000  0.930880  1.0  0.3551
  C  C260  1  0.012160  0.250000  0.987840  1.0  -0.0357
  C  C261  1  0.750000  0.569120  0.750000  1.0  0.355
  C  C262  1  0.750000  0.512160  0.750000  1.0  -0.0349
  C  C263  1  0.250000  0.930880  0.250000  1.0  0.3552
  C  C264  1  0.250000  0.987840  0.250000  1.0  -0.0361
  N  N265  1  0.631820  0.339380  0.748860  1.0  -0.0285
  N  N266  1  0.573470  0.377990  0.748210  1.0  -0.3326
  N  N267  1  0.839380  0.131820  0.279940  1.0  -0.0279
  N  N268  1  0.877990  0.073470  0.300330  1.0  -0.3326
  N  N269  1  0.248860  0.279940  0.131820  1.0  -0.0295
  N  N270  1  0.248210  0.300330  0.073470  1.0  -0.3317
  N  N271  1  0.779940  0.748860  0.339380  1.0  -0.0308
  N  N272  1  0.800330  0.748210  0.377990  1.0  -0.3309
  N  N273  1  0.631820  0.748860  0.279940  1.0  -0.0287
  N  N274  1  0.573470  0.748210  0.300330  1.0  -0.3331
  N  N275  1  0.839380  0.279940  0.748860  1.0  -0.0286
  N  N276  1  0.877990  0.300330  0.748210  1.0  -0.3321
  N  N277  1  0.248860  0.131820  0.339380  1.0  -0.0288
  N  N278  1  0.248210  0.073470  0.377990  1.0  -0.333
  N  N279  1  0.779940  0.339380  0.131820  1.0  -0.0274
  N  N280  1  0.800330  0.377990  0.073470  1.0  -0.3307
  N  N281  1  0.631820  0.279940  0.339380  1.0  -0.0304
  N  N282  1  0.573470  0.300330  0.377990  1.0  -0.3326
  N  N283  1  0.839380  0.748860  0.131820  1.0  -0.0288
  N  N284  1  0.877990  0.748210  0.073470  1.0  -0.3307
  N  N285  1  0.248860  0.339380  0.279940  1.0  -0.0274
  N  N286  1  0.248210  0.377990  0.300330  1.0  -0.3317
  N  N287  1  0.779940  0.131820  0.748860  1.0  -0.0281
  N  N288  1  0.800330  0.073470  0.748210  1.0  -0.3307
  N  N289  1  0.660620  0.368180  0.751140  1.0  -0.028
  N  N290  1  0.622010  0.426530  0.751790  1.0  -0.3315
  N  N291  1  0.868180  0.160620  0.220060  1.0  -0.0297
  N  N292  1  0.926530  0.122010  0.199670  1.0  -0.3319
  N  N293  1  0.720060  0.751140  0.368180  1.0  -0.0289
  N  N294  1  0.699670  0.751790  0.426530  1.0  -0.3307
  N  N295  1  0.251140  0.220060  0.160620  1.0  -0.0286
  N  N296  1  0.251790  0.199670  0.122010  1.0  -0.3316
  N  N297  1  0.251140  0.368180  0.220060  1.0  -0.0287
  N  N298  1  0.251790  0.426530  0.199670  1.0  -0.3325
  N  N299  1  0.720060  0.160620  0.751140  1.0  -0.0291
  N  N300  1  0.699670  0.122010  0.751790  1.0  -0.3309
  N  N301  1  0.868180  0.751140  0.160620  1.0  -0.0291
  N  N302  1  0.926530  0.751790  0.122010  1.0  -0.3321
  N  N303  1  0.660620  0.220060  0.368180  1.0  -0.0288
  N  N304  1  0.622010  0.199670  0.426530  1.0  -0.332
  N  N305  1  0.720060  0.368180  0.160620  1.0  -0.0282
  N  N306  1  0.699670  0.426530  0.122010  1.0  -0.3316
  N  N307  1  0.251140  0.160620  0.368180  1.0  -0.0285
  N  N308  1  0.251790  0.122010  0.426530  1.0  -0.3315
  N  N309  1  0.660620  0.751140  0.220060  1.0  -0.0289
  N  N310  1  0.622010  0.751790  0.199670  1.0  -0.33
  N  N311  1  0.868180  0.220060  0.751140  1.0  -0.029
  N  N312  1  0.926530  0.199670  0.751790  1.0  -0.331
  N  N313  1  0.368180  0.660620  0.251140  1.0  -0.0292
  N  N314  1  0.426530  0.622010  0.251790  1.0  -0.3321
  N  N315  1  0.160620  0.868180  0.720060  1.0  -0.0283
  N  N316  1  0.122010  0.926530  0.699670  1.0  -0.3314
  N  N317  1  0.751140  0.720060  0.868180  1.0  -0.0294
  N  N318  1  0.751790  0.699670  0.926530  1.0  -0.3316
  N  N319  1  0.220060  0.251140  0.660620  1.0  -0.0282
  N  N320  1  0.199670  0.251790  0.622010  1.0  -0.3308
  N  N321  1  0.368180  0.251140  0.720060  1.0  -0.0281
  N  N322  1  0.426530  0.251790  0.699670  1.0  -0.3322
  N  N323  1  0.160620  0.720060  0.251140  1.0  -0.0278
  N  N324  1  0.122010  0.699670  0.251790  1.0  -0.3324
  N  N325  1  0.751140  0.868180  0.660620  1.0  -0.0286
  N  N326  1  0.751790  0.926530  0.622010  1.0  -0.3326
  N  N327  1  0.220060  0.660620  0.868180  1.0  -0.0292
  N  N328  1  0.199670  0.622010  0.926530  1.0  -0.3311
  N  N329  1  0.368180  0.720060  0.660620  1.0  -0.0285
  N  N330  1  0.426530  0.699670  0.622010  1.0  -0.3309
  N  N331  1  0.160620  0.251140  0.868180  1.0  -0.0282
  N  N332  1  0.122010  0.251790  0.926530  1.0  -0.3309
  N  N333  1  0.751140  0.660620  0.720060  1.0  -0.0288
  N  N334  1  0.751790  0.622010  0.699670  1.0  -0.3312
  N  N335  1  0.220060  0.868180  0.251140  1.0  -0.0285
  N  N336  1  0.199670  0.926530  0.251790  1.0  -0.3321
  N  N337  1  0.339380  0.631820  0.248860  1.0  -0.0282
  N  N338  1  0.377990  0.573470  0.248210  1.0  -0.3328
  N  N339  1  0.131820  0.839380  0.779940  1.0  -0.0281
  N  N340  1  0.073470  0.877990  0.800330  1.0  -0.3329
  N  N341  1  0.279940  0.248860  0.631820  1.0  -0.0303
  N  N342  1  0.300330  0.248210  0.573470  1.0  -0.3312
  N  N343  1  0.748860  0.779940  0.839380  1.0  -0.0304
  N  N344  1  0.748210  0.800330  0.877990  1.0  -0.3316
  N  N345  1  0.748860  0.631820  0.779940  1.0  -0.0295
  N  N346  1  0.748210  0.573470  0.800330  1.0  -0.3329
  N  N347  1  0.279940  0.839380  0.248860  1.0  -0.0286
  N  N348  1  0.300330  0.877990  0.248210  1.0  -0.3306
  N  N349  1  0.131820  0.248860  0.839380  1.0  -0.0282
  N  N350  1  0.073470  0.248210  0.877990  1.0  -0.3328
  N  N351  1  0.339380  0.779940  0.631820  1.0  -0.0283
  N  N352  1  0.377990  0.800330  0.573470  1.0  -0.3324
  N  N353  1  0.279940  0.631820  0.839380  1.0  -0.0289
  N  N354  1  0.300330  0.573470  0.877990  1.0  -0.3311
  N  N355  1  0.748860  0.839380  0.631820  1.0  -0.0279
  N  N356  1  0.748210  0.877990  0.573470  1.0  -0.3312
  N  N357  1  0.339380  0.248860  0.779940  1.0  -0.0287
  N  N358  1  0.377990  0.248210  0.800330  1.0  -0.3311
  N  N359  1  0.131820  0.779940  0.248860  1.0  -0.0301
  N  N360  1  0.073470  0.800330  0.248210  1.0  -0.3322
  N  N361  1  0.404720  0.595280  0.750000  1.0  -0.2891
  N  N362  1  0.095280  0.904720  0.250000  1.0  -0.2876
  N  N363  1  0.250000  0.250000  0.904720  1.0  -0.2927
  N  N364  1  0.750000  0.750000  0.595280  1.0  -0.2903
  N  N365  1  0.404720  0.750000  0.250000  1.0  -0.2888
  N  N366  1  0.095280  0.250000  0.750000  1.0  -0.289
  N  N367  1  0.250000  0.904720  0.595280  1.0  -0.2895
  N  N368  1  0.750000  0.595280  0.904720  1.0  -0.2903
  N  N369  1  0.404720  0.250000  0.595280  1.0  -0.2891
  N  N370  1  0.095280  0.750000  0.904720  1.0  -0.2882
  N  N371  1  0.250000  0.595280  0.250000  1.0  -0.2906
  N  N372  1  0.750000  0.904720  0.750000  1.0  -0.2893
  N  N373  1  0.595280  0.404720  0.250000  1.0  -0.2876
  N  N374  1  0.904720  0.095280  0.750000  1.0  -0.2891
  N  N375  1  0.750000  0.750000  0.095280  1.0  -0.2903
  N  N376  1  0.250000  0.250000  0.404720  1.0  -0.2927
  N  N377  1  0.595280  0.250000  0.750000  1.0  -0.289
  N  N378  1  0.904720  0.750000  0.250000  1.0  -0.2888
  N  N379  1  0.750000  0.095280  0.404720  1.0  -0.2903
  N  N380  1  0.250000  0.404720  0.095280  1.0  -0.2895
  N  N381  1  0.595280  0.750000  0.404720  1.0  -0.2882
  N  N382  1  0.904720  0.250000  0.095280  1.0  -0.2891
  N  N383  1  0.750000  0.404720  0.750000  1.0  -0.2893
  N  N384  1  0.250000  0.095280  0.250000  1.0  -0.2906
  O  O385  1  0.750000  0.250000  0.750000  1.0  -0.8709
  O  O386  1  0.750000  0.250000  0.250000  1.0  -0.8709
  O  O387  1  0.250000  0.250000  0.250000  1.0  -0.8709
  O  O388  1  0.750000  0.750000  0.250000  1.0  -0.8709
  O  O389  1  0.250000  0.750000  0.250000  1.0  -0.8709
  O  O390  1  0.250000  0.750000  0.750000  1.0  -0.8709
  O  O391  1  0.750000  0.750000  0.750000  1.0  -0.8709
  O  O392  1  0.250000  0.250000  0.750000  1.0  -0.8709
