# generated using pymatgen
data_Cd2H18C25S2(NO4)2
_symmetry_space_group_name_H-M   'P 1'
_cell_length_a   10.10000000
_cell_length_b   30.13810000
_cell_length_c   12.66790000
_cell_angle_alpha   90.00000000
_cell_angle_beta   126.59700000
_cell_angle_gamma   90.00000000
_symmetry_Int_Tables_number   1
_chemical_formula_structural   Cd2H18C25S2(NO4)2
_chemical_formula_sum   'Cd8 H72 C100 S8 N8 O32'
_cell_volume   3095.81909112
_cell_formula_units_Z   4
loop_
 _symmetry_equiv_pos_site_id
 _symmetry_equiv_pos_as_xyz
  1  'x, y, z'
loop_
 _atom_site_type_symbol
 _atom_site_label
 _atom_site_symmetry_multiplicity
 _atom_site_fract_x
 _atom_site_fract_y
 _atom_site_fract_z
 _atom_site_occupancy
 _atom_site_charge
  Cd  Cd1  1  0.128210  0.306770  0.079760  1.0  1.0554
  Cd  Cd2  1  0.969670  0.408480  0.890170  1.0  1.0441
  Cd  Cd3  1  0.871790  0.806770  0.420240  1.0  1.0567
  Cd  Cd4  1  0.030330  0.908480  0.609830  1.0  1.0453
  Cd  Cd5  1  0.871790  0.693230  0.920240  1.0  1.0569
  Cd  Cd6  1  0.030330  0.591520  0.109830  1.0  1.0462
  Cd  Cd7  1  0.128210  0.193230  0.579760  1.0  1.0553
  Cd  Cd8  1  0.969670  0.091520  0.390170  1.0  1.0451
  H  H9  1  0.144200  0.468300  0.332600  1.0  0.1071
  H  H10  1  0.377100  0.475000  0.563000  1.0  0.1086
  H  H11  1  0.302200  0.392700  0.771700  1.0  0.1177
  H  H12  1  0.560400  0.389300  0.797600  1.0  0.1129
  H  H13  1  0.019800  0.236300  0.844400  1.0  0.088
  H  H14  1  0.925300  0.165900  0.774200  1.0  0.1222
  H  H15  1  0.977700  0.144100  0.107000  1.0  0.1286
  H  H16  1  0.076300  0.214300  0.171100  1.0  0.0817
  H  H17  1  0.946700  0.082800  0.881600  1.0  0.1192
  H  H18  1  0.857200  0.086500  0.948300  1.0  0.1077
  H  H19  1  0.719500  0.111100  0.688300  1.0  0.0897
  H  H20  1  0.630700  0.119400  0.754000  1.0  0.1054
  H  H21  1  0.616100  0.041700  0.772800  1.0  0.1074
  H  H22  1  0.513300  0.057900  0.626500  1.0  0.1167
  H  H23  1  0.829100  0.987500  0.849400  1.0  0.1422
  H  H24  1  0.965700  0.939700  0.805500  1.0  0.0811
  H  H25  1  0.789100  0.997900  0.473400  1.0  0.0844
  H  H26  1  0.643000  0.046200  0.506500  1.0  0.1259
  H  H27  1  0.855800  0.968300  0.167400  1.0  0.1066
  H  H28  1  0.622900  0.975000  0.937000  1.0  0.1081
  H  H29  1  0.697800  0.892700  0.728300  1.0  0.1178
  H  H30  1  0.439600  0.889300  0.702400  1.0  0.113
  H  H31  1  0.980200  0.736300  0.655600  1.0  0.088
  H  H32  1  0.074700  0.665900  0.725800  1.0  0.1222
  H  H33  1  0.022300  0.644100  0.393000  1.0  0.1289
  H  H34  1  0.923700  0.714300  0.328900  1.0  0.0819
  H  H35  1  0.053300  0.582800  0.618400  1.0  0.1194
  H  H36  1  0.142800  0.586500  0.551700  1.0  0.108
  H  H37  1  0.280500  0.611100  0.811700  1.0  0.0891
  H  H38  1  0.369300  0.619400  0.746000  1.0  0.1058
  H  H39  1  0.383900  0.541700  0.727200  1.0  0.1066
  H  H40  1  0.486700  0.557900  0.873500  1.0  0.1155
  H  H41  1  0.170900  0.487500  0.650600  1.0  0.1429
  H  H42  1  0.034300  0.439700  0.694500  1.0  0.0808
  H  H43  1  0.210900  0.497900  0.026600  1.0  0.0846
  H  H44  1  0.357000  0.546200  0.993500  1.0  0.1255
  H  H45  1  0.855800  0.531700  0.667400  1.0  0.1068
  H  H46  1  0.622900  0.525000  0.437000  1.0  0.1086
  H  H47  1  0.697800  0.607300  0.228300  1.0  0.1177
  H  H48  1  0.439600  0.610700  0.202400  1.0  0.1134
  H  H49  1  0.980200  0.763700  0.155600  1.0  0.089
  H  H50  1  0.074700  0.834100  0.225800  1.0  0.1223
  H  H51  1  0.022300  0.855900  0.893000  1.0  0.1287
  H  H52  1  0.923700  0.785700  0.828900  1.0  0.0822
  H  H53  1  0.053300  0.917200  0.118400  1.0  0.119
  H  H54  1  0.142800  0.913500  0.051700  1.0  0.1081
  H  H55  1  0.280500  0.888900  0.311700  1.0  0.0887
  H  H56  1  0.369300  0.880600  0.246000  1.0  0.1057
  H  H57  1  0.383900  0.958300  0.227200  1.0  0.1065
  H  H58  1  0.486700  0.942100  0.373500  1.0  0.1157
  H  H59  1  0.170900  0.012500  0.150600  1.0  0.1429
  H  H60  1  0.034300  0.060300  0.194500  1.0  0.0815
  H  H61  1  0.210900  0.002100  0.526600  1.0  0.0847
  H  H62  1  0.357000  0.953800  0.493500  1.0  0.1263
  H  H63  1  0.144200  0.031700  0.832600  1.0  0.1072
  H  H64  1  0.377100  0.025000  0.063000  1.0  0.109
  H  H65  1  0.302200  0.107300  0.271700  1.0  0.1176
  H  H66  1  0.560400  0.110700  0.297600  1.0  0.1133
  H  H67  1  0.019800  0.263700  0.344400  1.0  0.0886
  H  H68  1  0.925300  0.334100  0.274200  1.0  0.1225
  H  H69  1  0.977700  0.355900  0.607000  1.0  0.1284
  H  H70  1  0.076300  0.285700  0.671100  1.0  0.0815
  H  H71  1  0.946700  0.417200  0.381600  1.0  0.1187
  H  H72  1  0.857200  0.413500  0.448300  1.0  0.1079
  H  H73  1  0.719500  0.388900  0.188300  1.0  0.0897
  H  H74  1  0.630700  0.380600  0.254000  1.0  0.1062
  H  H75  1  0.616100  0.458300  0.272800  1.0  0.1065
  H  H76  1  0.513300  0.442100  0.126500  1.0  0.1167
  H  H77  1  0.829100  0.512500  0.349400  1.0  0.1421
  H  H78  1  0.965700  0.560300  0.305500  1.0  0.0808
  H  H79  1  0.789100  0.502100  0.973400  1.0  0.0844
  H  H80  1  0.643000  0.453800  0.006500  1.0  0.1258
  C  C81  1  0.167700  0.413200  0.162900  1.0  0.6755
  C  C82  1  0.275300  0.425900  0.303500  1.0  -0.2016
  C  C83  1  0.243900  0.453570  0.370500  1.0  -0.0496
  C  C84  1  0.378700  0.457470  0.503300  1.0  -0.0606
  C  C85  1  0.511300  0.433350  0.536200  1.0  -0.2081
  C  C86  1  0.675300  0.428060  0.663600  1.0  0.6673
  C  C87  1  0.246200  0.337620  0.921800  1.0  0.658
  C  C88  1  0.381400  0.344590  0.908300  1.0  -0.207
  C  C89  1  0.387900  0.373550  0.829800  1.0  -0.039
  C  C90  1  0.537100  0.371680  0.845000  1.0  -0.0476
  C  C91  1  0.643700  0.341530  0.936100  1.0  -0.1949
  C  C92  1  0.811700  0.330120  0.981500  1.0  0.6954
  C  C93  1  0.011600  0.217500  0.898400  1.0  0.1723
  C  C94  1  0.954100  0.175200  0.855400  1.0  -0.2086
  C  C95  1  0.938900  0.146340  0.932800  1.0  0.1509
  C  C96  1  0.985500  0.162190  0.051400  1.0  -0.2235
  C  C97  1  0.043800  0.204750  0.089000  1.0  0.1828
  C  C98  1  0.868900  0.100360  0.885100  1.0  -0.1823
  C  C99  1  0.705100  0.099520  0.752300  1.0  -0.0867
  C  C100  1  0.624400  0.054310  0.706500  1.0  -0.2007
  C  C101  1  0.717300  0.022290  0.680500  1.0  0.1209
  C  C102  1  0.817500  0.989930  0.771100  1.0  -0.2069
  C  C103  1  0.899600  0.961570  0.744100  1.0  0.1946
  C  C104  1  0.796100  0.995290  0.549700  1.0  0.1849
  C  C105  1  0.708500  0.024650  0.569400  1.0  -0.1942
  C  C106  1  0.832300  0.913200  0.337100  1.0  0.6746
  C  C107  1  0.724700  0.925900  0.196500  1.0  -0.2022
  C  C108  1  0.756100  0.953570  0.129500  1.0  -0.0485
  C  C109  1  0.621300  0.957470  0.996700  1.0  -0.0606
  C  C110  1  0.488700  0.933350  0.963800  1.0  -0.2091
  C  C111  1  0.324700  0.928060  0.836400  1.0  0.666
  C  C112  1  0.753800  0.837620  0.578200  1.0  0.6588
  C  C113  1  0.618600  0.844590  0.591700  1.0  -0.2067
  C  C114  1  0.612100  0.873550  0.670200  1.0  -0.0384
  C  C115  1  0.462900  0.871680  0.655000  1.0  -0.0471
  C  C116  1  0.356300  0.841530  0.563900  1.0  -0.194
  C  C117  1  0.188300  0.830120  0.518500  1.0  0.6948
  C  C118  1  0.988400  0.717500  0.601600  1.0  0.1713
  C  C119  1  0.045900  0.675200  0.644600  1.0  -0.2073
  C  C120  1  0.061100  0.646340  0.567200  1.0  0.151
  C  C121  1  0.014500  0.662190  0.448600  1.0  -0.2238
  C  C122  1  0.956200  0.704750  0.411000  1.0  0.1824
  C  C123  1  0.131100  0.600360  0.614900  1.0  -0.1821
  C  C124  1  0.294900  0.599520  0.747700  1.0  -0.0892
  C  C125  1  0.375600  0.554310  0.793500  1.0  -0.1995
  C  C126  1  0.282700  0.522290  0.819500  1.0  0.1211
  C  C127  1  0.182500  0.489930  0.728900  1.0  -0.206
  C  C128  1  0.100400  0.461570  0.755900  1.0  0.1962
  C  C129  1  0.203900  0.495290  0.950300  1.0  0.1852
  C  C130  1  0.291500  0.524650  0.930600  1.0  -0.1935
  C  C131  1  0.832300  0.586800  0.837100  1.0  0.6742
  C  C132  1  0.724700  0.574100  0.696500  1.0  -0.2026
  C  C133  1  0.756100  0.546430  0.629500  1.0  -0.0483
  C  C134  1  0.621300  0.542530  0.496700  1.0  -0.0609
  C  C135  1  0.488700  0.566650  0.463800  1.0  -0.2094
  C  C136  1  0.324700  0.571940  0.336400  1.0  0.6656
  C  C137  1  0.753800  0.662380  0.078200  1.0  0.6591
  C  C138  1  0.618600  0.655410  0.091700  1.0  -0.2059
  C  C139  1  0.612100  0.626450  0.170200  1.0  -0.0381
  C  C140  1  0.462900  0.628320  0.155000  1.0  -0.0467
  C  C141  1  0.356300  0.658470  0.063900  1.0  -0.1953
  C  C142  1  0.188300  0.669880  0.018500  1.0  0.696
  C  C143  1  0.988400  0.782500  0.101600  1.0  0.1711
  C  C144  1  0.045900  0.824800  0.144600  1.0  -0.2066
  C  C145  1  0.061100  0.853660  0.067200  1.0  0.1509
  C  C146  1  0.014500  0.837810  0.948600  1.0  -0.224
  C  C147  1  0.956200  0.795250  0.911000  1.0  0.1816
  C  C148  1  0.131100  0.899640  0.114900  1.0  -0.1807
  C  C149  1  0.294900  0.900480  0.247700  1.0  -0.0885
  C  C150  1  0.375600  0.945690  0.293500  1.0  -0.1989
  C  C151  1  0.282700  0.977710  0.319500  1.0  0.1208
  C  C152  1  0.182500  0.010070  0.228900  1.0  -0.207
  C  C153  1  0.100400  0.038430  0.255900  1.0  0.1959
  C  C154  1  0.203900  0.004710  0.450300  1.0  0.1851
  C  C155  1  0.291500  0.975350  0.430600  1.0  -0.1937
  C  C156  1  0.167700  0.086800  0.662900  1.0  0.6753
  C  C157  1  0.275300  0.074100  0.803500  1.0  -0.2022
  C  C158  1  0.243900  0.046430  0.870500  1.0  -0.0496
  C  C159  1  0.378700  0.042530  0.003300  1.0  -0.0613
  C  C160  1  0.511300  0.066650  0.036200  1.0  -0.2082
  C  C161  1  0.675300  0.071940  0.163600  1.0  0.6671
  C  C162  1  0.246200  0.162380  0.421800  1.0  0.6585
  C  C163  1  0.381400  0.155410  0.408300  1.0  -0.2066
  C  C164  1  0.387900  0.126450  0.329800  1.0  -0.0385
  C  C165  1  0.537100  0.128320  0.345000  1.0  -0.0464
  C  C166  1  0.643700  0.158470  0.436100  1.0  -0.1962
  C  C167  1  0.811700  0.169880  0.481500  1.0  0.6964
  C  C168  1  0.011600  0.282500  0.398400  1.0  0.1705
  C  C169  1  0.954100  0.324800  0.355400  1.0  -0.208
  C  C170  1  0.938900  0.353660  0.432800  1.0  0.1511
  C  C171  1  0.985500  0.337810  0.551400  1.0  -0.2233
  C  C172  1  0.043800  0.295250  0.589000  1.0  0.1829
  C  C173  1  0.868900  0.399640  0.385100  1.0  -0.1805
  C  C174  1  0.705100  0.400480  0.252300  1.0  -0.087
  C  C175  1  0.624400  0.445690  0.206500  1.0  -0.2011
  C  C176  1  0.717300  0.477710  0.180500  1.0  0.1207
  C  C177  1  0.817500  0.510070  0.271100  1.0  -0.2068
  C  C178  1  0.899600  0.538430  0.244100  1.0  0.194
  C  C179  1  0.796100  0.504710  0.049700  1.0  0.1847
  C  C180  1  0.708500  0.475350  0.069400  1.0  -0.1934
  S  S181  1  0.470210  0.404970  0.402710  1.0  0.1564
  S  S182  1  0.560180  0.314980  0.003820  1.0  0.1538
  S  S183  1  0.529790  0.904970  0.097290  1.0  0.1556
  S  S184  1  0.439820  0.814980  0.496180  1.0  0.155
  S  S185  1  0.529790  0.595030  0.597290  1.0  0.153
  S  S186  1  0.439820  0.685020  0.996180  1.0  0.1513
  S  S187  1  0.470210  0.095030  0.902710  1.0  0.1538
  S  S188  1  0.560180  0.185020  0.503820  1.0  0.1503
  N  N189  1  0.056500  0.233170  0.014900  1.0  -0.3252
  N  N190  1  0.890000  0.963500  0.634500  1.0  -0.3504
  N  N191  1  0.943500  0.733170  0.485100  1.0  -0.3245
  N  N192  1  0.110000  0.463500  0.865500  1.0  -0.3503
  N  N193  1  0.943500  0.766830  0.985100  1.0  -0.3253
  N  N194  1  0.110000  0.036500  0.365500  1.0  -0.3514
  N  N195  1  0.056500  0.266830  0.514900  1.0  -0.3246
  N  N196  1  0.890000  0.536500  0.134500  1.0  -0.3506
  O  O197  1  0.213900  0.381670  0.126700  1.0  -0.6788
  O  O198  1  0.039200  0.434800  0.085400  1.0  -0.568
  O  O199  1  0.779200  0.405140  0.663600  1.0  -0.589
  O  O200  1  0.701700  0.445270  0.763800  1.0  -0.6568
  O  O201  1  0.274000  0.307760  0.002700  1.0  -0.597
  O  O202  1  0.120400  0.360530  0.853400  1.0  -0.6655
  O  O203  1  0.900500  0.307460  0.082000  1.0  -0.5904
  O  O204  1  0.860900  0.343360  0.914900  1.0  -0.723
  O  O205  1  0.786100  0.881670  0.373300  1.0  -0.6811
  O  O206  1  0.960800  0.934800  0.414600  1.0  -0.5701
  O  O207  1  0.220800  0.905140  0.836400  1.0  -0.5886
  O  O208  1  0.298300  0.945270  0.736200  1.0  -0.6561
  O  O209  1  0.726000  0.807760  0.497300  1.0  -0.5986
  O  O210  1  0.879600  0.860530  0.646600  1.0  -0.6659
  O  O211  1  0.099500  0.807460  0.418000  1.0  -0.5899
  O  O212  1  0.139100  0.843360  0.585100  1.0  -0.7242
  O  O213  1  0.786100  0.618330  0.873300  1.0  -0.6819
  O  O214  1  0.960800  0.565200  0.914600  1.0  -0.5699
  O  O215  1  0.220800  0.594860  0.336400  1.0  -0.5885
  O  O216  1  0.298300  0.554730  0.236200  1.0  -0.6576
  O  O217  1  0.726000  0.692240  0.997300  1.0  -0.5987
  O  O218  1  0.879600  0.639470  0.146600  1.0  -0.664
  O  O219  1  0.099500  0.692540  0.918000  1.0  -0.5895
  O  O220  1  0.139100  0.656640  0.085100  1.0  -0.724
  O  O221  1  0.213900  0.118330  0.626700  1.0  -0.679
  O  O222  1  0.039200  0.065200  0.585400  1.0  -0.5687
  O  O223  1  0.779200  0.094860  0.163600  1.0  -0.589
  O  O224  1  0.701700  0.054730  0.263800  1.0  -0.6584
  O  O225  1  0.274000  0.192240  0.502700  1.0  -0.5973
  O  O226  1  0.120400  0.139470  0.353400  1.0  -0.6655
  O  O227  1  0.900500  0.192540  0.582000  1.0  -0.5903
  O  O228  1  0.860900  0.156640  0.414900  1.0  -0.723
