# generated using pymatgen
data_ZnH16C16S(NO)4
_symmetry_space_group_name_H-M   'P 1'
_cell_length_a   9.13370000
_cell_length_b   14.46350000
_cell_length_c   18.03430000
_cell_angle_alpha   93.35300000
_cell_angle_beta   102.98800000
_cell_angle_gamma   91.06800000
_symmetry_Int_Tables_number   1
_chemical_formula_structural   ZnH16C16S(NO)4
_chemical_formula_sum   'Zn4 H64 C64 S4 N16 O16'
_cell_volume   2316.26537067
_cell_formula_units_Z   4
loop_
 _symmetry_equiv_pos_site_id
 _symmetry_equiv_pos_as_xyz
  1  'x, y, z'
loop_
 _atom_site_type_symbol
 _atom_site_label
 _atom_site_symmetry_multiplicity
 _atom_site_fract_x
 _atom_site_fract_y
 _atom_site_fract_z
 _atom_site_occupancy
 _atom_site_charge
  Zn  Zn1  1  0.160310  0.734390  0.599420  1.0  0.8599
  Zn  Zn2  1  0.853780  0.274610  0.924660  1.0  0.9272
  Zn  Zn3  1  0.839690  0.265610  0.400580  1.0  0.8597
  Zn  Zn4  1  0.146220  0.725390  0.075340  1.0  0.9292
  H  H5  1  0.469000  0.067600  0.883400  1.0  0.103
  H  H6  1  0.296900  0.950300  0.812200  1.0  0.1072
  H  H7  1  0.690900  0.202500  0.051500  1.0  0.099
  H  H8  1  0.753600  0.259000  0.184700  1.0  0.123
  H  H9  1  0.997900  0.399200  0.074500  1.0  0.0996
  H  H10  1  0.092300  0.388800  0.230600  1.0  0.0788
  H  H11  1  0.952600  0.376700  0.266600  1.0  0.0823
  H  H12  1  0.855600  0.513200  0.217400  1.0  0.0625
  H  H13  1  0.989500  0.524400  0.176600  1.0  0.0582
  H  H14  1  0.026200  0.527400  0.337400  1.0  0.0648
  H  H15  1  0.161000  0.536400  0.297400  1.0  0.0721
  H  H16  1  0.934300  0.664800  0.283900  1.0  0.073
  H  H17  1  0.082500  0.675300  0.254400  1.0  0.08
  H  H18  1  0.271200  0.787200  0.345400  1.0  0.1171
  H  H19  1  0.325800  0.830300  0.480500  1.0  0.1035
  H  H20  1  0.011700  0.638300  0.440600  1.0  0.0907
  H  H21  1  0.083100  0.187700  0.829100  1.0  0.1028
  H  H22  1  0.346100  0.238800  0.852400  1.0  0.1226
  H  H23  1  0.161600  0.371900  0.001400  1.0  0.0827
  H  H24  1  0.520300  0.352400  0.950000  1.0  0.0826
  H  H25  1  0.471400  0.353600  0.028100  1.0  0.0861
  H  H26  1  0.414600  0.494700  0.924000  1.0  0.0663
  H  H27  1  0.343600  0.494200  0.995600  1.0  0.0676
  H  H28  1  0.899600  0.827400  0.666100  1.0  0.0957
  H  H29  1  0.638800  0.774400  0.636700  1.0  0.1231
  H  H30  1  0.867800  0.602900  0.532200  1.0  0.0967
  H  H31  1  0.484300  0.637600  0.556500  1.0  0.0756
  H  H32  1  0.536300  0.643100  0.479700  1.0  0.0797
  H  H33  1  0.591800  0.499000  0.576100  1.0  0.0633
  H  H34  1  0.659000  0.505500  0.503500  1.0  0.0634
  H  H35  1  0.520600  0.315200  0.747500  1.0  0.1105
  H  H36  1  0.314900  0.365800  0.650200  1.0  0.1004
  H  H37  1  0.531000  0.932400  0.116600  1.0  0.1035
  H  H38  1  0.703100  0.049700  0.187800  1.0  0.1079
  H  H39  1  0.309100  0.797500  0.948500  1.0  0.0995
  H  H40  1  0.246400  0.741000  0.815300  1.0  0.1226
  H  H41  1  0.002100  0.600800  0.925500  1.0  0.1002
  H  H42  1  0.907700  0.611200  0.769400  1.0  0.0819
  H  H43  1  0.047400  0.623300  0.733400  1.0  0.0817
  H  H44  1  0.144400  0.486800  0.782600  1.0  0.0632
  H  H45  1  0.010500  0.475600  0.823400  1.0  0.057
  H  H46  1  0.973800  0.472600  0.662600  1.0  0.0661
  H  H47  1  0.839000  0.463600  0.702600  1.0  0.0728
  H  H48  1  0.065700  0.335200  0.716100  1.0  0.0744
  H  H49  1  0.917500  0.324700  0.745600  1.0  0.0792
  H  H50  1  0.728800  0.212800  0.654600  1.0  0.1172
  H  H51  1  0.674200  0.169700  0.519500  1.0  0.1034
  H  H52  1  0.988300  0.361700  0.559400  1.0  0.09
  H  H53  1  0.916900  0.812300  0.170900  1.0  0.1033
  H  H54  1  0.653900  0.761200  0.147600  1.0  0.1226
  H  H55  1  0.838400  0.628100  0.998600  1.0  0.084
  H  H56  1  0.479700  0.647600  0.050000  1.0  0.0829
  H  H57  1  0.528600  0.646400  0.971900  1.0  0.0871
  H  H58  1  0.585400  0.505300  0.076000  1.0  0.0659
  H  H59  1  0.656400  0.505800  0.004400  1.0  0.0681
  H  H60  1  0.100400  0.172600  0.333900  1.0  0.0945
  H  H61  1  0.361200  0.225600  0.363300  1.0  0.122
  H  H62  1  0.132200  0.397100  0.467800  1.0  0.0977
  H  H63  1  0.515700  0.362400  0.443500  1.0  0.0771
  H  H64  1  0.463700  0.356900  0.520300  1.0  0.0776
  H  H65  1  0.408200  0.501000  0.423900  1.0  0.0624
  H  H66  1  0.341000  0.494500  0.496500  1.0  0.0618
  H  H67  1  0.479400  0.684800  0.252500  1.0  0.1095
  H  H68  1  0.685100  0.634200  0.349800  1.0  0.1012
  C  C69  1  0.716500  0.129600  0.829700  1.0  0.691
  C  C70  1  0.592300  0.060200  0.803800  1.0  -0.2199
  C  C71  1  0.479300  0.039400  0.837300  1.0  -0.038
  C  C72  1  0.380600  0.972200  0.796300  1.0  -0.026
  C  C73  1  0.416800  0.940700  0.730600  1.0  -0.2191
  C  C74  1  0.342000  0.869800  0.672200  1.0  0.6997
  C  C75  1  0.761100  0.249700  0.072700  1.0  0.0199
  C  C76  1  0.795800  0.279900  0.146100  1.0  -0.1369
  C  C77  1  0.929100  0.356600  0.085100  1.0  0.1452
  C  C78  1  0.985600  0.399400  0.223300  1.0  0.0161
  C  C79  1  0.961100  0.501300  0.221000  1.0  -0.1453
  C  C80  1  0.056200  0.550400  0.293500  1.0  -0.1345
  C  C81  1  0.040200  0.650900  0.294300  1.0  0.0202
  C  C82  1  0.225500  0.762200  0.381300  1.0  -0.1342
  C  C83  1  0.255000  0.785200  0.455600  1.0  0.0189
  C  C84  1  0.084500  0.681000  0.434200  1.0  0.128
  C  C85  1  0.131200  0.231700  0.866800  1.0  0.0244
  C  C86  1  0.276300  0.259900  0.879300  1.0  -0.1584
  C  C87  1  0.174100  0.332700  0.960800  1.0  0.1532
  C  C88  1  0.442500  0.371500  0.975900  1.0  0.0022
  C  C89  1  0.429900  0.475900  0.975900  1.0  -0.1492
  C  C90  1  0.860400  0.775000  0.635200  1.0  0.0079
  C  C91  1  0.716500  0.746400  0.619200  1.0  -0.17
  C  C92  1  0.844000  0.652500  0.562000  1.0  0.1303
  C  C93  1  0.563600  0.621400  0.530700  1.0  0.0006
  C  C94  1  0.574800  0.522200  0.525600  1.0  -0.129
  C  C95  1  0.709500  0.441200  0.849300  1.0  0.6681
  C  C96  1  0.577500  0.448400  0.784700  1.0  -0.1961
  C  C97  1  0.498400  0.377000  0.740900  1.0  -0.0879
  C  C98  1  0.380100  0.406200  0.684900  1.0  -0.0796
  C  C99  1  0.370600  0.498600  0.686600  1.0  -0.1045
  C  C100  1  0.260600  0.555800  0.637100  1.0  0.6642
  C  C101  1  0.283500  0.870400  0.170300  1.0  0.6871
  C  C102  1  0.407700  0.939800  0.196200  1.0  -0.2204
  C  C103  1  0.520700  0.960600  0.162700  1.0  -0.0394
  C  C104  1  0.619400  0.027800  0.203700  1.0  -0.0263
  C  C105  1  0.583200  0.059300  0.269400  1.0  -0.2207
  C  C106  1  0.658000  0.130200  0.327800  1.0  0.6994
  C  C107  1  0.238900  0.750300  0.927300  1.0  0.0193
  C  C108  1  0.204200  0.720100  0.853900  1.0  -0.1345
  C  C109  1  0.070900  0.643400  0.914900  1.0  0.1485
  C  C110  1  0.014400  0.600600  0.776700  1.0  0.0169
  C  C111  1  0.038900  0.498700  0.779000  1.0  -0.1474
  C  C112  1  0.943800  0.449600  0.706500  1.0  -0.1329
  C  C113  1  0.959800  0.349100  0.705700  1.0  0.0192
  C  C114  1  0.774500  0.237800  0.618700  1.0  -0.134
  C  C115  1  0.745000  0.214800  0.544400  1.0  0.0194
  C  C116  1  0.915500  0.319000  0.565800  1.0  0.1288
  C  C117  1  0.868800  0.768300  0.133200  1.0  0.0241
  C  C118  1  0.723700  0.740100  0.120700  1.0  -0.1579
  C  C119  1  0.825900  0.667300  0.039200  1.0  0.1504
  C  C120  1  0.557500  0.628500  0.024100  1.0  0.0025
  C  C121  1  0.570100  0.524100  0.024100  1.0  -0.1469
  C  C122  1  0.139600  0.225000  0.364800  1.0  0.0047
  C  C123  1  0.283500  0.253600  0.380800  1.0  -0.1688
  C  C124  1  0.156000  0.347500  0.438000  1.0  0.1304
  C  C125  1  0.436400  0.378600  0.469300  1.0  -0.0
  C  C126  1  0.425200  0.477800  0.474400  1.0  -0.1305
  C  C127  1  0.290500  0.558800  0.150700  1.0  0.6681
  C  C128  1  0.422500  0.551600  0.215300  1.0  -0.1949
  C  C129  1  0.501600  0.623000  0.259100  1.0  -0.0892
  C  C130  1  0.619900  0.593800  0.315100  1.0  -0.0797
  C  C131  1  0.629400  0.501400  0.313400  1.0  -0.1053
  C  C132  1  0.739400  0.444200  0.362900  1.0  0.6674
  S  S133  1  0.576340  0.995780  0.719720  1.0  0.1639
  S  S134  1  0.507390  0.551870  0.757690  1.0  0.1173
  S  S135  1  0.423660  0.004220  0.280280  1.0  0.1628
  S  S136  1  0.492610  0.448130  0.242310  1.0  0.1204
  N  N137  1  0.844300  0.298500  0.033750  1.0  -0.3925
  N  N138  1  0.904700  0.347100  0.153600  1.0  0.0316
  N  N139  1  0.116400  0.695800  0.368020  1.0  0.0368
  N  N140  1  0.168100  0.733900  0.489860  1.0  -0.3962
  N  N141  1  0.066400  0.277800  0.918200  1.0  -0.4198
  N  N142  1  0.301800  0.324800  0.938400  1.0  0.0434
  N  N143  1  0.941600  0.716300  0.599710  1.0  -0.404
  N  N144  1  0.705800  0.668600  0.572300  1.0  0.0401
  N  N145  1  0.155700  0.701500  0.966250  1.0  -0.3965
  N  N146  1  0.095300  0.652900  0.846400  1.0  0.0315
  N  N147  1  0.883600  0.304200  0.631980  1.0  0.0373
  N  N148  1  0.831900  0.266100  0.510140  1.0  -0.3906
  N  N149  1  0.933600  0.722200  0.081800  1.0  -0.4193
  N  N150  1  0.698200  0.675200  0.061600  1.0  0.043
  N  N151  1  0.058400  0.283700  0.400290  1.0  -0.4022
  N  N152  1  0.294200  0.331400  0.427700  1.0  0.0415
  O  O153  1  0.728900  0.164200  0.896740  1.0  -0.6209
  O  O154  1  0.798000  0.149200  0.787400  1.0  -0.5356
  O  O155  1  0.213400  0.840100  0.676540  1.0  -0.5956
  O  O156  1  0.405000  0.842400  0.621590  1.0  -0.5954
  O  O157  1  0.745200  0.359300  0.860000  1.0  -0.6729
  O  O158  1  0.769100  0.510100  0.885100  1.0  -0.5463
  O  O159  1  0.163300  0.519500  0.584680  1.0  -0.5518
  O  O160  1  0.278800  0.641500  0.654980  1.0  -0.5913
  O  O161  1  0.271100  0.835800  0.103260  1.0  -0.6199
  O  O162  1  0.202000  0.850800  0.212600  1.0  -0.5354
  O  O163  1  0.786600  0.159900  0.323460  1.0  -0.5937
  O  O164  1  0.595000  0.157600  0.378410  1.0  -0.5952
  O  O165  1  0.254800  0.640700  0.140000  1.0  -0.6725
  O  O166  1  0.230900  0.489900  0.114900  1.0  -0.5474
  O  O167  1  0.836700  0.480500  0.415320  1.0  -0.5515
  O  O168  1  0.721200  0.358500  0.345020  1.0  -0.5904
