# generated using pymatgen
data_AgH8C13N2(OF)3
_symmetry_space_group_name_H-M   'P 1'
_cell_length_a   34.53830000
_cell_length_b   34.53830000
_cell_length_c   8.51690000
_cell_angle_alpha   90.00000000
_cell_angle_beta   90.00000000
_cell_angle_gamma   120.00000000
_symmetry_Int_Tables_number   1
_chemical_formula_structural   AgH8C13N2(OF)3
_chemical_formula_sum   'Ag18 H144 C234 N36 O54 F54'
_cell_volume   8798.61054213
_cell_formula_units_Z   18
loop_
 _symmetry_equiv_pos_site_id
 _symmetry_equiv_pos_as_xyz
  1  'x, y, z'
loop_
 _atom_site_type_symbol
 _atom_site_label
 _atom_site_symmetry_multiplicity
 _atom_site_fract_x
 _atom_site_fract_y
 _atom_site_fract_z
 _atom_site_occupancy
 _atom_site_charge
  Ag  Ag1  1  0.317470  0.146050  0.493920  1.0  0.4666
  Ag  Ag2  1  0.984140  0.479380  0.827250  1.0  0.4666
  Ag  Ag3  1  0.650810  0.812710  0.160580  1.0  0.4668
  Ag  Ag4  1  0.853950  0.171430  0.493920  1.0  0.4684
  Ag  Ag5  1  0.520620  0.504760  0.827250  1.0  0.4684
  Ag  Ag6  1  0.187290  0.838090  0.160580  1.0  0.4686
  Ag  Ag7  1  0.828570  0.682530  0.493920  1.0  0.4687
  Ag  Ag8  1  0.495240  0.015860  0.827250  1.0  0.4687
  Ag  Ag9  1  0.161910  0.349190  0.160580  1.0  0.4691
  Ag  Ag10  1  0.682530  0.853950  0.506080  1.0  0.4672
  Ag  Ag11  1  0.349190  0.187290  0.839420  1.0  0.4674
  Ag  Ag12  1  0.015860  0.520620  0.172750  1.0  0.4672
  Ag  Ag13  1  0.146050  0.828570  0.506080  1.0  0.467
  Ag  Ag14  1  0.812710  0.161910  0.839420  1.0  0.4672
  Ag  Ag15  1  0.479380  0.495240  0.172750  1.0  0.467
  Ag  Ag16  1  0.171430  0.317470  0.506080  1.0  0.4679
  Ag  Ag17  1  0.838090  0.650810  0.839420  1.0  0.4681
  Ag  Ag18  1  0.504760  0.984140  0.172750  1.0  0.4679
  H  H19  1  0.386900  0.202500  0.247000  1.0  0.0792
  H  H20  1  0.745330  0.930870  0.756670  1.0  0.1246
  H  H21  1  0.042670  0.638930  0.428630  1.0  0.1103
  H  H22  1  0.290900  0.219100  0.410000  1.0  0.0722
  H  H23  1  0.905170  0.546630  0.503030  1.0  0.1165
  H  H24  1  0.162400  0.184400  0.208000  1.0  0.1128
  H  H25  1  0.138000  0.223700  0.352800  1.0  0.0795
  H  H26  1  0.259800  0.320800  0.413000  1.0  0.0763
  H  H27  1  0.053570  0.535830  0.580330  1.0  0.0792
  H  H28  1  0.412000  0.264200  0.090000  1.0  0.1246
  H  H29  1  0.709330  0.972270  0.761970  1.0  0.1103
  H  H30  1  0.957570  0.552430  0.743330  1.0  0.0723
  H  H31  1  0.571830  0.879970  0.836370  1.0  0.1165
  H  H32  1  0.829070  0.517730  0.541330  1.0  0.1109
  H  H33  1  0.804670  0.557030  0.686130  1.0  0.0795
  H  H34  1  0.926470  0.654130  0.746330  1.0  0.0763
  H  H35  1  0.720230  0.869170  0.913670  1.0  0.0792
  H  H36  1  0.078670  0.597530  0.423330  1.0  0.1246
  H  H37  1  0.376000  0.305600  0.095300  1.0  0.1103
  H  H38  1  0.624230  0.885770  0.076670  1.0  0.0723
  H  H39  1  0.238500  0.213300  0.169700  1.0  0.1164
  H  H40  1  0.495730  0.851070  0.874670  1.0  0.1109
  H  H41  1  0.471330  0.890370  0.019470  1.0  0.0798
  H  H42  1  0.593130  0.987470  0.079670  1.0  0.0763
  H  H43  1  0.797500  0.184400  0.247000  1.0  0.0745
  H  H44  1  0.069130  0.814470  0.756670  1.0  0.1245
  H  H45  1  0.361070  0.403730  0.428630  1.0  0.1098
  H  H46  1  0.780900  0.071800  0.410000  1.0  0.0726
  H  H47  1  0.453370  0.358530  0.503030  1.0  0.1164
  H  H48  1  0.815600  0.978000  0.208000  1.0  0.1136
  H  H49  1  0.776300  0.914300  0.352800  1.0  0.0803
  H  H50  1  0.679200  0.939000  0.413000  1.0  0.0756
  H  H51  1  0.464170  0.517730  0.580330  1.0  0.0745
  H  H52  1  0.735800  0.147800  0.090000  1.0  0.1245
  H  H53  1  0.027730  0.737070  0.761970  1.0  0.1098
  H  H54  1  0.447570  0.405130  0.743330  1.0  0.0727
  H  H55  1  0.120030  0.691870  0.836370  1.0  0.1165
  H  H56  1  0.482270  0.311330  0.541330  1.0  0.1117
  H  H57  1  0.442970  0.247630  0.686130  1.0  0.0803
  H  H58  1  0.345870  0.272330  0.746330  1.0  0.0756
  H  H59  1  0.130830  0.851070  0.913670  1.0  0.0745
  H  H60  1  0.402470  0.481130  0.423330  1.0  0.1245
  H  H61  1  0.694400  0.070400  0.095300  1.0  0.1098
  H  H62  1  0.114230  0.738470  0.076670  1.0  0.0726
  H  H63  1  0.786700  0.025200  0.169700  1.0  0.1165
  H  H64  1  0.148930  0.644670  0.874670  1.0  0.1117
  H  H65  1  0.109630  0.580970  0.019470  1.0  0.0802
  H  H66  1  0.012530  0.605670  0.079670  1.0  0.0755
  H  H67  1  0.815600  0.613100  0.247000  1.0  0.0781
  H  H68  1  0.185530  0.254670  0.756670  1.0  0.1239
  H  H69  1  0.596270  0.957330  0.428630  1.0  0.11
  H  H70  1  0.928200  0.709100  0.410000  1.0  0.0722
  H  H71  1  0.641470  0.094830  0.503030  1.0  0.116
  H  H72  1  0.022000  0.837600  0.208000  1.0  0.1146
  H  H73  1  0.085700  0.862000  0.352800  1.0  0.08
  H  H74  1  0.061000  0.740200  0.413000  1.0  0.0758
  H  H75  1  0.482270  0.946430  0.580330  1.0  0.078
  H  H76  1  0.852200  0.588000  0.090000  1.0  0.1239
  H  H77  1  0.262930  0.290670  0.761970  1.0  0.11
  H  H78  1  0.594870  0.042430  0.743330  1.0  0.0722
  H  H79  1  0.308130  0.428170  0.836370  1.0  0.1161
  H  H80  1  0.688670  0.170930  0.541330  1.0  0.1126
  H  H81  1  0.752370  0.195330  0.686130  1.0  0.0801
  H  H82  1  0.727670  0.073530  0.746330  1.0  0.0758
  H  H83  1  0.148930  0.279770  0.913670  1.0  0.0781
  H  H84  1  0.518870  0.921330  0.423330  1.0  0.1239
  H  H85  1  0.929600  0.624000  0.095300  1.0  0.11
  H  H86  1  0.261530  0.375770  0.076670  1.0  0.0721
  H  H87  1  0.974800  0.761500  0.169700  1.0  0.1161
  H  H88  1  0.355330  0.504270  0.874670  1.0  0.1126
  H  H89  1  0.419030  0.528670  0.019470  1.0  0.0796
  H  H90  1  0.394330  0.406870  0.079670  1.0  0.0758
  H  H91  1  0.613100  0.797500  0.753000  1.0  0.0787
  H  H92  1  0.254670  0.069130  0.243330  1.0  0.1237
  H  H93  1  0.957330  0.361070  0.571370  1.0  0.1099
  H  H94  1  0.709100  0.780900  0.590000  1.0  0.0715
  H  H95  1  0.094830  0.453370  0.496970  1.0  0.1165
  H  H96  1  0.837600  0.815600  0.792000  1.0  0.1136
  H  H97  1  0.862000  0.776300  0.647200  1.0  0.0796
  H  H98  1  0.740200  0.679200  0.587000  1.0  0.0754
  H  H99  1  0.279770  0.130830  0.086330  1.0  0.0787
  H  H100  1  0.921330  0.402470  0.576670  1.0  0.1237
  H  H101  1  0.624000  0.694400  0.904700  1.0  0.1099
  H  H102  1  0.375770  0.114230  0.923330  1.0  0.0715
  H  H103  1  0.761500  0.786700  0.830300  1.0  0.1164
  H  H104  1  0.504270  0.148930  0.125330  1.0  0.1136
  H  H105  1  0.528670  0.109630  0.980530  1.0  0.08
  H  H106  1  0.406870  0.012530  0.920330  1.0  0.0754
  H  H107  1  0.946430  0.464170  0.419670  1.0  0.0788
  H  H108  1  0.588000  0.735800  0.910000  1.0  0.1237
  H  H109  1  0.290670  0.027730  0.238030  1.0  0.1099
  H  H110  1  0.042430  0.447570  0.256670  1.0  0.0716
  H  H111  1  0.428170  0.120030  0.163630  1.0  0.1164
  H  H112  1  0.170930  0.482270  0.458670  1.0  0.1116
  H  H113  1  0.195330  0.442970  0.313870  1.0  0.0796
  H  H114  1  0.073530  0.345870  0.253670  1.0  0.0754
  H  H115  1  0.202500  0.815600  0.753000  1.0  0.0772
  H  H116  1  0.930870  0.185530  0.243330  1.0  0.1238
  H  H117  1  0.638930  0.596270  0.571370  1.0  0.1095
  H  H118  1  0.219100  0.928200  0.590000  1.0  0.0728
  H  H119  1  0.546630  0.641470  0.496970  1.0  0.1175
  H  H120  1  0.184400  0.022000  0.792000  1.0  0.1141
  H  H121  1  0.223700  0.085700  0.647200  1.0  0.0804
  H  H122  1  0.320800  0.061000  0.587000  1.0  0.0757
  H  H123  1  0.869170  0.148930  0.086330  1.0  0.0772
  H  H124  1  0.597530  0.518870  0.576670  1.0  0.1237
  H  H125  1  0.305600  0.929600  0.904700  1.0  0.1095
  H  H126  1  0.885770  0.261530  0.923330  1.0  0.0728
  H  H127  1  0.213300  0.974800  0.830300  1.0  0.1176
  H  H128  1  0.851070  0.355330  0.125330  1.0  0.1141
  H  H129  1  0.890370  0.419030  0.980530  1.0  0.0803
  H  H130  1  0.987470  0.394330  0.920330  1.0  0.0756
  H  H131  1  0.535830  0.482270  0.419670  1.0  0.0772
  H  H132  1  0.264200  0.852200  0.910000  1.0  0.1238
  H  H133  1  0.972270  0.262930  0.238030  1.0  0.1095
  H  H134  1  0.552430  0.594870  0.256670  1.0  0.0729
  H  H135  1  0.879970  0.308130  0.163630  1.0  0.1176
  H  H136  1  0.517730  0.688670  0.458670  1.0  0.1121
  H  H137  1  0.557030  0.752370  0.313870  1.0  0.0803
  H  H138  1  0.654130  0.727670  0.253670  1.0  0.0757
  H  H139  1  0.184400  0.386900  0.753000  1.0  0.0777
  H  H140  1  0.814470  0.745330  0.243330  1.0  0.1238
  H  H141  1  0.403730  0.042670  0.571370  1.0  0.11
  H  H142  1  0.071800  0.290900  0.590000  1.0  0.0722
  H  H143  1  0.358530  0.905170  0.496970  1.0  0.1168
  H  H144  1  0.978000  0.162400  0.792000  1.0  0.1141
  H  H145  1  0.914300  0.138000  0.647200  1.0  0.0801
  H  H146  1  0.939000  0.259800  0.587000  1.0  0.0758
  H  H147  1  0.851070  0.720230  0.086330  1.0  0.0777
  H  H148  1  0.481130  0.078670  0.576670  1.0  0.1238
  H  H149  1  0.070400  0.376000  0.904700  1.0  0.11
  H  H150  1  0.738470  0.624230  0.923330  1.0  0.0721
  H  H151  1  0.025200  0.238500  0.830300  1.0  0.1168
  H  H152  1  0.644670  0.495730  0.125330  1.0  0.1141
  H  H153  1  0.580970  0.471330  0.980530  1.0  0.0797
  H  H154  1  0.605670  0.593130  0.920330  1.0  0.0759
  H  H155  1  0.517730  0.053570  0.419670  1.0  0.0777
  H  H156  1  0.147800  0.412000  0.910000  1.0  0.1238
  H  H157  1  0.737070  0.709330  0.238030  1.0  0.11
  H  H158  1  0.405130  0.957570  0.256670  1.0  0.0721
  H  H159  1  0.691870  0.571830  0.163630  1.0  0.1168
  H  H160  1  0.311330  0.829070  0.458670  1.0  0.1122
  H  H161  1  0.247630  0.804670  0.313870  1.0  0.0801
  H  H162  1  0.272330  0.926470  0.253670  1.0  0.0758
  C  C163  1  0.372030  0.218780  0.249200  1.0  0.1777
  C  C164  1  0.054010  0.589060  0.488130  1.0  -0.1655
  C  C165  1  0.032580  0.613460  0.490530  1.0  0.0204
  C  C166  1  0.995590  0.599590  0.586630  1.0  -0.0551
  C  C167  1  0.315620  0.228500  0.345000  1.0  0.1836
  C  C168  1  0.972790  0.626670  0.594930  1.0  0.3074
  C  C169  1  0.257210  0.270440  0.288800  1.0  -0.0431
  C  C170  1  0.894660  0.562540  0.559830  1.0  -0.083
  C  C171  1  0.182910  0.212060  0.250000  1.0  -0.1412
  C  C172  1  0.168540  0.235950  0.335800  1.0  0.1713
  C  C173  1  0.239950  0.292750  0.372000  1.0  0.1798
  C  C174  1  0.407610  0.152070  0.531900  1.0  0.6355
  C  C175  1  0.788170  0.827870  0.231970  1.0  0.4703
  C  C176  1  0.038700  0.552110  0.582530  1.0  0.1777
  C  C177  1  0.720670  0.922400  0.821470  1.0  -0.1656
  C  C178  1  0.699240  0.946800  0.823870  1.0  0.0201
  C  C179  1  0.662250  0.932930  0.919970  1.0  -0.0551
  C  C180  1  0.982290  0.561830  0.678330  1.0  0.1836
  C  C181  1  0.639450  0.960010  0.928270  1.0  0.3075
  C  C182  1  0.923880  0.603770  0.622130  1.0  -0.0432
  C  C183  1  0.561320  0.895880  0.893170  1.0  -0.083
  C  C184  1  0.849580  0.545390  0.583330  1.0  -0.1398
  C  C185  1  0.835210  0.569280  0.669130  1.0  0.1713
  C  C186  1  0.906620  0.626080  0.705330  1.0  0.1798
  C  C187  1  0.074280  0.485400  0.865230  1.0  0.6355
  C  C188  1  0.454840  0.161200  0.565300  1.0  0.4702
  C  C189  1  0.705360  0.885450  0.915870  1.0  0.1777
  C  C190  1  0.387340  0.255730  0.154800  1.0  -0.1668
  C  C191  1  0.365910  0.280130  0.157200  1.0  0.0195
  C  C192  1  0.328920  0.266260  0.253300  1.0  -0.0551
  C  C193  1  0.648950  0.895170  0.011670  1.0  0.1836
  C  C194  1  0.306120  0.293340  0.261600  1.0  0.3073
  C  C195  1  0.590540  0.937110  0.955470  1.0  -0.0431
  C  C196  1  0.227990  0.229210  0.226500  1.0  -0.0831
  C  C197  1  0.516240  0.878730  0.916670  1.0  -0.1397
  C  C198  1  0.501870  0.902620  0.002470  1.0  0.1713
  C  C199  1  0.573280  0.959420  0.038670  1.0  0.1798
  C  C200  1  0.740940  0.818740  0.198570  1.0  0.6355
  C  C201  1  0.121510  0.494530  0.898630  1.0  0.4702
  C  C202  1  0.781220  0.153250  0.249200  1.0  0.1735
  C  C203  1  0.410940  0.464940  0.488130  1.0  -0.1652
  C  C204  1  0.386540  0.419110  0.490530  1.0  0.0207
  C  C205  1  0.400410  0.395990  0.586630  1.0  -0.0558
  C  C206  1  0.771500  0.087120  0.345000  1.0  0.1835
  C  C207  1  0.373330  0.346110  0.594930  1.0  0.3042
  C  C208  1  0.729560  0.986770  0.288800  1.0  -0.0425
  C  C209  1  0.437460  0.332110  0.559830  1.0  -0.0762
  C  C210  1  0.787940  0.970850  0.250000  1.0  -0.1432
  C  C211  1  0.764050  0.932590  0.335800  1.0  0.1748
  C  C212  1  0.707250  0.947200  0.372000  1.0  0.1808
  C  C213  1  0.847930  0.255540  0.531900  1.0  0.6371
  C  C214  1  0.172130  0.960310  0.231970  1.0  0.4725
  C  C215  1  0.447890  0.486580  0.582530  1.0  0.1735
  C  C216  1  0.077600  0.798280  0.821470  1.0  -0.1652
  C  C217  1  0.053200  0.752450  0.823870  1.0  0.0205
  C  C218  1  0.067070  0.729330  0.919970  1.0  -0.0558
  C  C219  1  0.438170  0.420450  0.678330  1.0  0.1836
  C  C220  1  0.039990  0.679450  0.928270  1.0  0.3044
  C  C221  1  0.396230  0.320100  0.622130  1.0  -0.0426
  C  C222  1  0.104120  0.665450  0.893170  1.0  -0.0762
  C  C223  1  0.454610  0.304180  0.583330  1.0  -0.1419
  C  C224  1  0.430720  0.265920  0.669130  1.0  0.1749
  C  C225  1  0.373920  0.280530  0.705330  1.0  0.1808
  C  C226  1  0.514600  0.588870  0.865230  1.0  0.6371
  C  C227  1  0.838800  0.293640  0.565300  1.0  0.4725
  C  C228  1  0.114550  0.819920  0.915870  1.0  0.1735
  C  C229  1  0.744270  0.131610  0.154800  1.0  -0.1665
  C  C230  1  0.719870  0.085780  0.157200  1.0  0.0199
  C  C231  1  0.733740  0.062660  0.253300  1.0  -0.0558
  C  C232  1  0.104830  0.753790  0.011670  1.0  0.1835
  C  C233  1  0.706660  0.012780  0.261600  1.0  0.3041
  C  C234  1  0.062890  0.653440  0.955470  1.0  -0.0425
  C  C235  1  0.770790  0.998780  0.226500  1.0  -0.0763
  C  C236  1  0.121270  0.637520  0.916670  1.0  -0.1419
  C  C237  1  0.097380  0.599260  0.002470  1.0  0.1749
  C  C238  1  0.040580  0.613870  0.038670  1.0  0.1809
  C  C239  1  0.181260  0.922210  0.198570  1.0  0.6368
  C  C240  1  0.505470  0.626970  0.898630  1.0  0.4725
  C  C241  1  0.846750  0.627970  0.249200  1.0  0.1745
  C  C242  1  0.535060  0.945990  0.488130  1.0  -0.1648
  C  C243  1  0.580890  0.967420  0.490530  1.0  0.0203
  C  C244  1  0.604010  0.004410  0.586630  1.0  -0.0576
  C  C245  1  0.912880  0.684380  0.345000  1.0  0.1844
  C  C246  1  0.653890  0.027210  0.594930  1.0  0.307
  C  C247  1  0.013230  0.742790  0.288800  1.0  -0.043
  C  C248  1  0.667890  0.105340  0.559830  1.0  -0.0819
  C  C249  1  0.029150  0.817090  0.250000  1.0  -0.1434
  C  C250  1  0.067410  0.831460  0.335800  1.0  0.1714
  C  C251  1  0.052800  0.760050  0.372000  1.0  0.1796
  C  C252  1  0.744460  0.592390  0.531900  1.0  0.636
  C  C253  1  0.039690  0.211830  0.231970  1.0  0.4722
  C  C254  1  0.513420  0.961300  0.582530  1.0  0.1745
  C  C255  1  0.201720  0.279330  0.821470  1.0  -0.1647
  C  C256  1  0.247550  0.300760  0.823870  1.0  0.0201
  C  C257  1  0.270670  0.337750  0.919970  1.0  -0.0575
  C  C258  1  0.579550  0.017710  0.678330  1.0  0.1844
  C  C259  1  0.320550  0.360550  0.928270  1.0  0.3068
  C  C260  1  0.679900  0.076120  0.622130  1.0  -0.043
  C  C261  1  0.334550  0.438680  0.893170  1.0  -0.0819
  C  C262  1  0.695820  0.150420  0.583330  1.0  -0.1425
  C  C263  1  0.734080  0.164790  0.669130  1.0  0.1714
  C  C264  1  0.719470  0.093380  0.705330  1.0  0.1796
  C  C265  1  0.411130  0.925720  0.865230  1.0  0.636
  C  C266  1  0.706360  0.545160  0.565300  1.0  0.4724
  C  C267  1  0.180080  0.294640  0.915870  1.0  0.1745
  C  C268  1  0.868390  0.612660  0.154800  1.0  -0.1661
  C  C269  1  0.914220  0.634090  0.157200  1.0  0.0194
  C  C270  1  0.937340  0.671080  0.253300  1.0  -0.0575
  C  C271  1  0.246210  0.351050  0.011670  1.0  0.1844
  C  C272  1  0.987220  0.693880  0.261600  1.0  0.3067
  C  C273  1  0.346560  0.409460  0.955470  1.0  -0.0431
  C  C274  1  0.001220  0.772010  0.226500  1.0  -0.0821
  C  C275  1  0.362480  0.483760  0.916670  1.0  -0.1426
  C  C276  1  0.400740  0.498130  0.002470  1.0  0.1714
  C  C277  1  0.386130  0.426720  0.038670  1.0  0.1796
  C  C278  1  0.077790  0.259060  0.198570  1.0  0.636
  C  C279  1  0.373030  0.878490  0.898630  1.0  0.4724
  C  C280  1  0.627970  0.781220  0.750800  1.0  0.1774
  C  C281  1  0.945990  0.410940  0.511870  1.0  -0.1677
  C  C282  1  0.967420  0.386540  0.509470  1.0  0.0211
  C  C283  1  0.004410  0.400410  0.413370  1.0  -0.0556
  C  C284  1  0.684380  0.771500  0.655000  1.0  0.183
  C  C285  1  0.027210  0.373330  0.405070  1.0  0.3086
  C  C286  1  0.742790  0.729560  0.711200  1.0  -0.0428
  C  C287  1  0.105340  0.437460  0.440170  1.0  -0.0821
  C  C288  1  0.817090  0.787940  0.750000  1.0  -0.1398
  C  C289  1  0.831460  0.764050  0.664200  1.0  0.1694
  C  C290  1  0.760050  0.707250  0.628000  1.0  0.1786
  C  C291  1  0.592390  0.847930  0.468100  1.0  0.6364
  C  C292  1  0.211830  0.172130  0.768030  1.0  0.471
  C  C293  1  0.294640  0.114550  0.084130  1.0  0.1774
  C  C294  1  0.612660  0.744270  0.845200  1.0  -0.1689
  C  C295  1  0.634090  0.719870  0.842800  1.0  0.0203
  C  C296  1  0.671080  0.733740  0.746700  1.0  -0.0556
  C  C297  1  0.351050  0.104830  0.988330  1.0  0.183
  C  C298  1  0.693880  0.706660  0.738400  1.0  0.3084
  C  C299  1  0.409460  0.062890  0.044530  1.0  -0.0428
  C  C300  1  0.772010  0.770790  0.773500  1.0  -0.0821
  C  C301  1  0.483760  0.121270  0.083330  1.0  -0.1397
  C  C302  1  0.498130  0.097380  0.997530  1.0  0.1694
  C  C303  1  0.426720  0.040580  0.961330  1.0  0.1786
  C  C304  1  0.259060  0.181260  0.801430  1.0  0.6364
  C  C305  1  0.878490  0.505470  0.101370  1.0  0.471
  C  C306  1  0.961300  0.447890  0.417470  1.0  0.1774
  C  C307  1  0.279330  0.077600  0.178530  1.0  -0.1666
  C  C308  1  0.300760  0.053200  0.176130  1.0  0.0203
  C  C309  1  0.337750  0.067070  0.080030  1.0  -0.0556
  C  C310  1  0.017710  0.438170  0.321670  1.0  0.183
  C  C311  1  0.360550  0.039990  0.071730  1.0  0.3085
  C  C312  1  0.076120  0.396230  0.377870  1.0  -0.0428
  C  C313  1  0.438680  0.104120  0.106830  1.0  -0.0821
  C  C314  1  0.150420  0.454610  0.416670  1.0  -0.1388
  C  C315  1  0.164790  0.430720  0.330870  1.0  0.1695
  C  C316  1  0.093380  0.373920  0.294670  1.0  0.1786
  C  C317  1  0.925720  0.514600  0.134770  1.0  0.6364
  C  C318  1  0.545160  0.838800  0.434700  1.0  0.471
  C  C319  1  0.218780  0.846750  0.750800  1.0  0.1726
  C  C320  1  0.589060  0.535060  0.511870  1.0  -0.1667
  C  C321  1  0.613460  0.580890  0.509470  1.0  0.0204
  C  C322  1  0.599590  0.604010  0.413370  1.0  -0.0554
  C  C323  1  0.228500  0.912880  0.655000  1.0  0.1833
  C  C324  1  0.626670  0.653890  0.405070  1.0  0.3069
  C  C325  1  0.270440  0.013230  0.711200  1.0  -0.0435
  C  C326  1  0.562540  0.667890  0.440170  1.0  -0.0772
  C  C327  1  0.212060  0.029150  0.750000  1.0  -0.1443
  C  C328  1  0.235950  0.067410  0.664200  1.0  0.1742
  C  C329  1  0.292750  0.052800  0.628000  1.0  0.1786
  C  C330  1  0.152070  0.744460  0.468100  1.0  0.637
  C  C331  1  0.827870  0.039690  0.768030  1.0  0.4705
  C  C332  1  0.885450  0.180080  0.084130  1.0  0.1726
  C  C333  1  0.255730  0.868390  0.845200  1.0  -0.1681
  C  C334  1  0.280130  0.914220  0.842800  1.0  0.0195
  C  C335  1  0.266260  0.937340  0.746700  1.0  -0.0554
  C  C336  1  0.895170  0.246210  0.988330  1.0  0.1833
  C  C337  1  0.293340  0.987220  0.738400  1.0  0.3069
  C  C338  1  0.937110  0.346560  0.044530  1.0  -0.0435
  C  C339  1  0.229210  0.001220  0.773500  1.0  -0.0774
  C  C340  1  0.878730  0.362480  0.083330  1.0  -0.1443
  C  C341  1  0.902620  0.400740  0.997530  1.0  0.1743
  C  C342  1  0.959420  0.386130  0.961330  1.0  0.1787
  C  C343  1  0.818740  0.077790  0.801430  1.0  0.6366
  C  C344  1  0.494530  0.373030  0.101370  1.0  0.4705
  C  C345  1  0.552110  0.513420  0.417470  1.0  0.1727
  C  C346  1  0.922400  0.201720  0.178530  1.0  -0.1655
  C  C347  1  0.946800  0.247550  0.176130  1.0  0.0195
  C  C348  1  0.932930  0.270670  0.080030  1.0  -0.0554
  C  C349  1  0.561830  0.579550  0.321670  1.0  0.1834
  C  C350  1  0.960010  0.320550  0.071730  1.0  0.307
  C  C351  1  0.603770  0.679900  0.377870  1.0  -0.0435
  C  C352  1  0.895880  0.334550  0.106830  1.0  -0.0774
  C  C353  1  0.545390  0.695820  0.416670  1.0  -0.1432
  C  C354  1  0.569280  0.734080  0.330870  1.0  0.1743
  C  C355  1  0.626080  0.719470  0.294670  1.0  0.1786
  C  C356  1  0.485400  0.411130  0.134770  1.0  0.637
  C  C357  1  0.161200  0.706360  0.434700  1.0  0.4705
  C  C358  1  0.153250  0.372030  0.750800  1.0  0.1755
  C  C359  1  0.464940  0.054010  0.511870  1.0  -0.1655
  C  C360  1  0.419110  0.032580  0.509470  1.0  0.0203
  C  C361  1  0.395990  0.995590  0.413370  1.0  -0.0571
  C  C362  1  0.087120  0.315620  0.655000  1.0  0.1849
  C  C363  1  0.346110  0.972790  0.405070  1.0  0.3058
  C  C364  1  0.986770  0.257210  0.711200  1.0  -0.0423
  C  C365  1  0.332110  0.894660  0.440170  1.0  -0.0791
  C  C366  1  0.970850  0.182910  0.750000  1.0  -0.1405
  C  C367  1  0.932590  0.168540  0.664200  1.0  0.1703
  C  C368  1  0.947200  0.239950  0.628000  1.0  0.1795
  C  C369  1  0.255540  0.407610  0.468100  1.0  0.6372
  C  C370  1  0.960310  0.788170  0.768030  1.0  0.4731
  C  C371  1  0.819920  0.705360  0.084130  1.0  0.1755
  C  C372  1  0.131610  0.387340  0.845200  1.0  -0.1671
  C  C373  1  0.085780  0.365910  0.842800  1.0  0.0193
  C  C374  1  0.062660  0.328920  0.746700  1.0  -0.0571
  C  C375  1  0.753790  0.648950  0.988330  1.0  0.1849
  C  C376  1  0.012780  0.306120  0.738400  1.0  0.3054
  C  C377  1  0.653440  0.590540  0.044530  1.0  -0.0423
  C  C378  1  0.998780  0.227990  0.773500  1.0  -0.0792
  C  C379  1  0.637520  0.516240  0.083330  1.0  -0.1406
  C  C380  1  0.599260  0.501870  0.997530  1.0  0.1703
  C  C381  1  0.613870  0.573280  0.961330  1.0  0.1795
  C  C382  1  0.922210  0.740940  0.801430  1.0  0.6372
  C  C383  1  0.626970  0.121510  0.101370  1.0  0.4732
  C  C384  1  0.486580  0.038700  0.417470  1.0  0.1755
  C  C385  1  0.798280  0.720670  0.178530  1.0  -0.1647
  C  C386  1  0.752450  0.699240  0.176130  1.0  0.0193
  C  C387  1  0.729330  0.662250  0.080030  1.0  -0.0571
  C  C388  1  0.420450  0.982290  0.321670  1.0  0.1849
  C  C389  1  0.679450  0.639450  0.071730  1.0  0.3053
  C  C390  1  0.320100  0.923880  0.377870  1.0  -0.0422
  C  C391  1  0.665450  0.561320  0.106830  1.0  -0.0792
  C  C392  1  0.304180  0.849580  0.416670  1.0  -0.1393
  C  C393  1  0.265920  0.835210  0.330870  1.0  0.1703
  C  C394  1  0.280530  0.906620  0.294670  1.0  0.1795
  C  C395  1  0.588870  0.074280  0.134770  1.0  0.6372
  C  C396  1  0.293640  0.454840  0.434700  1.0  0.4732
  N  N397  1  0.336890  0.205060  0.343900  1.0  -0.322
  N  N398  1  0.196440  0.276110  0.396300  1.0  -0.3258
  N  N399  1  0.003560  0.538390  0.677230  1.0  -0.3226
  N  N400  1  0.863110  0.609440  0.729630  1.0  -0.326
  N  N401  1  0.670220  0.871730  0.010570  1.0  -0.3226
  N  N402  1  0.529770  0.942780  0.062970  1.0  -0.3258
  N  N403  1  0.794940  0.131830  0.343900  1.0  -0.322
  N  N404  1  0.723890  0.920330  0.396300  1.0  -0.324
  N  N405  1  0.461610  0.465160  0.677230  1.0  -0.3224
  N  N406  1  0.390560  0.253660  0.729630  1.0  -0.324
  N  N407  1  0.128270  0.798500  0.010570  1.0  -0.3224
  N  N408  1  0.057220  0.587000  0.062970  1.0  -0.324
  N  N409  1  0.868170  0.663110  0.343900  1.0  -0.3224
  N  N410  1  0.079670  0.803560  0.396300  1.0  -0.326
  N  N411  1  0.534840  0.996440  0.677230  1.0  -0.3234
  N  N412  1  0.746340  0.136890  0.729630  1.0  -0.3257
  N  N413  1  0.201500  0.329780  0.010570  1.0  -0.3234
  N  N414  1  0.413000  0.470230  0.062970  1.0  -0.326
  N  N415  1  0.663110  0.794940  0.656100  1.0  -0.3246
  N  N416  1  0.803560  0.723890  0.603700  1.0  -0.3263
  N  N417  1  0.329780  0.128270  0.989430  1.0  -0.3246
  N  N418  1  0.470230  0.057220  0.937030  1.0  -0.3263
  N  N419  1  0.996440  0.461610  0.322770  1.0  -0.3254
  N  N420  1  0.136890  0.390560  0.270370  1.0  -0.3265
  N  N421  1  0.205060  0.868170  0.656100  1.0  -0.3235
  N  N422  1  0.276110  0.079670  0.603700  1.0  -0.3247
  N  N423  1  0.871730  0.201500  0.989430  1.0  -0.3235
  N  N424  1  0.942780  0.413000  0.937030  1.0  -0.3247
  N  N425  1  0.538390  0.534840  0.322770  1.0  -0.3242
  N  N426  1  0.609440  0.746340  0.270370  1.0  -0.3247
  N  N427  1  0.131830  0.336890  0.656100  1.0  -0.3223
  N  N428  1  0.920330  0.196440  0.603700  1.0  -0.326
  N  N429  1  0.798500  0.670220  0.989430  1.0  -0.3223
  N  N430  1  0.587000  0.529770  0.937030  1.0  -0.3261
  N  N431  1  0.465160  0.003560  0.322770  1.0  -0.3229
  N  N432  1  0.253660  0.863110  0.270370  1.0  -0.3257
  O  O433  1  0.994130  0.666870  0.576030  1.0  -0.4314
  O  O434  1  0.721280  0.821310  0.312970  1.0  -0.6508
  O  O435  1  0.394930  0.143930  0.396200  1.0  -0.5856
  O  O436  1  0.660790  0.000210  0.909370  1.0  -0.4314
  O  O437  1  0.387950  0.154640  0.646300  1.0  -0.6506
  O  O438  1  0.061600  0.477260  0.729530  1.0  -0.5856
  O  O439  1  0.327460  0.333540  0.242700  1.0  -0.4313
  O  O440  1  0.054620  0.487970  0.979630  1.0  -0.6506
  O  O441  1  0.728260  0.810600  0.062870  1.0  -0.5857
  O  O442  1  0.333130  0.327250  0.576030  1.0  -0.4328
  O  O443  1  0.178690  0.899980  0.312970  1.0  -0.6532
  O  O444  1  0.856070  0.251000  0.396200  1.0  -0.5879
  O  O445  1  0.999790  0.660590  0.909370  1.0  -0.4328
  O  O446  1  0.845360  0.233310  0.646300  1.0  -0.6534
  O  O447  1  0.522740  0.584330  0.729530  1.0  -0.5878
  O  O448  1  0.666460  0.993920  0.242700  1.0  -0.4328
  O  O449  1  0.512030  0.566640  0.979630  1.0  -0.6534
  O  O450  1  0.189400  0.917670  0.062870  1.0  -0.588
  O  O451  1  0.672750  0.005870  0.576030  1.0  -0.4329
  O  O452  1  0.100020  0.278720  0.312970  1.0  -0.6484
  O  O453  1  0.749000  0.605070  0.396200  1.0  -0.5854
  O  O454  1  0.339410  0.339210  0.909370  1.0  -0.4329
  O  O455  1  0.766690  0.612050  0.646300  1.0  -0.6484
  O  O456  1  0.415670  0.938400  0.729530  1.0  -0.5855
  O  O457  1  0.006080  0.672540  0.242700  1.0  -0.4329
  O  O458  1  0.433360  0.945380  0.979630  1.0  -0.6484
  O  O459  1  0.082330  0.271740  0.062870  1.0  -0.5854
  O  O460  1  0.005870  0.333130  0.423970  1.0  -0.4308
  O  O461  1  0.278720  0.178690  0.687030  1.0  -0.6513
  O  O462  1  0.605070  0.856070  0.603800  1.0  -0.5835
  O  O463  1  0.672540  0.666460  0.757300  1.0  -0.4308
  O  O464  1  0.945380  0.512030  0.020370  1.0  -0.6512
  O  O465  1  0.271740  0.189400  0.937130  1.0  -0.5836
  O  O466  1  0.339210  0.999790  0.090630  1.0  -0.4308
  O  O467  1  0.612050  0.845360  0.353700  1.0  -0.6512
  O  O468  1  0.938400  0.522740  0.270470  1.0  -0.5836
  O  O469  1  0.666870  0.672750  0.423970  1.0  -0.4333
  O  O470  1  0.821310  0.100020  0.687030  1.0  -0.6505
  O  O471  1  0.143930  0.749000  0.603800  1.0  -0.5837
  O  O472  1  0.333540  0.006080  0.757300  1.0  -0.4333
  O  O473  1  0.487970  0.433360  0.020370  1.0  -0.6506
  O  O474  1  0.810600  0.082330  0.937130  1.0  -0.5838
  O  O475  1  0.000210  0.339410  0.090630  1.0  -0.4333
  O  O476  1  0.154640  0.766690  0.353700  1.0  -0.6506
  O  O477  1  0.477260  0.415670  0.270470  1.0  -0.5836
  O  O478  1  0.327250  0.994130  0.423970  1.0  -0.433
  O  O479  1  0.899980  0.721280  0.687030  1.0  -0.6493
  O  O480  1  0.251000  0.394930  0.603800  1.0  -0.5834
  O  O481  1  0.993920  0.327460  0.757300  1.0  -0.433
  O  O482  1  0.566640  0.054620  0.020370  1.0  -0.6493
  O  O483  1  0.917670  0.728260  0.937130  1.0  -0.5834
  O  O484  1  0.660590  0.660790  0.090630  1.0  -0.433
  O  O485  1  0.233310  0.387950  0.353700  1.0  -0.6493
  O  O486  1  0.584330  0.061600  0.270470  1.0  -0.5835
  F  F487  1  0.472900  0.150480  0.450500  1.0  -0.1922
  F  F488  1  0.815160  0.869970  0.263970  1.0  -0.1929
  F  F489  1  0.787770  0.802250  0.353370  1.0  -0.1932
  F  F490  1  0.139570  0.483810  0.783830  1.0  -0.1921
  F  F491  1  0.481830  0.203300  0.597300  1.0  -0.1929
  F  F492  1  0.454440  0.135580  0.686700  1.0  -0.1932
  F  F493  1  0.806230  0.817150  0.117170  1.0  -0.1922
  F  F494  1  0.148500  0.536630  0.930630  1.0  -0.1929
  F  F495  1  0.121110  0.468910  0.020030  1.0  -0.1932
  F  F496  1  0.849520  0.322420  0.450500  1.0  -0.1905
  F  F497  1  0.130030  0.945200  0.263970  1.0  -0.1885
  F  F498  1  0.197750  0.985530  0.353370  1.0  -0.1936
  F  F499  1  0.516190  0.655750  0.783830  1.0  -0.1906
  F  F500  1  0.796700  0.278530  0.597300  1.0  -0.1889
  F  F501  1  0.864420  0.318860  0.686700  1.0  -0.1936
  F  F502  1  0.182850  0.989090  0.117170  1.0  -0.1904
  F  F503  1  0.463370  0.611860  0.930630  1.0  -0.1889
  F  F504  1  0.531090  0.652190  0.020030  1.0  -0.1936
  F  F505  1  0.677580  0.527100  0.450500  1.0  -0.1966
  F  F506  1  0.054800  0.184840  0.263970  1.0  -0.19
  F  F507  1  0.014470  0.212230  0.353370  1.0  -0.1953
  F  F508  1  0.344250  0.860430  0.783830  1.0  -0.1966
  F  F509  1  0.721470  0.518170  0.597300  1.0  -0.1943
  F  F510  1  0.681140  0.545560  0.686700  1.0  -0.1953
  F  F511  1  0.010910  0.193770  0.117170  1.0  -0.1967
  F  F512  1  0.388140  0.851500  0.930630  1.0  -0.1943
  F  F513  1  0.347810  0.878890  0.020030  1.0  -0.1953
  F  F514  1  0.527100  0.849520  0.549500  1.0  -0.1923
  F  F515  1  0.184840  0.130030  0.736030  1.0  -0.1928
  F  F516  1  0.212230  0.197750  0.646630  1.0  -0.1938
  F  F517  1  0.193770  0.182850  0.882830  1.0  -0.1923
  F  F518  1  0.851500  0.463370  0.069370  1.0  -0.1929
  F  F519  1  0.878890  0.531090  0.979970  1.0  -0.1938
  F  F520  1  0.860430  0.516190  0.216170  1.0  -0.1923
  F  F521  1  0.518170  0.796700  0.402700  1.0  -0.1929
  F  F522  1  0.545560  0.864420  0.313300  1.0  -0.1938
  F  F523  1  0.150480  0.677580  0.549500  1.0  -0.1918
  F  F524  1  0.869970  0.054800  0.736030  1.0  -0.1896
  F  F525  1  0.802250  0.014470  0.646630  1.0  -0.1945
  F  F526  1  0.817150  0.010910  0.882830  1.0  -0.1918
  F  F527  1  0.536630  0.388140  0.069370  1.0  -0.19
  F  F528  1  0.468910  0.347810  0.979970  1.0  -0.1945
  F  F529  1  0.483810  0.344250  0.216170  1.0  -0.1919
  F  F530  1  0.203300  0.721470  0.402700  1.0  -0.19
  F  F531  1  0.135580  0.681140  0.313300  1.0  -0.1945
  F  F532  1  0.322420  0.472900  0.549500  1.0  -0.1939
  F  F533  1  0.945200  0.815160  0.736030  1.0  -0.1906
  F  F534  1  0.985530  0.787770  0.646630  1.0  -0.194
  F  F535  1  0.989090  0.806230  0.882830  1.0  -0.194
  F  F536  1  0.611860  0.148500  0.069370  1.0  -0.1945
  F  F537  1  0.652190  0.121110  0.979970  1.0  -0.194
  F  F538  1  0.655750  0.139570  0.216170  1.0  -0.1939
  F  F539  1  0.278530  0.481830  0.402700  1.0  -0.1945
  F  F540  1  0.318860  0.454440  0.313300  1.0  -0.194
