# generated using pymatgen
data_AgH8C13N2(OF)3
_symmetry_space_group_name_H-M   'P 1'
_cell_length_a   34.09100000
_cell_length_b   34.09100000
_cell_length_c   8.50820000
_cell_angle_alpha   90.00000000
_cell_angle_beta   90.00000000
_cell_angle_gamma   120.00000000
_symmetry_Int_Tables_number   1
_chemical_formula_structural   AgH8C13N2(OF)3
_chemical_formula_sum   'Ag18 H144 C234 N36 O54 F54'
_cell_volume   8563.43101033
_cell_formula_units_Z   18
loop_
 _symmetry_equiv_pos_site_id
 _symmetry_equiv_pos_as_xyz
  1  'x, y, z'
loop_
 _atom_site_type_symbol
 _atom_site_label
 _atom_site_symmetry_multiplicity
 _atom_site_fract_x
 _atom_site_fract_y
 _atom_site_fract_z
 _atom_site_occupancy
 _atom_site_charge
  Ag  Ag1  1  0.851460  0.171000  0.496330  1.0  0.4548
  Ag  Ag2  1  0.518130  0.504330  0.829660  1.0  0.4542
  Ag  Ag3  1  0.184790  0.837670  0.163000  1.0  0.4548
  Ag  Ag4  1  0.829000  0.680460  0.496330  1.0  0.4555
  Ag  Ag5  1  0.495670  0.013790  0.829660  1.0  0.4556
  Ag  Ag6  1  0.162330  0.347130  0.163000  1.0  0.4555
  Ag  Ag7  1  0.319540  0.148540  0.496330  1.0  0.4531
  Ag  Ag8  1  0.986210  0.481870  0.829660  1.0  0.4528
  Ag  Ag9  1  0.652870  0.815210  0.163000  1.0  0.4531
  Ag  Ag10  1  0.148540  0.829000  0.503670  1.0  0.4531
  Ag  Ag11  1  0.815210  0.162330  0.837000  1.0  0.4531
  Ag  Ag12  1  0.481870  0.495670  0.170340  1.0  0.4525
  Ag  Ag13  1  0.171000  0.319540  0.503670  1.0  0.4546
  Ag  Ag14  1  0.837670  0.652870  0.837000  1.0  0.4546
  Ag  Ag15  1  0.504330  0.986210  0.170340  1.0  0.4547
  Ag  Ag16  1  0.680460  0.851460  0.503670  1.0  0.4533
  Ag  Ag17  1  0.347130  0.184790  0.837000  1.0  0.4533
  Ag  Ag18  1  0.013790  0.518130  0.170340  1.0  0.4529
  H  H19  1  0.797600  0.185500  0.240900  1.0  0.0796
  H  H20  1  0.069830  0.815470  0.739370  1.0  0.1172
  H  H21  1  0.359970  0.402930  0.411230  1.0  0.1077
  H  H22  1  0.777800  0.069600  0.409800  1.0  0.0861
  H  H23  1  0.453470  0.358330  0.495930  1.0  0.113
  H  H24  1  0.817100  0.977500  0.206600  1.0  0.1096
  H  H25  1  0.775900  0.911600  0.348300  1.0  0.0851
  H  H26  1  0.675300  0.935600  0.401400  1.0  0.0884
  H  H27  1  0.464270  0.518830  0.574230  1.0  0.0792
  H  H28  1  0.736500  0.148800  0.072700  1.0  0.1171
  H  H29  1  0.026630  0.736270  0.744570  1.0  0.1077
  H  H30  1  0.444470  0.402930  0.743130  1.0  0.0869
  H  H31  1  0.120130  0.691670  0.829270  1.0  0.113
  H  H32  1  0.483770  0.310830  0.539930  1.0  0.1083
  H  H33  1  0.442570  0.244930  0.681630  1.0  0.0851
  H  H34  1  0.341970  0.268930  0.734730  1.0  0.0884
  H  H35  1  0.130930  0.852170  0.907570  1.0  0.0792
  H  H36  1  0.403170  0.482130  0.406030  1.0  0.1171
  H  H37  1  0.693300  0.069600  0.077900  1.0  0.1077
  H  H38  1  0.111130  0.736270  0.076470  1.0  0.0869
  H  H39  1  0.786800  0.025000  0.162600  1.0  0.113
  H  H40  1  0.150430  0.644170  0.873270  1.0  0.1083
  H  H41  1  0.109230  0.578270  0.014970  1.0  0.0846
  H  H42  1  0.008630  0.602270  0.068070  1.0  0.0885
  H  H43  1  0.814500  0.612100  0.240900  1.0  0.0792
  H  H44  1  0.184530  0.254370  0.739370  1.0  0.1169
  H  H45  1  0.597070  0.957030  0.411230  1.0  0.107
  H  H46  1  0.930400  0.708200  0.409800  1.0  0.0845
  H  H47  1  0.641670  0.095130  0.495930  1.0  0.1121
  H  H48  1  0.022500  0.839600  0.206600  1.0  0.1106
  H  H49  1  0.088400  0.864300  0.348300  1.0  0.0852
  H  H50  1  0.064400  0.739700  0.401400  1.0  0.0886
  H  H51  1  0.481170  0.945430  0.574230  1.0  0.0788
  H  H52  1  0.851200  0.587700  0.072700  1.0  0.1169
  H  H53  1  0.263730  0.290370  0.744570  1.0  0.107
  H  H54  1  0.597070  0.041530  0.743130  1.0  0.0855
  H  H55  1  0.308330  0.428470  0.829270  1.0  0.1121
  H  H56  1  0.689170  0.172930  0.539930  1.0  0.1091
  H  H57  1  0.755070  0.197630  0.681630  1.0  0.0852
  H  H58  1  0.731070  0.073030  0.734730  1.0  0.0886
  H  H59  1  0.147830  0.278770  0.907570  1.0  0.0788
  H  H60  1  0.517870  0.921030  0.406030  1.0  0.1169
  H  H61  1  0.930400  0.623700  0.077900  1.0  0.107
  H  H62  1  0.263730  0.374870  0.076470  1.0  0.0854
  H  H63  1  0.975000  0.761800  0.162600  1.0  0.1121
  H  H64  1  0.355830  0.506270  0.873270  1.0  0.1091
  H  H65  1  0.421730  0.530970  0.014970  1.0  0.0851
  H  H66  1  0.397730  0.406370  0.068070  1.0  0.0884
  H  H67  1  0.387900  0.202400  0.240900  1.0  0.0805
  H  H68  1  0.745630  0.930170  0.739370  1.0  0.1162
  H  H69  1  0.042970  0.640030  0.411230  1.0  0.1079
  H  H70  1  0.291800  0.222200  0.409800  1.0  0.0852
  H  H71  1  0.904870  0.546530  0.495930  1.0  0.1126
  H  H72  1  0.160400  0.182900  0.206600  1.0  0.1099
  H  H73  1  0.135700  0.224100  0.348300  1.0  0.0852
  H  H74  1  0.260300  0.324700  0.401400  1.0  0.0883
  H  H75  1  0.054570  0.535730  0.574230  1.0  0.0801
  H  H76  1  0.412300  0.263500  0.072700  1.0  0.1162
  H  H77  1  0.709630  0.973370  0.744570  1.0  0.1079
  H  H78  1  0.958470  0.555530  0.743130  1.0  0.0862
  H  H79  1  0.571530  0.879870  0.829270  1.0  0.1127
  H  H80  1  0.827070  0.516230  0.539930  1.0  0.1085
  H  H81  1  0.802370  0.557430  0.681630  1.0  0.0852
  H  H82  1  0.926970  0.658030  0.734730  1.0  0.0883
  H  H83  1  0.721230  0.869070  0.907570  1.0  0.0801
  H  H84  1  0.078970  0.596830  0.406030  1.0  0.1162
  H  H85  1  0.376300  0.306700  0.077900  1.0  0.1078
  H  H86  1  0.625130  0.888870  0.076470  1.0  0.0862
  H  H87  1  0.238200  0.213200  0.162600  1.0  0.1126
  H  H88  1  0.493730  0.849570  0.873270  1.0  0.1085
  H  H89  1  0.469030  0.890770  0.014970  1.0  0.0852
  H  H90  1  0.593630  0.991370  0.068070  1.0  0.0883
  H  H91  1  0.202400  0.814500  0.759100  1.0  0.0799
  H  H92  1  0.930170  0.184530  0.260630  1.0  0.1171
  H  H93  1  0.640030  0.597070  0.588770  1.0  0.1072
  H  H94  1  0.222200  0.930400  0.590200  1.0  0.0859
  H  H95  1  0.546530  0.641670  0.504070  1.0  0.1134
  H  H96  1  0.182900  0.022500  0.793400  1.0  0.1095
  H  H97  1  0.224100  0.088400  0.651700  1.0  0.0852
  H  H98  1  0.324700  0.064400  0.598600  1.0  0.0884
  H  H99  1  0.869070  0.147830  0.092430  1.0  0.0799
  H  H100  1  0.596830  0.517870  0.593970  1.0  0.117
  H  H101  1  0.306700  0.930400  0.922100  1.0  0.1072
  H  H102  1  0.888870  0.263730  0.923530  1.0  0.0859
  H  H103  1  0.213200  0.975000  0.837400  1.0  0.1134
  H  H104  1  0.849570  0.355830  0.126730  1.0  0.1095
  H  H105  1  0.890770  0.421730  0.985030  1.0  0.0846
  H  H106  1  0.991370  0.397730  0.931930  1.0  0.0887
  H  H107  1  0.535730  0.481170  0.425770  1.0  0.0796
  H  H108  1  0.263500  0.851200  0.927300  1.0  0.117
  H  H109  1  0.973370  0.263730  0.255430  1.0  0.1072
  H  H110  1  0.555530  0.597070  0.256870  1.0  0.0869
  H  H111  1  0.879870  0.308330  0.170730  1.0  0.1135
  H  H112  1  0.516230  0.689170  0.460070  1.0  0.1081
  H  H113  1  0.557430  0.755070  0.318370  1.0  0.0852
  H  H114  1  0.658030  0.731070  0.265270  1.0  0.0883
  H  H115  1  0.185500  0.387900  0.759100  1.0  0.0795
  H  H116  1  0.815470  0.745630  0.260630  1.0  0.1171
  H  H117  1  0.402930  0.042970  0.588770  1.0  0.1066
  H  H118  1  0.069600  0.291800  0.590200  1.0  0.0844
  H  H119  1  0.358330  0.904870  0.504070  1.0  0.1122
  H  H120  1  0.977500  0.160400  0.793400  1.0  0.1108
  H  H121  1  0.911600  0.135700  0.651700  1.0  0.0842
  H  H122  1  0.935600  0.260300  0.598600  1.0  0.0889
  H  H123  1  0.852170  0.721230  0.092430  1.0  0.0795
  H  H124  1  0.482130  0.078970  0.593970  1.0  0.1171
  H  H125  1  0.069600  0.376300  0.922100  1.0  0.1066
  H  H126  1  0.736270  0.625130  0.923530  1.0  0.0844
  H  H127  1  0.025000  0.238200  0.837400  1.0  0.1122
  H  H128  1  0.644170  0.493730  0.126730  1.0  0.1108
  H  H129  1  0.578270  0.469030  0.985030  1.0  0.084
  H  H130  1  0.602270  0.593630  0.931930  1.0  0.0887
  H  H131  1  0.518830  0.054570  0.425770  1.0  0.0792
  H  H132  1  0.148800  0.412300  0.927300  1.0  0.1171
  H  H133  1  0.736270  0.709630  0.255430  1.0  0.1066
  H  H134  1  0.402930  0.958470  0.256870  1.0  0.0853
  H  H135  1  0.691670  0.571530  0.170730  1.0  0.1121
  H  H136  1  0.310830  0.827070  0.460070  1.0  0.1095
  H  H137  1  0.244930  0.802370  0.318370  1.0  0.0842
  H  H138  1  0.268930  0.926970  0.265270  1.0  0.0889
  H  H139  1  0.612100  0.797600  0.759100  1.0  0.0795
  H  H140  1  0.254370  0.069830  0.260630  1.0  0.1167
  H  H141  1  0.957030  0.359970  0.588770  1.0  0.1075
  H  H142  1  0.708200  0.777800  0.590200  1.0  0.0851
  H  H143  1  0.095130  0.453470  0.504070  1.0  0.1129
  H  H144  1  0.839600  0.817100  0.793400  1.0  0.1104
  H  H145  1  0.864300  0.775900  0.651700  1.0  0.0851
  H  H146  1  0.739700  0.675300  0.598600  1.0  0.0878
  H  H147  1  0.278770  0.130930  0.092430  1.0  0.0795
  H  H148  1  0.921030  0.403170  0.593970  1.0  0.1167
  H  H149  1  0.623700  0.693300  0.922100  1.0  0.1075
  H  H150  1  0.374870  0.111130  0.923530  1.0  0.0852
  H  H151  1  0.761800  0.786800  0.837400  1.0  0.1129
  H  H152  1  0.506270  0.150430  0.126730  1.0  0.1104
  H  H153  1  0.530970  0.109230  0.985030  1.0  0.0852
  H  H154  1  0.406370  0.008630  0.931930  1.0  0.0878
  H  H155  1  0.945430  0.464270  0.425770  1.0  0.0791
  H  H156  1  0.587700  0.736500  0.927300  1.0  0.1167
  H  H157  1  0.290370  0.026630  0.255430  1.0  0.1075
  H  H158  1  0.041530  0.444470  0.256870  1.0  0.0861
  H  H159  1  0.428470  0.120130  0.170730  1.0  0.113
  H  H160  1  0.172930  0.483770  0.460070  1.0  0.1089
  H  H161  1  0.197630  0.442570  0.318370  1.0  0.0851
  H  H162  1  0.073030  0.341970  0.265270  1.0  0.0878
  C  C163  1  0.780520  0.153340  0.242600  1.0  0.1618
  C  C164  1  0.410820  0.465200  0.475430  1.0  -0.1053
  C  C165  1  0.385670  0.418600  0.477230  1.0  -0.0152
  C  C166  1  0.398760  0.395110  0.577830  1.0  -0.0546
  C  C167  1  0.769040  0.085890  0.341200  1.0  0.1689
  C  C168  1  0.371050  0.344460  0.582730  1.0  0.2976
  C  C169  1  0.727790  0.984910  0.279100  1.0  -0.0352
  C  C170  1  0.436870  0.330920  0.553430  1.0  -0.0809
  C  C171  1  0.788050  0.969730  0.246200  1.0  -0.1311
  C  C172  1  0.763220  0.930460  0.330400  1.0  0.1611
  C  C173  1  0.704660  0.944410  0.362100  1.0  0.1753
  C  C174  1  0.847000  0.257310  0.533200  1.0  0.6404
  C  C175  1  0.171080  0.963210  0.226370  1.0  0.5173
  C  C176  1  0.447190  0.486670  0.575930  1.0  0.1615
  C  C177  1  0.077480  0.798540  0.808770  1.0  -0.1075
  C  C178  1  0.052330  0.751940  0.810570  1.0  -0.0152
  C  C179  1  0.065420  0.728450  0.911170  1.0  -0.0544
  C  C180  1  0.435710  0.419220  0.674530  1.0  0.1688
  C  C181  1  0.037710  0.677800  0.916070  1.0  0.2976
  C  C182  1  0.394460  0.318240  0.612430  1.0  -0.0352
  C  C183  1  0.103530  0.664260  0.886770  1.0  -0.0809
  C  C184  1  0.454720  0.303060  0.579530  1.0  -0.1269
  C  C185  1  0.429890  0.263790  0.663730  1.0  0.161
  C  C186  1  0.371330  0.277740  0.695430  1.0  0.1739
  C  C187  1  0.513670  0.590640  0.866530  1.0  0.6404
  C  C188  1  0.837750  0.296540  0.559700  1.0  0.5173
  C  C189  1  0.113850  0.820010  0.909270  1.0  0.1613
  C  C190  1  0.744150  0.131870  0.142100  1.0  -0.1056
  C  C191  1  0.719000  0.085270  0.143900  1.0  -0.014
  C  C192  1  0.732090  0.061780  0.244500  1.0  -0.0544
  C  C193  1  0.102370  0.752560  0.007870  1.0  0.1689
  C  C194  1  0.704380  0.011130  0.249400  1.0  0.2973
  C  C195  1  0.061120  0.651580  0.945770  1.0  -0.0347
  C  C196  1  0.770200  0.997590  0.220100  1.0  -0.0809
  C  C197  1  0.121380  0.636400  0.912870  1.0  -0.1269
  C  C198  1  0.096550  0.597130  0.997070  1.0  0.1611
  C  C199  1  0.037990  0.611080  0.028770  1.0  0.1739
  C  C200  1  0.180330  0.923980  0.199870  1.0  0.6407
  C  C201  1  0.504420  0.629870  0.893030  1.0  0.5173
  C  C202  1  0.846660  0.627180  0.242600  1.0  0.1623
  C  C203  1  0.534800  0.945610  0.475430  1.0  -0.1076
  C  C204  1  0.581400  0.967060  0.477230  1.0  -0.0155
  C  C205  1  0.604890  0.003640  0.577830  1.0  -0.0556
  C  C206  1  0.914110  0.683150  0.341200  1.0  0.1696
  C  C207  1  0.655540  0.026580  0.582730  1.0  0.2978
  C  C208  1  0.015090  0.742880  0.279100  1.0  -0.0353
  C  C209  1  0.669080  0.105940  0.553430  1.0  -0.0851
  C  C210  1  0.030270  0.818320  0.246200  1.0  -0.1294
  C  C211  1  0.069540  0.832760  0.330400  1.0  0.1588
  C  C212  1  0.055590  0.760250  0.362100  1.0  0.1741
  C  C213  1  0.742690  0.589690  0.533200  1.0  0.6376
  C  C214  1  0.036790  0.207880  0.226370  1.0  0.5194
  C  C215  1  0.513330  0.960510  0.575930  1.0  0.162
  C  C216  1  0.201460  0.278950  0.808770  1.0  -0.1096
  C  C217  1  0.248060  0.300400  0.810570  1.0  -0.0155
  C  C218  1  0.271550  0.336980  0.911170  1.0  -0.0557
  C  C219  1  0.580780  0.016480  0.674530  1.0  0.1697
  C  C220  1  0.322200  0.359920  0.916070  1.0  0.2978
  C  C221  1  0.681760  0.076210  0.612430  1.0  -0.0353
  C  C222  1  0.335740  0.439280  0.886770  1.0  -0.0851
  C  C223  1  0.696940  0.151650  0.579530  1.0  -0.1256
  C  C224  1  0.736210  0.166090  0.663730  1.0  0.1588
  C  C225  1  0.722260  0.093580  0.695430  1.0  0.1727
  C  C226  1  0.409360  0.923020  0.866530  1.0  0.6376
  C  C227  1  0.703460  0.541210  0.559700  1.0  0.5194
  C  C228  1  0.179990  0.293850  0.909270  1.0  0.1617
  C  C229  1  0.868130  0.612280  0.142100  1.0  -0.108
  C  C230  1  0.914730  0.633730  0.143900  1.0  -0.0143
  C  C231  1  0.938220  0.670310  0.244500  1.0  -0.0558
  C  C232  1  0.247440  0.349820  0.007870  1.0  0.1696
  C  C233  1  0.988870  0.693250  0.249400  1.0  0.2976
  C  C234  1  0.348420  0.409550  0.945770  1.0  -0.0357
  C  C235  1  0.002410  0.772610  0.220100  1.0  -0.0851
  C  C236  1  0.363600  0.484990  0.912870  1.0  -0.1257
  C  C237  1  0.402870  0.499430  0.997070  1.0  0.1588
  C  C238  1  0.388920  0.426920  0.028770  1.0  0.1727
  C  C239  1  0.076020  0.256360  0.199870  1.0  0.6376
  C  C240  1  0.370130  0.874540  0.893030  1.0  0.5194
  C  C241  1  0.372820  0.219480  0.242600  1.0  0.1634
  C  C242  1  0.054390  0.589180  0.475430  1.0  -0.1079
  C  C243  1  0.032940  0.614330  0.477230  1.0  -0.0149
  C  C244  1  0.996360  0.601240  0.577830  1.0  -0.0529
  C  C245  1  0.316850  0.230960  0.341200  1.0  0.1704
  C  C246  1  0.973420  0.628950  0.582730  1.0  0.2995
  C  C247  1  0.257120  0.272210  0.279100  1.0  -0.0354
  C  C248  1  0.894060  0.563130  0.553430  1.0  -0.0862
  C  C249  1  0.181680  0.211950  0.246200  1.0  -0.1314
  C  C250  1  0.167240  0.236780  0.330400  1.0  0.1587
  C  C251  1  0.239750  0.295340  0.362100  1.0  0.1745
  C  C252  1  0.410310  0.153000  0.533200  1.0  0.6375
  C  C253  1  0.792120  0.828920  0.226370  1.0  0.5167
  C  C254  1  0.039490  0.552810  0.575930  1.0  0.1632
  C  C255  1  0.721050  0.922520  0.808770  1.0  -0.1098
  C  C256  1  0.699600  0.947670  0.810570  1.0  -0.0149
  C  C257  1  0.663020  0.934580  0.911170  1.0  -0.053
  C  C258  1  0.983520  0.564290  0.674530  1.0  0.1702
  C  C259  1  0.640080  0.962290  0.916070  1.0  0.2995
  C  C260  1  0.923790  0.605540  0.612430  1.0  -0.0354
  C  C261  1  0.560720  0.896470  0.886770  1.0  -0.0862
  C  C262  1  0.848350  0.545280  0.579530  1.0  -0.1275
  C  C263  1  0.833910  0.570110  0.663730  1.0  0.1588
  C  C264  1  0.906420  0.628670  0.695430  1.0  0.1731
  C  C265  1  0.076980  0.486330  0.866530  1.0  0.6375
  C  C266  1  0.458790  0.162250  0.559700  1.0  0.5167
  C  C267  1  0.706150  0.886150  0.909270  1.0  0.163
  C  C268  1  0.387720  0.255850  0.142100  1.0  -0.1082
  C  C269  1  0.366270  0.281000  0.143900  1.0  -0.0136
  C  C270  1  0.329690  0.267910  0.244500  1.0  -0.053
  C  C271  1  0.650180  0.897630  0.007870  1.0  0.1704
  C  C272  1  0.306750  0.295620  0.249400  1.0  0.2992
  C  C273  1  0.590450  0.938880  0.945770  1.0  -0.0351
  C  C274  1  0.227390  0.229800  0.220100  1.0  -0.0863
  C  C275  1  0.515010  0.878620  0.912870  1.0  -0.1274
  C  C276  1  0.500570  0.903450  0.997070  1.0  0.1587
  C  C277  1  0.573080  0.962010  0.028770  1.0  0.1732
  C  C278  1  0.743640  0.819670  0.199870  1.0  0.6375
  C  C279  1  0.125460  0.495580  0.893030  1.0  0.5167
  C  C280  1  0.219480  0.846660  0.757400  1.0  0.1615
  C  C281  1  0.589180  0.534800  0.524570  1.0  -0.1085
  C  C282  1  0.614330  0.581400  0.522770  1.0  -0.0157
  C  C283  1  0.601240  0.604890  0.422170  1.0  -0.0542
  C  C284  1  0.230960  0.914110  0.658800  1.0  0.1695
  C  C285  1  0.628950  0.655540  0.417270  1.0  0.2987
  C  C286  1  0.272210  0.015090  0.720900  1.0  -0.0359
  C  C287  1  0.563130  0.669080  0.446570  1.0  -0.0816
  C  C288  1  0.211950  0.030270  0.753800  1.0  -0.1338
  C  C289  1  0.236780  0.069540  0.669600  1.0  0.162
  C  C290  1  0.295340  0.055590  0.637900  1.0  0.1743
  C  C291  1  0.153000  0.742690  0.466800  1.0  0.6415
  C  C292  1  0.828920  0.036790  0.773630  1.0  0.5167
  C  C293  1  0.886150  0.179990  0.090730  1.0  0.1612
  C  C294  1  0.255850  0.868130  0.857900  1.0  -0.1091
  C  C295  1  0.281000  0.914730  0.856100  1.0  -0.0144
  C  C296  1  0.267910  0.938220  0.755500  1.0  -0.0541
  C  C297  1  0.897630  0.247440  0.992130  1.0  0.1695
  C  C298  1  0.295620  0.988870  0.750600  1.0  0.2985
  C  C299  1  0.938880  0.348420  0.054230  1.0  -0.0354
  C  C300  1  0.229800  0.002410  0.779900  1.0  -0.0816
  C  C301  1  0.878620  0.363600  0.087130  1.0  -0.1338
  C  C302  1  0.903450  0.402870  0.002930  1.0  0.1621
  C  C303  1  0.962010  0.388920  0.971230  1.0  0.1742
  C  C304  1  0.819670  0.076020  0.800130  1.0  0.6415
  C  C305  1  0.495580  0.370130  0.106970  1.0  0.5168
  C  C306  1  0.552810  0.513330  0.424070  1.0  0.161
  C  C307  1  0.922520  0.201460  0.191230  1.0  -0.1069
  C  C308  1  0.947670  0.248060  0.189430  1.0  -0.0144
  C  C309  1  0.934580  0.271550  0.088830  1.0  -0.0541
  C  C310  1  0.564290  0.580780  0.325470  1.0  0.1694
  C  C311  1  0.962290  0.322200  0.083930  1.0  0.2985
  C  C312  1  0.605540  0.681760  0.387570  1.0  -0.0359
  C  C313  1  0.896470  0.335740  0.113230  1.0  -0.0816
  C  C314  1  0.545280  0.696940  0.420470  1.0  -0.1298
  C  C315  1  0.570110  0.736210  0.336270  1.0  0.162
  C  C316  1  0.628670  0.722260  0.304570  1.0  0.1728
  C  C317  1  0.486330  0.409360  0.133470  1.0  0.6415
  C  C318  1  0.162250  0.703460  0.440300  1.0  0.5168
  C  C319  1  0.153340  0.372820  0.757400  1.0  0.1627
  C  C320  1  0.465200  0.054390  0.524570  1.0  -0.1059
  C  C321  1  0.418600  0.032940  0.522770  1.0  -0.0142
  C  C322  1  0.395110  0.996360  0.422170  1.0  -0.055
  C  C323  1  0.085890  0.316850  0.658800  1.0  0.1696
  C  C324  1  0.344460  0.973420  0.417270  1.0  0.2974
  C  C325  1  0.984910  0.257120  0.720900  1.0  -0.0348
  C  C326  1  0.330920  0.894060  0.446570  1.0  -0.0826
  C  C327  1  0.969730  0.181680  0.753800  1.0  -0.1298
  C  C328  1  0.930460  0.167240  0.669600  1.0  0.1577
  C  C329  1  0.944410  0.239750  0.637900  1.0  0.1746
  C  C330  1  0.257310  0.410310  0.466800  1.0  0.638
  C  C331  1  0.963210  0.792120  0.773630  1.0  0.5201
  C  C332  1  0.820010  0.706150  0.090730  1.0  0.1624
  C  C333  1  0.131870  0.387720  0.857900  1.0  -0.1066
  C  C334  1  0.085270  0.366270  0.856100  1.0  -0.013
  C  C335  1  0.061780  0.329690  0.755500  1.0  -0.0552
  C  C336  1  0.752560  0.650180  0.992130  1.0  0.1696
  C  C337  1  0.011130  0.306750  0.750600  1.0  0.2972
  C  C338  1  0.651580  0.590450  0.054230  1.0  -0.0353
  C  C339  1  0.997590  0.227390  0.779900  1.0  -0.0825
  C  C340  1  0.636400  0.515010  0.087130  1.0  -0.1299
  C  C341  1  0.597130  0.500570  0.002930  1.0  0.1578
  C  C342  1  0.611080  0.573080  0.971230  1.0  0.1747
  C  C343  1  0.923980  0.743640  0.800130  1.0  0.638
  C  C344  1  0.629870  0.125460  0.106970  1.0  0.5201
  C  C345  1  0.486670  0.039490  0.424070  1.0  0.1622
  C  C346  1  0.798540  0.721050  0.191230  1.0  -0.1044
  C  C347  1  0.751940  0.699600  0.189430  1.0  -0.013
  C  C348  1  0.728450  0.663020  0.088830  1.0  -0.0552
  C  C349  1  0.419220  0.983520  0.325470  1.0  0.1696
  C  C350  1  0.677800  0.640080  0.083930  1.0  0.2972
  C  C351  1  0.318240  0.923790  0.387570  1.0  -0.0348
  C  C352  1  0.664260  0.560720  0.113230  1.0  -0.0826
  C  C353  1  0.303060  0.848350  0.420470  1.0  -0.1258
  C  C354  1  0.263790  0.833910  0.336270  1.0  0.1577
  C  C355  1  0.277740  0.906420  0.304570  1.0  0.1732
  C  C356  1  0.590640  0.076980  0.133470  1.0  0.638
  C  C357  1  0.296540  0.458790  0.440300  1.0  0.5201
  C  C358  1  0.627180  0.780520  0.757400  1.0  0.1647
  C  C359  1  0.945610  0.410820  0.524570  1.0  -0.1098
  C  C360  1  0.967060  0.385670  0.522770  1.0  -0.0157
  C  C361  1  0.003640  0.398760  0.422170  1.0  -0.0531
  C  C362  1  0.683150  0.769040  0.658800  1.0  0.1691
  C  C363  1  0.026580  0.371050  0.417270  1.0  0.3002
  C  C364  1  0.742880  0.727790  0.720900  1.0  -0.0349
  C  C365  1  0.105940  0.436870  0.446570  1.0  -0.0866
  C  C366  1  0.818320  0.788050  0.753800  1.0  -0.1284
  C  C367  1  0.832760  0.763220  0.669600  1.0  0.1588
  C  C368  1  0.760250  0.704660  0.637900  1.0  0.1742
  C  C369  1  0.589690  0.847000  0.466800  1.0  0.6387
  C  C370  1  0.207880  0.171080  0.773630  1.0  0.5172
  C  C371  1  0.293850  0.113850  0.090730  1.0  0.1645
  C  C372  1  0.612280  0.744150  0.857900  1.0  -0.11
  C  C373  1  0.633730  0.719000  0.856100  1.0  -0.0147
  C  C374  1  0.670310  0.732090  0.755500  1.0  -0.0532
  C  C375  1  0.349820  0.102370  0.992130  1.0  0.1691
  C  C376  1  0.693250  0.704380  0.750600  1.0  0.2999
  C  C377  1  0.409550  0.061120  0.054230  1.0  -0.0345
  C  C378  1  0.772610  0.770200  0.779900  1.0  -0.0866
  C  C379  1  0.484990  0.121380  0.087130  1.0  -0.1284
  C  C380  1  0.499430  0.096550  0.002930  1.0  0.1587
  C  C381  1  0.426920  0.037990  0.971230  1.0  0.1744
  C  C382  1  0.256360  0.180330  0.800130  1.0  0.6387
  C  C383  1  0.874540  0.504420  0.106970  1.0  0.5172
  C  C384  1  0.960510  0.447190  0.424070  1.0  0.1643
  C  C385  1  0.278950  0.077480  0.191230  1.0  -0.1082
  C  C386  1  0.300400  0.052330  0.189430  1.0  -0.0147
  C  C387  1  0.336980  0.065420  0.088830  1.0  -0.0532
  C  C388  1  0.016480  0.435710  0.325470  1.0  0.169
  C  C389  1  0.359920  0.037710  0.083930  1.0  0.2999
  C  C390  1  0.076210  0.394460  0.387570  1.0  -0.0349
  C  C391  1  0.439280  0.103530  0.113230  1.0  -0.0865
  C  C392  1  0.151650  0.454720  0.420470  1.0  -0.1247
  C  C393  1  0.166090  0.429890  0.336270  1.0  0.1588
  C  C394  1  0.093580  0.371330  0.304570  1.0  0.1728
  C  C395  1  0.923020  0.513670  0.133470  1.0  0.6387
  C  C396  1  0.541210  0.837750  0.440300  1.0  0.5172
  N  N397  1  0.793120  0.131350  0.342400  1.0  -0.3486
  N  N398  1  0.721730  0.917380  0.388800  1.0  -0.3312
  N  N399  1  0.459790  0.464680  0.675730  1.0  -0.35
  N  N400  1  0.388400  0.250710  0.722130  1.0  -0.3312
  N  N401  1  0.126450  0.798020  0.009070  1.0  -0.35
  N  N402  1  0.055060  0.584050  0.055470  1.0  -0.3312
  N  N403  1  0.868650  0.661770  0.342400  1.0  -0.3484
  N  N404  1  0.082620  0.804350  0.388800  1.0  -0.3325
  N  N405  1  0.535320  0.995100  0.675730  1.0  -0.3504
  N  N406  1  0.749290  0.137680  0.722130  1.0  -0.3325
  N  N407  1  0.201980  0.328440  0.009070  1.0  -0.3504
  N  N408  1  0.415950  0.471020  0.055470  1.0  -0.3325
  N  N409  1  0.338230  0.206880  0.342400  1.0  -0.349
  N  N410  1  0.195650  0.278270  0.388800  1.0  -0.3325
  N  N411  1  0.004900  0.540210  0.675730  1.0  -0.3507
  N  N412  1  0.862320  0.611600  0.722130  1.0  -0.3325
  N  N413  1  0.671560  0.873550  0.009070  1.0  -0.3507
  N  N414  1  0.528980  0.944940  0.055470  1.0  -0.3325
  N  N415  1  0.206880  0.868650  0.657600  1.0  -0.3498
  N  N416  1  0.278270  0.082620  0.611200  1.0  -0.3324
  N  N417  1  0.873550  0.201980  0.990930  1.0  -0.3498
  N  N418  1  0.944940  0.415950  0.944530  1.0  -0.3324
  N  N419  1  0.540210  0.535320  0.324270  1.0  -0.3518
  N  N420  1  0.611600  0.749290  0.277870  1.0  -0.3324
  N  N421  1  0.131350  0.338230  0.657600  1.0  -0.3501
  N  N422  1  0.917380  0.195650  0.611200  1.0  -0.3337
  N  N423  1  0.798020  0.671560  0.990930  1.0  -0.3501
  N  N424  1  0.584050  0.528980  0.944530  1.0  -0.3337
  N  N425  1  0.464680  0.004900  0.324270  1.0  -0.3521
  N  N426  1  0.250710  0.862320  0.277870  1.0  -0.3337
  N  N427  1  0.661770  0.793120  0.657600  1.0  -0.3496
  N  N428  1  0.804350  0.721730  0.611200  1.0  -0.3327
  N  N429  1  0.328440  0.126450  0.990930  1.0  -0.3496
  N  N430  1  0.471020  0.055060  0.944530  1.0  -0.3327
  N  N431  1  0.995100  0.459790  0.324270  1.0  -0.351
  N  N432  1  0.137680  0.388400  0.277870  1.0  -0.3327
  O  O433  1  0.330460  0.325250  0.560930  1.0  -0.4644
  O  O434  1  0.180710  0.904470  0.320770  1.0  -0.6302
  O  O435  1  0.851920  0.249360  0.396100  1.0  -0.5988
  O  O436  1  0.997120  0.658590  0.894270  1.0  -0.4642
  O  O437  1  0.847380  0.237800  0.654100  1.0  -0.6302
  O  O438  1  0.518590  0.582690  0.729430  1.0  -0.5988
  O  O439  1  0.663790  0.991920  0.227600  1.0  -0.4642
  O  O440  1  0.514050  0.571130  0.987430  1.0  -0.6301
  O  O441  1  0.185250  0.916030  0.062770  1.0  -0.5989
  O  O442  1  0.674750  0.005200  0.560930  1.0  -0.4638
  O  O443  1  0.095530  0.276250  0.320770  1.0  -0.6271
  O  O444  1  0.750640  0.602560  0.396100  1.0  -0.5959
  O  O445  1  0.341410  0.338540  0.894270  1.0  -0.4639
  O  O446  1  0.762200  0.609580  0.654100  1.0  -0.6271
  O  O447  1  0.417310  0.935890  0.729430  1.0  -0.5959
  O  O448  1  0.008080  0.671870  0.227600  1.0  -0.4638
  O  O449  1  0.428870  0.942910  0.987430  1.0  -0.6271
  O  O450  1  0.083970  0.269230  0.062770  1.0  -0.5958
  O  O451  1  0.994800  0.669540  0.560930  1.0  -0.4638
  O  O452  1  0.723750  0.819290  0.320770  1.0  -0.6283
  O  O453  1  0.397440  0.148080  0.396100  1.0  -0.5978
  O  O454  1  0.661460  0.002880  0.894270  1.0  -0.4636
  O  O455  1  0.390420  0.152620  0.654100  1.0  -0.6284
  O  O456  1  0.064110  0.481410  0.729430  1.0  -0.5978
  O  O457  1  0.328130  0.336210  0.227600  1.0  -0.4636
  O  O458  1  0.057090  0.485950  0.987430  1.0  -0.6285
  O  O459  1  0.730770  0.814750  0.062770  1.0  -0.5979
  O  O460  1  0.669540  0.674750  0.439070  1.0  -0.4642
  O  O461  1  0.819290  0.095530  0.679230  1.0  -0.6287
  O  O462  1  0.148080  0.750640  0.603900  1.0  -0.598
  O  O463  1  0.336210  0.008080  0.772400  1.0  -0.464
  O  O464  1  0.485950  0.428870  0.012570  1.0  -0.6285
  O  O465  1  0.814750  0.083970  0.937230  1.0  -0.5981
  O  O466  1  0.002880  0.341410  0.105730  1.0  -0.464
  O  O467  1  0.152620  0.762200  0.345900  1.0  -0.6287
  O  O468  1  0.481410  0.417310  0.270570  1.0  -0.5981
  O  O469  1  0.325250  0.994800  0.439070  1.0  -0.4645
  O  O470  1  0.904470  0.723750  0.679230  1.0  -0.6277
  O  O471  1  0.249360  0.397440  0.603900  1.0  -0.5959
  O  O472  1  0.991920  0.328130  0.772400  1.0  -0.4645
  O  O473  1  0.571130  0.057090  0.012570  1.0  -0.6276
  O  O474  1  0.916030  0.730770  0.937230  1.0  -0.5958
  O  O475  1  0.658590  0.661460  0.105730  1.0  -0.4647
  O  O476  1  0.237800  0.390420  0.345900  1.0  -0.6276
  O  O477  1  0.582690  0.064110  0.270570  1.0  -0.5959
  O  O478  1  0.005200  0.330460  0.439070  1.0  -0.4629
  O  O479  1  0.276250  0.180710  0.679230  1.0  -0.6304
  O  O480  1  0.602560  0.851920  0.603900  1.0  -0.5958
  O  O481  1  0.671870  0.663790  0.772400  1.0  -0.4627
  O  O482  1  0.942910  0.514050  0.012570  1.0  -0.6305
  O  O483  1  0.269230  0.185250  0.937230  1.0  -0.596
  O  O484  1  0.338540  0.997120  0.105730  1.0  -0.4627
  O  O485  1  0.609580  0.847380  0.345900  1.0  -0.6304
  O  O486  1  0.935890  0.518590  0.270570  1.0  -0.5958
  F  F487  1  0.848430  0.324240  0.437000  1.0  -0.185
  F  F488  1  0.126830  0.947010  0.254970  1.0  -0.1841
  F  F489  1  0.193760  0.988890  0.349570  1.0  -0.1917
  F  F490  1  0.515100  0.657570  0.770330  1.0  -0.1847
  F  F491  1  0.793500  0.280340  0.588300  1.0  -0.1846
  F  F492  1  0.860430  0.322220  0.682900  1.0  -0.1917
  F  F493  1  0.181760  0.990910  0.103670  1.0  -0.185
  F  F494  1  0.460170  0.613670  0.921630  1.0  -0.1844
  F  F495  1  0.527100  0.655550  0.016230  1.0  -0.1917
  F  F496  1  0.675760  0.524190  0.437000  1.0  -0.1881
  F  F497  1  0.052990  0.179830  0.254970  1.0  -0.1839
  F  F498  1  0.011110  0.204880  0.349570  1.0  -0.1935
  F  F499  1  0.342430  0.857520  0.770330  1.0  -0.1881
  F  F500  1  0.719660  0.513160  0.588300  1.0  -0.1845
  F  F501  1  0.677780  0.538210  0.682900  1.0  -0.1933
  F  F502  1  0.009090  0.190860  0.103670  1.0  -0.1878
  F  F503  1  0.386330  0.846490  0.921630  1.0  -0.1845
  F  F504  1  0.344450  0.871540  0.016230  1.0  -0.1932
  F  F505  1  0.475810  0.151570  0.437000  1.0  -0.1851
  F  F506  1  0.820170  0.873170  0.254970  1.0  -0.1844
  F  F507  1  0.795120  0.806240  0.349570  1.0  -0.1923
  F  F508  1  0.142480  0.484900  0.770330  1.0  -0.1848
  F  F509  1  0.486840  0.206500  0.588300  1.0  -0.1842
  F  F510  1  0.461790  0.139570  0.682900  1.0  -0.1923
  F  F511  1  0.809140  0.818240  0.103670  1.0  -0.185
  F  F512  1  0.153510  0.539830  0.921630  1.0  -0.1844
  F  F513  1  0.128460  0.472900  0.016230  1.0  -0.1923
  F  F514  1  0.151570  0.675760  0.563000  1.0  -0.1848
  F  F515  1  0.873170  0.052990  0.745030  1.0  -0.1813
  F  F516  1  0.806240  0.011110  0.650430  1.0  -0.1925
  F  F517  1  0.818240  0.009090  0.896330  1.0  -0.1848
  F  F518  1  0.539830  0.386330  0.078370  1.0  -0.1817
  F  F519  1  0.472900  0.344450  0.983770  1.0  -0.1925
  F  F520  1  0.484900  0.342430  0.229670  1.0  -0.1847
  F  F521  1  0.206500  0.719660  0.411700  1.0  -0.1819
  F  F522  1  0.139570  0.677780  0.317100  1.0  -0.1925
  F  F523  1  0.324240  0.475810  0.563000  1.0  -0.1876
  F  F524  1  0.947010  0.820170  0.745030  1.0  -0.1853
  F  F525  1  0.988890  0.795120  0.650430  1.0  -0.193
  F  F526  1  0.990910  0.809140  0.896330  1.0  -0.1873
  F  F527  1  0.613670  0.153510  0.078370  1.0  -0.1863
  F  F528  1  0.655550  0.128460  0.983770  1.0  -0.1927
  F  F529  1  0.657570  0.142480  0.229670  1.0  -0.1876
  F  F530  1  0.280340  0.486840  0.411700  1.0  -0.1863
  F  F531  1  0.322220  0.461790  0.317100  1.0  -0.1928
  F  F532  1  0.524190  0.848430  0.563000  1.0  -0.1847
  F  F533  1  0.179830  0.126830  0.745030  1.0  -0.184
  F  F534  1  0.204880  0.193760  0.650430  1.0  -0.1945
  F  F535  1  0.190860  0.181760  0.896330  1.0  -0.1847
  F  F536  1  0.846490  0.460170  0.078370  1.0  -0.184
  F  F537  1  0.871540  0.527100  0.983770  1.0  -0.1946
  F  F538  1  0.857520  0.515100  0.229670  1.0  -0.1845
  F  F539  1  0.513160  0.793500  0.411700  1.0  -0.1838
  F  F540  1  0.538210  0.860430  0.317100  1.0  -0.1946
