# generated using pymatgen
data_AgH8C11N2O
_symmetry_space_group_name_H-M   'P 1'
_cell_length_a   33.78600000
_cell_length_b   33.78600000
_cell_length_c   8.41700000
_cell_angle_alpha   90.00000000
_cell_angle_beta   90.00000000
_cell_angle_gamma   120.00000000
_symmetry_Int_Tables_number   1
_chemical_formula_structural   AgH8C11N2O
_chemical_formula_sum   'Ag18 H144 C198 N36 O18'
_cell_volume   8320.73161966
_cell_formula_units_Z   18
loop_
 _symmetry_equiv_pos_site_id
 _symmetry_equiv_pos_as_xyz
  1  'x, y, z'
loop_
 _atom_site_type_symbol
 _atom_site_label
 _atom_site_symmetry_multiplicity
 _atom_site_fract_x
 _atom_site_fract_y
 _atom_site_fract_z
 _atom_site_occupancy
 _atom_site_charge
  Ag  Ag1  1  0.147450  0.321860  0.504600  1.0  0.1822
  Ag  Ag2  1  0.814120  0.655190  0.837930  1.0  0.1822
  Ag  Ag3  1  0.480790  0.988520  0.171270  1.0  0.1823
  Ag  Ag4  1  0.678140  0.825600  0.504600  1.0  0.1823
  Ag  Ag5  1  0.344810  0.158930  0.837930  1.0  0.1824
  Ag  Ag6  1  0.011480  0.492260  0.171270  1.0  0.1823
  Ag  Ag7  1  0.174400  0.852550  0.504600  1.0  0.1832
  Ag  Ag8  1  0.841070  0.185880  0.837930  1.0  0.1832
  Ag  Ag9  1  0.507740  0.519210  0.171270  1.0  0.1832
  Ag  Ag10  1  0.852550  0.678140  0.495400  1.0  0.1826
  Ag  Ag11  1  0.519210  0.011480  0.828730  1.0  0.1827
  Ag  Ag12  1  0.185880  0.344810  0.162070  1.0  0.1826
  Ag  Ag13  1  0.321860  0.174400  0.495400  1.0  0.1826
  Ag  Ag14  1  0.988520  0.507740  0.828730  1.0  0.1826
  Ag  Ag15  1  0.655190  0.841070  0.162070  1.0  0.1826
  Ag  Ag16  1  0.825600  0.147450  0.495400  1.0  0.1823
  Ag  Ag17  1  0.492260  0.480790  0.828730  1.0  0.1823
  Ag  Ag18  1  0.158930  0.814120  0.162070  1.0  0.1823
  H  H19  1  0.202700  0.393300  0.759800  1.0  0.0682
  H  H20  1  0.263600  0.417000  0.934100  1.0  0.1032
  H  H21  1  0.306400  0.379400  0.934100  1.0  0.1029
  H  H22  1  0.220900  0.294000  0.598200  1.0  0.0834
  H  H23  1  0.210600  0.238300  0.840600  1.0  0.1044
  H  H24  1  0.181300  0.159600  0.791400  1.0  0.1034
  H  H25  1  0.224500  0.136600  0.648300  1.0  0.0682
  H  H26  1  0.326100  0.263000  0.610800  1.0  0.0763
  H  H27  1  0.869370  0.726630  0.093130  1.0  0.0682
  H  H28  1  0.930270  0.750330  0.267430  1.0  0.1032
  H  H29  1  0.973070  0.712730  0.267430  1.0  0.1029
  H  H30  1  0.887570  0.627330  0.931530  1.0  0.0834
  H  H31  1  0.877270  0.571630  0.173930  1.0  0.1044
  H  H32  1  0.847970  0.492930  0.124730  1.0  0.1034
  H  H33  1  0.891170  0.469930  0.981630  1.0  0.0682
  H  H34  1  0.992770  0.596330  0.944130  1.0  0.0763
  H  H35  1  0.536030  0.059970  0.426470  1.0  0.0682
  H  H36  1  0.596930  0.083670  0.600770  1.0  0.1032
  H  H37  1  0.639730  0.046070  0.600770  1.0  0.1028
  H  H38  1  0.554230  0.960670  0.264870  1.0  0.0834
  H  H39  1  0.543930  0.904970  0.507270  1.0  0.1044
  H  H40  1  0.514630  0.826270  0.458070  1.0  0.1035
  H  H41  1  0.557830  0.803270  0.314970  1.0  0.068
  H  H42  1  0.659430  0.929670  0.277470  1.0  0.0763
  H  H43  1  0.606700  0.809400  0.759800  1.0  0.0677
  H  H44  1  0.583000  0.846600  0.934100  1.0  0.1022
  H  H45  1  0.620600  0.927000  0.934100  1.0  0.1034
  H  H46  1  0.706000  0.926900  0.598200  1.0  0.0834
  H  H47  1  0.761700  0.972300  0.840600  1.0  0.1033
  H  H48  1  0.840400  0.021700  0.791400  1.0  0.1029
  H  H49  1  0.863400  0.087900  0.648300  1.0  0.0703
  H  H50  1  0.737000  0.063100  0.610800  1.0  0.0763
  H  H51  1  0.273370  0.142730  0.093130  1.0  0.0677
  H  H52  1  0.249670  0.179930  0.267430  1.0  0.1022
  H  H53  1  0.287270  0.260330  0.267430  1.0  0.1034
  H  H54  1  0.372670  0.260230  0.931530  1.0  0.0834
  H  H55  1  0.428370  0.305630  0.173930  1.0  0.1033
  H  H56  1  0.507070  0.355030  0.124730  1.0  0.1028
  H  H57  1  0.530070  0.421230  0.981630  1.0  0.0704
  H  H58  1  0.403670  0.396430  0.944130  1.0  0.0763
  H  H59  1  0.940030  0.476070  0.426470  1.0  0.0676
  H  H60  1  0.916330  0.513270  0.600770  1.0  0.1022
  H  H61  1  0.953930  0.593670  0.600770  1.0  0.1034
  H  H62  1  0.039330  0.593570  0.264870  1.0  0.0834
  H  H63  1  0.095030  0.638970  0.507270  1.0  0.1033
  H  H64  1  0.173730  0.688370  0.458070  1.0  0.1029
  H  H65  1  0.196730  0.754570  0.314970  1.0  0.0705
  H  H66  1  0.070330  0.729770  0.277470  1.0  0.0763
  H  H67  1  0.190600  0.797300  0.759800  1.0  0.0684
  H  H68  1  0.153400  0.736400  0.934100  1.0  0.1019
  H  H69  1  0.073000  0.693600  0.934100  1.0  0.1021
  H  H70  1  0.073100  0.779100  0.598200  1.0  0.0832
  H  H71  1  0.027700  0.789400  0.840600  1.0  0.1051
  H  H72  1  0.978300  0.818700  0.791400  1.0  0.1049
  H  H73  1  0.912100  0.775500  0.648300  1.0  0.0689
  H  H74  1  0.936900  0.673900  0.610800  1.0  0.077
  H  H75  1  0.857270  0.130630  0.093130  1.0  0.0684
  H  H76  1  0.820070  0.069730  0.267430  1.0  0.1019
  H  H77  1  0.739670  0.026930  0.267430  1.0  0.1021
  H  H78  1  0.739770  0.112430  0.931530  1.0  0.0832
  H  H79  1  0.694370  0.122730  0.173930  1.0  0.1051
  H  H80  1  0.644970  0.152030  0.124730  1.0  0.108
  H  H81  1  0.578770  0.108830  0.981630  1.0  0.0689
  H  H82  1  0.603570  0.007230  0.944130  1.0  0.077
  H  H83  1  0.523930  0.463970  0.426470  1.0  0.0684
  H  H84  1  0.486730  0.403070  0.600770  1.0  0.1019
  H  H85  1  0.406330  0.360270  0.600770  1.0  0.1021
  H  H86  1  0.406430  0.445770  0.264870  1.0  0.0832
  H  H87  1  0.361030  0.456070  0.507270  1.0  0.1051
  H  H88  1  0.311630  0.485370  0.458070  1.0  0.1078
  H  H89  1  0.245430  0.442170  0.314970  1.0  0.0691
  H  H90  1  0.270230  0.340570  0.277470  1.0  0.077
  H  H91  1  0.797300  0.606700  0.240200  1.0  0.0676
  H  H92  1  0.736400  0.583000  0.065900  1.0  0.1017
  H  H93  1  0.693600  0.620600  0.065900  1.0  0.1027
  H  H94  1  0.779100  0.706000  0.401800  1.0  0.0838
  H  H95  1  0.789400  0.761700  0.159400  1.0  0.1039
  H  H96  1  0.818700  0.840400  0.208600  1.0  0.1042
  H  H97  1  0.775500  0.863400  0.351700  1.0  0.0688
  H  H98  1  0.673900  0.737000  0.389200  1.0  0.0764
  H  H99  1  0.463970  0.940030  0.573530  1.0  0.0676
  H  H100  1  0.403070  0.916330  0.399230  1.0  0.1017
  H  H101  1  0.360270  0.953930  0.399230  1.0  0.1026
  H  H102  1  0.445770  0.039330  0.735130  1.0  0.0838
  H  H103  1  0.456070  0.095030  0.492730  1.0  0.1039
  H  H104  1  0.485370  0.173730  0.541930  1.0  0.1043
  H  H105  1  0.442170  0.196730  0.685030  1.0  0.0686
  H  H106  1  0.340570  0.070330  0.722530  1.0  0.0764
  H  H107  1  0.130630  0.273370  0.906870  1.0  0.0676
  H  H108  1  0.069730  0.249670  0.732570  1.0  0.1017
  H  H109  1  0.026930  0.287270  0.732570  1.0  0.1027
  H  H110  1  0.112430  0.372670  0.068470  1.0  0.0838
  H  H111  1  0.122730  0.428370  0.826070  1.0  0.1039
  H  H112  1  0.152030  0.507070  0.875270  1.0  0.1042
  H  H113  1  0.108830  0.530070  0.018370  1.0  0.0688
  H  H114  1  0.007230  0.403670  0.055870  1.0  0.0764
  H  H115  1  0.393300  0.190600  0.240200  1.0  0.0676
  H  H116  1  0.417000  0.153400  0.065900  1.0  0.1028
  H  H117  1  0.379400  0.073000  0.065900  1.0  0.1036
  H  H118  1  0.294000  0.073100  0.401800  1.0  0.0837
  H  H119  1  0.238300  0.027700  0.159400  1.0  0.1039
  H  H120  1  0.159600  0.978300  0.208600  1.0  0.1027
  H  H121  1  0.136600  0.912100  0.351700  1.0  0.0698
  H  H122  1  0.263000  0.936900  0.389200  1.0  0.0762
  H  H123  1  0.059970  0.523930  0.573530  1.0  0.0676
  H  H124  1  0.083670  0.486730  0.399230  1.0  0.1028
  H  H125  1  0.046070  0.406330  0.399230  1.0  0.1036
  H  H126  1  0.960670  0.406430  0.735130  1.0  0.0837
  H  H127  1  0.904970  0.361030  0.492730  1.0  0.1039
  H  H128  1  0.826270  0.311630  0.541930  1.0  0.1023
  H  H129  1  0.803270  0.245430  0.685030  1.0  0.0699
  H  H130  1  0.929670  0.270230  0.722530  1.0  0.0762
  H  H131  1  0.726630  0.857270  0.906870  1.0  0.0676
  H  H132  1  0.750330  0.820070  0.732570  1.0  0.1028
  H  H133  1  0.712730  0.739670  0.732570  1.0  0.1036
  H  H134  1  0.627330  0.739770  0.068470  1.0  0.0837
  H  H135  1  0.571630  0.694370  0.826070  1.0  0.1039
  H  H136  1  0.492930  0.644970  0.875270  1.0  0.1022
  H  H137  1  0.469930  0.578770  0.018370  1.0  0.0698
  H  H138  1  0.596330  0.603570  0.055870  1.0  0.0762
  H  H139  1  0.809400  0.202700  0.240200  1.0  0.0699
  H  H140  1  0.846600  0.263600  0.065900  1.0  0.1026
  H  H141  1  0.927000  0.306400  0.065900  1.0  0.1028
  H  H142  1  0.926900  0.220900  0.401800  1.0  0.0832
  H  H143  1  0.972300  0.210600  0.159400  1.0  0.104
  H  H144  1  0.021700  0.181300  0.208600  1.0  0.104
  H  H145  1  0.087900  0.224500  0.351700  1.0  0.0691
  H  H146  1  0.063100  0.326100  0.389200  1.0  0.0766
  H  H147  1  0.476070  0.536030  0.573530  1.0  0.0698
  H  H148  1  0.513270  0.596930  0.399230  1.0  0.1026
  H  H149  1  0.593670  0.639730  0.399230  1.0  0.1028
  H  H150  1  0.593570  0.554230  0.735130  1.0  0.0832
  H  H151  1  0.638970  0.543930  0.492730  1.0  0.104
  H  H152  1  0.688370  0.514630  0.541930  1.0  0.1044
  H  H153  1  0.754570  0.557830  0.685030  1.0  0.0692
  H  H154  1  0.729770  0.659430  0.722530  1.0  0.0766
  H  H155  1  0.142730  0.869370  0.906870  1.0  0.0699
  H  H156  1  0.179930  0.930270  0.732570  1.0  0.1026
  H  H157  1  0.260330  0.973070  0.732570  1.0  0.1029
  H  H158  1  0.260230  0.887570  0.068470  1.0  0.0832
  H  H159  1  0.305630  0.877270  0.826070  1.0  0.104
  H  H160  1  0.355030  0.847970  0.875270  1.0  0.1045
  H  H161  1  0.421230  0.891170  0.018370  1.0  0.0691
  H  H162  1  0.396430  0.992770  0.055870  1.0  0.0766
  C  C163  1  0.219270  0.377440  0.761000  1.0  0.1334
  C  C164  1  0.255760  0.391910  0.864800  1.0  -0.1369
  C  C165  1  0.280630  0.369500  0.866400  1.0  -0.0448
  C  C166  1  0.266810  0.332000  0.765900  1.0  -0.0886
  C  C167  1  0.230000  0.319530  0.666500  1.0  0.1536
  C  C168  1  0.294690  0.308590  0.761300  1.0  0.3047
  C  C169  1  0.271610  0.258730  0.728000  1.0  -0.0634
  C  C170  1  0.228090  0.227970  0.783800  1.0  -0.1038
  C  C171  1  0.210800  0.181610  0.754000  1.0  -0.1838
  C  C172  1  0.236950  0.168200  0.669800  1.0  0.1129
  C  C173  1  0.296130  0.241950  0.646400  1.0  0.1508
  C  C174  1  0.885940  0.710770  0.094330  1.0  0.1334
  C  C175  1  0.922430  0.725240  0.198130  1.0  -0.1369
  C  C176  1  0.947300  0.702830  0.199730  1.0  -0.0448
  C  C177  1  0.933480  0.665330  0.099230  1.0  -0.0886
  C  C178  1  0.896670  0.652860  0.999830  1.0  0.1536
  C  C179  1  0.961360  0.641920  0.094630  1.0  0.3048
  C  C180  1  0.938280  0.592060  0.061330  1.0  -0.0633
  C  C181  1  0.894760  0.561300  0.117130  1.0  -0.1038
  C  C182  1  0.877470  0.514940  0.087330  1.0  -0.1838
  C  C183  1  0.903620  0.501530  0.003130  1.0  0.1129
  C  C184  1  0.962800  0.575280  0.979730  1.0  0.1511
  C  C185  1  0.552600  0.044110  0.427670  1.0  0.1336
  C  C186  1  0.589090  0.058580  0.531470  1.0  -0.1369
  C  C187  1  0.613960  0.036170  0.533070  1.0  -0.0448
  C  C188  1  0.600140  0.998670  0.432570  1.0  -0.0886
  C  C189  1  0.563330  0.986200  0.333170  1.0  0.1536
  C  C190  1  0.628020  0.975260  0.427970  1.0  0.3047
  C  C191  1  0.604940  0.925400  0.394670  1.0  -0.0634
  C  C192  1  0.561420  0.894640  0.450470  1.0  -0.1038
  C  C193  1  0.544130  0.848280  0.420670  1.0  -0.1838
  C  C194  1  0.570280  0.834870  0.336470  1.0  0.1129
  C  C195  1  0.629460  0.908620  0.313070  1.0  0.1508
  C  C196  1  0.622560  0.841830  0.761000  1.0  0.1313
  C  C197  1  0.608090  0.863850  0.864800  1.0  -0.14
  C  C198  1  0.630500  0.911130  0.866400  1.0  -0.0423
  C  C199  1  0.668000  0.934810  0.765900  1.0  -0.0875
  C  C200  1  0.680470  0.910470  0.666500  1.0  0.1544
  C  C201  1  0.691410  0.986100  0.761300  1.0  0.3033
  C  C202  1  0.741270  0.012880  0.728000  1.0  -0.0627
  C  C203  1  0.772030  0.000120  0.783800  1.0  -0.1056
  C  C204  1  0.818390  0.029190  0.754000  1.0  -0.1827
  C  C205  1  0.831800  0.068750  0.669800  1.0  0.1141
  C  C206  1  0.758050  0.054180  0.646400  1.0  0.1512
  C  C207  1  0.289230  0.175160  0.094330  1.0  0.1313
  C  C208  1  0.274760  0.197180  0.198130  1.0  -0.14
  C  C209  1  0.297170  0.244460  0.199730  1.0  -0.0423
  C  C210  1  0.334670  0.268140  0.099230  1.0  -0.0876
  C  C211  1  0.347140  0.243800  0.999830  1.0  0.1544
  C  C212  1  0.358080  0.319430  0.094630  1.0  0.3033
  C  C213  1  0.407940  0.346210  0.061330  1.0  -0.0627
  C  C214  1  0.438700  0.333450  0.117130  1.0  -0.1058
  C  C215  1  0.485060  0.362520  0.087330  1.0  -0.1827
  C  C216  1  0.498470  0.402080  0.003130  1.0  0.1141
  C  C217  1  0.424720  0.387510  0.979730  1.0  0.1512
  C  C218  1  0.955890  0.508500  0.427670  1.0  0.1313
  C  C219  1  0.941420  0.530520  0.531470  1.0  -0.14
  C  C220  1  0.963830  0.577800  0.533070  1.0  -0.0423
  C  C221  1  0.001330  0.601480  0.432570  1.0  -0.0875
  C  C222  1  0.013800  0.577140  0.333170  1.0  0.1544
  C  C223  1  0.024740  0.652770  0.427970  1.0  0.3034
  C  C224  1  0.074600  0.679550  0.394670  1.0  -0.0625
  C  C225  1  0.105360  0.666790  0.450470  1.0  -0.1056
  C  C226  1  0.151720  0.695860  0.420670  1.0  -0.1827
  C  C227  1  0.165130  0.735420  0.336470  1.0  0.1141
  C  C228  1  0.091380  0.720850  0.313070  1.0  0.1512
  C  C229  1  0.158170  0.780730  0.761000  1.0  0.1364
  C  C230  1  0.136150  0.744240  0.864800  1.0  -0.1384
  C  C231  1  0.088870  0.719370  0.866400  1.0  -0.0432
  C  C232  1  0.065190  0.733190  0.765900  1.0  -0.088
  C  C233  1  0.089530  0.770000  0.666500  1.0  0.1533
  C  C234  1  0.013900  0.705310  0.761300  1.0  0.3072
  C  C235  1  0.987120  0.728390  0.728000  1.0  -0.0626
  C  C236  1  0.999880  0.771910  0.783800  1.0  -0.1075
  C  C237  1  0.970810  0.789200  0.754000  1.0  -0.1804
  C  C238  1  0.931250  0.763050  0.669800  1.0  0.1147
  C  C239  1  0.945820  0.703870  0.646400  1.0  0.1528
  C  C240  1  0.824840  0.114060  0.094330  1.0  0.1364
  C  C241  1  0.802820  0.077570  0.198130  1.0  -0.1384
  C  C242  1  0.755540  0.052700  0.199730  1.0  -0.0432
  C  C243  1  0.731860  0.066520  0.099230  1.0  -0.088
  C  C244  1  0.756200  0.103330  0.999830  1.0  0.1533
  C  C245  1  0.680570  0.038640  0.094630  1.0  0.3071
  C  C246  1  0.653790  0.061720  0.061330  1.0  -0.0627
  C  C247  1  0.666550  0.105240  0.117130  1.0  -0.1075
  C  C248  1  0.637480  0.122530  0.087330  1.0  -0.1804
  C  C249  1  0.597920  0.096380  0.003130  1.0  0.1147
  C  C250  1  0.612490  0.037200  0.979730  1.0  0.1528
  C  C251  1  0.491500  0.447400  0.427670  1.0  0.1365
  C  C252  1  0.469480  0.410910  0.531470  1.0  -0.1384
  C  C253  1  0.422200  0.386040  0.533070  1.0  -0.0432
  C  C254  1  0.398520  0.399860  0.432570  1.0  -0.088
  C  C255  1  0.422860  0.436670  0.333170  1.0  0.1533
  C  C256  1  0.347230  0.371980  0.427970  1.0  0.3071
  C  C257  1  0.320450  0.395060  0.394670  1.0  -0.0627
  C  C258  1  0.333210  0.438580  0.450470  1.0  -0.1075
  C  C259  1  0.304140  0.455870  0.420670  1.0  -0.1804
  C  C260  1  0.264580  0.429720  0.336470  1.0  0.1147
  C  C261  1  0.279150  0.370540  0.313070  1.0  0.1528
  C  C262  1  0.780730  0.622560  0.239000  1.0  0.133
  C  C263  1  0.744240  0.608090  0.135200  1.0  -0.1385
  C  C264  1  0.719370  0.630500  0.133600  1.0  -0.0428
  C  C265  1  0.733190  0.668000  0.234100  1.0  -0.088
  C  C266  1  0.770000  0.680470  0.333500  1.0  0.1533
  C  C267  1  0.705310  0.691410  0.238700  1.0  0.3034
  C  C268  1  0.728390  0.741270  0.272000  1.0  -0.0623
  C  C269  1  0.771910  0.772030  0.216200  1.0  -0.1036
  C  C270  1  0.789200  0.818390  0.246000  1.0  -0.1796
  C  C271  1  0.763050  0.831800  0.330200  1.0  0.1151
  C  C272  1  0.703870  0.758050  0.353600  1.0  0.1515
  C  C273  1  0.447400  0.955890  0.572330  1.0  0.1332
  C  C274  1  0.410910  0.941420  0.468530  1.0  -0.1385
  C  C275  1  0.386040  0.963830  0.466930  1.0  -0.0428
  C  C276  1  0.399860  0.001330  0.567430  1.0  -0.088
  C  C277  1  0.436670  0.013800  0.666830  1.0  0.1533
  C  C278  1  0.371980  0.024740  0.572030  1.0  0.3034
  C  C279  1  0.395060  0.074600  0.605330  1.0  -0.0623
  C  C280  1  0.438580  0.105360  0.549530  1.0  -0.1036
  C  C281  1  0.455870  0.151720  0.579330  1.0  -0.1796
  C  C282  1  0.429720  0.165130  0.663530  1.0  0.1151
  C  C283  1  0.370540  0.091380  0.686930  1.0  0.1515
  C  C284  1  0.114060  0.289230  0.905670  1.0  0.133
  C  C285  1  0.077570  0.274760  0.801870  1.0  -0.1385
  C  C286  1  0.052700  0.297170  0.800270  1.0  -0.0428
  C  C287  1  0.066520  0.334670  0.900770  1.0  -0.088
  C  C288  1  0.103330  0.347140  0.000170  1.0  0.1533
  C  C289  1  0.038640  0.358080  0.905370  1.0  0.3035
  C  C290  1  0.061720  0.407940  0.938670  1.0  -0.0622
  C  C291  1  0.105240  0.438700  0.882870  1.0  -0.1036
  C  C292  1  0.122530  0.485060  0.912670  1.0  -0.1796
  C  C293  1  0.096380  0.498470  0.996870  1.0  0.1151
  C  C294  1  0.037200  0.424720  0.020270  1.0  0.1518
  C  C295  1  0.377440  0.158170  0.239000  1.0  0.1328
  C  C296  1  0.391910  0.136150  0.135200  1.0  -0.1386
  C  C297  1  0.369500  0.088870  0.133600  1.0  -0.0436
  C  C298  1  0.332000  0.065190  0.234100  1.0  -0.0886
  C  C299  1  0.319530  0.089530  0.333500  1.0  0.1544
  C  C300  1  0.308590  0.013900  0.238700  1.0  0.3054
  C  C301  1  0.258730  0.987120  0.272000  1.0  -0.063
  C  C302  1  0.227970  0.999880  0.216200  1.0  -0.1074
  C  C303  1  0.181610  0.970810  0.246000  1.0  -0.1823
  C  C304  1  0.168200  0.931250  0.330200  1.0  0.115
  C  C305  1  0.241950  0.945820  0.353600  1.0  0.1528
  C  C306  1  0.044110  0.491500  0.572330  1.0  0.1328
  C  C307  1  0.058580  0.469480  0.468530  1.0  -0.1386
  C  C308  1  0.036170  0.422200  0.466930  1.0  -0.0436
  C  C309  1  0.998670  0.398520  0.567430  1.0  -0.0886
  C  C310  1  0.986200  0.422860  0.666830  1.0  0.1544
  C  C311  1  0.975260  0.347230  0.572030  1.0  0.3055
  C  C312  1  0.925400  0.320450  0.605330  1.0  -0.0628
  C  C313  1  0.894640  0.333210  0.549530  1.0  -0.1074
  C  C314  1  0.848280  0.304140  0.579330  1.0  -0.1823
  C  C315  1  0.834870  0.264580  0.663530  1.0  0.115
  C  C316  1  0.908620  0.279150  0.686930  1.0  0.1528
  C  C317  1  0.710770  0.824840  0.905670  1.0  0.1328
  C  C318  1  0.725240  0.802820  0.801870  1.0  -0.1386
  C  C319  1  0.702830  0.755540  0.800270  1.0  -0.0436
  C  C320  1  0.665330  0.731860  0.900770  1.0  -0.0886
  C  C321  1  0.652860  0.756200  0.000170  1.0  0.1544
  C  C322  1  0.641920  0.680570  0.905370  1.0  0.3054
  C  C323  1  0.592060  0.653790  0.938670  1.0  -0.063
  C  C324  1  0.561300  0.666550  0.882870  1.0  -0.1076
  C  C325  1  0.514940  0.637480  0.912670  1.0  -0.1823
  C  C326  1  0.501530  0.597920  0.996870  1.0  0.115
  C  C327  1  0.575280  0.612490  0.020270  1.0  0.1528
  C  C328  1  0.841830  0.219270  0.239000  1.0  0.1369
  C  C329  1  0.863850  0.255760  0.135200  1.0  -0.1409
  C  C330  1  0.911130  0.280630  0.133600  1.0  -0.0443
  C  C331  1  0.934810  0.266810  0.234100  1.0  -0.0888
  C  C332  1  0.910470  0.230000  0.333500  1.0  0.1535
  C  C333  1  0.986100  0.294690  0.238700  1.0  0.3069
  C  C334  1  0.012880  0.271610  0.272000  1.0  -0.0633
  C  C335  1  0.000120  0.228090  0.216200  1.0  -0.1086
  C  C336  1  0.029190  0.210800  0.246000  1.0  -0.1782
  C  C337  1  0.068750  0.236950  0.330200  1.0  0.114
  C  C338  1  0.054180  0.296130  0.353600  1.0  0.1518
  C  C339  1  0.508500  0.552600  0.572330  1.0  0.1369
  C  C340  1  0.530520  0.589090  0.468530  1.0  -0.1409
  C  C341  1  0.577800  0.613960  0.466930  1.0  -0.0443
  C  C342  1  0.601480  0.600140  0.567430  1.0  -0.0889
  C  C343  1  0.577140  0.563330  0.666830  1.0  0.1535
  C  C344  1  0.652770  0.628020  0.572030  1.0  0.3068
  C  C345  1  0.679550  0.604940  0.605330  1.0  -0.0634
  C  C346  1  0.666790  0.561420  0.549530  1.0  -0.1086
  C  C347  1  0.695860  0.544130  0.579330  1.0  -0.1782
  C  C348  1  0.735420  0.570280  0.663530  1.0  0.1141
  C  C349  1  0.720850  0.629460  0.686930  1.0  0.1518
  C  C350  1  0.175160  0.885940  0.905670  1.0  0.1369
  C  C351  1  0.197180  0.922430  0.801870  1.0  -0.1409
  C  C352  1  0.244460  0.947300  0.800270  1.0  -0.0443
  C  C353  1  0.268140  0.933480  0.900770  1.0  -0.0888
  C  C354  1  0.243800  0.896670  0.000170  1.0  0.1535
  C  C355  1  0.319430  0.961360  0.905370  1.0  0.3068
  C  C356  1  0.346210  0.938280  0.938670  1.0  -0.0634
  C  C357  1  0.333450  0.894760  0.882870  1.0  -0.1086
  C  C358  1  0.362520  0.877470  0.912670  1.0  -0.1782
  C  C359  1  0.402080  0.903620  0.996870  1.0  0.114
  C  C360  1  0.387510  0.962800  0.020270  1.0  0.1518
  N  N361  1  0.206420  0.341870  0.662100  1.0  -0.3236
  N  N362  1  0.279300  0.197530  0.616300  1.0  -0.3257
  N  N363  1  0.873090  0.675200  0.995430  1.0  -0.3236
  N  N364  1  0.945970  0.530860  0.949630  1.0  -0.326
  N  N365  1  0.539750  0.008540  0.328770  1.0  -0.3236
  N  N366  1  0.612630  0.864200  0.282970  1.0  -0.3257
  N  N367  1  0.658130  0.864550  0.662100  1.0  -0.321
  N  N368  1  0.802470  0.081770  0.616300  1.0  -0.319
  N  N369  1  0.324800  0.197880  0.995430  1.0  -0.321
  N  N370  1  0.469140  0.415100  0.949630  1.0  -0.3189
  N  N371  1  0.991460  0.531220  0.328770  1.0  -0.321
  N  N372  1  0.135800  0.748440  0.282970  1.0  -0.319
  N  N373  1  0.135450  0.793580  0.662100  1.0  -0.3202
  N  N374  1  0.918230  0.720700  0.616300  1.0  -0.3251
  N  N375  1  0.802120  0.126910  0.995430  1.0  -0.3202
  N  N376  1  0.584900  0.054030  0.949630  1.0  -0.3257
  N  N377  1  0.468780  0.460250  0.328770  1.0  -0.3202
  N  N378  1  0.251560  0.387370  0.282970  1.0  -0.325
  N  N379  1  0.793580  0.658130  0.337900  1.0  -0.3214
  N  N380  1  0.720700  0.802470  0.383700  1.0  -0.3251
  N  N381  1  0.460250  0.991460  0.671230  1.0  -0.3215
  N  N382  1  0.387370  0.135800  0.717030  1.0  -0.3251
  N  N383  1  0.126910  0.324800  0.004570  1.0  -0.3214
  N  N384  1  0.054030  0.469140  0.050370  1.0  -0.3251
  N  N385  1  0.341870  0.135450  0.337900  1.0  -0.3213
  N  N386  1  0.197530  0.918230  0.383700  1.0  -0.3171
  N  N387  1  0.008540  0.468780  0.671230  1.0  -0.3211
  N  N388  1  0.864200  0.251560  0.717030  1.0  -0.3171
  N  N389  1  0.675200  0.802120  0.004570  1.0  -0.3213
  N  N390  1  0.530860  0.584900  0.050370  1.0  -0.3171
  N  N391  1  0.864550  0.206420  0.337900  1.0  -0.3218
  N  N392  1  0.081770  0.279300  0.383700  1.0  -0.3242
  N  N393  1  0.531220  0.539750  0.671230  1.0  -0.3219
  N  N394  1  0.748440  0.612630  0.717030  1.0  -0.3241
  N  N395  1  0.197880  0.873090  0.004570  1.0  -0.3218
  N  N396  1  0.415100  0.945970  0.050370  1.0  -0.3244
  O  O397  1  0.335790  0.330340  0.785200  1.0  -0.4878
  O  O398  1  0.002460  0.663670  0.118530  1.0  -0.4881
  O  O399  1  0.669120  0.997010  0.451870  1.0  -0.4879
  O  O400  1  0.669660  0.005450  0.785200  1.0  -0.4869
  O  O401  1  0.336330  0.338780  0.118530  1.0  -0.4868
  O  O402  1  0.002990  0.672120  0.451870  1.0  -0.4876
  O  O403  1  0.994550  0.664210  0.785200  1.0  -0.487
  O  O404  1  0.661220  0.997540  0.118530  1.0  -0.4866
  O  O405  1  0.327880  0.330880  0.451870  1.0  -0.4866
  O  O406  1  0.664210  0.669660  0.214800  1.0  -0.4868
  O  O407  1  0.330880  0.002990  0.548130  1.0  -0.4869
  O  O408  1  0.997540  0.336330  0.881470  1.0  -0.4871
  O  O409  1  0.330340  0.994550  0.214800  1.0  -0.4875
  O  O410  1  0.997010  0.327880  0.548130  1.0  -0.4882
  O  O411  1  0.663670  0.661220  0.881470  1.0  -0.4874
  O  O412  1  0.005450  0.335790  0.214800  1.0  -0.4879
  O  O413  1  0.672120  0.669120  0.548130  1.0  -0.4874
  O  O414  1  0.338780  0.002460  0.881470  1.0  -0.4874
