# generated using pymatgen
data_AgH8C11N2O
_symmetry_space_group_name_H-M   'P 1'
_cell_length_a   34.63800000
_cell_length_b   34.63800000
_cell_length_c   8.39540000
_cell_angle_alpha   90.00000000
_cell_angle_beta   90.00000000
_cell_angle_gamma   120.00000000
_symmetry_Int_Tables_number   1
_chemical_formula_structural   AgH8C11N2O
_chemical_formula_sum   'Ag18 H144 C198 N36 O18'
_cell_volume   8723.23636822
_cell_formula_units_Z   18
loop_
 _symmetry_equiv_pos_site_id
 _symmetry_equiv_pos_as_xyz
  1  'x, y, z'
loop_
 _atom_site_type_symbol
 _atom_site_label
 _atom_site_symmetry_multiplicity
 _atom_site_fract_x
 _atom_site_fract_y
 _atom_site_fract_z
 _atom_site_occupancy
 _atom_site_charge
  Ag  Ag1  1  0.856840  0.682450  0.490300  1.0  0.1833
  Ag  Ag2  1  0.317550  0.174390  0.490300  1.0  0.1836
  Ag  Ag3  1  0.825610  0.143160  0.490300  1.0  0.1835
  Ag  Ag4  1  0.143160  0.317550  0.509700  1.0  0.1847
  Ag  Ag5  1  0.682450  0.825610  0.509700  1.0  0.1831
  Ag  Ag6  1  0.174390  0.856840  0.509700  1.0  0.1832
  Ag  Ag7  1  0.523510  0.015780  0.823630  1.0  0.1833
  Ag  Ag8  1  0.984220  0.507720  0.823630  1.0  0.1836
  Ag  Ag9  1  0.492280  0.476490  0.823630  1.0  0.1835
  Ag  Ag10  1  0.809830  0.650880  0.843030  1.0  0.1847
  Ag  Ag11  1  0.349120  0.158940  0.843030  1.0  0.1831
  Ag  Ag12  1  0.841060  0.190170  0.843030  1.0  0.1832
  Ag  Ag13  1  0.190170  0.349120  0.156970  1.0  0.1833
  Ag  Ag14  1  0.650880  0.841060  0.156970  1.0  0.1836
  Ag  Ag15  1  0.158940  0.809830  0.156970  1.0  0.1835
  Ag  Ag16  1  0.476490  0.984220  0.176370  1.0  0.1847
  Ag  Ag17  1  0.015780  0.492280  0.176370  1.0  0.1831
  Ag  Ag18  1  0.507720  0.523510  0.176370  1.0  0.1832
  H  H19  1  0.800200  0.612000  0.241700  1.0  0.0754
  H  H20  1  0.735500  0.584600  0.091500  1.0  0.0994
  H  H21  1  0.691200  0.617500  0.112900  1.0  0.1036
  H  H22  1  0.782100  0.706900  0.416000  1.0  0.0776
  H  H23  1  0.781400  0.753900  0.159500  1.0  0.1096
  H  H24  1  0.806700  0.830400  0.168500  1.0  0.0954
  H  H25  1  0.772000  0.857500  0.329200  1.0  0.0843
  H  H26  1  0.679000  0.736300  0.440800  1.0  0.0697
  H  H27  1  0.388000  0.188200  0.241700  1.0  0.074
  H  H28  1  0.415400  0.150900  0.091500  1.0  0.1002
  H  H29  1  0.382500  0.073700  0.112900  1.0  0.1051
  H  H30  1  0.293100  0.075200  0.416000  1.0  0.0785
  H  H31  1  0.246100  0.027500  0.159500  1.0  0.1101
  H  H32  1  0.169600  0.976300  0.168500  1.0  0.0934
  H  H33  1  0.142500  0.914500  0.329200  1.0  0.0852
  H  H34  1  0.263700  0.942700  0.440800  1.0  0.0688
  H  H35  1  0.811800  0.199800  0.241700  1.0  0.0765
  H  H36  1  0.849100  0.264500  0.091500  1.0  0.0998
  H  H37  1  0.926300  0.308800  0.112900  1.0  0.1043
  H  H38  1  0.924800  0.217900  0.416000  1.0  0.0772
  H  H39  1  0.972500  0.218600  0.159500  1.0  0.1106
  H  H40  1  0.023700  0.193300  0.168500  1.0  0.0948
  H  H41  1  0.085500  0.228000  0.329200  1.0  0.0847
  H  H42  1  0.057300  0.321000  0.440800  1.0  0.0705
  H  H43  1  0.199800  0.388000  0.758300  1.0  0.0756
  H  H44  1  0.264500  0.415400  0.908500  1.0  0.1003
  H  H45  1  0.308800  0.382500  0.887100  1.0  0.1043
  H  H46  1  0.217900  0.293100  0.584000  1.0  0.0774
  H  H47  1  0.218600  0.246100  0.840500  1.0  0.1092
  H  H48  1  0.193300  0.169600  0.831500  1.0  0.094
  H  H49  1  0.228000  0.142500  0.670800  1.0  0.0842
  H  H50  1  0.321000  0.263700  0.559200  1.0  0.0701
  H  H51  1  0.612000  0.811800  0.758300  1.0  0.0744
  H  H52  1  0.584600  0.849100  0.908500  1.0  0.1003
  H  H53  1  0.617500  0.926300  0.887100  1.0  0.1048
  H  H54  1  0.706900  0.924800  0.584000  1.0  0.0774
  H  H55  1  0.753900  0.972500  0.840500  1.0  0.109
  H  H56  1  0.830400  0.023700  0.831500  1.0  0.0934
  H  H57  1  0.857500  0.085500  0.670800  1.0  0.0854
  H  H58  1  0.736300  0.057300  0.559200  1.0  0.0695
  H  H59  1  0.188200  0.800200  0.758300  1.0  0.0762
  H  H60  1  0.150900  0.735500  0.908500  1.0  0.0998
  H  H61  1  0.073700  0.691200  0.887100  1.0  0.1037
  H  H62  1  0.075200  0.782100  0.584000  1.0  0.0774
  H  H63  1  0.027500  0.781400  0.840500  1.0  0.11
  H  H64  1  0.976300  0.806700  0.831500  1.0  0.0942
  H  H65  1  0.914500  0.772000  0.670800  1.0  0.0845
  H  H66  1  0.942700  0.679000  0.559200  1.0  0.0699
  H  H67  1  0.466870  0.945330  0.575030  1.0  0.0754
  H  H68  1  0.402170  0.917930  0.424830  1.0  0.0994
  H  H69  1  0.357870  0.950830  0.446230  1.0  0.1032
  H  H70  1  0.448770  0.040230  0.749330  1.0  0.0776
  H  H71  1  0.448070  0.087230  0.492830  1.0  0.1096
  H  H72  1  0.473370  0.163730  0.501830  1.0  0.0954
  H  H73  1  0.438670  0.190830  0.662530  1.0  0.0843
  H  H74  1  0.345670  0.069630  0.774130  1.0  0.0697
  H  H75  1  0.054670  0.521530  0.575030  1.0  0.074
  H  H76  1  0.082070  0.484230  0.424830  1.0  0.1002
  H  H77  1  0.049170  0.407030  0.446230  1.0  0.1054
  H  H78  1  0.959770  0.408530  0.749330  1.0  0.0785
  H  H79  1  0.912770  0.360830  0.492830  1.0  0.1102
  H  H80  1  0.836270  0.309630  0.501830  1.0  0.0933
  H  H81  1  0.809170  0.247830  0.662530  1.0  0.0852
  H  H82  1  0.930370  0.276030  0.774130  1.0  0.0688
  H  H83  1  0.478470  0.533130  0.575030  1.0  0.0765
  H  H84  1  0.515770  0.597830  0.424830  1.0  0.0999
  H  H85  1  0.592970  0.642130  0.446230  1.0  0.1046
  H  H86  1  0.591470  0.551230  0.749330  1.0  0.0772
  H  H87  1  0.639170  0.551930  0.492830  1.0  0.1106
  H  H88  1  0.690370  0.526630  0.501830  1.0  0.0946
  H  H89  1  0.752170  0.561330  0.662530  1.0  0.0847
  H  H90  1  0.723970  0.654330  0.774130  1.0  0.0704
  H  H91  1  0.866470  0.721330  0.091630  1.0  0.0756
  H  H92  1  0.931170  0.748730  0.241830  1.0  0.1003
  H  H93  1  0.975470  0.715830  0.220430  1.0  0.1043
  H  H94  1  0.884570  0.626430  0.917330  1.0  0.0775
  H  H95  1  0.885270  0.579430  0.173830  1.0  0.1091
  H  H96  1  0.859970  0.502930  0.164830  1.0  0.094
  H  H97  1  0.894670  0.475830  0.004130  1.0  0.0842
  H  H98  1  0.987670  0.597030  0.892530  1.0  0.07
  H  H99  1  0.278670  0.145130  0.091630  1.0  0.0744
  H  H100  1  0.251270  0.182430  0.241830  1.0  0.1003
  H  H101  1  0.284170  0.259630  0.220430  1.0  0.1047
  H  H102  1  0.373570  0.258130  0.917330  1.0  0.0774
  H  H103  1  0.420570  0.305830  0.173830  1.0  0.1089
  H  H104  1  0.497070  0.357030  0.164830  1.0  0.0933
  H  H105  1  0.524170  0.418830  0.004130  1.0  0.0854
  H  H106  1  0.402970  0.390630  0.892530  1.0  0.0695
  H  H107  1  0.854870  0.133530  0.091630  1.0  0.0762
  H  H108  1  0.817570  0.068830  0.241830  1.0  0.0998
  H  H109  1  0.740370  0.024530  0.220430  1.0  0.1036
  H  H110  1  0.741870  0.115430  0.917330  1.0  0.0774
  H  H111  1  0.694170  0.114730  0.173830  1.0  0.11
  H  H112  1  0.642970  0.140030  0.164830  1.0  0.0946
  H  H113  1  0.581170  0.105330  0.004130  1.0  0.0845
  H  H114  1  0.609370  0.012330  0.892530  1.0  0.07
  H  H115  1  0.133530  0.278670  0.908370  1.0  0.0754
  H  H116  1  0.068830  0.251270  0.758170  1.0  0.0994
  H  H117  1  0.024530  0.284170  0.779570  1.0  0.1037
  H  H118  1  0.115430  0.373570  0.082670  1.0  0.0776
  H  H119  1  0.114730  0.420570  0.826170  1.0  0.1096
  H  H120  1  0.140030  0.497070  0.835170  1.0  0.0954
  H  H121  1  0.105330  0.524170  0.995870  1.0  0.0843
  H  H122  1  0.012330  0.402970  0.107470  1.0  0.0696
  H  H123  1  0.721330  0.854870  0.908370  1.0  0.074
  H  H124  1  0.748730  0.817570  0.758170  1.0  0.1002
  H  H125  1  0.715830  0.740370  0.779570  1.0  0.105
  H  H126  1  0.626430  0.741870  0.082670  1.0  0.0785
  H  H127  1  0.579430  0.694170  0.826170  1.0  0.1101
  H  H128  1  0.502930  0.642970  0.835170  1.0  0.0933
  H  H129  1  0.475830  0.581170  0.995870  1.0  0.0852
  H  H130  1  0.597030  0.609370  0.107470  1.0  0.0688
  H  H131  1  0.145130  0.866470  0.908370  1.0  0.0765
  H  H132  1  0.182430  0.931170  0.758170  1.0  0.0998
  H  H133  1  0.259630  0.975470  0.779570  1.0  0.1043
  H  H134  1  0.258130  0.884570  0.082670  1.0  0.0772
  H  H135  1  0.305830  0.885270  0.826170  1.0  0.1106
  H  H136  1  0.357030  0.859970  0.835170  1.0  0.0946
  H  H137  1  0.418830  0.894670  0.995870  1.0  0.0847
  H  H138  1  0.390630  0.987670  0.107470  1.0  0.0705
  H  H139  1  0.533130  0.054670  0.424970  1.0  0.0756
  H  H140  1  0.597830  0.082070  0.575170  1.0  0.1003
  H  H141  1  0.642130  0.049170  0.553770  1.0  0.1038
  H  H142  1  0.551230  0.959770  0.250670  1.0  0.0775
  H  H143  1  0.551930  0.912770  0.507170  1.0  0.1092
  H  H144  1  0.526630  0.836270  0.498170  1.0  0.094
  H  H145  1  0.561330  0.809170  0.337470  1.0  0.0842
  H  H146  1  0.654330  0.930370  0.225870  1.0  0.0701
  H  H147  1  0.945330  0.478470  0.424970  1.0  0.0745
  H  H148  1  0.917930  0.515770  0.575170  1.0  0.1003
  H  H149  1  0.950830  0.592970  0.553770  1.0  0.1051
  H  H150  1  0.040230  0.591470  0.250670  1.0  0.0774
  H  H151  1  0.087230  0.639170  0.507170  1.0  0.109
  H  H152  1  0.163730  0.690370  0.498170  1.0  0.0933
  H  H153  1  0.190830  0.752170  0.337470  1.0  0.0854
  H  H154  1  0.069630  0.723970  0.225870  1.0  0.0695
  H  H155  1  0.521530  0.466870  0.424970  1.0  0.0762
  H  H156  1  0.484230  0.402170  0.575170  1.0  0.0998
  H  H157  1  0.407030  0.357870  0.553770  1.0  0.1039
  H  H158  1  0.408530  0.448770  0.250670  1.0  0.0774
  H  H159  1  0.360830  0.448070  0.507170  1.0  0.11
  H  H160  1  0.309630  0.473370  0.498170  1.0  0.0946
  H  H161  1  0.247830  0.438670  0.337470  1.0  0.0845
  H  H162  1  0.276030  0.345670  0.225870  1.0  0.07
  C  C163  1  0.782700  0.626100  0.249000  1.0  0.1372
  C  C164  1  0.744100  0.609400  0.159700  1.0  -0.1363
  C  C165  1  0.718300  0.629000  0.170400  1.0  -0.0551
  C  C166  1  0.732800  0.666200  0.267400  1.0  -0.0577
  C  C167  1  0.772000  0.681200  0.350900  1.0  0.1529
  C  C168  1  0.704700  0.687500  0.286300  1.0  0.2275
  C  C169  1  0.726700  0.736700  0.298900  1.0  -0.0406
  C  C170  1  0.765700  0.765100  0.218700  1.0  -0.144
  C  C171  1  0.781000  0.810200  0.227400  1.0  -0.16
  C  C172  1  0.759700  0.826200  0.319900  1.0  0.1126
  C  C173  1  0.705900  0.755700  0.386600  1.0  0.1607
  C  C174  1  0.373900  0.156600  0.249000  1.0  0.1378
  C  C175  1  0.390600  0.134700  0.159700  1.0  -0.1359
  C  C176  1  0.371000  0.089300  0.170400  1.0  -0.0557
  C  C177  1  0.333800  0.066600  0.267400  1.0  -0.0593
  C  C178  1  0.318800  0.090800  0.350900  1.0  0.1553
  C  C179  1  0.312500  0.017200  0.286300  1.0  0.2285
  C  C180  1  0.263300  0.990000  0.298900  1.0  -0.0414
  C  C181  1  0.234900  0.000600  0.218700  1.0  -0.1451
  C  C182  1  0.189800  0.970800  0.227400  1.0  -0.1636
  C  C183  1  0.173800  0.933500  0.319900  1.0  0.1125
  C  C184  1  0.244300  0.950200  0.386600  1.0  0.1603
  C  C185  1  0.843400  0.217300  0.249000  1.0  0.1394
  C  C186  1  0.865300  0.255900  0.159700  1.0  -0.1379
  C  C187  1  0.910700  0.281700  0.170400  1.0  -0.0558
  C  C188  1  0.933400  0.267200  0.267400  1.0  -0.0584
  C  C189  1  0.909200  0.228000  0.350900  1.0  0.153
  C  C190  1  0.982800  0.295300  0.286300  1.0  0.2293
  C  C191  1  0.010000  0.273300  0.298900  1.0  -0.0417
  C  C192  1  0.999400  0.234300  0.218700  1.0  -0.1463
  C  C193  1  0.029200  0.219000  0.227400  1.0  -0.1582
  C  C194  1  0.066500  0.240300  0.319900  1.0  0.11
  C  C195  1  0.049800  0.294100  0.386600  1.0  0.1603
  C  C196  1  0.217300  0.373900  0.751000  1.0  0.1377
  C  C197  1  0.255900  0.390600  0.840300  1.0  -0.1346
  C  C198  1  0.281700  0.371000  0.829600  1.0  -0.0551
  C  C199  1  0.267200  0.333800  0.732600  1.0  -0.0594
  C  C200  1  0.228000  0.318800  0.649100  1.0  0.1542
  C  C201  1  0.295300  0.312500  0.713700  1.0  0.2277
  C  C202  1  0.273300  0.263300  0.701100  1.0  -0.0418
  C  C203  1  0.234300  0.234900  0.781300  1.0  -0.1435
  C  C204  1  0.219000  0.189800  0.772600  1.0  -0.1631
  C  C205  1  0.240300  0.173800  0.680100  1.0  0.1111
  C  C206  1  0.294100  0.244300  0.613400  1.0  0.1614
  C  C207  1  0.626100  0.843400  0.751000  1.0  0.1373
  C  C208  1  0.609400  0.865300  0.840300  1.0  -0.1371
  C  C209  1  0.629000  0.910700  0.829600  1.0  -0.0566
  C  C210  1  0.666200  0.933400  0.732600  1.0  -0.0568
  C  C211  1  0.681200  0.909200  0.649100  1.0  0.1547
  C  C212  1  0.687500  0.982800  0.713700  1.0  0.2275
  C  C213  1  0.736700  0.010000  0.701100  1.0  -0.0422
  C  C214  1  0.765100  0.999400  0.781300  1.0  -0.1447
  C  C215  1  0.810200  0.029200  0.772600  1.0  -0.1645
  C  C216  1  0.826200  0.066500  0.680100  1.0  0.1106
  C  C217  1  0.755700  0.049800  0.613400  1.0  0.1591
  C  C218  1  0.156600  0.782700  0.751000  1.0  0.1389
  C  C219  1  0.134700  0.744100  0.840300  1.0  -0.1371
  C  C220  1  0.089300  0.718300  0.829600  1.0  -0.0554
  C  C221  1  0.066600  0.732800  0.732600  1.0  -0.0577
  C  C222  1  0.090800  0.772000  0.649100  1.0  0.152
  C  C223  1  0.017200  0.704700  0.713700  1.0  0.23
  C  C224  1  0.990000  0.726700  0.701100  1.0  -0.0419
  C  C225  1  0.000600  0.765700  0.781300  1.0  -0.1458
  C  C226  1  0.970800  0.781000  0.772600  1.0  -0.1592
  C  C227  1  0.933500  0.759700  0.680100  1.0  0.1117
  C  C228  1  0.950200  0.705900  0.613400  1.0  0.1609
  C  C229  1  0.449370  0.959430  0.582330  1.0  0.1372
  C  C230  1  0.410770  0.942730  0.493030  1.0  -0.1362
  C  C231  1  0.384970  0.962330  0.503730  1.0  -0.0551
  C  C232  1  0.399470  0.999530  0.600730  1.0  -0.0577
  C  C233  1  0.438670  0.014530  0.684230  1.0  0.1529
  C  C234  1  0.371370  0.020830  0.619630  1.0  0.2277
  C  C235  1  0.393370  0.070030  0.632230  1.0  -0.0406
  C  C236  1  0.432370  0.098430  0.552030  1.0  -0.1441
  C  C237  1  0.447670  0.143530  0.560730  1.0  -0.16
  C  C238  1  0.426370  0.159530  0.653230  1.0  0.1126
  C  C239  1  0.372570  0.089030  0.719930  1.0  0.1607
  C  C240  1  0.040570  0.489930  0.582330  1.0  0.1377
  C  C241  1  0.057270  0.468030  0.493030  1.0  -0.1358
  C  C242  1  0.037670  0.422630  0.503730  1.0  -0.0557
  C  C243  1  0.000470  0.399930  0.600730  1.0  -0.0593
  C  C244  1  0.985470  0.424130  0.684230  1.0  0.1555
  C  C245  1  0.979170  0.350530  0.619630  1.0  0.2285
  C  C246  1  0.929970  0.323330  0.632230  1.0  -0.0414
  C  C247  1  0.901570  0.333930  0.552030  1.0  -0.1451
  C  C248  1  0.856470  0.304130  0.560730  1.0  -0.1636
  C  C249  1  0.840470  0.266830  0.653230  1.0  0.1125
  C  C250  1  0.910970  0.283530  0.719930  1.0  0.1603
  C  C251  1  0.510070  0.550630  0.582330  1.0  0.1394
  C  C252  1  0.531970  0.589230  0.493030  1.0  -0.138
  C  C253  1  0.577370  0.615030  0.503730  1.0  -0.0558
  C  C254  1  0.600070  0.600530  0.600730  1.0  -0.0583
  C  C255  1  0.575870  0.561330  0.684230  1.0  0.1529
  C  C256  1  0.649470  0.628630  0.619630  1.0  0.2293
  C  C257  1  0.676670  0.606630  0.632230  1.0  -0.0417
  C  C258  1  0.666070  0.567630  0.552030  1.0  -0.1463
  C  C259  1  0.695870  0.552330  0.560730  1.0  -0.1582
  C  C260  1  0.733170  0.573630  0.653230  1.0  0.1099
  C  C261  1  0.716470  0.627430  0.719930  1.0  0.1603
  C  C262  1  0.883970  0.707230  0.084330  1.0  0.1377
  C  C263  1  0.922570  0.723930  0.173630  1.0  -0.1346
  C  C264  1  0.948370  0.704330  0.162930  1.0  -0.0551
  C  C265  1  0.933870  0.667130  0.065930  1.0  -0.0594
  C  C266  1  0.894670  0.652130  0.982430  1.0  0.1542
  C  C267  1  0.961970  0.645830  0.047030  1.0  0.2277
  C  C268  1  0.939970  0.596630  0.034430  1.0  -0.0417
  C  C269  1  0.900970  0.568230  0.114630  1.0  -0.1436
  C  C270  1  0.885670  0.523130  0.105930  1.0  -0.1629
  C  C271  1  0.906970  0.507130  0.013430  1.0  0.1115
  C  C272  1  0.960770  0.577630  0.946730  1.0  0.1613
  C  C273  1  0.292770  0.176730  0.084330  1.0  0.1373
  C  C274  1  0.276070  0.198630  0.173630  1.0  -0.1371
  C  C275  1  0.295670  0.244030  0.162930  1.0  -0.0566
  C  C276  1  0.332870  0.266730  0.065930  1.0  -0.0568
  C  C277  1  0.347870  0.242530  0.982430  1.0  0.1547
  C  C278  1  0.354170  0.316130  0.047030  1.0  0.2275
  C  C279  1  0.403370  0.343330  0.034430  1.0  -0.0423
  C  C280  1  0.431770  0.332730  0.114630  1.0  -0.1446
  C  C281  1  0.476870  0.362530  0.105930  1.0  -0.1644
  C  C282  1  0.492870  0.399830  0.013430  1.0  0.1104
  C  C283  1  0.422370  0.383130  0.946730  1.0  0.1592
  C  C284  1  0.823270  0.116030  0.084330  1.0  0.1389
  C  C285  1  0.801370  0.077430  0.173630  1.0  -0.1371
  C  C286  1  0.755970  0.051630  0.162930  1.0  -0.0554
  C  C287  1  0.733270  0.066130  0.065930  1.0  -0.0577
  C  C288  1  0.757470  0.105330  0.982430  1.0  0.152
  C  C289  1  0.683870  0.038030  0.047030  1.0  0.23
  C  C290  1  0.656670  0.060030  0.034430  1.0  -0.0418
  C  C291  1  0.667270  0.099030  0.114630  1.0  -0.1458
  C  C292  1  0.637470  0.114330  0.105930  1.0  -0.1591
  C  C293  1  0.600170  0.093030  0.013430  1.0  0.1117
  C  C294  1  0.616870  0.039230  0.946730  1.0  0.1609
  C  C295  1  0.116030  0.292770  0.915670  1.0  0.1372
  C  C296  1  0.077430  0.276070  0.826370  1.0  -0.1363
  C  C297  1  0.051630  0.295670  0.837070  1.0  -0.0551
  C  C298  1  0.066130  0.332870  0.934070  1.0  -0.0577
  C  C299  1  0.105330  0.347870  0.017570  1.0  0.1529
  C  C300  1  0.038030  0.354170  0.952970  1.0  0.2275
  C  C301  1  0.060030  0.403370  0.965570  1.0  -0.0406
  C  C302  1  0.099030  0.431770  0.885370  1.0  -0.1441
  C  C303  1  0.114330  0.476870  0.894070  1.0  -0.1598
  C  C304  1  0.093030  0.492870  0.986570  1.0  0.1129
  C  C305  1  0.039230  0.422370  0.053270  1.0  0.1607
  C  C306  1  0.707230  0.823270  0.915670  1.0  0.1378
  C  C307  1  0.723930  0.801370  0.826370  1.0  -0.1359
  C  C308  1  0.704330  0.755970  0.837070  1.0  -0.0557
  C  C309  1  0.667130  0.733270  0.934070  1.0  -0.0593
  C  C310  1  0.652130  0.757470  0.017570  1.0  0.1553
  C  C311  1  0.645830  0.683870  0.952970  1.0  0.2285
  C  C312  1  0.596630  0.656670  0.965570  1.0  -0.0414
  C  C313  1  0.568230  0.667270  0.885370  1.0  -0.145
  C  C314  1  0.523130  0.637470  0.894070  1.0  -0.1635
  C  C315  1  0.507130  0.600170  0.986570  1.0  0.1123
  C  C316  1  0.577630  0.616870  0.053270  1.0  0.1604
  C  C317  1  0.176730  0.883970  0.915670  1.0  0.1394
  C  C318  1  0.198630  0.922570  0.826370  1.0  -0.1379
  C  C319  1  0.244030  0.948370  0.837070  1.0  -0.0558
  C  C320  1  0.266730  0.933870  0.934070  1.0  -0.0584
  C  C321  1  0.242530  0.894670  0.017570  1.0  0.153
  C  C322  1  0.316130  0.961970  0.952970  1.0  0.2293
  C  C323  1  0.343330  0.939970  0.965570  1.0  -0.0416
  C  C324  1  0.332730  0.900970  0.885370  1.0  -0.1463
  C  C325  1  0.362530  0.885670  0.894070  1.0  -0.1581
  C  C326  1  0.399830  0.906970  0.986570  1.0  0.1101
  C  C327  1  0.383130  0.960770  0.053270  1.0  0.1603
  C  C328  1  0.550630  0.040570  0.417670  1.0  0.1377
  C  C329  1  0.589230  0.057270  0.506970  1.0  -0.1345
  C  C330  1  0.615030  0.037670  0.496270  1.0  -0.0551
  C  C331  1  0.600530  0.000470  0.399270  1.0  -0.0595
  C  C332  1  0.561330  0.985470  0.315770  1.0  0.1542
  C  C333  1  0.628630  0.979170  0.380370  1.0  0.2278
  C  C334  1  0.606630  0.929970  0.367770  1.0  -0.0418
  C  C335  1  0.567630  0.901570  0.447970  1.0  -0.1436
  C  C336  1  0.552330  0.856470  0.439270  1.0  -0.1631
  C  C337  1  0.573630  0.840470  0.346770  1.0  0.1111
  C  C338  1  0.627430  0.910970  0.280070  1.0  0.1614
  C  C339  1  0.959430  0.510070  0.417670  1.0  0.1373
  C  C340  1  0.942730  0.531970  0.506970  1.0  -0.137
  C  C341  1  0.962330  0.577370  0.496270  1.0  -0.0566
  C  C342  1  0.999530  0.600070  0.399270  1.0  -0.0567
  C  C343  1  0.014530  0.575870  0.315770  1.0  0.1548
  C  C344  1  0.020830  0.649470  0.380370  1.0  0.2275
  C  C345  1  0.070030  0.676670  0.367770  1.0  -0.0422
  C  C346  1  0.098430  0.666070  0.447970  1.0  -0.1447
  C  C347  1  0.143530  0.695870  0.439270  1.0  -0.1645
  C  C348  1  0.159530  0.733170  0.346770  1.0  0.1106
  C  C349  1  0.089030  0.716470  0.280070  1.0  0.1591
  C  C350  1  0.489930  0.449370  0.417670  1.0  0.1389
  C  C351  1  0.468030  0.410770  0.506970  1.0  -0.1372
  C  C352  1  0.422630  0.384970  0.496270  1.0  -0.0554
  C  C353  1  0.399930  0.399470  0.399270  1.0  -0.0577
  C  C354  1  0.424130  0.438670  0.315770  1.0  0.152
  C  C355  1  0.350530  0.371370  0.380370  1.0  0.2299
  C  C356  1  0.323330  0.393370  0.367770  1.0  -0.0419
  C  C357  1  0.333930  0.432370  0.447970  1.0  -0.1458
  C  C358  1  0.304130  0.447670  0.439270  1.0  -0.1592
  C  C359  1  0.266830  0.426370  0.346770  1.0  0.1117
  C  C360  1  0.283530  0.372570  0.280070  1.0  0.161
  N  N361  1  0.796500  0.661400  0.345000  1.0  -0.3218
  N  N362  1  0.721800  0.799100  0.398000  1.0  -0.2988
  N  N363  1  0.338600  0.135100  0.345000  1.0  -0.3216
  N  N364  1  0.200900  0.922700  0.398000  1.0  -0.2951
  N  N365  1  0.864900  0.203500  0.345000  1.0  -0.3203
  N  N366  1  0.077300  0.278200  0.398000  1.0  -0.2989
  N  N367  1  0.203500  0.338600  0.655000  1.0  -0.3245
  N  N368  1  0.278200  0.200900  0.602000  1.0  -0.3012
  N  N369  1  0.661400  0.864900  0.655000  1.0  -0.3231
  N  N370  1  0.799100  0.077300  0.602000  1.0  -0.2964
  N  N371  1  0.135100  0.796500  0.655000  1.0  -0.3192
  N  N372  1  0.922700  0.721800  0.602000  1.0  -0.301
  N  N373  1  0.463170  0.994730  0.678330  1.0  -0.3217
  N  N374  1  0.388470  0.132430  0.731330  1.0  -0.2988
  N  N375  1  0.005270  0.468430  0.678330  1.0  -0.3215
  N  N376  1  0.867570  0.256030  0.731330  1.0  -0.2951
  N  N377  1  0.531570  0.536830  0.678330  1.0  -0.3203
  N  N378  1  0.743970  0.611530  0.731330  1.0  -0.2989
  N  N379  1  0.870170  0.671930  0.988330  1.0  -0.3245
  N  N380  1  0.944870  0.534230  0.935330  1.0  -0.3007
  N  N381  1  0.328070  0.198230  0.988330  1.0  -0.3231
  N  N382  1  0.465770  0.410630  0.935330  1.0  -0.2962
  N  N383  1  0.801770  0.129830  0.988330  1.0  -0.3192
  N  N384  1  0.589370  0.055130  0.935330  1.0  -0.3021
  N  N385  1  0.129830  0.328070  0.011670  1.0  -0.3218
  N  N386  1  0.055130  0.465770  0.064670  1.0  -0.2986
  N  N387  1  0.671930  0.801770  0.011670  1.0  -0.3216
  N  N388  1  0.534230  0.589370  0.064670  1.0  -0.295
  N  N389  1  0.198230  0.870170  0.011670  1.0  -0.3203
  N  N390  1  0.410630  0.944870  0.064670  1.0  -0.2998
  N  N391  1  0.536830  0.005270  0.321670  1.0  -0.3243
  N  N392  1  0.611530  0.867570  0.268670  1.0  -0.3012
  N  N393  1  0.994730  0.531570  0.321670  1.0  -0.3231
  N  N394  1  0.132430  0.743970  0.268670  1.0  -0.2964
  N  N395  1  0.468430  0.463170  0.321670  1.0  -0.3192
  N  N396  1  0.256030  0.388470  0.268670  1.0  -0.301
  O  O397  1  0.664500  0.664600  0.285800  1.0  -0.473
  O  O398  1  0.335400  0.999900  0.285800  1.0  -0.4727
  O  O399  1  0.000100  0.335500  0.285800  1.0  -0.4727
  O  O400  1  0.335500  0.335400  0.714200  1.0  -0.4731
  O  O401  1  0.664600  0.000100  0.714200  1.0  -0.4728
  O  O402  1  0.999900  0.664500  0.714200  1.0  -0.4721
  O  O403  1  0.331170  0.997930  0.619130  1.0  -0.473
  O  O404  1  0.002070  0.333230  0.619130  1.0  -0.4727
  O  O405  1  0.666770  0.668830  0.619130  1.0  -0.4727
  O  O406  1  0.002170  0.668730  0.047530  1.0  -0.4732
  O  O407  1  0.331270  0.333430  0.047530  1.0  -0.4728
  O  O408  1  0.666570  0.997830  0.047530  1.0  -0.4721
  O  O409  1  0.997830  0.331270  0.952470  1.0  -0.473
  O  O410  1  0.668730  0.666570  0.952470  1.0  -0.4727
  O  O411  1  0.333430  0.002170  0.952470  1.0  -0.4727
  O  O412  1  0.668830  0.002070  0.380870  1.0  -0.4731
  O  O413  1  0.997930  0.666770  0.380870  1.0  -0.4728
  O  O414  1  0.333230  0.331170  0.380870  1.0  -0.4721
