# generated using pymatgen
data_AgH8C14N2O3F5
_symmetry_space_group_name_H-M   'P 1'
_cell_length_a   34.56500000
_cell_length_b   34.56500000
_cell_length_c   8.33370000
_cell_angle_alpha   90.00000000
_cell_angle_beta   90.00000000
_cell_angle_gamma   120.00000000
_symmetry_Int_Tables_number   1
_chemical_formula_structural   AgH8C14N2O3F5
_chemical_formula_sum   'Ag18 H144 C252 N36 O54 F90'
_cell_volume   8622.66704522
_cell_formula_units_Z   18
loop_
 _symmetry_equiv_pos_site_id
 _symmetry_equiv_pos_as_xyz
  1  'x, y, z'
loop_
 _atom_site_type_symbol
 _atom_site_label
 _atom_site_symmetry_multiplicity
 _atom_site_fract_x
 _atom_site_fract_y
 _atom_site_fract_z
 _atom_site_occupancy
 _atom_site_charge
  Ag  Ag1  1  0.322850  0.140430  0.497540  1.0  0.5123
  Ag  Ag2  1  0.989520  0.473760  0.830870  1.0  0.5124
  Ag  Ag3  1  0.656180  0.807100  0.164210  1.0  0.5125
  Ag  Ag4  1  0.859570  0.182420  0.497540  1.0  0.5126
  Ag  Ag5  1  0.526240  0.515750  0.830870  1.0  0.5124
  Ag  Ag6  1  0.192900  0.849090  0.164210  1.0  0.5126
  Ag  Ag7  1  0.817580  0.677150  0.497540  1.0  0.5119
  Ag  Ag8  1  0.484250  0.010480  0.830870  1.0  0.512
  Ag  Ag9  1  0.150910  0.343820  0.164210  1.0  0.5119
  Ag  Ag10  1  0.677150  0.859570  0.502460  1.0  0.513
  Ag  Ag11  1  0.343820  0.192900  0.835790  1.0  0.513
  Ag  Ag12  1  0.010480  0.526240  0.169130  1.0  0.5131
  Ag  Ag13  1  0.140430  0.817580  0.502460  1.0  0.5132
  Ag  Ag14  1  0.807100  0.150910  0.835790  1.0  0.5132
  Ag  Ag15  1  0.473760  0.484250  0.169130  1.0  0.513
  Ag  Ag16  1  0.182420  0.322850  0.502460  1.0  0.5125
  Ag  Ag17  1  0.849090  0.656180  0.835790  1.0  0.5125
  Ag  Ag18  1  0.515750  0.989520  0.169130  1.0  0.5125
  H  H19  1  0.298900  0.215900  0.426500  1.0  0.1143
  H  H20  1  0.054970  0.639630  0.455230  1.0  0.1295
  H  H21  1  0.752530  0.927270  0.757670  1.0  0.1364
  H  H22  1  0.392000  0.196400  0.241400  1.0  0.0927
  H  H23  1  0.272400  0.324100  0.441900  1.0  0.0987
  H  H24  1  0.919570  0.552930  0.504730  1.0  0.1421
  H  H25  1  0.843570  0.528130  0.511330  1.0  0.1308
  H  H26  1  0.151000  0.234100  0.320700  1.0  0.0942
  H  H27  1  0.965570  0.549230  0.759830  1.0  0.1144
  H  H28  1  0.721630  0.972970  0.788570  1.0  0.1295
  H  H29  1  0.419200  0.260600  0.091000  1.0  0.1363
  H  H30  1  0.058670  0.529730  0.574730  1.0  0.0928
  H  H31  1  0.939070  0.657430  0.775230  1.0  0.0986
  H  H32  1  0.586230  0.886270  0.838070  1.0  0.1421
  H  H33  1  0.510230  0.861470  0.844670  1.0  0.1307
  H  H34  1  0.817670  0.567430  0.654030  1.0  0.0942
  H  H35  1  0.632230  0.882570  0.093170  1.0  0.1143
  H  H36  1  0.388300  0.306300  0.121900  1.0  0.1296
  H  H37  1  0.085870  0.593930  0.424330  1.0  0.1367
  H  H38  1  0.725330  0.863070  0.908070  1.0  0.0927
  H  H39  1  0.605730  0.990770  0.108570  1.0  0.0998
  H  H40  1  0.252900  0.219600  0.171400  1.0  0.1421
  H  H41  1  0.176900  0.194800  0.178000  1.0  0.1314
  H  H42  1  0.484330  0.900770  0.987370  1.0  0.094
  H  H43  1  0.784100  0.083000  0.426500  1.0  0.115
  H  H44  1  0.360370  0.415330  0.455230  1.0  0.129
  H  H45  1  0.072730  0.825270  0.757670  1.0  0.1353
  H  H46  1  0.803600  0.195600  0.241400  1.0  0.0864
  H  H47  1  0.675900  0.948300  0.441900  1.0  0.0985
  H  H48  1  0.447070  0.366630  0.504730  1.0  0.1429
  H  H49  1  0.471870  0.315430  0.511330  1.0  0.1314
  H  H50  1  0.765900  0.916900  0.320700  1.0  0.0946
  H  H51  1  0.450770  0.416330  0.759830  1.0  0.115
  H  H52  1  0.027030  0.748670  0.788570  1.0  0.129
  H  H53  1  0.739400  0.158600  0.091000  1.0  0.1353
  H  H54  1  0.470270  0.528930  0.574730  1.0  0.0864
  H  H55  1  0.342570  0.281630  0.775230  1.0  0.0986
  H  H56  1  0.113730  0.699970  0.838070  1.0  0.1429
  H  H57  1  0.138530  0.648770  0.844670  1.0  0.1314
  H  H58  1  0.432570  0.250230  0.654030  1.0  0.0946
  H  H59  1  0.117430  0.749670  0.093170  1.0  0.115
  H  H60  1  0.693700  0.082000  0.121900  1.0  0.129
  H  H61  1  0.406070  0.491930  0.424330  1.0  0.1356
  H  H62  1  0.136930  0.862270  0.908070  1.0  0.0864
  H  H63  1  0.009230  0.614970  0.108570  1.0  0.0985
  H  H64  1  0.780400  0.033300  0.171400  1.0  0.1429
  H  H65  1  0.805200  0.982100  0.178000  1.0  0.132
  H  H66  1  0.099230  0.583570  0.987370  1.0  0.0946
  H  H67  1  0.917000  0.701100  0.426500  1.0  0.1147
  H  H68  1  0.584670  0.945030  0.455230  1.0  0.1298
  H  H69  1  0.174730  0.247470  0.757670  1.0  0.1354
  H  H70  1  0.804400  0.608000  0.241400  1.0  0.0915
  H  H71  1  0.051700  0.727600  0.441900  1.0  0.099
  H  H72  1  0.633370  0.080430  0.504730  1.0  0.1416
  H  H73  1  0.684570  0.156430  0.511330  1.0  0.1313
  H  H74  1  0.083100  0.849000  0.320700  1.0  0.0939
  H  H75  1  0.583670  0.034430  0.759830  1.0  0.1147
  H  H76  1  0.251330  0.278370  0.788570  1.0  0.1297
  H  H77  1  0.841400  0.580800  0.091000  1.0  0.1353
  H  H78  1  0.471070  0.941330  0.574730  1.0  0.0914
  H  H79  1  0.718370  0.060930  0.775230  1.0  0.0991
  H  H80  1  0.300030  0.413770  0.838070  1.0  0.1416
  H  H81  1  0.351230  0.489770  0.844670  1.0  0.1313
  H  H82  1  0.749770  0.182330  0.654030  1.0  0.0938
  H  H83  1  0.250330  0.367770  0.093170  1.0  0.1147
  H  H84  1  0.918000  0.611700  0.121900  1.0  0.1297
  H  H85  1  0.508070  0.914130  0.424330  1.0  0.1357
  H  H86  1  0.137730  0.274670  0.908070  1.0  0.0915
  H  H87  1  0.385030  0.394270  0.108570  1.0  0.0991
  H  H88  1  0.966700  0.747100  0.171400  1.0  0.1416
  H  H89  1  0.017900  0.823100  0.178000  1.0  0.1319
  H  H90  1  0.416430  0.515670  0.987370  1.0  0.0939
  H  H91  1  0.701100  0.784100  0.573500  1.0  0.1141
  H  H92  1  0.945030  0.360370  0.544770  1.0  0.1295
  H  H93  1  0.247470  0.072730  0.242330  1.0  0.1358
  H  H94  1  0.608000  0.803600  0.758600  1.0  0.0923
  H  H95  1  0.727600  0.675900  0.558100  1.0  0.0988
  H  H96  1  0.080430  0.447070  0.495270  1.0  0.1415
  H  H97  1  0.156430  0.471870  0.488670  1.0  0.1314
  H  H98  1  0.849000  0.765900  0.679300  1.0  0.094
  H  H99  1  0.367770  0.117430  0.906830  1.0  0.1142
  H  H100  1  0.611700  0.693700  0.878100  1.0  0.1296
  H  H101  1  0.914130  0.406070  0.575670  1.0  0.1362
  H  H102  1  0.274670  0.136930  0.091930  1.0  0.0923
  H  H103  1  0.394270  0.009230  0.891430  1.0  0.1
  H  H104  1  0.747100  0.780400  0.828600  1.0  0.1414
  H  H105  1  0.823100  0.805200  0.822000  1.0  0.1319
  H  H106  1  0.515670  0.099230  0.012630  1.0  0.0939
  H  H107  1  0.034430  0.450770  0.240170  1.0  0.1142
  H  H108  1  0.278370  0.027030  0.211430  1.0  0.1296
  H  H109  1  0.580800  0.739400  0.909000  1.0  0.1358
  H  H110  1  0.941330  0.470270  0.425270  1.0  0.0924
  H  H111  1  0.060930  0.342570  0.224770  1.0  0.0987
  H  H112  1  0.413770  0.113730  0.161930  1.0  0.1414
  H  H113  1  0.489770  0.138530  0.155330  1.0  0.1319
  H  H114  1  0.182330  0.432570  0.345970  1.0  0.0941
  H  H115  1  0.215900  0.917000  0.573500  1.0  0.1147
  H  H116  1  0.639630  0.584670  0.544770  1.0  0.1289
  H  H117  1  0.927270  0.174730  0.242330  1.0  0.1358
  H  H118  1  0.196400  0.804400  0.758600  1.0  0.0901
  H  H119  1  0.324100  0.051700  0.558100  1.0  0.0984
  H  H120  1  0.552930  0.633370  0.495270  1.0  0.1434
  H  H121  1  0.528130  0.684570  0.488670  1.0  0.1309
  H  H122  1  0.234100  0.083100  0.679300  1.0  0.094
  H  H123  1  0.882570  0.250330  0.906830  1.0  0.1147
  H  H124  1  0.306300  0.918000  0.878100  1.0  0.1289
  H  H125  1  0.593930  0.508070  0.575670  1.0  0.1362
  H  H126  1  0.863070  0.137730  0.091930  1.0  0.0901
  H  H127  1  0.990770  0.385030  0.891430  1.0  0.0984
  H  H128  1  0.219600  0.966700  0.828600  1.0  0.1434
  H  H129  1  0.194800  0.017900  0.822000  1.0  0.1316
  H  H130  1  0.900770  0.416430  0.012630  1.0  0.0939
  H  H131  1  0.549230  0.583670  0.240170  1.0  0.1147
  H  H132  1  0.972970  0.251330  0.211430  1.0  0.1288
  H  H133  1  0.260600  0.841400  0.909000  1.0  0.1358
  H  H134  1  0.529730  0.471070  0.425270  1.0  0.0901
  H  H135  1  0.657430  0.718370  0.224770  1.0  0.0985
  H  H136  1  0.886270  0.300030  0.161930  1.0  0.1434
  H  H137  1  0.861470  0.351230  0.155330  1.0  0.1317
  H  H138  1  0.567430  0.749770  0.345970  1.0  0.094
  H  H139  1  0.083000  0.298900  0.573500  1.0  0.114
  H  H140  1  0.415330  0.054970  0.544770  1.0  0.1294
  H  H141  1  0.825270  0.752530  0.242330  1.0  0.1352
  H  H142  1  0.195600  0.392000  0.758600  1.0  0.0907
  H  H143  1  0.948300  0.272400  0.558100  1.0  0.0987
  H  H144  1  0.366630  0.919570  0.495270  1.0  0.1417
  H  H145  1  0.315430  0.843570  0.488670  1.0  0.1315
  H  H146  1  0.916900  0.151000  0.679300  1.0  0.0941
  H  H147  1  0.749670  0.632230  0.906830  1.0  0.114
  H  H148  1  0.082000  0.388300  0.878100  1.0  0.1294
  H  H149  1  0.491930  0.085870  0.575670  1.0  0.1357
  H  H150  1  0.862270  0.725330  0.091930  1.0  0.0907
  H  H151  1  0.614970  0.605730  0.891430  1.0  0.0988
  H  H152  1  0.033300  0.252900  0.828600  1.0  0.1417
  H  H153  1  0.982100  0.176900  0.822000  1.0  0.132
  H  H154  1  0.583570  0.484330  0.012630  1.0  0.0941
  H  H155  1  0.416330  0.965570  0.240170  1.0  0.1141
  H  H156  1  0.748670  0.721630  0.211430  1.0  0.1294
  H  H157  1  0.158600  0.419200  0.909000  1.0  0.1353
  H  H158  1  0.528930  0.058670  0.425270  1.0  0.0907
  H  H159  1  0.281630  0.939070  0.224770  1.0  0.0988
  H  H160  1  0.699970  0.586230  0.161930  1.0  0.1417
  H  H161  1  0.648770  0.510230  0.155330  1.0  0.132
  H  H162  1  0.250230  0.817670  0.345970  1.0  0.094
  C  C163  1  0.324000  0.225700  0.361700  1.0  0.1707
  C  C164  1  0.339940  0.265550  0.278000  1.0  -0.0384
  C  C165  1  0.043270  0.612730  0.510730  1.0  -0.0098
  C  C166  1  0.062170  0.586030  0.494630  1.0  -0.1112
  C  C167  1  0.378700  0.213900  0.251000  1.0  0.1795
  C  C168  1  0.320100  0.295150  0.301500  1.0  0.3158
  C  C169  1  0.253000  0.297700  0.388900  1.0  0.2165
  C  C170  1  0.270900  0.274900  0.308400  1.0  -0.0528
  C  C171  1  0.908670  0.568830  0.560430  1.0  -0.075
  C  C172  1  0.196900  0.220800  0.231700  1.0  -0.0782
  C  C173  1  0.181600  0.244900  0.316600  1.0  0.194
  C  C174  1  0.416200  0.157400  0.549700  1.0  0.7029
  C  C175  1  0.796930  0.842170  0.207570  1.0  0.2488
  C  C176  1  0.814130  0.838670  0.370970  1.0  0.3122
  C  C177  1  0.990670  0.559030  0.695030  1.0  0.1707
  C  C178  1  0.006610  0.598880  0.611330  1.0  -0.0385
  C  C179  1  0.709930  0.946070  0.844070  1.0  -0.0098
  C  C180  1  0.728830  0.919370  0.827970  1.0  -0.1148
  C  C181  1  0.045370  0.547230  0.584330  1.0  0.1772
  C  C182  1  0.986770  0.628480  0.634830  1.0  0.3203
  C  C183  1  0.919670  0.631030  0.722230  1.0  0.2188
  C  C184  1  0.937570  0.608230  0.641730  1.0  -0.0527
  C  C185  1  0.575330  0.902170  0.893770  1.0  -0.075
  C  C186  1  0.863570  0.554130  0.565030  1.0  -0.0782
  C  C187  1  0.848270  0.578230  0.649930  1.0  0.192
  C  C188  1  0.082870  0.490730  0.883030  1.0  0.7028
  C  C189  1  0.463600  0.175500  0.540900  1.0  0.2488
  C  C190  1  0.480800  0.172000  0.704300  1.0  0.3119
  C  C191  1  0.657330  0.892370  0.028370  1.0  0.1707
  C  C192  1  0.673270  0.932220  0.944670  1.0  -0.0384
  C  C193  1  0.376600  0.279400  0.177400  1.0  -0.0101
  C  C194  1  0.395500  0.252700  0.161300  1.0  -0.1256
  C  C195  1  0.712030  0.880570  0.917670  1.0  0.1774
  C  C196  1  0.653430  0.961820  0.968170  1.0  0.3203
  C  C197  1  0.586330  0.964370  0.055570  1.0  0.2188
  C  C198  1  0.604230  0.941570  0.975070  1.0  -0.0527
  C  C199  1  0.242000  0.235500  0.227100  1.0  -0.075
  C  C200  1  0.530230  0.887470  0.898370  1.0  -0.0782
  C  C201  1  0.514930  0.911570  0.983270  1.0  0.192
  C  C202  1  0.749530  0.824070  0.216370  1.0  0.7025
  C  C203  1  0.130270  0.508830  0.874230  1.0  0.2488
  C  C204  1  0.147470  0.505330  0.037630  1.0  0.3118
  C  C205  1  0.774300  0.098300  0.361700  1.0  0.1703
  C  C206  1  0.734450  0.074390  0.278000  1.0  -0.0371
  C  C207  1  0.387270  0.430530  0.510730  1.0  -0.0078
  C  C208  1  0.413970  0.476130  0.494630  1.0  -0.1084
  C  C209  1  0.786100  0.164800  0.251000  1.0  0.1785
  C  C210  1  0.704850  0.024950  0.301500  1.0  0.3139
  C  C211  1  0.702300  0.955300  0.388900  1.0  0.2171
  C  C212  1  0.725100  0.996000  0.308400  1.0  -0.0555
  C  C213  1  0.431170  0.339830  0.560430  1.0  -0.071
  C  C214  1  0.779200  0.976100  0.231700  1.0  -0.0797
  C  C215  1  0.755100  0.936700  0.316600  1.0  0.1998
  C  C216  1  0.842600  0.258800  0.549700  1.0  0.7065
  C  C217  1  0.157830  0.954770  0.207570  1.0  0.2496
  C  C218  1  0.161330  0.975470  0.370970  1.0  0.313
  C  C219  1  0.440970  0.431630  0.695030  1.0  0.1703
  C  C220  1  0.401120  0.407720  0.611330  1.0  -0.0371
  C  C221  1  0.053930  0.763870  0.844070  1.0  -0.0078
  C  C222  1  0.080630  0.809470  0.827970  1.0  -0.1118
  C  C223  1  0.452770  0.498130  0.584330  1.0  0.1761
  C  C224  1  0.371520  0.358280  0.634830  1.0  0.3183
  C  C225  1  0.368970  0.288630  0.722230  1.0  0.2193
  C  C226  1  0.391770  0.329330  0.641730  1.0  -0.0556
  C  C227  1  0.097830  0.673170  0.893770  1.0  -0.071
  C  C228  1  0.445870  0.309430  0.565030  1.0  -0.0797
  C  C229  1  0.421770  0.270030  0.649930  1.0  0.1981
  C  C230  1  0.509270  0.592130  0.883030  1.0  0.7065
  C  C231  1  0.824500  0.288100  0.540900  1.0  0.2496
  C  C232  1  0.828000  0.308800  0.704300  1.0  0.3129
  C  C233  1  0.107630  0.764970  0.028370  1.0  0.1703
  C  C234  1  0.067780  0.741060  0.944670  1.0  -0.0371
  C  C235  1  0.720600  0.097200  0.177400  1.0  -0.0083
  C  C236  1  0.747300  0.142800  0.161300  1.0  -0.1222
  C  C237  1  0.119430  0.831470  0.917670  1.0  0.1762
  C  C238  1  0.038180  0.691620  0.968170  1.0  0.3183
  C  C239  1  0.035630  0.621970  0.055570  1.0  0.2193
  C  C240  1  0.058430  0.662670  0.975070  1.0  -0.0556
  C  C241  1  0.764500  0.006500  0.227100  1.0  -0.071
  C  C242  1  0.112530  0.642770  0.898370  1.0  -0.0798
  C  C243  1  0.088430  0.603370  0.983270  1.0  0.1981
  C  C244  1  0.175930  0.925470  0.216370  1.0  0.7064
  C  C245  1  0.491170  0.621430  0.874230  1.0  0.2497
  C  C246  1  0.494670  0.642130  0.037630  1.0  0.3127
  C  C247  1  0.901700  0.676000  0.361700  1.0  0.1723
  C  C248  1  0.925610  0.660060  0.278000  1.0  -0.0391
  C  C249  1  0.569470  0.956730  0.510730  1.0  -0.0124
  C  C250  1  0.523870  0.937830  0.494630  1.0  -0.1076
  C  C251  1  0.835200  0.621300  0.251000  1.0  0.1775
  C  C252  1  0.975050  0.679900  0.301500  1.0  0.314
  C  C253  1  0.044700  0.747000  0.388900  1.0  0.2168
  C  C254  1  0.004000  0.729100  0.308400  1.0  -0.052
  C  C255  1  0.660170  0.091330  0.560430  1.0  -0.0726
  C  C256  1  0.023900  0.803100  0.231700  1.0  -0.0775
  C  C257  1  0.063300  0.818400  0.316600  1.0  0.1952
  C  C258  1  0.741200  0.583800  0.549700  1.0  0.706
  C  C259  1  0.045230  0.203070  0.207570  1.0  0.2494
  C  C260  1  0.024530  0.185870  0.370970  1.0  0.3137
  C  C261  1  0.568370  0.009330  0.695030  1.0  0.1723
  C  C262  1  0.592280  0.993390  0.611330  1.0  -0.039
  C  C263  1  0.236130  0.290070  0.844070  1.0  -0.0122
  C  C264  1  0.190530  0.271170  0.827970  1.0  -0.1112
  C  C265  1  0.501870  0.954630  0.584330  1.0  0.1748
  C  C266  1  0.641720  0.013230  0.634830  1.0  0.3184
  C  C267  1  0.711370  0.080330  0.722230  1.0  0.2192
  C  C268  1  0.670670  0.062430  0.641730  1.0  -0.0521
  C  C269  1  0.326830  0.424670  0.893770  1.0  -0.0726
  C  C270  1  0.690570  0.136430  0.565030  1.0  -0.0775
  C  C271  1  0.729970  0.151730  0.649930  1.0  0.1936
  C  C272  1  0.407870  0.917130  0.883030  1.0  0.706
  C  C273  1  0.711900  0.536400  0.540900  1.0  0.2494
  C  C274  1  0.691200  0.519200  0.704300  1.0  0.3137
  C  C275  1  0.235030  0.342670  0.028370  1.0  0.1723
  C  C276  1  0.258940  0.326730  0.944670  1.0  -0.0391
  C  C277  1  0.902800  0.623400  0.177400  1.0  -0.0128
  C  C278  1  0.857200  0.604500  0.161300  1.0  -0.1224
  C  C279  1  0.168530  0.287970  0.917670  1.0  0.1749
  C  C280  1  0.308380  0.346570  0.968170  1.0  0.3183
  C  C281  1  0.378030  0.413670  0.055570  1.0  0.2191
  C  C282  1  0.337330  0.395770  0.975070  1.0  -0.0521
  C  C283  1  0.993500  0.758000  0.227100  1.0  -0.0726
  C  C284  1  0.357230  0.469770  0.898370  1.0  -0.0775
  C  C285  1  0.396630  0.485070  0.983270  1.0  0.1937
  C  C286  1  0.074530  0.250470  0.216370  1.0  0.7057
  C  C287  1  0.378570  0.869730  0.874230  1.0  0.2493
  C  C288  1  0.357870  0.852530  0.037630  1.0  0.314
  C  C289  1  0.676000  0.774300  0.638300  1.0  0.1703
  C  C290  1  0.660060  0.734450  0.722000  1.0  -0.0372
  C  C291  1  0.956730  0.387270  0.489270  1.0  -0.0113
  C  C292  1  0.937830  0.413970  0.505370  1.0  -0.1155
  C  C293  1  0.621300  0.786100  0.749000  1.0  0.1803
  C  C294  1  0.679900  0.704850  0.698500  1.0  0.3161
  C  C295  1  0.747000  0.702300  0.611100  1.0  0.2165
  C  C296  1  0.729100  0.725100  0.691600  1.0  -0.0541
  C  C297  1  0.091330  0.431170  0.439570  1.0  -0.0776
  C  C298  1  0.803100  0.779200  0.768300  1.0  -0.0757
  C  C299  1  0.818400  0.755100  0.683400  1.0  0.1941
  C  C300  1  0.583800  0.842600  0.450300  1.0  0.7042
  C  C301  1  0.203070  0.157830  0.792430  1.0  0.2472
  C  C302  1  0.185870  0.161330  0.629030  1.0  0.3144
  C  C303  1  0.342670  0.107630  0.971630  1.0  0.1703
  C  C304  1  0.326730  0.067780  0.055330  1.0  -0.0372
  C  C305  1  0.623400  0.720600  0.822600  1.0  -0.0114
  C  C306  1  0.604500  0.747300  0.838700  1.0  -0.1155
  C  C307  1  0.287970  0.119430  0.082330  1.0  0.1786
  C  C308  1  0.346570  0.038180  0.031830  1.0  0.3161
  C  C309  1  0.413670  0.035630  0.944430  1.0  0.2165
  C  C310  1  0.395770  0.058430  0.024930  1.0  -0.0539
  C  C311  1  0.758000  0.764500  0.772900  1.0  -0.0776
  C  C312  1  0.469770  0.112530  0.101630  1.0  -0.0757
  C  C313  1  0.485070  0.088430  0.016730  1.0  0.1939
  C  C314  1  0.250470  0.175930  0.783630  1.0  0.704
  C  C315  1  0.869730  0.491170  0.125770  1.0  0.2472
  C  C316  1  0.852530  0.494670  0.962370  1.0  0.3141
  C  C317  1  0.009330  0.440970  0.304970  1.0  0.1703
  C  C318  1  0.993390  0.401120  0.388670  1.0  -0.0373
  C  C319  1  0.290070  0.053930  0.155930  1.0  -0.0115
  C  C320  1  0.271170  0.080630  0.172030  1.0  -0.12
  C  C321  1  0.954630  0.452770  0.415670  1.0  0.1778
  C  C322  1  0.013230  0.371520  0.365170  1.0  0.3206
  C  C323  1  0.080330  0.368970  0.277770  1.0  0.2189
  C  C324  1  0.062430  0.391770  0.358270  1.0  -0.0539
  C  C325  1  0.424670  0.097830  0.106230  1.0  -0.0776
  C  C326  1  0.136430  0.445870  0.434970  1.0  -0.0756
  C  C327  1  0.151730  0.421770  0.350070  1.0  0.192
  C  C328  1  0.917130  0.509270  0.116970  1.0  0.7039
  C  C329  1  0.536400  0.824500  0.459100  1.0  0.2472
  C  C330  1  0.519200  0.828000  0.295700  1.0  0.3142
  C  C331  1  0.225700  0.901700  0.638300  1.0  0.1706
  C  C332  1  0.265550  0.925610  0.722000  1.0  -0.0368
  C  C333  1  0.612730  0.569470  0.489270  1.0  -0.0105
  C  C334  1  0.586030  0.523870  0.505370  1.0  -0.1118
  C  C335  1  0.213900  0.835200  0.749000  1.0  0.1777
  C  C336  1  0.295150  0.975050  0.698500  1.0  0.3145
  C  C337  1  0.297700  0.044700  0.611100  1.0  0.2168
  C  C338  1  0.274900  0.004000  0.691600  1.0  -0.0552
  C  C339  1  0.568830  0.660170  0.439570  1.0  -0.0714
  C  C340  1  0.220800  0.023900  0.768300  1.0  -0.0827
  C  C341  1  0.244900  0.063300  0.683400  1.0  0.199
  C  C342  1  0.157400  0.741200  0.450300  1.0  0.7063
  C  C343  1  0.842170  0.045230  0.792430  1.0  0.2465
  C  C344  1  0.838670  0.024530  0.629030  1.0  0.3129
  C  C345  1  0.892370  0.235030  0.971630  1.0  0.1706
  C  C346  1  0.932220  0.258940  0.055330  1.0  -0.0368
  C  C347  1  0.279400  0.902800  0.822600  1.0  -0.0109
  C  C348  1  0.252700  0.857200  0.838700  1.0  -0.1118
  C  C349  1  0.880570  0.168530  0.082330  1.0  0.1761
  C  C350  1  0.961820  0.308380  0.031830  1.0  0.3145
  C  C351  1  0.964370  0.378030  0.944430  1.0  0.2168
  C  C352  1  0.941570  0.337330  0.024930  1.0  -0.0553
  C  C353  1  0.235500  0.993500  0.772900  1.0  -0.0714
  C  C354  1  0.887470  0.357230  0.101630  1.0  -0.0827
  C  C355  1  0.911570  0.396630  0.016730  1.0  0.199
  C  C356  1  0.824070  0.074530  0.783630  1.0  0.7061
  C  C357  1  0.508830  0.378570  0.125770  1.0  0.2466
  C  C358  1  0.505330  0.357870  0.962370  1.0  0.3127
  C  C359  1  0.559030  0.568370  0.304970  1.0  0.1705
  C  C360  1  0.598880  0.592280  0.388670  1.0  -0.0368
  C  C361  1  0.946070  0.236130  0.155930  1.0  -0.0109
  C  C362  1  0.919370  0.190530  0.172030  1.0  -0.1162
  C  C363  1  0.547230  0.501870  0.415670  1.0  0.1752
  C  C364  1  0.628480  0.641720  0.365170  1.0  0.3188
  C  C365  1  0.631030  0.711370  0.277770  1.0  0.2191
  C  C366  1  0.608230  0.670670  0.358270  1.0  -0.0553
  C  C367  1  0.902170  0.326830  0.106230  1.0  -0.0714
  C  C368  1  0.554130  0.690570  0.434970  1.0  -0.0828
  C  C369  1  0.578230  0.729970  0.350070  1.0  0.1972
  C  C370  1  0.490730  0.407870  0.116970  1.0  0.7061
  C  C371  1  0.175500  0.711900  0.459100  1.0  0.2465
  C  C372  1  0.172000  0.691200  0.295700  1.0  0.3129
  C  C373  1  0.098300  0.324000  0.638300  1.0  0.1733
  C  C374  1  0.074390  0.339940  0.722000  1.0  -0.0382
  C  C375  1  0.430530  0.043270  0.489270  1.0  -0.0109
  C  C376  1  0.476130  0.062170  0.505370  1.0  -0.109
  C  C377  1  0.164800  0.378700  0.749000  1.0  0.1775
  C  C378  1  0.024950  0.320100  0.698500  1.0  0.3136
  C  C379  1  0.955300  0.253000  0.611100  1.0  0.217
  C  C380  1  0.996000  0.270900  0.691600  1.0  -0.052
  C  C381  1  0.339830  0.908670  0.439570  1.0  -0.0735
  C  C382  1  0.976100  0.196900  0.768300  1.0  -0.0782
  C  C383  1  0.936700  0.181600  0.683400  1.0  0.1931
  C  C384  1  0.258800  0.416200  0.450300  1.0  0.7066
  C  C385  1  0.954770  0.796930  0.792430  1.0  0.2449
  C  C386  1  0.975470  0.814130  0.629030  1.0  0.3148
  C  C387  1  0.764970  0.657330  0.971630  1.0  0.1733
  C  C388  1  0.741060  0.673270  0.055330  1.0  -0.0382
  C  C389  1  0.097200  0.376600  0.822600  1.0  -0.0113
  C  C390  1  0.142800  0.395500  0.838700  1.0  -0.109
  C  C391  1  0.831470  0.712030  0.082330  1.0  0.1758
  C  C392  1  0.691620  0.653430  0.031830  1.0  0.3135
  C  C393  1  0.621970  0.586330  0.944430  1.0  0.217
  C  C394  1  0.662670  0.604230  0.024930  1.0  -0.0521
  C  C395  1  0.006500  0.242000  0.772900  1.0  -0.0735
  C  C396  1  0.642770  0.530230  0.101630  1.0  -0.0782
  C  C397  1  0.603370  0.514930  0.016730  1.0  0.1932
  C  C398  1  0.925470  0.749530  0.783630  1.0  0.7064
  C  C399  1  0.621430  0.130270  0.125770  1.0  0.2448
  C  C400  1  0.642130  0.147470  0.962370  1.0  0.3151
  C  C401  1  0.431630  0.990670  0.304970  1.0  0.1733
  C  C402  1  0.407720  0.006610  0.388670  1.0  -0.0382
  C  C403  1  0.763870  0.709930  0.155930  1.0  -0.0111
  C  C404  1  0.809470  0.728830  0.172030  1.0  -0.1134
  C  C405  1  0.498130  0.045370  0.415670  1.0  0.1752
  C  C406  1  0.358280  0.986770  0.365170  1.0  0.318
  C  C407  1  0.288630  0.919670  0.277770  1.0  0.2193
  C  C408  1  0.329330  0.937570  0.358270  1.0  -0.052
  C  C409  1  0.673170  0.575330  0.106230  1.0  -0.0735
  C  C410  1  0.309430  0.863570  0.434970  1.0  -0.0783
  C  C411  1  0.270030  0.848270  0.350070  1.0  0.1915
  C  C412  1  0.592130  0.082870  0.116970  1.0  0.7064
  C  C413  1  0.288100  0.463600  0.459100  1.0  0.2449
  C  C414  1  0.308800  0.480800  0.295700  1.0  0.3148
  N  N415  1  0.344020  0.200660  0.351000  1.0  -0.3317
  N  N416  1  0.209110  0.283240  0.393300  1.0  -0.3265
  N  N417  1  0.010690  0.533990  0.684330  1.0  -0.3309
  N  N418  1  0.875780  0.616570  0.726630  1.0  -0.3267
  N  N419  1  0.677350  0.867330  0.017670  1.0  -0.3309
  N  N420  1  0.542440  0.949910  0.059970  1.0  -0.3267
  N  N421  1  0.799340  0.143360  0.351000  1.0  -0.3325
  N  N422  1  0.716760  0.925870  0.393300  1.0  -0.3222
  N  N423  1  0.466010  0.476690  0.684330  1.0  -0.3316
  N  N424  1  0.383430  0.259200  0.726630  1.0  -0.3222
  N  N425  1  0.132670  0.810030  0.017670  1.0  -0.3317
  N  N426  1  0.050090  0.592540  0.059970  1.0  -0.3221
  N  N427  1  0.856640  0.655980  0.351000  1.0  -0.3341
  N  N428  1  0.074130  0.790890  0.393300  1.0  -0.3235
  N  N429  1  0.523310  0.989310  0.684330  1.0  -0.3331
  N  N430  1  0.740800  0.124220  0.726630  1.0  -0.3235
  N  N431  1  0.189970  0.322650  0.017670  1.0  -0.3331
  N  N432  1  0.407460  0.457560  0.059970  1.0  -0.3235
  N  N433  1  0.655980  0.799340  0.649000  1.0  -0.3308
  N  N434  1  0.790890  0.716760  0.606700  1.0  -0.3243
  N  N435  1  0.322650  0.132670  0.982330  1.0  -0.3308
  N  N436  1  0.457560  0.050090  0.940030  1.0  -0.3243
  N  N437  1  0.989310  0.466010  0.315670  1.0  -0.33
  N  N438  1  0.124220  0.383430  0.273370  1.0  -0.3243
  N  N439  1  0.200660  0.856640  0.649000  1.0  -0.3341
  N  N440  1  0.283240  0.074130  0.606700  1.0  -0.3231
  N  N441  1  0.867330  0.189970  0.982330  1.0  -0.3341
  N  N442  1  0.949910  0.407460  0.940030  1.0  -0.323
  N  N443  1  0.533990  0.523310  0.315670  1.0  -0.3332
  N  N444  1  0.616570  0.740800  0.273370  1.0  -0.3231
  N  N445  1  0.143360  0.344020  0.649000  1.0  -0.3337
  N  N446  1  0.925870  0.209110  0.606700  1.0  -0.3266
  N  N447  1  0.810030  0.677350  0.982330  1.0  -0.3337
  N  N448  1  0.592540  0.542440  0.940030  1.0  -0.3266
  N  N449  1  0.476690  0.010690  0.315670  1.0  -0.3332
  N  N450  1  0.259200  0.875780  0.273370  1.0  -0.3266
  O  O451  1  0.011340  0.668800  0.645730  1.0  -0.4461
  O  O452  1  0.398000  0.139600  0.422200  1.0  -0.6031
  O  O453  1  0.731930  0.832070  0.329870  1.0  -0.6112
  O  O454  1  0.678000  0.002140  0.979070  1.0  -0.4463
  O  O455  1  0.064670  0.472930  0.755530  1.0  -0.603
  O  O456  1  0.398600  0.165400  0.663200  1.0  -0.611
  O  O457  1  0.344670  0.335470  0.312400  1.0  -0.4461
  O  O458  1  0.731330  0.806270  0.088870  1.0  -0.6031
  O  O459  1  0.065270  0.498730  0.996530  1.0  -0.6112
  O  O460  1  0.331200  0.342530  0.645730  1.0  -0.4476
  O  O461  1  0.860400  0.258400  0.422200  1.0  -0.6054
  O  O462  1  0.167930  0.899870  0.329870  1.0  -0.6147
  O  O463  1  0.997860  0.675870  0.979070  1.0  -0.4472
  O  O464  1  0.527070  0.591730  0.755530  1.0  -0.6054
  O  O465  1  0.834600  0.233200  0.663200  1.0  -0.6147
  O  O466  1  0.664530  0.009200  0.312400  1.0  -0.4472
  O  O467  1  0.193730  0.925070  0.088870  1.0  -0.6054
  O  O468  1  0.501270  0.566530  0.996530  1.0  -0.6146
  O  O469  1  0.657470  0.988660  0.645730  1.0  -0.4469
  O  O470  1  0.741600  0.602000  0.422200  1.0  -0.6056
  O  O471  1  0.100130  0.268070  0.329870  1.0  -0.613
  O  O472  1  0.324130  0.322000  0.979070  1.0  -0.447
  O  O473  1  0.408270  0.935330  0.755530  1.0  -0.6056
  O  O474  1  0.766800  0.601400  0.663200  1.0  -0.6127
  O  O475  1  0.990800  0.655330  0.312400  1.0  -0.4469
  O  O476  1  0.074930  0.268670  0.088870  1.0  -0.606
  O  O477  1  0.433470  0.934730  0.996530  1.0  -0.6129
  O  O478  1  0.988660  0.331200  0.354270  1.0  -0.446
  O  O479  1  0.602000  0.860400  0.577800  1.0  -0.6023
  O  O480  1  0.268070  0.167930  0.670130  1.0  -0.6119
  O  O481  1  0.655330  0.664530  0.687600  1.0  -0.4461
  O  O482  1  0.268670  0.193730  0.911130  1.0  -0.6023
  O  O483  1  0.934730  0.501270  0.003470  1.0  -0.6121
  O  O484  1  0.322000  0.997860  0.020930  1.0  -0.4462
  O  O485  1  0.935330  0.527070  0.244470  1.0  -0.6022
  O  O486  1  0.601400  0.834600  0.336800  1.0  -0.612
  O  O487  1  0.668800  0.657470  0.354270  1.0  -0.4474
  O  O488  1  0.139600  0.741600  0.577800  1.0  -0.605
  O  O489  1  0.832070  0.100130  0.670130  1.0  -0.6136
  O  O490  1  0.335470  0.990800  0.687600  1.0  -0.4471
  O  O491  1  0.806270  0.074930  0.911130  1.0  -0.605
  O  O492  1  0.498730  0.433470  0.003470  1.0  -0.6134
  O  O493  1  0.002140  0.324130  0.020930  1.0  -0.4471
  O  O494  1  0.472930  0.408270  0.244470  1.0  -0.605
  O  O495  1  0.165400  0.766800  0.336800  1.0  -0.6136
  O  O496  1  0.342530  0.011340  0.354270  1.0  -0.4463
  O  O497  1  0.258400  0.398000  0.577800  1.0  -0.605
  O  O498  1  0.899870  0.731930  0.670130  1.0  -0.6123
  O  O499  1  0.009200  0.344670  0.687600  1.0  -0.4463
  O  O500  1  0.925070  0.731330  0.911130  1.0  -0.605
  O  O501  1  0.566530  0.065270  0.003470  1.0  -0.6123
  O  O502  1  0.675870  0.678000  0.020930  1.0  -0.4464
  O  O503  1  0.591730  0.064670  0.244470  1.0  -0.605
  O  O504  1  0.233200  0.398600  0.336800  1.0  -0.6125
  F  F505  1  0.480200  0.155600  0.453900  1.0  -0.1802
  F  F506  1  0.831230  0.890770  0.199670  1.0  -0.3369
  F  F507  1  0.786830  0.794070  0.397970  1.0  -0.2276
  F  F508  1  0.808030  0.866270  0.481670  1.0  -0.1807
  F  F509  1  0.858630  0.855270  0.365670  1.0  -0.1846
  F  F510  1  0.146870  0.488930  0.787230  1.0  -0.18
  F  F511  1  0.497900  0.224100  0.533000  1.0  -0.3369
  F  F512  1  0.453500  0.127400  0.731300  1.0  -0.2276
  F  F513  1  0.474700  0.199600  0.815000  1.0  -0.1807
  F  F514  1  0.525300  0.188600  0.699000  1.0  -0.1846
  F  F515  1  0.813530  0.822270  0.120570  1.0  -0.1796
  F  F516  1  0.164570  0.557430  0.866330  1.0  -0.337
  F  F517  1  0.120170  0.460730  0.064630  1.0  -0.2276
  F  F518  1  0.141370  0.532930  0.148330  1.0  -0.1807
  F  F519  1  0.191970  0.521930  0.032330  1.0  -0.1846
  F  F520  1  0.844400  0.324600  0.453900  1.0  -0.1771
  F  F521  1  0.109230  0.940470  0.199670  1.0  -0.3289
  F  F522  1  0.205930  0.992770  0.397970  1.0  -0.2317
  F  F523  1  0.133730  0.941770  0.481670  1.0  -0.179
  F  F524  1  0.144730  0.003370  0.365670  1.0  -0.1842
  F  F525  1  0.511070  0.657930  0.787230  1.0  -0.1769
  F  F526  1  0.775900  0.273800  0.533000  1.0  -0.3281
  F  F527  1  0.872600  0.326100  0.731300  1.0  -0.2317
  F  F528  1  0.800400  0.275100  0.815000  1.0  -0.179
  F  F529  1  0.811400  0.336700  0.699000  1.0  -0.1837
  F  F530  1  0.177730  0.991270  0.120570  1.0  -0.177
  F  F531  1  0.442570  0.607130  0.866330  1.0  -0.3281
  F  F532  1  0.539270  0.659430  0.064630  1.0  -0.2318
  F  F533  1  0.467070  0.608430  0.148330  1.0  -0.179
  F  F534  1  0.478070  0.670030  0.032330  1.0  -0.1837
  F  F535  1  0.675400  0.519800  0.453900  1.0  -0.1806
  F  F536  1  0.059530  0.168770  0.199670  1.0  -0.3334
  F  F537  1  0.007230  0.213170  0.397970  1.0  -0.2306
  F  F538  1  0.058230  0.191970  0.481670  1.0  -0.1799
  F  F539  1  0.996630  0.141370  0.365670  1.0  -0.1835
  F  F540  1  0.342070  0.853130  0.787230  1.0  -0.1809
  F  F541  1  0.726200  0.502100  0.533000  1.0  -0.3312
  F  F542  1  0.673900  0.546500  0.731300  1.0  -0.2305
  F  F543  1  0.724900  0.525300  0.815000  1.0  -0.1798
  F  F544  1  0.663300  0.474700  0.699000  1.0  -0.1854
  F  F545  1  0.008730  0.186470  0.120570  1.0  -0.1804
  F  F546  1  0.392870  0.835430  0.866330  1.0  -0.3311
  F  F547  1  0.340570  0.879830  0.064630  1.0  -0.2306
  F  F548  1  0.391570  0.858630  0.148330  1.0  -0.18
  F  F549  1  0.329970  0.808030  0.032330  1.0  -0.1854
  F  F550  1  0.519800  0.844400  0.546100  1.0  -0.1771
  F  F551  1  0.168770  0.109230  0.800330  1.0  -0.3336
  F  F552  1  0.213170  0.205930  0.602030  1.0  -0.2302
  F  F553  1  0.191970  0.133730  0.518330  1.0  -0.1826
  F  F554  1  0.141370  0.144730  0.634330  1.0  -0.1821
  F  F555  1  0.186470  0.177730  0.879430  1.0  -0.177
  F  F556  1  0.835430  0.442570  0.133670  1.0  -0.3337
  F  F557  1  0.879830  0.539270  0.935370  1.0  -0.2303
  F  F558  1  0.858630  0.467070  0.851670  1.0  -0.1826
  F  F559  1  0.808030  0.478070  0.967670  1.0  -0.1821
  F  F560  1  0.853130  0.511070  0.212770  1.0  -0.177
  F  F561  1  0.502100  0.775900  0.467000  1.0  -0.3337
  F  F562  1  0.546500  0.872600  0.268700  1.0  -0.2303
  F  F563  1  0.525300  0.800400  0.185000  1.0  -0.1826
  F  F564  1  0.474700  0.811400  0.301000  1.0  -0.1821
  F  F565  1  0.155600  0.675400  0.546100  1.0  -0.1793
  F  F566  1  0.890770  0.059530  0.800330  1.0  -0.3285
  F  F567  1  0.794070  0.007230  0.602030  1.0  -0.2299
  F  F568  1  0.866270  0.058230  0.518330  1.0  -0.1793
  F  F569  1  0.855270  0.996630  0.634330  1.0  -0.1832
  F  F570  1  0.822270  0.008730  0.879430  1.0  -0.1793
  F  F571  1  0.557430  0.392870  0.133670  1.0  -0.3277
  F  F572  1  0.460730  0.340570  0.935370  1.0  -0.2301
  F  F573  1  0.532930  0.391570  0.851670  1.0  -0.1793
  F  F574  1  0.521930  0.329970  0.967670  1.0  -0.1809
  F  F575  1  0.488930  0.342070  0.212770  1.0  -0.1792
  F  F576  1  0.224100  0.726200  0.467000  1.0  -0.3277
  F  F577  1  0.127400  0.673900  0.268700  1.0  -0.2299
  F  F578  1  0.199600  0.724900  0.185000  1.0  -0.1793
  F  F579  1  0.188600  0.663300  0.301000  1.0  -0.1809
  F  F580  1  0.324600  0.480200  0.546100  1.0  -0.179
  F  F581  1  0.940470  0.831230  0.800330  1.0  -0.3328
  F  F582  1  0.992770  0.786830  0.602030  1.0  -0.2297
  F  F583  1  0.941770  0.808030  0.518330  1.0  -0.18
  F  F584  1  0.003370  0.858630  0.634330  1.0  -0.1862
  F  F585  1  0.991270  0.813530  0.879430  1.0  -0.1789
  F  F586  1  0.607130  0.164570  0.133670  1.0  -0.3302
  F  F587  1  0.659430  0.120170  0.935370  1.0  -0.2297
  F  F588  1  0.608430  0.141370  0.851670  1.0  -0.1801
  F  F589  1  0.670030  0.191970  0.967670  1.0  -0.1885
  F  F590  1  0.657930  0.146870  0.212770  1.0  -0.1791
  F  F591  1  0.273800  0.497900  0.467000  1.0  -0.3302
  F  F592  1  0.326100  0.453500  0.268700  1.0  -0.2296
  F  F593  1  0.275100  0.474700  0.185000  1.0  -0.18
  F  F594  1  0.336700  0.525300  0.301000  1.0  -0.1885
