# generated using pymatgen
data_AgH8C11N2O
_symmetry_space_group_name_H-M   'P 1'
_cell_length_a   34.67110000
_cell_length_b   34.67110000
_cell_length_c   8.42730000
_cell_angle_alpha   90.00000000
_cell_angle_beta   90.00000000
_cell_angle_gamma   120.00000000
_symmetry_Int_Tables_number   1
_chemical_formula_structural   AgH8C11N2O
_chemical_formula_sum   'Ag18 H144 C198 N36 O18'
_cell_volume   8773.12520462
_cell_formula_units_Z   18
loop_
 _symmetry_equiv_pos_site_id
 _symmetry_equiv_pos_as_xyz
  1  'x, y, z'
loop_
 _atom_site_type_symbol
 _atom_site_label
 _atom_site_symmetry_multiplicity
 _atom_site_fract_x
 _atom_site_fract_y
 _atom_site_fract_z
 _atom_site_occupancy
 _atom_site_charge
  Ag  Ag1  1  0.146480  0.317400  0.508250  1.0  0.2041
  Ag  Ag2  1  0.682600  0.829070  0.508250  1.0  0.2038
  Ag  Ag3  1  0.170930  0.853520  0.508250  1.0  0.2057
  Ag  Ag4  1  0.853520  0.682600  0.491750  1.0  0.2044
  Ag  Ag5  1  0.317400  0.170930  0.491750  1.0  0.2042
  Ag  Ag6  1  0.829070  0.146480  0.491750  1.0  0.2023
  Ag  Ag7  1  0.813140  0.650740  0.841580  1.0  0.2041
  Ag  Ag8  1  0.349260  0.162410  0.841580  1.0  0.2021
  Ag  Ag9  1  0.837590  0.186860  0.841580  1.0  0.2057
  Ag  Ag10  1  0.520190  0.015930  0.825080  1.0  0.2044
  Ag  Ag11  1  0.984070  0.504260  0.825080  1.0  0.2042
  Ag  Ag12  1  0.495740  0.479810  0.825080  1.0  0.2023
  Ag  Ag13  1  0.479810  0.984070  0.174920  1.0  0.2041
  Ag  Ag14  1  0.015930  0.495740  0.174920  1.0  0.2038
  Ag  Ag15  1  0.504260  0.520190  0.174920  1.0  0.2057
  Ag  Ag16  1  0.186860  0.349260  0.158420  1.0  0.2045
  Ag  Ag17  1  0.650740  0.837590  0.158420  1.0  0.2025
  Ag  Ag18  1  0.162410  0.813140  0.158420  1.0  0.2023
  H  H19  1  0.201800  0.386300  0.761900  1.0  0.067
  H  H20  1  0.264700  0.411600  0.920200  1.0  0.0977
  H  H21  1  0.307200  0.376300  0.908300  1.0  0.0943
  H  H22  1  0.218900  0.290100  0.588500  1.0  0.0765
  H  H23  1  0.214400  0.239000  0.839700  1.0  0.0993
  H  H24  1  0.186100  0.162000  0.810100  1.0  0.0907
  H  H25  1  0.225500  0.137100  0.662300  1.0  0.0683
  H  H26  1  0.321300  0.259900  0.580700  1.0  0.0736
  H  H27  1  0.613700  0.815500  0.761900  1.0  0.0651
  H  H28  1  0.588400  0.853100  0.920200  1.0  0.0961
  H  H29  1  0.623700  0.930900  0.908300  1.0  0.0953
  H  H30  1  0.709900  0.928800  0.588500  1.0  0.0771
  H  H31  1  0.761000  0.975400  0.839700  1.0  0.1005
  H  H32  1  0.838000  0.024100  0.810100  1.0  0.0968
  H  H33  1  0.862900  0.088400  0.662300  1.0  0.0765
  H  H34  1  0.740100  0.061400  0.580700  1.0  0.0736
  H  H35  1  0.184500  0.798200  0.761900  1.0  0.0671
  H  H36  1  0.146900  0.735300  0.920200  1.0  0.0962
  H  H37  1  0.069100  0.692800  0.908300  1.0  0.0945
  H  H38  1  0.071200  0.781100  0.588500  1.0  0.0764
  H  H39  1  0.024600  0.785600  0.839700  1.0  0.1012
  H  H40  1  0.975900  0.813900  0.810100  1.0  0.0986
  H  H41  1  0.911600  0.774500  0.662300  1.0  0.0756
  H  H42  1  0.938600  0.678700  0.580700  1.0  0.0737
  H  H43  1  0.798200  0.613700  0.238100  1.0  0.0664
  H  H44  1  0.735300  0.588400  0.079800  1.0  0.0972
  H  H45  1  0.692800  0.623700  0.091700  1.0  0.0936
  H  H46  1  0.781100  0.709900  0.411500  1.0  0.0762
  H  H47  1  0.785600  0.761000  0.160300  1.0  0.0999
  H  H48  1  0.813900  0.838000  0.189900  1.0  0.0903
  H  H49  1  0.774500  0.862900  0.337700  1.0  0.0678
  H  H50  1  0.678700  0.740100  0.419300  1.0  0.0741
  H  H51  1  0.386300  0.184500  0.238100  1.0  0.0649
  H  H52  1  0.411600  0.146900  0.079800  1.0  0.0966
  H  H53  1  0.376300  0.069100  0.091700  1.0  0.0956
  H  H54  1  0.290100  0.071200  0.411500  1.0  0.0778
  H  H55  1  0.239000  0.024600  0.160300  1.0  0.1012
  H  H56  1  0.162000  0.975900  0.189900  1.0  0.0955
  H  H57  1  0.137100  0.911600  0.337700  1.0  0.0764
  H  H58  1  0.259900  0.938600  0.419300  1.0  0.0735
  H  H59  1  0.815500  0.201800  0.238100  1.0  0.0675
  H  H60  1  0.853100  0.264700  0.079800  1.0  0.097
  H  H61  1  0.930900  0.307200  0.091700  1.0  0.0943
  H  H62  1  0.928800  0.218900  0.411500  1.0  0.0766
  H  H63  1  0.975400  0.214400  0.160300  1.0  0.1012
  H  H64  1  0.024100  0.186100  0.189900  1.0  0.0981
  H  H65  1  0.088400  0.225500  0.337700  1.0  0.0752
  H  H66  1  0.061400  0.321300  0.419300  1.0  0.0746
  H  H67  1  0.868470  0.719630  0.095230  1.0  0.067
  H  H68  1  0.931370  0.744930  0.253530  1.0  0.0977
  H  H69  1  0.973870  0.709630  0.241630  1.0  0.0944
  H  H70  1  0.885570  0.623430  0.921830  1.0  0.0765
  H  H71  1  0.881070  0.572330  0.173030  1.0  0.0993
  H  H72  1  0.852770  0.495330  0.143430  1.0  0.0907
  H  H73  1  0.892170  0.470430  0.995630  1.0  0.076
  H  H74  1  0.987970  0.593230  0.914030  1.0  0.0736
  H  H75  1  0.280370  0.148830  0.095230  1.0  0.0651
  H  H76  1  0.255070  0.186430  0.253530  1.0  0.0961
  H  H77  1  0.290370  0.264230  0.241630  1.0  0.0953
  H  H78  1  0.376570  0.262130  0.921830  1.0  0.0771
  H  H79  1  0.427670  0.308730  0.173030  1.0  0.1005
  H  H80  1  0.504670  0.357430  0.143430  1.0  0.0916
  H  H81  1  0.529570  0.421730  0.995630  1.0  0.0773
  H  H82  1  0.406770  0.394730  0.914030  1.0  0.0736
  H  H83  1  0.851170  0.131530  0.095230  1.0  0.0671
  H  H84  1  0.813570  0.068630  0.253530  1.0  0.0962
  H  H85  1  0.735770  0.026130  0.241630  1.0  0.0945
  H  H86  1  0.737870  0.114430  0.921830  1.0  0.0764
  H  H87  1  0.691270  0.118930  0.173030  1.0  0.1012
  H  H88  1  0.642570  0.147230  0.143430  1.0  0.0905
  H  H89  1  0.578270  0.107830  0.995630  1.0  0.0682
  H  H90  1  0.605270  0.012030  0.914030  1.0  0.0737
  H  H91  1  0.464870  0.947030  0.571430  1.0  0.0658
  H  H92  1  0.401970  0.921730  0.413130  1.0  0.0962
  H  H93  1  0.359470  0.957030  0.425030  1.0  0.0936
  H  H94  1  0.447770  0.043230  0.744830  1.0  0.0771
  H  H95  1  0.452270  0.094330  0.493630  1.0  0.0999
  H  H96  1  0.480570  0.171330  0.523230  1.0  0.0903
  H  H97  1  0.441170  0.196230  0.671030  1.0  0.0678
  H  H98  1  0.345370  0.073430  0.752630  1.0  0.0741
  H  H99  1  0.052970  0.517830  0.571430  1.0  0.0657
  H  H100  1  0.078270  0.480230  0.413130  1.0  0.0972
  H  H101  1  0.042970  0.402430  0.425030  1.0  0.0956
  H  H102  1  0.956770  0.404530  0.744830  1.0  0.0772
  H  H103  1  0.905670  0.357930  0.493630  1.0  0.1012
  H  H104  1  0.828670  0.309230  0.523230  1.0  0.0906
  H  H105  1  0.803770  0.244930  0.671030  1.0  0.0764
  H  H106  1  0.926570  0.271930  0.752630  1.0  0.0735
  H  H107  1  0.482170  0.535130  0.571430  1.0  0.0678
  H  H108  1  0.519770  0.598030  0.413130  1.0  0.097
  H  H109  1  0.597570  0.640530  0.425030  1.0  0.0943
  H  H110  1  0.595470  0.552230  0.744830  1.0  0.0765
  H  H111  1  0.642070  0.547730  0.493630  1.0  0.1012
  H  H112  1  0.690770  0.519430  0.523230  1.0  0.0916
  H  H113  1  0.755070  0.558830  0.671030  1.0  0.0752
  H  H114  1  0.728070  0.654630  0.752630  1.0  0.0746
  H  H115  1  0.535130  0.052970  0.428570  1.0  0.066
  H  H116  1  0.598030  0.078270  0.586870  1.0  0.0968
  H  H117  1  0.640530  0.042970  0.574970  1.0  0.0944
  H  H118  1  0.552230  0.956770  0.255170  1.0  0.0772
  H  H119  1  0.547730  0.905670  0.506370  1.0  0.0993
  H  H120  1  0.519430  0.828670  0.476770  1.0  0.0907
  H  H121  1  0.558830  0.803770  0.328970  1.0  0.0683
  H  H122  1  0.654630  0.926570  0.247370  1.0  0.0736
  H  H123  1  0.947030  0.482170  0.428570  1.0  0.066
  H  H124  1  0.921730  0.519770  0.586870  1.0  0.0967
  H  H125  1  0.957030  0.597570  0.574970  1.0  0.0953
  H  H126  1  0.043230  0.595470  0.255170  1.0  0.077
  H  H127  1  0.094330  0.642070  0.506370  1.0  0.1005
  H  H128  1  0.171330  0.690770  0.476770  1.0  0.0916
  H  H129  1  0.196230  0.755070  0.328970  1.0  0.0765
  H  H130  1  0.073430  0.728070  0.247370  1.0  0.0736
  H  H131  1  0.517830  0.464870  0.428570  1.0  0.0675
  H  H132  1  0.480230  0.401970  0.586870  1.0  0.0962
  H  H133  1  0.402430  0.359470  0.574970  1.0  0.0945
  H  H134  1  0.404530  0.447770  0.255170  1.0  0.0763
  H  H135  1  0.357930  0.452270  0.506370  1.0  0.1012
  H  H136  1  0.309230  0.480570  0.476770  1.0  0.0905
  H  H137  1  0.244930  0.441170  0.328970  1.0  0.0756
  H  H138  1  0.271930  0.345370  0.247370  1.0  0.0737
  H  H139  1  0.131530  0.280370  0.904770  1.0  0.0664
  H  H140  1  0.068630  0.255070  0.746470  1.0  0.0972
  H  H141  1  0.026130  0.290370  0.758370  1.0  0.0936
  H  H142  1  0.114430  0.376570  0.078170  1.0  0.0763
  H  H143  1  0.118930  0.427670  0.826970  1.0  0.0999
  H  H144  1  0.147230  0.504670  0.856570  1.0  0.0903
  H  H145  1  0.107830  0.529570  0.004370  1.0  0.0748
  H  H146  1  0.012030  0.406770  0.085970  1.0  0.0741
  H  H147  1  0.719630  0.851170  0.904770  1.0  0.0649
  H  H148  1  0.744930  0.813570  0.746470  1.0  0.0966
  H  H149  1  0.709630  0.735770  0.758370  1.0  0.0956
  H  H150  1  0.623430  0.737870  0.078170  1.0  0.0778
  H  H151  1  0.572330  0.691270  0.826970  1.0  0.1012
  H  H152  1  0.495330  0.642570  0.856570  1.0  0.0906
  H  H153  1  0.470430  0.578270  0.004370  1.0  0.0772
  H  H154  1  0.593230  0.605270  0.085970  1.0  0.0735
  H  H155  1  0.148830  0.868470  0.904770  1.0  0.0675
  H  H156  1  0.186430  0.931370  0.746470  1.0  0.097
  H  H157  1  0.264230  0.973870  0.758370  1.0  0.0943
  H  H158  1  0.262130  0.885570  0.078170  1.0  0.0766
  H  H159  1  0.308730  0.881070  0.826970  1.0  0.1012
  H  H160  1  0.357430  0.852770  0.856570  1.0  0.0916
  H  H161  1  0.421730  0.892170  0.004370  1.0  0.0676
  H  H162  1  0.394730  0.987970  0.085970  1.0  0.0746
  C  C163  1  0.218610  0.371500  0.757300  1.0  0.1266
  C  C164  1  0.256140  0.386860  0.852000  1.0  -0.1376
  C  C165  1  0.280930  0.365830  0.846200  1.0  -0.0302
  C  C166  1  0.266760  0.328910  0.747600  1.0  -0.0525
  C  C167  1  0.228570  0.315260  0.655800  1.0  0.1382
  C  C168  1  0.294050  0.306580  0.737700  1.0  0.3075
  C  C169  1  0.271140  0.257320  0.712400  1.0  -0.0615
  C  C170  1  0.230440  0.228130  0.781300  1.0  -0.1272
  C  C171  1  0.213700  0.182810  0.762900  1.0  -0.1558
  C  C172  1  0.237480  0.168260  0.675300  1.0  0.1112
  C  C173  1  0.293340  0.239870  0.626900  1.0  0.1409
  C  C174  1  0.628500  0.847110  0.757300  1.0  0.1228
  C  C175  1  0.613140  0.869280  0.852000  1.0  -0.1392
  C  C176  1  0.634170  0.915100  0.846200  1.0  -0.03
  C  C177  1  0.671090  0.937850  0.747600  1.0  -0.0513
  C  C178  1  0.684740  0.913310  0.655800  1.0  0.1394
  C  C179  1  0.693420  0.987470  0.737700  1.0  0.3076
  C  C180  1  0.742680  0.013820  0.712400  1.0  -0.0607
  C  C181  1  0.771870  0.002310  0.781300  1.0  -0.1282
  C  C182  1  0.817190  0.030890  0.762900  1.0  -0.1548
  C  C183  1  0.831740  0.069220  0.675300  1.0  0.1107
  C  C184  1  0.760130  0.053470  0.626900  1.0  0.1403
  C  C185  1  0.152890  0.781390  0.757300  1.0  0.1271
  C  C186  1  0.130720  0.743860  0.852000  1.0  -0.1395
  C  C187  1  0.084900  0.719070  0.846200  1.0  -0.03
  C  C188  1  0.062150  0.733240  0.747600  1.0  -0.0516
  C  C189  1  0.086690  0.771430  0.655800  1.0  0.137
  C  C190  1  0.012530  0.705950  0.737700  1.0  0.3099
  C  C191  1  0.986180  0.728860  0.712400  1.0  -0.061
  C  C192  1  0.997690  0.769560  0.781300  1.0  -0.1278
  C  C193  1  0.969110  0.786300  0.762900  1.0  -0.155
  C  C194  1  0.930780  0.762520  0.675300  1.0  0.1126
  C  C195  1  0.946530  0.706660  0.626900  1.0  0.1401
  C  C196  1  0.781390  0.628500  0.242700  1.0  0.1259
  C  C197  1  0.743860  0.613140  0.148000  1.0  -0.1399
  C  C198  1  0.719070  0.634170  0.153800  1.0  -0.0306
  C  C199  1  0.733240  0.671090  0.252400  1.0  -0.0518
  C  C200  1  0.771430  0.684740  0.344200  1.0  0.1388
  C  C201  1  0.705950  0.693420  0.262300  1.0  0.3064
  C  C202  1  0.728860  0.742680  0.287600  1.0  -0.0595
  C  C203  1  0.769560  0.771870  0.218700  1.0  -0.127
  C  C204  1  0.786300  0.817190  0.237100  1.0  -0.1529
  C  C205  1  0.762520  0.831740  0.324700  1.0  0.1126
  C  C206  1  0.706660  0.760130  0.373100  1.0  0.1412
  C  C207  1  0.371500  0.152890  0.242700  1.0  0.1241
  C  C208  1  0.386860  0.130720  0.148000  1.0  -0.1393
  C  C209  1  0.365830  0.084900  0.153800  1.0  -0.0299
  C  C210  1  0.328910  0.062150  0.252400  1.0  -0.0527
  C  C211  1  0.315260  0.086690  0.344200  1.0  0.1396
  C  C212  1  0.306580  0.012530  0.262300  1.0  0.3085
  C  C213  1  0.257320  0.986180  0.287600  1.0  -0.0609
  C  C214  1  0.228130  0.997690  0.218700  1.0  -0.1298
  C  C215  1  0.182810  0.969110  0.237100  1.0  -0.1558
  C  C216  1  0.168260  0.930780  0.324700  1.0  0.1119
  C  C217  1  0.239870  0.946530  0.373100  1.0  0.1407
  C  C218  1  0.847110  0.218610  0.242700  1.0  0.1276
  C  C219  1  0.869280  0.256140  0.148000  1.0  -0.1405
  C  C220  1  0.915100  0.280930  0.153800  1.0  -0.0302
  C  C221  1  0.937850  0.266760  0.252400  1.0  -0.0526
  C  C222  1  0.913310  0.228570  0.344200  1.0  0.1382
  C  C223  1  0.987470  0.294050  0.262300  1.0  0.31
  C  C224  1  0.013820  0.271140  0.287600  1.0  -0.0606
  C  C225  1  0.002310  0.230440  0.218700  1.0  -0.1307
  C  C226  1  0.030890  0.213700  0.237100  1.0  -0.1526
  C  C227  1  0.069220  0.237480  0.324700  1.0  0.1114
  C  C228  1  0.053470  0.293340  0.373100  1.0  0.1419
  C  C229  1  0.885280  0.704830  0.090630  1.0  0.1265
  C  C230  1  0.922810  0.720190  0.185330  1.0  -0.1376
  C  C231  1  0.947600  0.699160  0.179530  1.0  -0.0302
  C  C232  1  0.933430  0.662240  0.080930  1.0  -0.0525
  C  C233  1  0.895240  0.648590  0.989130  1.0  0.1382
  C  C234  1  0.960720  0.639910  0.071030  1.0  0.3075
  C  C235  1  0.937810  0.590650  0.045730  1.0  -0.0616
  C  C236  1  0.897110  0.561460  0.114630  1.0  -0.127
  C  C237  1  0.880370  0.516140  0.096230  1.0  -0.1558
  C  C238  1  0.904150  0.501590  0.008630  1.0  0.1113
  C  C239  1  0.960010  0.573200  0.960230  1.0  0.1409
  C  C240  1  0.295170  0.180440  0.090630  1.0  0.1229
  C  C241  1  0.279810  0.202610  0.185330  1.0  -0.1392
  C  C242  1  0.300840  0.248430  0.179530  1.0  -0.03
  C  C243  1  0.337760  0.271180  0.080930  1.0  -0.0513
  C  C244  1  0.351410  0.246640  0.989130  1.0  0.1394
  C  C245  1  0.360090  0.320800  0.071030  1.0  0.3075
  C  C246  1  0.409350  0.347150  0.045730  1.0  -0.0607
  C  C247  1  0.438540  0.335640  0.114630  1.0  -0.1278
  C  C248  1  0.483860  0.364220  0.096230  1.0  -0.1548
  C  C249  1  0.498410  0.402550  0.008630  1.0  0.1107
  C  C250  1  0.426800  0.386800  0.960230  1.0  0.1402
  C  C251  1  0.819560  0.114720  0.090630  1.0  0.1271
  C  C252  1  0.797390  0.077190  0.185330  1.0  -0.1395
  C  C253  1  0.751570  0.052400  0.179530  1.0  -0.03
  C  C254  1  0.728820  0.066570  0.080930  1.0  -0.0516
  C  C255  1  0.753360  0.104760  0.989130  1.0  0.137
  C  C256  1  0.679200  0.039280  0.071030  1.0  0.31
  C  C257  1  0.652850  0.062190  0.045730  1.0  -0.061
  C  C258  1  0.664360  0.102890  0.114630  1.0  -0.1279
  C  C259  1  0.635780  0.119630  0.096230  1.0  -0.155
  C  C260  1  0.597450  0.095850  0.008630  1.0  0.1126
  C  C261  1  0.613200  0.039990  0.960230  1.0  0.1401
  C  C262  1  0.448060  0.961830  0.576030  1.0  0.1258
  C  C263  1  0.410530  0.946470  0.481330  1.0  -0.1399
  C  C264  1  0.385740  0.967500  0.487130  1.0  -0.0306
  C  C265  1  0.399910  0.004420  0.585730  1.0  -0.0518
  C  C266  1  0.438100  0.018070  0.677530  1.0  0.1388
  C  C267  1  0.372620  0.026750  0.595630  1.0  0.3065
  C  C268  1  0.395530  0.076010  0.620930  1.0  -0.0595
  C  C269  1  0.436230  0.105200  0.552030  1.0  -0.127
  C  C270  1  0.452970  0.150520  0.570430  1.0  -0.1529
  C  C271  1  0.429190  0.165070  0.658030  1.0  0.1126
  C  C272  1  0.373330  0.093460  0.706430  1.0  0.1412
  C  C273  1  0.038170  0.486220  0.576030  1.0  0.1241
  C  C274  1  0.053530  0.464050  0.481330  1.0  -0.1393
  C  C275  1  0.032500  0.418230  0.487130  1.0  -0.0299
  C  C276  1  0.995580  0.395480  0.585730  1.0  -0.0527
  C  C277  1  0.981930  0.420020  0.677530  1.0  0.1396
  C  C278  1  0.973250  0.345860  0.595630  1.0  0.3085
  C  C279  1  0.923990  0.319510  0.620930  1.0  -0.0609
  C  C280  1  0.894800  0.331020  0.552030  1.0  -0.1298
  C  C281  1  0.849480  0.302440  0.570430  1.0  -0.1557
  C  C282  1  0.834930  0.264110  0.658030  1.0  0.1119
  C  C283  1  0.906540  0.279860  0.706430  1.0  0.1407
  C  C284  1  0.513780  0.551940  0.576030  1.0  0.1275
  C  C285  1  0.535950  0.589470  0.481330  1.0  -0.1405
  C  C286  1  0.581770  0.614260  0.487130  1.0  -0.0302
  C  C287  1  0.604520  0.600090  0.585730  1.0  -0.0526
  C  C288  1  0.579980  0.561900  0.677530  1.0  0.1382
  C  C289  1  0.654140  0.627380  0.595630  1.0  0.31
  C  C290  1  0.680490  0.604470  0.620930  1.0  -0.0606
  C  C291  1  0.668980  0.563770  0.552030  1.0  -0.1307
  C  C292  1  0.697560  0.547030  0.570430  1.0  -0.1525
  C  C293  1  0.735890  0.570810  0.658030  1.0  0.1114
  C  C294  1  0.720140  0.626670  0.706430  1.0  0.1419
  C  C295  1  0.551940  0.038170  0.423970  1.0  0.1266
  C  C296  1  0.589470  0.053530  0.518670  1.0  -0.1377
  C  C297  1  0.614260  0.032500  0.512870  1.0  -0.0302
  C  C298  1  0.600090  0.995580  0.414270  1.0  -0.0525
  C  C299  1  0.561900  0.981930  0.322470  1.0  0.1382
  C  C300  1  0.627380  0.973250  0.404370  1.0  0.3076
  C  C301  1  0.604470  0.923990  0.379070  1.0  -0.0615
  C  C302  1  0.563770  0.894800  0.447970  1.0  -0.1272
  C  C303  1  0.547030  0.849480  0.429570  1.0  -0.1558
  C  C304  1  0.570810  0.834930  0.341970  1.0  0.1112
  C  C305  1  0.626670  0.906540  0.293570  1.0  0.1409
  C  C306  1  0.961830  0.513780  0.423970  1.0  0.1227
  C  C307  1  0.946470  0.535950  0.518670  1.0  -0.1392
  C  C308  1  0.967500  0.581770  0.512870  1.0  -0.03
  C  C309  1  0.004420  0.604520  0.414270  1.0  -0.0513
  C  C310  1  0.018070  0.579980  0.322470  1.0  0.1394
  C  C311  1  0.026750  0.654140  0.404370  1.0  0.3076
  C  C312  1  0.076010  0.680490  0.379070  1.0  -0.0607
  C  C313  1  0.105200  0.668980  0.447970  1.0  -0.1282
  C  C314  1  0.150520  0.697560  0.429570  1.0  -0.1548
  C  C315  1  0.165070  0.735890  0.341970  1.0  0.1108
  C  C316  1  0.093460  0.720140  0.293570  1.0  0.1403
  C  C317  1  0.486220  0.448060  0.423970  1.0  0.1271
  C  C318  1  0.464050  0.410530  0.518670  1.0  -0.1395
  C  C319  1  0.418230  0.385740  0.512870  1.0  -0.03
  C  C320  1  0.395480  0.399910  0.414270  1.0  -0.0516
  C  C321  1  0.420020  0.438100  0.322470  1.0  0.137
  C  C322  1  0.345860  0.372620  0.404370  1.0  0.3099
  C  C323  1  0.319510  0.395530  0.379070  1.0  -0.061
  C  C324  1  0.331020  0.436230  0.447970  1.0  -0.1278
  C  C325  1  0.302440  0.452970  0.429570  1.0  -0.155
  C  C326  1  0.264110  0.429190  0.341970  1.0  0.1126
  C  C327  1  0.279860  0.373330  0.293570  1.0  0.1401
  C  C328  1  0.114720  0.295170  0.909370  1.0  0.1258
  C  C329  1  0.077190  0.279810  0.814670  1.0  -0.1399
  C  C330  1  0.052400  0.300840  0.820470  1.0  -0.0306
  C  C331  1  0.066570  0.337760  0.919070  1.0  -0.0518
  C  C332  1  0.104760  0.351410  0.010870  1.0  0.1388
  C  C333  1  0.039280  0.360090  0.928970  1.0  0.3064
  C  C334  1  0.062190  0.409350  0.954270  1.0  -0.0596
  C  C335  1  0.102890  0.438540  0.885370  1.0  -0.1268
  C  C336  1  0.119630  0.483860  0.903770  1.0  -0.1529
  C  C337  1  0.095850  0.498410  0.991370  1.0  0.1126
  C  C338  1  0.039990  0.426800  0.039770  1.0  0.1412
  C  C339  1  0.704830  0.819560  0.909370  1.0  0.1241
  C  C340  1  0.720190  0.797390  0.814670  1.0  -0.1393
  C  C341  1  0.699160  0.751570  0.820470  1.0  -0.0299
  C  C342  1  0.662240  0.728820  0.919070  1.0  -0.0527
  C  C343  1  0.648590  0.753360  0.010870  1.0  0.1396
  C  C344  1  0.639910  0.679200  0.928970  1.0  0.3084
  C  C345  1  0.590650  0.652850  0.954270  1.0  -0.0609
  C  C346  1  0.561460  0.664360  0.885370  1.0  -0.1296
  C  C347  1  0.516140  0.635780  0.903770  1.0  -0.1558
  C  C348  1  0.501590  0.597450  0.991370  1.0  0.1119
  C  C349  1  0.573200  0.613200  0.039770  1.0  0.1407
  C  C350  1  0.180440  0.885280  0.909370  1.0  0.1277
  C  C351  1  0.202610  0.922810  0.814670  1.0  -0.1405
  C  C352  1  0.248430  0.947600  0.820470  1.0  -0.0302
  C  C353  1  0.271180  0.933430  0.919070  1.0  -0.0526
  C  C354  1  0.246640  0.895240  0.010870  1.0  0.1382
  C  C355  1  0.320800  0.960720  0.928970  1.0  0.3101
  C  C356  1  0.347150  0.937810  0.954270  1.0  -0.0606
  C  C357  1  0.335640  0.897110  0.885370  1.0  -0.1308
  C  C358  1  0.364220  0.880370  0.903770  1.0  -0.1525
  C  C359  1  0.402550  0.904150  0.991370  1.0  0.1113
  C  C360  1  0.386800  0.960010  0.039770  1.0  0.1419
  N  N361  1  0.205030  0.336410  0.659000  1.0  -0.3225
  N  N362  1  0.276980  0.196130  0.607000  1.0  -0.3336
  N  N363  1  0.663590  0.868620  0.659000  1.0  -0.3211
  N  N364  1  0.803870  0.080850  0.607000  1.0  -0.3253
  N  N365  1  0.131380  0.794970  0.659000  1.0  -0.3201
  N  N366  1  0.919150  0.723020  0.607000  1.0  -0.3315
  N  N367  1  0.794970  0.663590  0.341000  1.0  -0.3187
  N  N368  1  0.723020  0.803870  0.393000  1.0  -0.3298
  N  N369  1  0.336410  0.131380  0.341000  1.0  -0.3198
  N  N370  1  0.196130  0.919150  0.393000  1.0  -0.3254
  N  N371  1  0.868620  0.205030  0.341000  1.0  -0.3205
  N  N372  1  0.080850  0.276980  0.393000  1.0  -0.3293
  N  N373  1  0.871700  0.669740  0.992330  1.0  -0.3227
  N  N374  1  0.943650  0.529460  0.940330  1.0  -0.3336
  N  N375  1  0.330260  0.201950  0.992330  1.0  -0.3211
  N  N376  1  0.470540  0.414180  0.940330  1.0  -0.3254
  N  N377  1  0.798050  0.128300  0.992330  1.0  -0.32
  N  N378  1  0.585820  0.056350  0.940330  1.0  -0.3315
  N  N379  1  0.461640  0.996920  0.674330  1.0  -0.3187
  N  N380  1  0.389690  0.137200  0.726330  1.0  -0.3297
  N  N381  1  0.003080  0.464710  0.674330  1.0  -0.3198
  N  N382  1  0.862800  0.252480  0.726330  1.0  -0.3254
  N  N383  1  0.535290  0.538360  0.674330  1.0  -0.3205
  N  N384  1  0.747520  0.610310  0.726330  1.0  -0.3293
  N  N385  1  0.538360  0.003080  0.325670  1.0  -0.3225
  N  N386  1  0.610310  0.862800  0.273670  1.0  -0.3335
  N  N387  1  0.996920  0.535290  0.325670  1.0  -0.3211
  N  N388  1  0.137200  0.747520  0.273670  1.0  -0.3253
  N  N389  1  0.464710  0.461640  0.325670  1.0  -0.3201
  N  N390  1  0.252480  0.389690  0.273670  1.0  -0.3315
  N  N391  1  0.128300  0.330260  0.007670  1.0  -0.3189
  N  N392  1  0.056350  0.470540  0.059670  1.0  -0.3298
  N  N393  1  0.669740  0.798050  0.007670  1.0  -0.3198
  N  N394  1  0.529460  0.585820  0.059670  1.0  -0.3254
  N  N395  1  0.201950  0.871700  0.007670  1.0  -0.3203
  N  N396  1  0.414180  0.943650  0.059670  1.0  -0.3292
  O  O397  1  0.334310  0.327900  0.753800  1.0  -0.49
  O  O398  1  0.672100  0.006410  0.753800  1.0  -0.4891
  O  O399  1  0.993590  0.665690  0.753800  1.0  -0.4877
  O  O400  1  0.665690  0.672100  0.246200  1.0  -0.4891
  O  O401  1  0.327900  0.993590  0.246200  1.0  -0.489
  O  O402  1  0.006410  0.334310  0.246200  1.0  -0.4883
  O  O403  1  0.000980  0.661230  0.087130  1.0  -0.49
  O  O404  1  0.338770  0.339740  0.087130  1.0  -0.4891
  O  O405  1  0.660260  0.999020  0.087130  1.0  -0.4877
  O  O406  1  0.332360  0.005430  0.579530  1.0  -0.489
  O  O407  1  0.994570  0.326920  0.579530  1.0  -0.4889
  O  O408  1  0.673080  0.667640  0.579530  1.0  -0.4884
  O  O409  1  0.667640  0.994570  0.420470  1.0  -0.4899
  O  O410  1  0.005430  0.673080  0.420470  1.0  -0.489
  O  O411  1  0.326920  0.332360  0.420470  1.0  -0.4877
  O  O412  1  0.999020  0.338770  0.912870  1.0  -0.4891
  O  O413  1  0.661230  0.660260  0.912870  1.0  -0.489
  O  O414  1  0.339740  0.000980  0.912870  1.0  -0.4883
