# generated using pymatgen
data_AgH8C14N2O3F5
_symmetry_space_group_name_H-M   'P 1'
_cell_length_a   34.69700000
_cell_length_b   34.69700000
_cell_length_c   8.40570000
_cell_angle_alpha   90.00000000
_cell_angle_beta   90.00000000
_cell_angle_gamma   120.00000000
_symmetry_Int_Tables_number   1
_chemical_formula_structural   AgH8C14N2O3F5
_chemical_formula_sum   'Ag18 H144 C252 N36 O54 F90'
_cell_volume   8763.71750559
_cell_formula_units_Z   18
loop_
 _symmetry_equiv_pos_site_id
 _symmetry_equiv_pos_as_xyz
  1  'x, y, z'
loop_
 _atom_site_type_symbol
 _atom_site_label
 _atom_site_symmetry_multiplicity
 _atom_site_fract_x
 _atom_site_fract_y
 _atom_site_fract_z
 _atom_site_occupancy
 _atom_site_charge
  Ag  Ag1  1  0.861000  0.182870  0.499550  1.0  0.4725
  Ag  Ag2  1  0.527670  0.516200  0.832880  1.0  0.4725
  Ag  Ag3  1  0.194330  0.849540  0.166220  1.0  0.4724
  Ag  Ag4  1  0.817130  0.678130  0.499550  1.0  0.473
  Ag  Ag5  1  0.483800  0.011460  0.832880  1.0  0.4731
  Ag  Ag6  1  0.150460  0.344800  0.166220  1.0  0.4731
  Ag  Ag7  1  0.321870  0.139000  0.499550  1.0  0.4728
  Ag  Ag8  1  0.988540  0.472330  0.832880  1.0  0.4728
  Ag  Ag9  1  0.655200  0.805670  0.166220  1.0  0.4728
  Ag  Ag10  1  0.139000  0.817130  0.500450  1.0  0.4722
  Ag  Ag11  1  0.805670  0.150460  0.833780  1.0  0.4722
  Ag  Ag12  1  0.472330  0.483800  0.167120  1.0  0.4723
  Ag  Ag13  1  0.182870  0.321870  0.500450  1.0  0.4724
  Ag  Ag14  1  0.849540  0.655200  0.833780  1.0  0.4724
  Ag  Ag15  1  0.516200  0.988540  0.167120  1.0  0.4724
  Ag  Ag16  1  0.678130  0.861000  0.500450  1.0  0.4725
  Ag  Ag17  1  0.344800  0.194330  0.833780  1.0  0.4725
  Ag  Ag18  1  0.011460  0.527670  0.167120  1.0  0.4725
  H  H19  1  0.804300  0.195500  0.248600  1.0  0.0767
  H  H20  1  0.073030  0.825970  0.773670  1.0  0.1237
  H  H21  1  0.362170  0.416830  0.463430  1.0  0.1211
  H  H22  1  0.785400  0.084200  0.427900  1.0  0.0791
  H  H23  1  0.447170  0.366730  0.508830  1.0  0.1203
  H  H24  1  0.472470  0.315930  0.516430  1.0  0.1337
  H  H25  1  0.766200  0.918400  0.323100  1.0  0.0762
  H  H26  1  0.677000  0.949400  0.440900  1.0  0.0855
  H  H27  1  0.470970  0.528830  0.581930  1.0  0.0767
  H  H28  1  0.739700  0.159300  0.107000  1.0  0.1237
  H  H29  1  0.028830  0.750170  0.796770  1.0  0.1211
  H  H30  1  0.452070  0.417530  0.761230  1.0  0.0791
  H  H31  1  0.113830  0.700070  0.842170  1.0  0.1202
  H  H32  1  0.139130  0.649270  0.849770  1.0  0.1337
  H  H33  1  0.432870  0.251730  0.656430  1.0  0.0762
  H  H34  1  0.343670  0.282730  0.774230  1.0  0.0855
  H  H35  1  0.137630  0.862170  0.915270  1.0  0.0767
  H  H36  1  0.406370  0.492630  0.440330  1.0  0.1237
  H  H37  1  0.695500  0.083500  0.130100  1.0  0.1211
  H  H38  1  0.118730  0.750870  0.094570  1.0  0.0791
  H  H39  1  0.780500  0.033400  0.175500  1.0  0.1203
  H  H40  1  0.805800  0.982600  0.183100  1.0  0.1344
  H  H41  1  0.099530  0.585070  0.989770  1.0  0.0762
  H  H42  1  0.010330  0.616070  0.107570  1.0  0.0855
  H  H43  1  0.804500  0.608800  0.248600  1.0  0.0792
  H  H44  1  0.174030  0.247070  0.773670  1.0  0.1236
  H  H45  1  0.583170  0.945330  0.463430  1.0  0.1213
  H  H46  1  0.915800  0.701200  0.427900  1.0  0.0789
  H  H47  1  0.633270  0.080430  0.508830  1.0  0.1194
  H  H48  1  0.684070  0.156530  0.516430  1.0  0.1344
  H  H49  1  0.081600  0.847800  0.323100  1.0  0.0762
  H  H50  1  0.050600  0.727600  0.440900  1.0  0.0855
  H  H51  1  0.471170  0.942130  0.581930  1.0  0.0793
  H  H52  1  0.840700  0.580400  0.107000  1.0  0.1236
  H  H53  1  0.249830  0.278670  0.796770  1.0  0.1213
  H  H54  1  0.582470  0.034530  0.761230  1.0  0.0789
  H  H55  1  0.299930  0.413770  0.842170  1.0  0.1194
  H  H56  1  0.350730  0.489870  0.849770  1.0  0.1344
  H  H57  1  0.748270  0.181130  0.656430  1.0  0.0762
  H  H58  1  0.717270  0.060930  0.774230  1.0  0.0856
  H  H59  1  0.137830  0.275470  0.915270  1.0  0.0792
  H  H60  1  0.507370  0.913730  0.440330  1.0  0.1236
  H  H61  1  0.916500  0.612000  0.130100  1.0  0.1213
  H  H62  1  0.249130  0.367870  0.094570  1.0  0.0789
  H  H63  1  0.966600  0.747100  0.175500  1.0  0.1194
  H  H64  1  0.017400  0.823200  0.183100  1.0  0.1348
  H  H65  1  0.414930  0.514470  0.989770  1.0  0.0762
  H  H66  1  0.383930  0.394270  0.107570  1.0  0.0855
  H  H67  1  0.391200  0.195700  0.248600  1.0  0.0806
  H  H68  1  0.752930  0.926970  0.773670  1.0  0.123
  H  H69  1  0.054670  0.637830  0.463430  1.0  0.1215
  H  H70  1  0.298800  0.214600  0.427900  1.0  0.0787
  H  H71  1  0.919570  0.552830  0.508830  1.0  0.1189
  H  H72  1  0.843470  0.527530  0.516430  1.0  0.134
  H  H73  1  0.152200  0.233800  0.323100  1.0  0.077
  H  H74  1  0.272400  0.323000  0.440900  1.0  0.0857
  H  H75  1  0.057870  0.529030  0.581930  1.0  0.0806
  H  H76  1  0.419600  0.260300  0.107000  1.0  0.123
  H  H77  1  0.721330  0.971170  0.796770  1.0  0.1215
  H  H78  1  0.965470  0.547930  0.761230  1.0  0.0788
  H  H79  1  0.586230  0.886170  0.842170  1.0  0.1189
  H  H80  1  0.510130  0.860870  0.849770  1.0  0.1341
  H  H81  1  0.818870  0.567130  0.656430  1.0  0.077
  H  H82  1  0.939070  0.656330  0.774230  1.0  0.0858
  H  H83  1  0.724530  0.862370  0.915270  1.0  0.0806
  H  H84  1  0.086270  0.593630  0.440330  1.0  0.123
  H  H85  1  0.388000  0.304500  0.130100  1.0  0.1215
  H  H86  1  0.632130  0.881270  0.094570  1.0  0.0787
  H  H87  1  0.252900  0.219500  0.175500  1.0  0.1189
  H  H88  1  0.176800  0.194200  0.183100  1.0  0.1346
  H  H89  1  0.485530  0.900470  0.989770  1.0  0.077
  H  H90  1  0.605730  0.989670  0.107570  1.0  0.0857
  H  H91  1  0.195700  0.804500  0.751400  1.0  0.078
  H  H92  1  0.926970  0.174030  0.226330  1.0  0.1236
  H  H93  1  0.637830  0.583170  0.536570  1.0  0.1203
  H  H94  1  0.214600  0.915800  0.572100  1.0  0.0789
  H  H95  1  0.552830  0.633270  0.491170  1.0  0.1207
  H  H96  1  0.527530  0.684070  0.483570  1.0  0.1332
  H  H97  1  0.233800  0.081600  0.676900  1.0  0.0761
  H  H98  1  0.323000  0.050600  0.559100  1.0  0.0858
  H  H99  1  0.862370  0.137830  0.084730  1.0  0.078
  H  H100  1  0.593630  0.507370  0.559670  1.0  0.1236
  H  H101  1  0.304500  0.916500  0.869900  1.0  0.1203
  H  H102  1  0.881270  0.249130  0.905430  1.0  0.0789
  H  H103  1  0.219500  0.966600  0.824500  1.0  0.1207
  H  H104  1  0.194200  0.017400  0.816900  1.0  0.1337
  H  H105  1  0.900470  0.414930  0.010230  1.0  0.0761
  H  H106  1  0.989670  0.383930  0.892430  1.0  0.0857
  H  H107  1  0.529030  0.471170  0.418070  1.0  0.078
  H  H108  1  0.260300  0.840700  0.893000  1.0  0.1236
  H  H109  1  0.971170  0.249830  0.203230  1.0  0.1203
  H  H110  1  0.547930  0.582470  0.238770  1.0  0.0789
  H  H111  1  0.886170  0.299930  0.157830  1.0  0.1207
  H  H112  1  0.860870  0.350730  0.150230  1.0  0.1337
  H  H113  1  0.567130  0.748270  0.343570  1.0  0.0761
  H  H114  1  0.656330  0.717270  0.225770  1.0  0.0857
  H  H115  1  0.195500  0.391200  0.751400  1.0  0.079
  H  H116  1  0.825970  0.752930  0.226330  1.0  0.1234
  H  H117  1  0.416830  0.054670  0.536570  1.0  0.1209
  H  H118  1  0.084200  0.298800  0.572100  1.0  0.0789
  H  H119  1  0.366730  0.919570  0.491170  1.0  0.1198
  H  H120  1  0.315930  0.843470  0.483570  1.0  0.1335
  H  H121  1  0.918400  0.152200  0.676900  1.0  0.0771
  H  H122  1  0.949400  0.272400  0.559100  1.0  0.0855
  H  H123  1  0.862170  0.724530  0.084730  1.0  0.079
  H  H124  1  0.492630  0.086270  0.559670  1.0  0.1234
  H  H125  1  0.083500  0.388000  0.869900  1.0  0.1209
  H  H126  1  0.750870  0.632130  0.905430  1.0  0.0789
  H  H127  1  0.033400  0.252900  0.824500  1.0  0.1197
  H  H128  1  0.982600  0.176800  0.816900  1.0  0.1339
  H  H129  1  0.585070  0.485530  0.010230  1.0  0.0772
  H  H130  1  0.616070  0.605730  0.892430  1.0  0.0856
  H  H131  1  0.528830  0.057870  0.418070  1.0  0.079
  H  H132  1  0.159300  0.419600  0.893000  1.0  0.1234
  H  H133  1  0.750170  0.721330  0.203230  1.0  0.1209
  H  H134  1  0.417530  0.965470  0.238770  1.0  0.0789
  H  H135  1  0.700070  0.586230  0.157830  1.0  0.1198
  H  H136  1  0.649270  0.510130  0.150230  1.0  0.134
  H  H137  1  0.251730  0.818870  0.343570  1.0  0.0771
  H  H138  1  0.282730  0.939070  0.225770  1.0  0.0856
  H  H139  1  0.608800  0.804300  0.751400  1.0  0.08
  H  H140  1  0.247070  0.073030  0.226330  1.0  0.123
  H  H141  1  0.945330  0.362170  0.536570  1.0  0.1212
  H  H142  1  0.701200  0.785400  0.572100  1.0  0.0783
  H  H143  1  0.080430  0.447170  0.491170  1.0  0.1184
  H  H144  1  0.156530  0.472470  0.483570  1.0  0.1333
  H  H145  1  0.847800  0.766200  0.676900  1.0  0.0766
  H  H146  1  0.727600  0.677000  0.559100  1.0  0.0858
  H  H147  1  0.275470  0.137630  0.084730  1.0  0.08
  H  H148  1  0.913730  0.406370  0.559670  1.0  0.123
  H  H149  1  0.612000  0.695500  0.869900  1.0  0.1212
  H  H150  1  0.367870  0.118730  0.905430  1.0  0.0783
  H  H151  1  0.747100  0.780500  0.824500  1.0  0.1184
  H  H152  1  0.823200  0.805800  0.816900  1.0  0.134
  H  H153  1  0.514470  0.099530  0.010230  1.0  0.0764
  H  H154  1  0.394270  0.010330  0.892430  1.0  0.0859
  H  H155  1  0.942130  0.470970  0.418070  1.0  0.08
  H  H156  1  0.580400  0.739700  0.893000  1.0  0.123
  H  H157  1  0.278670  0.028830  0.203230  1.0  0.1212
  H  H158  1  0.034530  0.452070  0.238770  1.0  0.0783
  H  H159  1  0.413770  0.113830  0.157830  1.0  0.1184
  H  H160  1  0.489870  0.139130  0.150230  1.0  0.134
  H  H161  1  0.181130  0.432870  0.343570  1.0  0.0766
  H  H162  1  0.060930  0.343670  0.225770  1.0  0.0859
  C  C163  1  0.786800  0.164800  0.258500  1.0  0.1792
  C  C164  1  0.414770  0.476630  0.506430  1.0  -0.0964
  C  C165  1  0.388770  0.431730  0.519130  1.0  0.0015
  C  C166  1  0.735800  0.075300  0.282500  1.0  -0.018
  C  C167  1  0.775600  0.099500  0.364100  1.0  0.1831
  C  C168  1  0.706500  0.026300  0.304100  1.0  0.3112
  C  C169  1  0.726900  0.997600  0.310600  1.0  0.0057
  C  C170  1  0.431470  0.340230  0.565130  1.0  -0.0333
  C  C171  1  0.779900  0.976800  0.235900  1.0  -0.1795
  C  C172  1  0.755800  0.938400  0.319400  1.0  0.1928
  C  C173  1  0.703600  0.956600  0.390300  1.0  0.1999
  C  C174  1  0.842400  0.257300  0.558500  1.0  0.6609
  C  C175  1  0.166030  0.964370  0.268270  1.0  0.2531
  C  C176  1  0.128430  0.955670  0.380670  1.0  0.4004
  C  C177  1  0.453470  0.498130  0.591830  1.0  0.1792
  C  C178  1  0.081430  0.809970  0.839770  1.0  -0.0949
  C  C179  1  0.055430  0.765070  0.852470  1.0  0.0015
  C  C180  1  0.402470  0.408630  0.615830  1.0  -0.018
  C  C181  1  0.442270  0.432830  0.697430  1.0  0.1831
  C  C182  1  0.373170  0.359630  0.637430  1.0  0.3223
  C  C183  1  0.393570  0.330930  0.643930  1.0  0.0058
  C  C184  1  0.098130  0.673570  0.898470  1.0  -0.0335
  C  C185  1  0.446570  0.310130  0.569230  1.0  -0.1795
  C  C186  1  0.422470  0.271730  0.652730  1.0  0.1928
  C  C187  1  0.370270  0.289930  0.723630  1.0  0.2036
  C  C188  1  0.509070  0.590630  0.891830  1.0  0.6609
  C  C189  1  0.832700  0.297700  0.601600  1.0  0.253
  C  C190  1  0.795100  0.289000  0.714000  1.0  0.3918
  C  C191  1  0.120130  0.831470  0.925170  1.0  0.1792
  C  C192  1  0.748100  0.143300  0.173100  1.0  -0.0941
  C  C193  1  0.722100  0.098400  0.185800  1.0  0.0007
  C  C194  1  0.069130  0.741970  0.949170  1.0  -0.018
  C  C195  1  0.108930  0.766170  0.030770  1.0  0.1831
  C  C196  1  0.039830  0.692970  0.970770  1.0  0.3223
  C  C197  1  0.060230  0.664270  0.977270  1.0  0.0057
  C  C198  1  0.764800  0.006900  0.231800  1.0  -0.0334
  C  C199  1  0.113230  0.643470  0.902570  1.0  -0.1797
  C  C200  1  0.089130  0.605070  0.986070  1.0  0.1928
  C  C201  1  0.036930  0.623270  0.056970  1.0  0.2033
  C  C202  1  0.175730  0.923970  0.225170  1.0  0.6608
  C  C203  1  0.499370  0.631030  0.934930  1.0  0.2532
  C  C204  1  0.461770  0.622330  0.047330  1.0  0.3918
  C  C205  1  0.835200  0.622000  0.258500  1.0  0.1785
  C  C206  1  0.523370  0.938130  0.506430  1.0  -0.0956
  C  C207  1  0.568270  0.957030  0.519130  1.0  0.0011
  C  C208  1  0.924700  0.660500  0.282500  1.0  -0.0189
  C  C209  1  0.900500  0.676100  0.364100  1.0  0.185
  C  C210  1  0.973700  0.680200  0.304100  1.0  0.3123
  C  C211  1  0.002400  0.729300  0.310600  1.0  0.0073
  C  C212  1  0.659770  0.091230  0.565130  1.0  -0.0351
  C  C213  1  0.023200  0.803100  0.235900  1.0  -0.1802
  C  C214  1  0.061600  0.817400  0.319400  1.0  0.1887
  C  C215  1  0.043400  0.747000  0.390300  1.0  0.1998
  C  C216  1  0.742700  0.585100  0.558500  1.0  0.6582
  C  C217  1  0.035630  0.201670  0.268270  1.0  0.2509
  C  C218  1  0.044330  0.172770  0.380670  1.0  0.4044
  C  C219  1  0.501870  0.955330  0.591830  1.0  0.1784
  C  C220  1  0.190030  0.271470  0.839770  1.0  -0.0942
  C  C221  1  0.234930  0.290370  0.852470  1.0  0.0011
  C  C222  1  0.591370  0.993830  0.615830  1.0  -0.0189
  C  C223  1  0.567170  0.009430  0.697430  1.0  0.1852
  C  C224  1  0.640370  0.013530  0.637430  1.0  0.3232
  C  C225  1  0.669070  0.062630  0.643930  1.0  0.0073
  C  C226  1  0.326430  0.424570  0.898470  1.0  -0.0349
  C  C227  1  0.689870  0.136430  0.569230  1.0  -0.1802
  C  C228  1  0.728270  0.150730  0.652730  1.0  0.1887
  C  C229  1  0.710070  0.080330  0.723630  1.0  0.2036
  C  C230  1  0.409370  0.918430  0.891830  1.0  0.6581
  C  C231  1  0.702300  0.535000  0.601600  1.0  0.2508
  C  C232  1  0.711000  0.506100  0.714000  1.0  0.3957
  C  C233  1  0.168530  0.288670  0.925170  1.0  0.1785
  C  C234  1  0.856700  0.604800  0.173100  1.0  -0.0934
  C  C235  1  0.901600  0.623700  0.185800  1.0  0.0002
  C  C236  1  0.258030  0.327170  0.949170  1.0  -0.0189
  C  C237  1  0.233830  0.342770  0.030770  1.0  0.185
  C  C238  1  0.307030  0.346870  0.970770  1.0  0.3232
  C  C239  1  0.335730  0.395970  0.977270  1.0  0.0073
  C  C240  1  0.993100  0.757900  0.231800  1.0  -0.0349
  C  C241  1  0.356530  0.469770  0.902570  1.0  -0.1804
  C  C242  1  0.394930  0.484070  0.986070  1.0  0.1886
  C  C243  1  0.376730  0.413670  0.056970  1.0  0.2038
  C  C244  1  0.076030  0.251770  0.225170  1.0  0.6582
  C  C245  1  0.368970  0.868330  0.934930  1.0  0.2509
  C  C246  1  0.377670  0.839430  0.047330  1.0  0.3957
  C  C247  1  0.378000  0.213200  0.258500  1.0  0.1825
  C  C248  1  0.061870  0.585230  0.506430  1.0  -0.0987
  C  C249  1  0.042970  0.611230  0.519130  1.0  0.0016
  C  C250  1  0.339500  0.264200  0.282500  1.0  -0.0195
  C  C251  1  0.323900  0.224400  0.364100  1.0  0.1843
  C  C252  1  0.319800  0.293500  0.304100  1.0  0.312
  C  C253  1  0.270700  0.273100  0.310600  1.0  0.0063
  C  C254  1  0.908770  0.568530  0.565130  1.0  -0.0349
  C  C255  1  0.196900  0.220100  0.235900  1.0  -0.1795
  C  C256  1  0.182600  0.244200  0.319400  1.0  0.1873
  C  C257  1  0.253000  0.296400  0.390300  1.0  0.1983
  C  C258  1  0.414900  0.157600  0.558500  1.0  0.6596
  C  C259  1  0.798330  0.833970  0.268270  1.0  0.2525
  C  C260  1  0.827230  0.871570  0.380670  1.0  0.4019
  C  C261  1  0.044670  0.546530  0.591830  1.0  0.1825
  C  C262  1  0.728530  0.918570  0.839770  1.0  -0.0973
  C  C263  1  0.709630  0.944570  0.852470  1.0  0.0016
  C  C264  1  0.006170  0.597530  0.615830  1.0  -0.0195
  C  C265  1  0.990570  0.557730  0.697430  1.0  0.1843
  C  C266  1  0.986470  0.626830  0.637430  1.0  0.3228
  C  C267  1  0.937370  0.606430  0.643930  1.0  0.0061
  C  C268  1  0.575430  0.901870  0.898470  1.0  -0.0351
  C  C269  1  0.863570  0.553430  0.569230  1.0  -0.1795
  C  C270  1  0.849270  0.577530  0.652730  1.0  0.1873
  C  C271  1  0.919670  0.629730  0.723630  1.0  0.2018
  C  C272  1  0.081570  0.490930  0.891830  1.0  0.6596
  C  C273  1  0.465000  0.167300  0.601600  1.0  0.2526
  C  C274  1  0.493900  0.204900  0.714000  1.0  0.3935
  C  C275  1  0.711330  0.879870  0.925170  1.0  0.1825
  C  C276  1  0.395200  0.251900  0.173100  1.0  -0.0964
  C  C277  1  0.376300  0.277900  0.185800  1.0  0.0008
  C  C278  1  0.672830  0.930870  0.949170  1.0  -0.0195
  C  C279  1  0.657230  0.891070  0.030770  1.0  0.1843
  C  C280  1  0.653130  0.960170  0.970770  1.0  0.3228
  C  C281  1  0.604030  0.939770  0.977270  1.0  0.0062
  C  C282  1  0.242100  0.235200  0.231800  1.0  -0.0349
  C  C283  1  0.530230  0.886770  0.902570  1.0  -0.1793
  C  C284  1  0.515930  0.910870  0.986070  1.0  0.1873
  C  C285  1  0.586330  0.963070  0.056970  1.0  0.202
  C  C286  1  0.748230  0.824270  0.225170  1.0  0.6596
  C  C287  1  0.131670  0.500630  0.934930  1.0  0.2526
  C  C288  1  0.160570  0.538230  0.047330  1.0  0.3935
  C  C289  1  0.213200  0.835200  0.741500  1.0  0.1782
  C  C290  1  0.585230  0.523370  0.493570  1.0  -0.0969
  C  C291  1  0.611230  0.568270  0.480870  1.0  -0.0003
  C  C292  1  0.264200  0.924700  0.717500  1.0  -0.0174
  C  C293  1  0.224400  0.900500  0.635900  1.0  0.1836
  C  C294  1  0.293500  0.973700  0.695900  1.0  0.3121
  C  C295  1  0.273100  0.002400  0.689400  1.0  0.0056
  C  C296  1  0.568530  0.659770  0.434870  1.0  -0.0334
  C  C297  1  0.220100  0.023200  0.764100  1.0  -0.1806
  C  C298  1  0.244200  0.061600  0.680600  1.0  0.1927
  C  C299  1  0.296400  0.043400  0.609700  1.0  0.1994
  C  C300  1  0.157600  0.742700  0.441500  1.0  0.6594
  C  C301  1  0.833970  0.035630  0.731730  1.0  0.2543
  C  C302  1  0.871570  0.044330  0.619330  1.0  0.4011
  C  C303  1  0.879870  0.168530  0.074830  1.0  0.1782
  C  C304  1  0.251900  0.856700  0.826900  1.0  -0.0947
  C  C305  1  0.277900  0.901600  0.814200  1.0  -0.0006
  C  C306  1  0.930870  0.258030  0.050830  1.0  -0.0174
  C  C307  1  0.891070  0.233830  0.969230  1.0  0.1836
  C  C308  1  0.960170  0.307030  0.029230  1.0  0.3121
  C  C309  1  0.939770  0.335730  0.022730  1.0  0.0056
  C  C310  1  0.235200  0.993100  0.768200  1.0  -0.0335
  C  C311  1  0.886770  0.356530  0.097430  1.0  -0.1808
  C  C312  1  0.910870  0.394930  0.013930  1.0  0.1926
  C  C313  1  0.963070  0.376730  0.943030  1.0  0.1991
  C  C314  1  0.824270  0.076030  0.774830  1.0  0.6593
  C  C315  1  0.500630  0.368970  0.065070  1.0  0.2544
  C  C316  1  0.538230  0.377670  0.952670  1.0  0.4011
  C  C317  1  0.546530  0.501870  0.408170  1.0  0.1782
  C  C318  1  0.918570  0.190030  0.160230  1.0  -0.0965
  C  C319  1  0.944570  0.234930  0.147530  1.0  -0.0011
  C  C320  1  0.597530  0.591370  0.384170  1.0  -0.0174
  C  C321  1  0.557730  0.567170  0.302570  1.0  0.1836
  C  C322  1  0.626830  0.640370  0.362570  1.0  0.323
  C  C323  1  0.606430  0.669070  0.356070  1.0  0.0057
  C  C324  1  0.901870  0.326430  0.101530  1.0  -0.0336
  C  C325  1  0.553430  0.689870  0.430770  1.0  -0.1806
  C  C326  1  0.577530  0.728270  0.347270  1.0  0.1926
  C  C327  1  0.629730  0.710070  0.276370  1.0  0.2032
  C  C328  1  0.490930  0.409370  0.108170  1.0  0.6594
  C  C329  1  0.167300  0.702300  0.398400  1.0  0.2543
  C  C330  1  0.204900  0.711000  0.286000  1.0  0.3925
  C  C331  1  0.164800  0.378000  0.741500  1.0  0.1794
  C  C332  1  0.476630  0.061870  0.493570  1.0  -0.0938
  C  C333  1  0.431730  0.042970  0.480870  1.0  -0.0003
  C  C334  1  0.075300  0.339500  0.717500  1.0  -0.0189
  C  C335  1  0.099500  0.323900  0.635900  1.0  0.1856
  C  C336  1  0.026300  0.319800  0.695900  1.0  0.3101
  C  C337  1  0.997600  0.270700  0.689400  1.0  0.0071
  C  C338  1  0.340230  0.908770  0.434870  1.0  -0.0348
  C  C339  1  0.976800  0.196900  0.764100  1.0  -0.1801
  C  C340  1  0.938400  0.182600  0.680600  1.0  0.1883
  C  C341  1  0.956600  0.253000  0.609700  1.0  0.1991
  C  C342  1  0.257300  0.414900  0.441500  1.0  0.6585
  C  C343  1  0.964370  0.798330  0.731730  1.0  0.2531
  C  C344  1  0.955670  0.827230  0.619330  1.0  0.4061
  C  C345  1  0.831470  0.711330  0.074830  1.0  0.1794
  C  C346  1  0.143300  0.395200  0.826900  1.0  -0.0919
  C  C347  1  0.098400  0.376300  0.814200  1.0  -0.0006
  C  C348  1  0.741970  0.672830  0.050830  1.0  -0.0189
  C  C349  1  0.766170  0.657230  0.969230  1.0  0.1856
  C  C350  1  0.692970  0.653130  0.029230  1.0  0.3101
  C  C351  1  0.664270  0.604030  0.022730  1.0  0.0071
  C  C352  1  0.006900  0.242100  0.768200  1.0  -0.0347
  C  C353  1  0.643470  0.530230  0.097430  1.0  -0.1804
  C  C354  1  0.605070  0.515930  0.013930  1.0  0.1883
  C  C355  1  0.623270  0.586330  0.943030  1.0  0.1993
  C  C356  1  0.923970  0.748230  0.774830  1.0  0.6585
  C  C357  1  0.631030  0.131670  0.065070  1.0  0.253
  C  C358  1  0.622330  0.160570  0.952670  1.0  0.4061
  C  C359  1  0.498130  0.044670  0.408170  1.0  0.1794
  C  C360  1  0.809970  0.728530  0.160230  1.0  -0.0936
  C  C361  1  0.765070  0.709630  0.147530  1.0  -0.0011
  C  C362  1  0.408630  0.006170  0.384170  1.0  -0.0189
  C  C363  1  0.432830  0.990570  0.302570  1.0  0.1858
  C  C364  1  0.359630  0.986470  0.362570  1.0  0.3212
  C  C365  1  0.330930  0.937370  0.356070  1.0  0.0072
  C  C366  1  0.673570  0.575430  0.101530  1.0  -0.0347
  C  C367  1  0.310130  0.863570  0.430770  1.0  -0.1802
  C  C368  1  0.271730  0.849270  0.347270  1.0  0.1883
  C  C369  1  0.289930  0.919670  0.276370  1.0  0.2028
  C  C370  1  0.590630  0.081570  0.108170  1.0  0.6584
  C  C371  1  0.297700  0.465000  0.398400  1.0  0.2529
  C  C372  1  0.289000  0.493900  0.286000  1.0  0.3976
  C  C373  1  0.622000  0.786800  0.741500  1.0  0.1816
  C  C374  1  0.938130  0.414770  0.493570  1.0  -0.1011
  C  C375  1  0.957030  0.388770  0.480870  1.0  1e-04
  C  C376  1  0.660500  0.735800  0.717500  1.0  -0.0181
  C  C377  1  0.676100  0.775600  0.635900  1.0  0.1849
  C  C378  1  0.680200  0.706500  0.695900  1.0  0.3133
  C  C379  1  0.729300  0.726900  0.689400  1.0  0.0063
  C  C380  1  0.091230  0.431470  0.434870  1.0  -0.0397
  C  C381  1  0.803100  0.779900  0.764100  1.0  -0.1786
  C  C382  1  0.817400  0.755800  0.680600  1.0  0.1884
  C  C383  1  0.747000  0.703600  0.609700  1.0  0.1984
  C  C384  1  0.585100  0.842400  0.441500  1.0  0.6609
  C  C385  1  0.201670  0.166030  0.731730  1.0  0.2529
  C  C386  1  0.172770  0.128430  0.619330  1.0  0.4044
  C  C387  1  0.288670  0.120130  0.074830  1.0  0.1816
  C  C388  1  0.604800  0.748100  0.826900  1.0  -0.0992
  C  C389  1  0.623700  0.722100  0.814200  1.0  -0.0002
  C  C390  1  0.327170  0.069130  0.050830  1.0  -0.0181
  C  C391  1  0.342770  0.108930  0.969230  1.0  0.1849
  C  C392  1  0.346870  0.039830  0.029230  1.0  0.3133
  C  C393  1  0.395970  0.060230  0.022730  1.0  0.0063
  C  C394  1  0.757900  0.764800  0.768200  1.0  -0.0397
  C  C395  1  0.469770  0.113230  0.097430  1.0  -0.1784
  C  C396  1  0.484070  0.089130  0.013930  1.0  0.1884
  C  C397  1  0.413670  0.036930  0.943030  1.0  0.1985
  C  C398  1  0.251770  0.175730  0.774830  1.0  0.6609
  C  C399  1  0.868330  0.499370  0.065070  1.0  0.253
  C  C400  1  0.839430  0.461770  0.952670  1.0  0.4044
  C  C401  1  0.955330  0.453470  0.408170  1.0  0.1816
  C  C402  1  0.271470  0.081430  0.160230  1.0  -0.101
  C  C403  1  0.290370  0.055430  0.147530  1.0  -0.0006
  C  C404  1  0.993830  0.402470  0.384170  1.0  -0.0181
  C  C405  1  0.009430  0.442270  0.302570  1.0  0.1849
  C  C406  1  0.013530  0.373170  0.362570  1.0  0.3244
  C  C407  1  0.062630  0.393570  0.356070  1.0  0.0062
  C  C408  1  0.424570  0.098130  0.101530  1.0  -0.0398
  C  C409  1  0.136430  0.446570  0.430770  1.0  -0.1786
  C  C410  1  0.150730  0.422470  0.347270  1.0  0.1885
  C  C411  1  0.080330  0.370270  0.276370  1.0  0.202
  C  C412  1  0.918430  0.509070  0.108170  1.0  0.6609
  C  C413  1  0.535000  0.832700  0.398400  1.0  0.253
  C  C414  1  0.506100  0.795100  0.286000  1.0  0.3957
  N  N415  1  0.800500  0.143700  0.355100  1.0  -0.3231
  N  N416  1  0.718000  0.927600  0.396000  1.0  -0.3194
  N  N417  1  0.467170  0.477030  0.688430  1.0  -0.3233
  N  N418  1  0.384670  0.260930  0.729330  1.0  -0.3194
  N  N419  1  0.133830  0.810370  0.021770  1.0  -0.3232
  N  N420  1  0.051330  0.594270  0.062670  1.0  -0.3195
  N  N421  1  0.856300  0.656800  0.355100  1.0  -0.3275
  N  N422  1  0.072400  0.790400  0.396000  1.0  -0.3209
  N  N423  1  0.522970  0.990130  0.688430  1.0  -0.3273
  N  N424  1  0.739070  0.123730  0.729330  1.0  -0.3209
  N  N425  1  0.189630  0.323470  0.021770  1.0  -0.3276
  N  N426  1  0.405730  0.457070  0.062670  1.0  -0.3209
  N  N427  1  0.343200  0.199500  0.355100  1.0  -0.3235
  N  N428  1  0.209600  0.282000  0.396000  1.0  -0.3216
  N  N429  1  0.009870  0.532830  0.688430  1.0  -0.3233
  N  N430  1  0.876270  0.615330  0.729330  1.0  -0.3214
  N  N431  1  0.676530  0.866170  0.021770  1.0  -0.3233
  N  N432  1  0.542930  0.948670  0.062670  1.0  -0.3214
  N  N433  1  0.199500  0.856300  0.644900  1.0  -0.3275
  N  N434  1  0.282000  0.072400  0.604000  1.0  -0.3198
  N  N435  1  0.866170  0.189630  0.978230  1.0  -0.3275
  N  N436  1  0.948670  0.405730  0.937330  1.0  -0.32
  N  N437  1  0.532830  0.522970  0.311570  1.0  -0.3278
  N  N438  1  0.615330  0.739070  0.270670  1.0  -0.3198
  N  N439  1  0.143700  0.343200  0.644900  1.0  -0.3249
  N  N440  1  0.927600  0.209600  0.604000  1.0  -0.3247
  N  N441  1  0.810370  0.676530  0.978230  1.0  -0.3249
  N  N442  1  0.594270  0.542930  0.937330  1.0  -0.3247
  N  N443  1  0.477030  0.009870  0.311570  1.0  -0.325
  N  N444  1  0.260930  0.876270  0.270670  1.0  -0.3247
  N  N445  1  0.656800  0.800500  0.644900  1.0  -0.3253
  N  N446  1  0.790400  0.718000  0.604000  1.0  -0.3211
  N  N447  1  0.323470  0.133830  0.978230  1.0  -0.3253
  N  N448  1  0.457070  0.051330  0.937330  1.0  -0.321
  N  N449  1  0.990130  0.467170  0.311570  1.0  -0.3254
  N  N450  1  0.123730  0.384670  0.270670  1.0  -0.321
  O  O451  1  0.332930  0.344040  0.647930  1.0  -0.4645
  O  O452  1  0.166530  0.897370  0.325770  1.0  -0.6262
  O  O453  1  0.860200  0.259500  0.429700  1.0  -0.5951
  O  O454  1  0.999590  0.677380  0.981270  1.0  -0.4645
  O  O455  1  0.833200  0.230700  0.659100  1.0  -0.6267
  O  O456  1  0.526870  0.592830  0.763030  1.0  -0.5951
  O  O457  1  0.666260  0.010710  0.314600  1.0  -0.4645
  O  O458  1  0.499870  0.564030  0.992430  1.0  -0.627
  O  O459  1  0.193530  0.926170  0.096370  1.0  -0.595
  O  O460  1  0.655960  0.988880  0.647930  1.0  -0.4646
  O  O461  1  0.102630  0.269170  0.325770  1.0  -0.6237
  O  O462  1  0.740500  0.600700  0.429700  1.0  -0.5934
  O  O463  1  0.322620  0.322220  0.981270  1.0  -0.4647
  O  O464  1  0.769300  0.602500  0.659100  1.0  -0.6242
  O  O465  1  0.407170  0.934030  0.763030  1.0  -0.5932
  O  O466  1  0.989290  0.655550  0.314600  1.0  -0.4647
  O  O467  1  0.435970  0.935830  0.992430  1.0  -0.6243
  O  O468  1  0.073830  0.267370  0.096370  1.0  -0.593
  O  O469  1  0.011120  0.667070  0.647930  1.0  -0.4638
  O  O470  1  0.730830  0.833470  0.325770  1.0  -0.6243
  O  O471  1  0.399300  0.139800  0.429700  1.0  -0.5912
  O  O472  1  0.677780  0.000410  0.981270  1.0  -0.4639
  O  O473  1  0.397500  0.166800  0.659100  1.0  -0.6247
  O  O474  1  0.065970  0.473130  0.763030  1.0  -0.5913
  O  O475  1  0.344450  0.333740  0.314600  1.0  -0.4638
  O  O476  1  0.064170  0.500130  0.992430  1.0  -0.6244
  O  O477  1  0.732630  0.806470  0.096370  1.0  -0.5911
  O  O478  1  0.667070  0.655960  0.352070  1.0  -0.465
  O  O479  1  0.833470  0.102630  0.674230  1.0  -0.6254
  O  O480  1  0.139800  0.740500  0.570300  1.0  -0.5921
  O  O481  1  0.333740  0.989290  0.685400  1.0  -0.465
  O  O482  1  0.500130  0.435970  0.007570  1.0  -0.6257
  O  O483  1  0.806470  0.073830  0.903630  1.0  -0.5922
  O  O484  1  0.000410  0.322620  0.018730  1.0  -0.465
  O  O485  1  0.166800  0.769300  0.340900  1.0  -0.6253
  O  O486  1  0.473130  0.407170  0.236970  1.0  -0.5922
  O  O487  1  0.344040  0.011120  0.352070  1.0  -0.4642
  O  O488  1  0.897370  0.730830  0.674230  1.0  -0.625
  O  O489  1  0.259500  0.399300  0.570300  1.0  -0.5914
  O  O490  1  0.010710  0.344450  0.685400  1.0  -0.4642
  O  O491  1  0.564030  0.064170  0.007570  1.0  -0.625
  O  O492  1  0.926170  0.732630  0.903630  1.0  -0.5914
  O  O493  1  0.677380  0.677780  0.018730  1.0  -0.4642
  O  O494  1  0.230700  0.397500  0.340900  1.0  -0.6249
  O  O495  1  0.592830  0.065970  0.236970  1.0  -0.5914
  O  O496  1  0.988880  0.332930  0.352070  1.0  -0.4638
  O  O497  1  0.269170  0.166530  0.674230  1.0  -0.6251
  O  O498  1  0.600700  0.860200  0.570300  1.0  -0.5909
  O  O499  1  0.655550  0.666260  0.685400  1.0  -0.4638
  O  O500  1  0.935830  0.499870  0.007570  1.0  -0.6248
  O  O501  1  0.267370  0.193530  0.903630  1.0  -0.5907
  O  O502  1  0.322220  0.999590  0.018730  1.0  -0.464
  O  O503  1  0.602500  0.833200  0.340900  1.0  -0.6249
  O  O504  1  0.934030  0.526870  0.236970  1.0  -0.5907
  F  F505  1  0.197530  0.992770  0.371170  1.0  -0.2466
  F  F506  1  0.842900  0.322800  0.469000  1.0  -0.1912
  F  F507  1  0.138430  0.940570  0.508670  1.0  -0.2065
  F  F508  1  0.132530  0.995570  0.394670  1.0  -0.1906
  F  F509  1  0.092830  0.925970  0.301670  1.0  -0.1884
  F  F510  1  0.864200  0.326100  0.704500  1.0  -0.2453
  F  F511  1  0.509570  0.656130  0.802330  1.0  -0.1913
  F  F512  1  0.805100  0.273900  0.842000  1.0  -0.2065
  F  F513  1  0.799200  0.328900  0.728000  1.0  -0.1949
  F  F514  1  0.759500  0.259300  0.635000  1.0  -0.1858
  F  F515  1  0.530870  0.659430  0.037830  1.0  -0.2453
  F  F516  1  0.176230  0.989470  0.135670  1.0  -0.1912
  F  F517  1  0.471770  0.607230  0.175330  1.0  -0.2065
  F  F518  1  0.465870  0.662230  0.061330  1.0  -0.1949
  F  F519  1  0.426170  0.592630  0.968330  1.0  -0.1858
  F  F520  1  0.007230  0.204770  0.371170  1.0  -0.2453
  F  F521  1  0.677200  0.520100  0.469000  1.0  -0.1945
  F  F522  1  0.059430  0.197870  0.508670  1.0  -0.2032
  F  F523  1  0.004430  0.136970  0.394670  1.0  -0.1937
  F  F524  1  0.074030  0.166870  0.301670  1.0  -0.1864
  F  F525  1  0.673900  0.538100  0.704500  1.0  -0.2439
  F  F526  1  0.343870  0.853430  0.802330  1.0  -0.1944
  F  F527  1  0.726100  0.531200  0.842000  1.0  -0.2032
  F  F528  1  0.671100  0.470300  0.728000  1.0  -0.1883
  F  F529  1  0.740700  0.500200  0.635000  1.0  -0.18
  F  F530  1  0.340570  0.871430  0.037830  1.0  -0.2439
  F  F531  1  0.010530  0.186770  0.135670  1.0  -0.1945
  F  F532  1  0.392770  0.864530  0.175330  1.0  -0.2032
  F  F533  1  0.337770  0.803630  0.061330  1.0  -0.1884
  F  F534  1  0.407370  0.833530  0.968330  1.0  -0.1801
  F  F535  1  0.795230  0.802470  0.371170  1.0  -0.2448
  F  F536  1  0.479900  0.157100  0.469000  1.0  -0.1954
  F  F537  1  0.802130  0.861570  0.508670  1.0  -0.2054
  F  F538  1  0.863030  0.867470  0.394670  1.0  -0.1955
  F  F539  1  0.833130  0.907170  0.301670  1.0  -0.1924
  F  F540  1  0.461900  0.135800  0.704500  1.0  -0.2436
  F  F541  1  0.146570  0.490430  0.802330  1.0  -0.1956
  F  F542  1  0.468800  0.194900  0.842000  1.0  -0.2055
  F  F543  1  0.529700  0.200800  0.728000  1.0  -0.1955
  F  F544  1  0.499800  0.240500  0.635000  1.0  -0.1924
  F  F545  1  0.128570  0.469130  0.037830  1.0  -0.2437
  F  F546  1  0.813230  0.823770  0.135670  1.0  -0.1954
  F  F547  1  0.135470  0.528230  0.175330  1.0  -0.2054
  F  F548  1  0.196370  0.534130  0.061330  1.0  -0.1955
  F  F549  1  0.166470  0.573830  0.968330  1.0  -0.1923
  F  F550  1  0.802470  0.007230  0.628830  1.0  -0.246
  F  F551  1  0.157100  0.677200  0.531000  1.0  -0.1933
  F  F552  1  0.861570  0.059430  0.491330  1.0  -0.2037
  F  F553  1  0.867470  0.004430  0.605330  1.0  -0.1888
  F  F554  1  0.907170  0.074030  0.698330  1.0  -0.1875
  F  F555  1  0.469130  0.340570  0.962170  1.0  -0.246
  F  F556  1  0.823770  0.010530  0.864330  1.0  -0.1933
  F  F557  1  0.528230  0.392770  0.824670  1.0  -0.2037
  F  F558  1  0.534130  0.337770  0.938670  1.0  -0.1925
  F  F559  1  0.573830  0.407370  0.031670  1.0  -0.1849
  F  F560  1  0.135800  0.673900  0.295500  1.0  -0.2449
  F  F561  1  0.490430  0.343870  0.197670  1.0  -0.1933
  F  F562  1  0.194900  0.726100  0.158000  1.0  -0.2037
  F  F563  1  0.200800  0.671100  0.272000  1.0  -0.1929
  F  F564  1  0.240500  0.740700  0.365000  1.0  -0.1849
  F  F565  1  0.992770  0.795230  0.628830  1.0  -0.2462
  F  F566  1  0.322800  0.479900  0.531000  1.0  -0.1948
  F  F567  1  0.940570  0.802130  0.491330  1.0  -0.2017
  F  F568  1  0.995570  0.863030  0.605330  1.0  -0.1933
  F  F569  1  0.925970  0.833130  0.698330  1.0  -0.1886
  F  F570  1  0.659430  0.128570  0.962170  1.0  -0.2462
  F  F571  1  0.989470  0.813230  0.864330  1.0  -0.1948
  F  F572  1  0.607230  0.135470  0.824670  1.0  -0.2017
  F  F573  1  0.662230  0.196370  0.938670  1.0  -0.1892
  F  F574  1  0.592630  0.166470  0.031670  1.0  -0.1804
  F  F575  1  0.326100  0.461900  0.295500  1.0  -0.2451
  F  F576  1  0.656130  0.146570  0.197670  1.0  -0.1947
  F  F577  1  0.273900  0.468800  0.158000  1.0  -0.2017
  F  F578  1  0.328900  0.529700  0.272000  1.0  -0.1892
  F  F579  1  0.259300  0.499800  0.365000  1.0  -0.1803
  F  F580  1  0.204770  0.197530  0.628830  1.0  -0.2466
  F  F581  1  0.520100  0.842900  0.531000  1.0  -0.1935
  F  F582  1  0.197870  0.138430  0.491330  1.0  -0.2044
  F  F583  1  0.136970  0.132530  0.605330  1.0  -0.1949
  F  F584  1  0.166870  0.092830  0.698330  1.0  -0.1905
  F  F585  1  0.871430  0.530870  0.962170  1.0  -0.2466
  F  F586  1  0.186770  0.176230  0.864330  1.0  -0.1935
  F  F587  1  0.864530  0.471770  0.824670  1.0  -0.2044
  F  F588  1  0.803630  0.465870  0.938670  1.0  -0.1949
  F  F589  1  0.833530  0.426170  0.031670  1.0  -0.1905
  F  F590  1  0.538100  0.864200  0.295500  1.0  -0.2453
  F  F591  1  0.853430  0.509570  0.197670  1.0  -0.1936
  F  F592  1  0.531200  0.805100  0.158000  1.0  -0.2044
  F  F593  1  0.470300  0.799200  0.272000  1.0  -0.1949
  F  F594  1  0.500200  0.759500  0.365000  1.0  -0.1906
