# generated using pymatgen
data_AgH8C11N2O
_symmetry_space_group_name_H-M   'P 1'
_cell_length_a   33.49680000
_cell_length_b   33.49680000
_cell_length_c   8.51640000
_cell_angle_alpha   90.00000000
_cell_angle_beta   90.00000000
_cell_angle_gamma   120.00000000
_symmetry_Int_Tables_number   1
_chemical_formula_structural   AgH8C11N2O
_chemical_formula_sum   'Ag18 H144 C198 N36 O18'
_cell_volume   8275.48247657
_cell_formula_units_Z   18
loop_
 _symmetry_equiv_pos_site_id
 _symmetry_equiv_pos_as_xyz
  1  'x, y, z'
loop_
 _atom_site_type_symbol
 _atom_site_label
 _atom_site_symmetry_multiplicity
 _atom_site_fract_x
 _atom_site_fract_y
 _atom_site_fract_z
 _atom_site_occupancy
 _atom_site_charge
  Ag  Ag1  1  0.147250  0.323070  0.503080  1.0  0.221
  Ag  Ag2  1  0.813920  0.656400  0.836410  1.0  0.221
  Ag  Ag3  1  0.480590  0.989730  0.169750  1.0  0.2238
  Ag  Ag4  1  0.676930  0.824190  0.503080  1.0  0.2237
  Ag  Ag5  1  0.343600  0.157520  0.836410  1.0  0.2237
  Ag  Ag6  1  0.010270  0.490850  0.169750  1.0  0.2208
  Ag  Ag7  1  0.175810  0.852750  0.503080  1.0  0.221
  Ag  Ag8  1  0.842480  0.186080  0.836410  1.0  0.221
  Ag  Ag9  1  0.509150  0.519410  0.169750  1.0  0.2239
  Ag  Ag10  1  0.852740  0.676930  0.496920  1.0  0.2234
  Ag  Ag11  1  0.519410  0.010270  0.830250  1.0  0.2234
  Ag  Ag12  1  0.186080  0.343600  0.163590  1.0  0.2205
  Ag  Ag13  1  0.323070  0.175810  0.496920  1.0  0.2242
  Ag  Ag14  1  0.989730  0.509150  0.830250  1.0  0.2213
  Ag  Ag15  1  0.656400  0.842480  0.163590  1.0  0.2242
  Ag  Ag16  1  0.824190  0.147250  0.496920  1.0  0.2214
  Ag  Ag17  1  0.490850  0.480590  0.830250  1.0  0.2243
  Ag  Ag18  1  0.157520  0.813920  0.163590  1.0  0.2214
  H  H19  1  0.200700  0.394300  0.761900  1.0  0.0656
  H  H20  1  0.260200  0.416600  0.942500  1.0  0.0963
  H  H21  1  0.304100  0.379700  0.939700  1.0  0.0945
  H  H22  1  0.222600  0.297400  0.592900  1.0  0.0794
  H  H23  1  0.210000  0.240100  0.829500  1.0  0.1018
  H  H24  1  0.181500  0.161200  0.784800  1.0  0.0988
  H  H25  1  0.226000  0.137700  0.652300  1.0  0.0745
  H  H26  1  0.328000  0.265500  0.617400  1.0  0.0688
  H  H27  1  0.867370  0.727630  0.095230  1.0  0.0656
  H  H28  1  0.926870  0.749930  0.275830  1.0  0.0963
  H  H29  1  0.970770  0.713030  0.273030  1.0  0.0945
  H  H30  1  0.889270  0.630730  0.926230  1.0  0.0794
  H  H31  1  0.876670  0.573430  0.162830  1.0  0.1018
  H  H32  1  0.848170  0.494530  0.118130  1.0  0.0988
  H  H33  1  0.892670  0.471030  0.985630  1.0  0.0745
  H  H34  1  0.994670  0.598830  0.950730  1.0  0.07
  H  H35  1  0.534030  0.060970  0.428570  1.0  0.0656
  H  H36  1  0.593530  0.083270  0.609170  1.0  0.0963
  H  H37  1  0.637430  0.046370  0.606370  1.0  0.0945
  H  H38  1  0.555930  0.964070  0.259570  1.0  0.0794
  H  H39  1  0.543330  0.906770  0.496170  1.0  0.1018
  H  H40  1  0.514830  0.827870  0.451470  1.0  0.0989
  H  H41  1  0.559330  0.804370  0.318970  1.0  0.0745
  H  H42  1  0.661330  0.932170  0.284070  1.0  0.0688
  H  H43  1  0.605700  0.806400  0.761900  1.0  0.0647
  H  H44  1  0.583400  0.843600  0.942500  1.0  0.0955
  H  H45  1  0.620300  0.924400  0.939700  1.0  0.0941
  H  H46  1  0.702600  0.925200  0.592900  1.0  0.0803
  H  H47  1  0.759900  0.969900  0.829500  1.0  0.1018
  H  H48  1  0.838800  0.020300  0.784800  1.0  0.0976
  H  H49  1  0.862300  0.088300  0.652300  1.0  0.0757
  H  H50  1  0.734500  0.062500  0.617400  1.0  0.0703
  H  H51  1  0.272370  0.139730  0.095230  1.0  0.0647
  H  H52  1  0.250070  0.176930  0.275830  1.0  0.0955
  H  H53  1  0.286970  0.257730  0.273030  1.0  0.0941
  H  H54  1  0.369270  0.258530  0.926230  1.0  0.0803
  H  H55  1  0.426570  0.303230  0.162830  1.0  0.1018
  H  H56  1  0.505470  0.353630  0.118130  1.0  0.0976
  H  H57  1  0.528970  0.421630  0.985630  1.0  0.0757
  H  H58  1  0.401170  0.395830  0.950730  1.0  0.0689
  H  H59  1  0.939030  0.473070  0.428570  1.0  0.0647
  H  H60  1  0.916730  0.510270  0.609170  1.0  0.0955
  H  H61  1  0.953630  0.591070  0.606370  1.0  0.0941
  H  H62  1  0.035930  0.591870  0.259570  1.0  0.0804
  H  H63  1  0.093230  0.636570  0.496170  1.0  0.1018
  H  H64  1  0.172130  0.686970  0.451470  1.0  0.0977
  H  H65  1  0.195630  0.754970  0.318970  1.0  0.0757
  H  H66  1  0.067830  0.729170  0.284070  1.0  0.0703
  H  H67  1  0.193600  0.799300  0.761900  1.0  0.0665
  H  H68  1  0.156400  0.739800  0.942500  1.0  0.0949
  H  H69  1  0.075600  0.695900  0.939700  1.0  0.0932
  H  H70  1  0.074800  0.777400  0.592900  1.0  0.08
  H  H71  1  0.030100  0.790000  0.829500  1.0  0.1021
  H  H72  1  0.979700  0.818500  0.784800  1.0  0.0997
  H  H73  1  0.911700  0.774000  0.652300  1.0  0.0745
  H  H74  1  0.937500  0.672000  0.617400  1.0  0.0695
  H  H75  1  0.860270  0.132630  0.095230  1.0  0.0665
  H  H76  1  0.823070  0.073130  0.275830  1.0  0.0949
  H  H77  1  0.742270  0.029230  0.273030  1.0  0.0932
  H  H78  1  0.741470  0.110730  0.926230  1.0  0.08
  H  H79  1  0.696770  0.123330  0.162830  1.0  0.1021
  H  H80  1  0.646370  0.151830  0.118130  1.0  0.0997
  H  H81  1  0.578370  0.107330  0.985630  1.0  0.0745
  H  H82  1  0.604170  0.005330  0.950730  1.0  0.0695
  H  H83  1  0.526930  0.465970  0.428570  1.0  0.0665
  H  H84  1  0.489730  0.406470  0.609170  1.0  0.0949
  H  H85  1  0.408930  0.362570  0.606370  1.0  0.0932
  H  H86  1  0.408130  0.444070  0.259570  1.0  0.0799
  H  H87  1  0.363430  0.456670  0.496170  1.0  0.1022
  H  H88  1  0.313030  0.485170  0.451470  1.0  0.0995
  H  H89  1  0.245030  0.440670  0.318970  1.0  0.0744
  H  H90  1  0.270830  0.338670  0.284070  1.0  0.0694
  H  H91  1  0.799300  0.605700  0.238100  1.0  0.0659
  H  H92  1  0.739800  0.583400  0.057500  1.0  0.0961
  H  H93  1  0.695900  0.620300  0.060300  1.0  0.0944
  H  H94  1  0.777400  0.702600  0.407100  1.0  0.0793
  H  H95  1  0.790000  0.759900  0.170500  1.0  0.1016
  H  H96  1  0.818500  0.838800  0.215200  1.0  0.0994
  H  H97  1  0.774000  0.862300  0.347700  1.0  0.0756
  H  H98  1  0.672000  0.734500  0.382600  1.0  0.0698
  H  H99  1  0.465970  0.939030  0.571430  1.0  0.0659
  H  H100  1  0.406470  0.916730  0.390830  1.0  0.0961
  H  H101  1  0.362570  0.953630  0.393630  1.0  0.0944
  H  H102  1  0.444070  0.035930  0.740430  1.0  0.0794
  H  H103  1  0.456670  0.093230  0.503830  1.0  0.1015
  H  H104  1  0.485170  0.172130  0.548530  1.0  0.0997
  H  H105  1  0.440670  0.195630  0.681030  1.0  0.0757
  H  H106  1  0.338670  0.067830  0.715930  1.0  0.0699
  H  H107  1  0.132630  0.272370  0.904770  1.0  0.0659
  H  H108  1  0.073130  0.250070  0.724170  1.0  0.0961
  H  H109  1  0.029230  0.286970  0.726970  1.0  0.0944
  H  H110  1  0.110730  0.369270  0.073770  1.0  0.0793
  H  H111  1  0.123330  0.426570  0.837170  1.0  0.1015
  H  H112  1  0.151830  0.505470  0.881870  1.0  0.0994
  H  H113  1  0.107330  0.528970  0.014370  1.0  0.0756
  H  H114  1  0.005330  0.401170  0.049270  1.0  0.0711
  H  H115  1  0.394300  0.193600  0.238100  1.0  0.0645
  H  H116  1  0.416600  0.156400  0.057500  1.0  0.0958
  H  H117  1  0.379700  0.075600  0.060300  1.0  0.0944
  H  H118  1  0.297400  0.074800  0.407100  1.0  0.0795
  H  H119  1  0.240100  0.030100  0.170500  1.0  0.1026
  H  H120  1  0.161200  0.979700  0.215200  1.0  0.0985
  H  H121  1  0.137700  0.911700  0.347700  1.0  0.0754
  H  H122  1  0.265500  0.937500  0.382600  1.0  0.0705
  H  H123  1  0.060970  0.526930  0.571430  1.0  0.0645
  H  H124  1  0.083270  0.489730  0.390830  1.0  0.0958
  H  H125  1  0.046370  0.408930  0.393630  1.0  0.0944
  H  H126  1  0.964070  0.408130  0.740430  1.0  0.0795
  H  H127  1  0.906770  0.363430  0.503830  1.0  0.1026
  H  H128  1  0.827870  0.313030  0.548530  1.0  0.0987
  H  H129  1  0.804370  0.245030  0.681030  1.0  0.0754
  H  H130  1  0.932170  0.270830  0.715930  1.0  0.0706
  H  H131  1  0.727630  0.860270  0.904770  1.0  0.0645
  H  H132  1  0.749930  0.823070  0.724170  1.0  0.0958
  H  H133  1  0.713030  0.742270  0.726970  1.0  0.0944
  H  H134  1  0.630730  0.741470  0.073770  1.0  0.0795
  H  H135  1  0.573430  0.696770  0.837170  1.0  0.1026
  H  H136  1  0.494530  0.646370  0.881870  1.0  0.0985
  H  H137  1  0.471030  0.578370  0.014370  1.0  0.0754
  H  H138  1  0.598830  0.604170  0.049270  1.0  0.0692
  H  H139  1  0.806400  0.200700  0.238100  1.0  0.0675
  H  H140  1  0.843600  0.260200  0.057500  1.0  0.0955
  H  H141  1  0.924400  0.304100  0.060300  1.0  0.0939
  H  H142  1  0.925200  0.222600  0.407100  1.0  0.0799
  H  H143  1  0.969900  0.210000  0.170500  1.0  0.1021
  H  H144  1  0.020300  0.181500  0.215200  1.0  0.0996
  H  H145  1  0.088300  0.226000  0.347700  1.0  0.0748
  H  H146  1  0.062500  0.328000  0.382600  1.0  0.0692
  H  H147  1  0.473070  0.534030  0.571430  1.0  0.0675
  H  H148  1  0.510270  0.593530  0.390830  1.0  0.0955
  H  H149  1  0.591070  0.637430  0.393630  1.0  0.0939
  H  H150  1  0.591870  0.555930  0.740430  1.0  0.0797
  H  H151  1  0.636570  0.543330  0.503830  1.0  0.1021
  H  H152  1  0.686970  0.514830  0.548530  1.0  0.0996
  H  H153  1  0.754970  0.559330  0.681030  1.0  0.0748
  H  H154  1  0.729170  0.661330  0.715930  1.0  0.0692
  H  H155  1  0.139730  0.867370  0.904770  1.0  0.0675
  H  H156  1  0.176930  0.926870  0.724170  1.0  0.0955
  H  H157  1  0.257730  0.970770  0.726970  1.0  0.0939
  H  H158  1  0.258530  0.889270  0.073770  1.0  0.0799
  H  H159  1  0.303230  0.876670  0.837170  1.0  0.1021
  H  H160  1  0.353630  0.848170  0.881870  1.0  0.0996
  H  H161  1  0.421630  0.892670  0.014370  1.0  0.0748
  H  H162  1  0.395830  0.994670  0.049270  1.0  0.0692
  C  C163  1  0.217910  0.378840  0.762500  1.0  0.1289
  C  C164  1  0.253500  0.392510  0.870000  1.0  -0.1454
  C  C165  1  0.278910  0.370430  0.869700  1.0  -0.0286
  C  C166  1  0.267000  0.334320  0.764900  1.0  -0.0821
  C  C167  1  0.230830  0.322340  0.663100  1.0  0.1412
  C  C168  1  0.295140  0.311020  0.760200  1.0  0.2929
  C  C169  1  0.272190  0.260800  0.728300  1.0  -0.0416
  C  C170  1  0.228400  0.229900  0.777500  1.0  -0.0897
  C  C171  1  0.211400  0.183300  0.749900  1.0  -0.1821
  C  C172  1  0.238300  0.169650  0.672000  1.0  0.1124
  C  C173  1  0.297630  0.244040  0.650900  1.0  0.1496
  C  C174  1  0.884580  0.712170  0.095830  1.0  0.1289
  C  C175  1  0.920170  0.725840  0.203330  1.0  -0.1454
  C  C176  1  0.945580  0.703760  0.203030  1.0  -0.0288
  C  C177  1  0.933670  0.667650  0.098230  1.0  -0.0822
  C  C178  1  0.897500  0.655670  0.996430  1.0  0.1412
  C  C179  1  0.961810  0.644350  0.093530  1.0  0.2929
  C  C180  1  0.938860  0.594130  0.061630  1.0  -0.0417
  C  C181  1  0.895070  0.563230  0.110830  1.0  -0.0897
  C  C182  1  0.878070  0.516630  0.083230  1.0  -0.1821
  C  C183  1  0.904970  0.502980  0.005330  1.0  0.1124
  C  C184  1  0.964300  0.577370  0.984230  1.0  0.1496
  C  C185  1  0.551240  0.045510  0.429170  1.0  0.1289
  C  C186  1  0.586830  0.059180  0.536670  1.0  -0.1454
  C  C187  1  0.612240  0.037100  0.536370  1.0  -0.0288
  C  C188  1  0.600330  0.000990  0.431570  1.0  -0.0821
  C  C189  1  0.564160  0.989010  0.329770  1.0  0.1413
  C  C190  1  0.628470  0.977690  0.426870  1.0  0.2929
  C  C191  1  0.605520  0.927470  0.394970  1.0  -0.0416
  C  C192  1  0.561730  0.896570  0.444170  1.0  -0.0897
  C  C193  1  0.544730  0.849970  0.416570  1.0  -0.1821
  C  C194  1  0.571630  0.836320  0.338670  1.0  0.1124
  C  C195  1  0.630960  0.910710  0.317570  1.0  0.1496
  C  C196  1  0.621160  0.839070  0.762500  1.0  0.1278
  C  C197  1  0.607490  0.860990  0.870000  1.0  -0.148
  C  C198  1  0.629570  0.908480  0.869700  1.0  -0.0283
  C  C199  1  0.665680  0.932680  0.764900  1.0  -0.0805
  C  C200  1  0.677660  0.908490  0.663100  1.0  0.1417
  C  C201  1  0.688980  0.984120  0.760200  1.0  0.2941
  C  C202  1  0.739200  0.011390  0.728300  1.0  -0.0416
  C  C203  1  0.770100  0.998500  0.777500  1.0  -0.0925
  C  C204  1  0.816700  0.028100  0.749900  1.0  -0.1809
  C  C205  1  0.830350  0.068650  0.672000  1.0  0.1121
  C  C206  1  0.755960  0.053590  0.650900  1.0  0.1505
  C  C207  1  0.287830  0.172400  0.095830  1.0  0.1278
  C  C208  1  0.274160  0.194320  0.203330  1.0  -0.1479
  C  C209  1  0.296240  0.241810  0.203030  1.0  -0.0283
  C  C210  1  0.332350  0.266010  0.098230  1.0  -0.0805
  C  C211  1  0.344330  0.241820  0.996430  1.0  0.1417
  C  C212  1  0.355650  0.317450  0.093530  1.0  0.2941
  C  C213  1  0.405870  0.344720  0.061630  1.0  -0.0416
  C  C214  1  0.436770  0.331830  0.110830  1.0  -0.0925
  C  C215  1  0.483370  0.361430  0.083230  1.0  -0.1809
  C  C216  1  0.497020  0.401980  0.005330  1.0  0.112
  C  C217  1  0.422630  0.386920  0.984230  1.0  0.1505
  C  C218  1  0.954490  0.505740  0.429170  1.0  0.1281
  C  C219  1  0.940820  0.527660  0.536670  1.0  -0.1479
  C  C220  1  0.962900  0.575150  0.536370  1.0  -0.0283
  C  C221  1  0.999010  0.599350  0.431570  1.0  -0.0806
  C  C222  1  0.010990  0.575160  0.329770  1.0  0.1416
  C  C223  1  0.022310  0.650790  0.426870  1.0  0.2942
  C  C224  1  0.072530  0.678060  0.394970  1.0  -0.0416
  C  C225  1  0.103430  0.665170  0.444170  1.0  -0.0925
  C  C226  1  0.150030  0.694770  0.416570  1.0  -0.1809
  C  C227  1  0.163680  0.735320  0.338670  1.0  0.1121
  C  C228  1  0.089290  0.720260  0.317570  1.0  0.1505
  C  C229  1  0.160930  0.782090  0.762500  1.0  0.1321
  C  C230  1  0.139010  0.746500  0.870000  1.0  -0.146
  C  C231  1  0.091520  0.721090  0.869700  1.0  -0.0288
  C  C232  1  0.067320  0.733000  0.764900  1.0  -0.0817
  C  C233  1  0.091510  0.769170  0.663100  1.0  0.1407
  C  C234  1  0.015880  0.704860  0.760200  1.0  0.2954
  C  C235  1  0.988610  0.727810  0.728300  1.0  -0.0413
  C  C236  1  0.001500  0.771600  0.777500  1.0  -0.0945
  C  C237  1  0.971900  0.788600  0.749900  1.0  -0.1793
  C  C238  1  0.931350  0.761700  0.672000  1.0  0.1133
  C  C239  1  0.946410  0.702370  0.650900  1.0  0.1511
  C  C240  1  0.827600  0.115420  0.095830  1.0  0.1321
  C  C241  1  0.805680  0.079830  0.203330  1.0  -0.146
  C  C242  1  0.758190  0.054420  0.203030  1.0  -0.0288
  C  C243  1  0.733990  0.066330  0.098230  1.0  -0.0816
  C  C244  1  0.758180  0.102500  0.996430  1.0  0.1407
  C  C245  1  0.682550  0.038190  0.093530  1.0  0.2956
  C  C246  1  0.655280  0.061140  0.061630  1.0  -0.0415
  C  C247  1  0.668170  0.104930  0.110830  1.0  -0.0945
  C  C248  1  0.638570  0.121930  0.083230  1.0  -0.1793
  C  C249  1  0.598020  0.095030  0.005330  1.0  0.1134
  C  C250  1  0.613080  0.035700  0.984230  1.0  0.1511
  C  C251  1  0.494260  0.448760  0.429170  1.0  0.1321
  C  C252  1  0.472340  0.413170  0.536670  1.0  -0.146
  C  C253  1  0.424850  0.387760  0.536370  1.0  -0.0285
  C  C254  1  0.400650  0.399670  0.431570  1.0  -0.0816
  C  C255  1  0.424840  0.435840  0.329770  1.0  0.1408
  C  C256  1  0.349210  0.371530  0.426870  1.0  0.2955
  C  C257  1  0.321940  0.394480  0.394970  1.0  -0.0414
  C  C258  1  0.334830  0.438270  0.444170  1.0  -0.0945
  C  C259  1  0.305230  0.455270  0.416570  1.0  -0.1793
  C  C260  1  0.264680  0.428370  0.338670  1.0  0.1132
  C  C261  1  0.279740  0.369040  0.317570  1.0  0.1511
  C  C262  1  0.782090  0.621160  0.237500  1.0  0.1293
  C  C263  1  0.746500  0.607490  0.130000  1.0  -0.1468
  C  C264  1  0.721090  0.629570  0.130300  1.0  -0.0289
  C  C265  1  0.733000  0.665680  0.235100  1.0  -0.0826
  C  C266  1  0.769170  0.677660  0.336900  1.0  0.1406
  C  C267  1  0.704860  0.688980  0.239800  1.0  0.2925
  C  C268  1  0.727810  0.739200  0.271700  1.0  -0.0406
  C  C269  1  0.771600  0.770100  0.222500  1.0  -0.0904
  C  C270  1  0.788600  0.816700  0.250100  1.0  -0.1784
  C  C271  1  0.761700  0.830350  0.328000  1.0  0.1141
  C  C272  1  0.702370  0.755960  0.349100  1.0  0.1491
  C  C273  1  0.448760  0.954490  0.570830  1.0  0.1293
  C  C274  1  0.413170  0.940820  0.463330  1.0  -0.1468
  C  C275  1  0.387760  0.962900  0.463630  1.0  -0.0292
  C  C276  1  0.399670  0.999010  0.568430  1.0  -0.0826
  C  C277  1  0.435840  0.010990  0.670230  1.0  0.1406
  C  C278  1  0.371530  0.022310  0.573130  1.0  0.2925
  C  C279  1  0.394480  0.072530  0.605030  1.0  -0.0406
  C  C280  1  0.438270  0.103430  0.555830  1.0  -0.0904
  C  C281  1  0.455270  0.150030  0.583430  1.0  -0.1784
  C  C282  1  0.428370  0.163680  0.661330  1.0  0.1142
  C  C283  1  0.369040  0.089290  0.682430  1.0  0.1491
  C  C284  1  0.115420  0.287830  0.904170  1.0  0.1293
  C  C285  1  0.079830  0.274160  0.796670  1.0  -0.1468
  C  C286  1  0.054420  0.296240  0.796970  1.0  -0.0289
  C  C287  1  0.066330  0.332350  0.901770  1.0  -0.0826
  C  C288  1  0.102500  0.344330  0.003570  1.0  0.1405
  C  C289  1  0.038190  0.355650  0.906470  1.0  0.2924
  C  C290  1  0.061140  0.405870  0.938370  1.0  -0.0408
  C  C291  1  0.104930  0.436770  0.889170  1.0  -0.0904
  C  C292  1  0.121930  0.483370  0.916770  1.0  -0.1784
  C  C293  1  0.095030  0.497020  0.994670  1.0  0.1143
  C  C294  1  0.035700  0.422630  0.015770  1.0  0.1491
  C  C295  1  0.378840  0.160930  0.237500  1.0  0.1292
  C  C296  1  0.392510  0.139010  0.130000  1.0  -0.1472
  C  C297  1  0.370430  0.091520  0.130300  1.0  -0.0293
  C  C298  1  0.334320  0.067320  0.235100  1.0  -0.0815
  C  C299  1  0.322340  0.091510  0.336900  1.0  0.1412
  C  C300  1  0.311020  0.015880  0.239800  1.0  0.2923
  C  C301  1  0.260800  0.988610  0.271700  1.0  -0.0413
  C  C302  1  0.229900  0.001500  0.222500  1.0  -0.0938
  C  C303  1  0.183300  0.971900  0.250100  1.0  -0.1821
  C  C304  1  0.169650  0.931350  0.328000  1.0  0.1138
  C  C305  1  0.244040  0.946410  0.349100  1.0  0.1501
  C  C306  1  0.045510  0.494260  0.570830  1.0  0.1295
  C  C307  1  0.059180  0.472340  0.463330  1.0  -0.1472
  C  C308  1  0.037100  0.424850  0.463630  1.0  -0.0293
  C  C309  1  0.000990  0.400650  0.568430  1.0  -0.0817
  C  C310  1  0.989010  0.424840  0.670230  1.0  0.1412
  C  C311  1  0.977690  0.349210  0.573130  1.0  0.2924
  C  C312  1  0.927470  0.321940  0.605030  1.0  -0.0413
  C  C313  1  0.896570  0.334830  0.555830  1.0  -0.0938
  C  C314  1  0.849970  0.305230  0.583430  1.0  -0.1821
  C  C315  1  0.836320  0.264680  0.661330  1.0  0.1138
  C  C316  1  0.910710  0.279740  0.682430  1.0  0.1501
  C  C317  1  0.712170  0.827600  0.904170  1.0  0.1292
  C  C318  1  0.725840  0.805680  0.796670  1.0  -0.1472
  C  C319  1  0.703760  0.758190  0.796970  1.0  -0.0293
  C  C320  1  0.667650  0.733990  0.901770  1.0  -0.0815
  C  C321  1  0.655670  0.758180  0.003570  1.0  0.1412
  C  C322  1  0.644350  0.682550  0.906470  1.0  0.2923
  C  C323  1  0.594130  0.655280  0.938370  1.0  -0.0413
  C  C324  1  0.563230  0.668170  0.889170  1.0  -0.0938
  C  C325  1  0.516630  0.638570  0.916770  1.0  -0.1821
  C  C326  1  0.502980  0.598020  0.994670  1.0  0.1137
  C  C327  1  0.577370  0.613080  0.015770  1.0  0.1501
  C  C328  1  0.839070  0.217910  0.237500  1.0  0.1322
  C  C329  1  0.860990  0.253500  0.130000  1.0  -0.149
  C  C330  1  0.908480  0.278910  0.130300  1.0  -0.0292
  C  C331  1  0.932680  0.267000  0.235100  1.0  -0.0816
  C  C332  1  0.908490  0.230830  0.336900  1.0  0.142
  C  C333  1  0.984120  0.295140  0.239800  1.0  0.2954
  C  C334  1  0.011390  0.272190  0.271700  1.0  -0.041
  C  C335  1  0.998500  0.228400  0.222500  1.0  -0.0952
  C  C336  1  0.028100  0.211400  0.250100  1.0  -0.1767
  C  C337  1  0.068650  0.238300  0.328000  1.0  0.1146
  C  C338  1  0.053590  0.297630  0.349100  1.0  0.1511
  C  C339  1  0.505740  0.551240  0.570830  1.0  0.1322
  C  C340  1  0.527660  0.586830  0.463330  1.0  -0.149
  C  C341  1  0.575150  0.612240  0.463630  1.0  -0.029
  C  C342  1  0.599350  0.600330  0.568430  1.0  -0.0815
  C  C343  1  0.575160  0.564160  0.670230  1.0  0.1421
  C  C344  1  0.650790  0.628470  0.573130  1.0  0.2955
  C  C345  1  0.678060  0.605520  0.605030  1.0  -0.041
  C  C346  1  0.665170  0.561730  0.555830  1.0  -0.0952
  C  C347  1  0.694770  0.544730  0.583430  1.0  -0.1767
  C  C348  1  0.735320  0.571630  0.661330  1.0  0.1146
  C  C349  1  0.720260  0.630960  0.682430  1.0  0.1511
  C  C350  1  0.172400  0.884580  0.904170  1.0  0.1322
  C  C351  1  0.194320  0.920170  0.796670  1.0  -0.149
  C  C352  1  0.241810  0.945580  0.796970  1.0  -0.0292
  C  C353  1  0.266010  0.933670  0.901770  1.0  -0.0815
  C  C354  1  0.241820  0.897500  0.003570  1.0  0.142
  C  C355  1  0.317450  0.961810  0.906470  1.0  0.2957
  C  C356  1  0.344720  0.938860  0.938370  1.0  -0.0412
  C  C357  1  0.331830  0.895070  0.889170  1.0  -0.0952
  C  C358  1  0.361430  0.878070  0.916770  1.0  -0.1767
  C  C359  1  0.401980  0.904970  0.994670  1.0  0.1147
  C  C360  1  0.386920  0.964300  0.015770  1.0  0.1511
  N  N361  1  0.206780  0.344460  0.658800  1.0  -0.3297
  N  N362  1  0.281520  0.199600  0.621700  1.0  -0.3463
  N  N363  1  0.873450  0.677790  0.992130  1.0  -0.3297
  N  N364  1  0.948190  0.532930  0.955030  1.0  -0.3462
  N  N365  1  0.540110  0.011130  0.325470  1.0  -0.3297
  N  N366  1  0.614850  0.866270  0.288370  1.0  -0.3462
  N  N367  1  0.655540  0.862320  0.658800  1.0  -0.327
  N  N368  1  0.800400  0.081920  0.621700  1.0  -0.3389
  N  N369  1  0.322210  0.195650  0.992130  1.0  -0.327
  N  N370  1  0.467070  0.415250  0.955030  1.0  -0.3389
  N  N371  1  0.988870  0.528990  0.325470  1.0  -0.3269
  N  N372  1  0.133730  0.748590  0.288370  1.0  -0.3389
  N  N373  1  0.137680  0.793220  0.658800  1.0  -0.3263
  N  N374  1  0.918080  0.718480  0.621700  1.0  -0.3455
  N  N375  1  0.804350  0.126550  0.992130  1.0  -0.3263
  N  N376  1  0.584750  0.051810  0.955030  1.0  -0.3455
  N  N377  1  0.471010  0.459890  0.325470  1.0  -0.3263
  N  N378  1  0.251410  0.385150  0.288370  1.0  -0.3455
  N  N379  1  0.793220  0.655540  0.341200  1.0  -0.3278
  N  N380  1  0.718480  0.800400  0.378300  1.0  -0.3447
  N  N381  1  0.459890  0.988870  0.674530  1.0  -0.3278
  N  N382  1  0.385150  0.133730  0.711630  1.0  -0.3447
  N  N383  1  0.126550  0.322210  0.007870  1.0  -0.3278
  N  N384  1  0.051810  0.467070  0.044970  1.0  -0.3447
  N  N385  1  0.344460  0.137680  0.341200  1.0  -0.328
  N  N386  1  0.199600  0.918080  0.378300  1.0  -0.3382
  N  N387  1  0.011130  0.471010  0.674530  1.0  -0.328
  N  N388  1  0.866270  0.251410  0.711630  1.0  -0.3382
  N  N389  1  0.677790  0.804350  0.007870  1.0  -0.328
  N  N390  1  0.532930  0.584750  0.044970  1.0  -0.3382
  N  N391  1  0.862320  0.206780  0.341200  1.0  -0.328
  N  N392  1  0.081920  0.281520  0.378300  1.0  -0.3421
  N  N393  1  0.528990  0.540110  0.674530  1.0  -0.328
  N  N394  1  0.748590  0.614850  0.711630  1.0  -0.3422
  N  N395  1  0.195650  0.873450  0.007870  1.0  -0.328
  N  N396  1  0.415250  0.948190  0.044970  1.0  -0.3422
  O  O397  1  0.336760  0.333060  0.784900  1.0  -0.4904
  O  O398  1  0.003430  0.666390  0.118230  1.0  -0.4904
  O  O399  1  0.670090  0.999730  0.451570  1.0  -0.4905
  O  O400  1  0.666940  0.003700  0.784900  1.0  -0.49
  O  O401  1  0.333610  0.337030  0.118230  1.0  -0.4901
  O  O402  1  0.000270  0.670370  0.451570  1.0  -0.49
  O  O403  1  0.996300  0.663240  0.784900  1.0  -0.4904
  O  O404  1  0.662970  0.996570  0.118230  1.0  -0.4904
  O  O405  1  0.329630  0.329910  0.451570  1.0  -0.4904
  O  O406  1  0.663240  0.666940  0.215100  1.0  -0.49
  O  O407  1  0.329910  0.000270  0.548430  1.0  -0.49
  O  O408  1  0.996570  0.333610  0.881770  1.0  -0.49
  O  O409  1  0.333060  0.996300  0.215100  1.0  -0.4902
  O  O410  1  0.999730  0.329630  0.548430  1.0  -0.4902
  O  O411  1  0.666390  0.662970  0.881770  1.0  -0.4902
  O  O412  1  0.003700  0.336760  0.215100  1.0  -0.4903
  O  O413  1  0.670370  0.670090  0.548430  1.0  -0.4903
  O  O414  1  0.337030  0.003430  0.881770  1.0  -0.4902
