# generated using pymatgen
data_Cu2H4C9N4O5
_symmetry_space_group_name_H-M   'P 1'
_cell_length_a   10.01500000
_cell_length_b   6.61240000
_cell_length_c   12.47210000
_cell_angle_alpha   90.00000000
_cell_angle_beta   109.41200000
_cell_angle_gamma   90.00000000
_symmetry_Int_Tables_number   1
_chemical_formula_structural   Cu2H4C9N4O5
_chemical_formula_sum   'Cu4 H8 C18 N8 O10'
_cell_volume   778.98991946
_cell_formula_units_Z   2
loop_
 _symmetry_equiv_pos_site_id
 _symmetry_equiv_pos_as_xyz
  1  'x, y, z'
loop_
 _atom_site_type_symbol
 _atom_site_label
 _atom_site_symmetry_multiplicity
 _atom_site_fract_x
 _atom_site_fract_y
 _atom_site_fract_z
 _atom_site_occupancy
 _atom_site_charge
  Cu  Cu1  1  0.135800  0.750000  0.767300  1.0  0.9395
  Cu  Cu2  1  0.864200  0.250000  0.232700  1.0  0.9394
  Cu  Cu3  1  0.000000  0.000000  0.500000  1.0  0.83
  Cu  Cu4  1  0.000000  0.500000  0.500000  1.0  0.83
  H  H5  1  0.581600  0.750000  0.751200  1.0  0.105
  H  H6  1  0.945100  0.750000  0.013700  1.0  0.1063
  H  H7  1  0.576400  0.750000  0.067700  1.0  0.0969
  H  H8  1  0.922100  0.750000  0.587900  1.0  0.4248
  H  H9  1  0.418400  0.250000  0.248800  1.0  0.1047
  H  H10  1  0.054900  0.250000  0.986300  1.0  0.1069
  H  H11  1  0.423600  0.250000  0.932300  1.0  0.0985
  H  H12  1  0.077900  0.250000  0.412100  1.0  0.4261
  C  C13  1  0.391400  0.750000  0.854700  1.0  0.6468
  C  C14  1  0.550700  0.750000  0.899800  1.0  -0.1111
  C  C15  1  0.629400  0.750000  0.829200  1.0  -0.01
  C  C16  1  0.777900  0.750000  0.866700  1.0  -0.1396
  C  C17  1  0.846700  0.750000  0.984800  1.0  -0.0187
  C  C18  1  0.769100  0.750000  0.059100  1.0  -0.0174
  C  C19  1  0.626700  0.750000  0.017000  1.0  -0.0631
  C  C20  1  0.862100  0.750000  0.790200  1.0  0.7008
  C  C21  1  0.838800  0.750000  0.187200  1.0  0.3677
  C  C22  1  0.608600  0.250000  0.145300  1.0  0.6481
  C  C23  1  0.449300  0.250000  0.100200  1.0  -0.1114
  C  C24  1  0.370600  0.250000  0.170800  1.0  -0.0116
  C  C25  1  0.222100  0.250000  0.133300  1.0  -0.1375
  C  C26  1  0.153300  0.250000  0.015200  1.0  -0.021
  C  C27  1  0.230900  0.250000  0.940900  1.0  -0.0175
  C  C28  1  0.373300  0.250000  0.983000  1.0  -0.0635
  C  C29  1  0.137900  0.250000  0.209800  1.0  0.7019
  C  C30  1  0.161200  0.250000  0.812800  1.0  0.3674
  N  N31  1  0.875100  0.918000  0.248400  1.0  -0.2681
  N  N32  1  0.930500  0.848900  0.354400  1.0  -0.0566
  N  N33  1  0.124900  0.418000  0.751600  1.0  -0.2681
  N  N34  1  0.069500  0.348900  0.645600  1.0  -0.0568
  N  N35  1  0.124900  0.082000  0.751600  1.0  -0.2674
  N  N36  1  0.069500  0.151100  0.645600  1.0  -0.0578
  N  N37  1  0.875100  0.582000  0.248400  1.0  -0.2674
  N  N38  1  0.930500  0.651100  0.354400  1.0  -0.0565
  O  O39  1  0.326600  0.750000  0.925200  1.0  -0.5635
  O  O40  1  0.326500  0.750000  0.748400  1.0  -0.5644
  O  O41  1  0.799900  0.750000  0.683700  1.0  -0.5602
  O  O42  1  0.996400  0.750000  0.836800  1.0  -0.5862
  O  O43  1  0.005000  0.750000  0.583500  1.0  -0.9364
  O  O44  1  0.673400  0.250000  0.074800  1.0  -0.5639
  O  O45  1  0.673500  0.250000  0.251600  1.0  -0.5618
  O  O46  1  0.200100  0.250000  0.316300  1.0  -0.5624
  O  O47  1  0.003600  0.250000  0.163200  1.0  -0.5841
  O  O48  1  0.995000  0.250000  0.416500  1.0  -0.9366
