# generated using pymatgen
data_Co2H4C9N4O5
_symmetry_space_group_name_H-M   'P 1'
_cell_length_a   10.17920000
_cell_length_b   6.72790000
_cell_length_c   12.81580000
_cell_angle_alpha   90.00000000
_cell_angle_beta   111.69800000
_cell_angle_gamma   90.00000000
_symmetry_Int_Tables_number   1
_chemical_formula_structural   Co2H4C9N4O5
_chemical_formula_sum   'Co4 H8 C18 N8 O10'
_cell_volume   815.49746214
_cell_formula_units_Z   2
loop_
 _symmetry_equiv_pos_site_id
 _symmetry_equiv_pos_as_xyz
  1  'x, y, z'
loop_
 _atom_site_type_symbol
 _atom_site_label
 _atom_site_symmetry_multiplicity
 _atom_site_fract_x
 _atom_site_fract_y
 _atom_site_fract_z
 _atom_site_occupancy
 _atom_site_charge
  Co  Co1  1  0.131200  0.250000  0.266000  1.0  1.0145
  Co  Co2  1  0.868800  0.750000  0.734000  1.0  1.0156
  Co  Co3  1  0.000000  0.500000  0.000000  1.0  0.9762
  Co  Co4  1  0.000000  0.000000  0.000000  1.0  0.9762
  H  H5  1  0.584200  0.250000  0.245200  1.0  0.0975
  H  H6  1  0.943900  0.250000  0.518100  1.0  0.0882
  H  H7  1  0.568300  0.250000  0.554000  1.0  0.0888
  H  H8  1  0.939000  0.250000  0.108000  1.0  0.4176
  H  H9  1  0.415800  0.750000  0.754800  1.0  0.0976
  H  H10  1  0.056100  0.750000  0.481900  1.0  0.0891
  H  H11  1  0.431700  0.750000  0.446000  1.0  0.089
  H  H12  1  0.061000  0.750000  0.892000  1.0  0.4135
  C  C13  1  0.393700  0.250000  0.341600  1.0  0.6308
  C  C14  1  0.552100  0.250000  0.391500  1.0  -0.1454
  C  C15  1  0.630200  0.250000  0.322800  1.0  0.0155
  C  C16  1  0.777300  0.250000  0.370000  1.0  -0.1699
  C  C17  1  0.845700  0.250000  0.486400  1.0  -0.0447
  C  C18  1  0.767600  0.250000  0.555400  1.0  -0.0389
  C  C19  1  0.620700  0.250000  0.508000  1.0  -0.0477
  C  C20  1  0.863000  0.250000  0.295300  1.0  0.7029
  C  C21  1  0.839600  0.250000  0.679300  1.0  0.327
  C  C22  1  0.606300  0.750000  0.658400  1.0  0.632
  C  C23  1  0.447900  0.750000  0.608500  1.0  -0.1446
  C  C24  1  0.369800  0.750000  0.677200  1.0  0.0131
  C  C25  1  0.222700  0.750000  0.630000  1.0  -0.1696
  C  C26  1  0.154300  0.750000  0.513600  1.0  -0.0463
  C  C27  1  0.232400  0.750000  0.444600  1.0  -0.0394
  C  C28  1  0.379300  0.750000  0.492000  1.0  -0.048
  C  C29  1  0.137000  0.750000  0.704700  1.0  0.7035
  C  C30  1  0.160400  0.750000  0.320700  1.0  0.3269
  N  N31  1  0.875100  0.414200  0.742620  1.0  -0.2827
  N  N32  1  0.934900  0.345900  0.847770  1.0  -0.0808
  N  N33  1  0.124900  0.914200  0.257380  1.0  -0.2824
  N  N34  1  0.065100  0.845900  0.152230  1.0  -0.0823
  N  N35  1  0.124900  0.585800  0.257380  1.0  -0.2809
  N  N36  1  0.065100  0.654100  0.152230  1.0  -0.0833
  N  N37  1  0.875100  0.085800  0.742620  1.0  -0.2812
  N  N38  1  0.934900  0.154100  0.847770  1.0  -0.0807
  O  O39  1  0.330600  0.250000  0.236300  1.0  -0.5531
  O  O40  1  0.324600  0.250000  0.404600  1.0  -0.5753
  O  O41  1  0.800800  0.250000  0.192400  1.0  -0.5316
  O  O42  1  0.994000  0.250000  0.344000  1.0  -0.5958
  O  O43  1  0.005200  0.250000  0.095370  1.0  -0.9291
  O  O44  1  0.669400  0.750000  0.763700  1.0  -0.5558
  O  O45  1  0.675400  0.750000  0.595400  1.0  -0.5728
  O  O46  1  0.199200  0.750000  0.807600  1.0  -0.5343
  O  O47  1  0.006000  0.750000  0.656000  1.0  -0.5926
  O  O48  1  0.994800  0.750000  0.904630  1.0  -0.9263
