# generated using pymatgen
data_AgH8C11N2O
_symmetry_space_group_name_H-M   'P 1'
_cell_length_a   33.85600000
_cell_length_b   33.85600000
_cell_length_c   8.42240000
_cell_angle_alpha   90.00000000
_cell_angle_beta   90.00000000
_cell_angle_gamma   120.00000000
_symmetry_Int_Tables_number   1
_chemical_formula_structural   AgH8C11N2O
_chemical_formula_sum   'Ag18 H144 C198 N36 O18'
_cell_volume   8360.60656873
_cell_formula_units_Z   18
loop_
 _symmetry_equiv_pos_site_id
 _symmetry_equiv_pos_as_xyz
  1  'x, y, z'
loop_
 _atom_site_type_symbol
 _atom_site_label
 _atom_site_symmetry_multiplicity
 _atom_site_fract_x
 _atom_site_fract_y
 _atom_site_fract_z
 _atom_site_occupancy
 _atom_site_charge
  Ag  Ag1  1  0.147360  0.320920  0.504240  1.0  0.1625
  Ag  Ag2  1  0.814030  0.654250  0.837570  1.0  0.1625
  Ag  Ag3  1  0.480690  0.987590  0.170910  1.0  0.1628
  Ag  Ag4  1  0.679080  0.826440  0.504240  1.0  0.1629
  Ag  Ag5  1  0.345750  0.159770  0.837570  1.0  0.1629
  Ag  Ag6  1  0.012410  0.493110  0.170910  1.0  0.163
  Ag  Ag7  1  0.173560  0.852640  0.504240  1.0  0.1637
  Ag  Ag8  1  0.840230  0.185970  0.837570  1.0  0.1637
  Ag  Ag9  1  0.506890  0.519310  0.170910  1.0  0.1634
  Ag  Ag10  1  0.852640  0.679080  0.495760  1.0  0.1621
  Ag  Ag11  1  0.519310  0.012410  0.829090  1.0  0.1624
  Ag  Ag12  1  0.185970  0.345750  0.162430  1.0  0.1621
  Ag  Ag13  1  0.320920  0.173560  0.495760  1.0  0.1616
  Ag  Ag14  1  0.987590  0.506890  0.829090  1.0  0.1617
  Ag  Ag15  1  0.654250  0.840230  0.162430  1.0  0.1616
  Ag  Ag16  1  0.826440  0.147360  0.495760  1.0  0.1613
  Ag  Ag17  1  0.493110  0.480690  0.829090  1.0  0.161
  Ag  Ag18  1  0.159770  0.814030  0.162430  1.0  0.1613
  H  H19  1  0.202900  0.392400  0.761600  1.0  0.0791
  H  H20  1  0.263800  0.415800  0.933300  1.0  0.1014
  H  H21  1  0.304600  0.377400  0.934800  1.0  0.0979
  H  H22  1  0.220100  0.292500  0.598100  1.0  0.0792
  H  H23  1  0.210100  0.236900  0.843600  1.0  0.1078
  H  H24  1  0.180900  0.159100  0.791300  1.0  0.096
  H  H25  1  0.223200  0.135600  0.647100  1.0  0.0671
  H  H26  1  0.324700  0.262100  0.610400  1.0  0.0873
  H  H27  1  0.869570  0.725730  0.094930  1.0  0.0791
  H  H28  1  0.930470  0.749130  0.266630  1.0  0.1014
  H  H29  1  0.971270  0.710730  0.268130  1.0  0.0979
  H  H30  1  0.886770  0.625830  0.931430  1.0  0.079
  H  H31  1  0.876770  0.570230  0.176930  1.0  0.1078
  H  H32  1  0.847570  0.492430  0.124630  1.0  0.096
  H  H33  1  0.889870  0.468930  0.980430  1.0  0.0671
  H  H34  1  0.991370  0.595430  0.943730  1.0  0.0873
  H  H35  1  0.536230  0.059070  0.428270  1.0  0.0791
  H  H36  1  0.597130  0.082470  0.599970  1.0  0.1008
  H  H37  1  0.637930  0.044070  0.601470  1.0  0.0978
  H  H38  1  0.553430  0.959170  0.264770  1.0  0.0792
  H  H39  1  0.543430  0.903570  0.510270  1.0  0.1078
  H  H40  1  0.514230  0.825770  0.457970  1.0  0.096
  H  H41  1  0.556530  0.802270  0.313770  1.0  0.0671
  H  H42  1  0.658030  0.928770  0.277070  1.0  0.0873
  H  H43  1  0.607600  0.810500  0.761600  1.0  0.0787
  H  H44  1  0.584200  0.848000  0.933300  1.0  0.1006
  H  H45  1  0.622600  0.927200  0.934800  1.0  0.0975
  H  H46  1  0.707500  0.927600  0.598100  1.0  0.079
  H  H47  1  0.763100  0.973200  0.843600  1.0  0.1065
  H  H48  1  0.840900  0.021800  0.791300  1.0  0.0966
  H  H49  1  0.864400  0.087600  0.647100  1.0  0.0693
  H  H50  1  0.737900  0.062600  0.610400  1.0  0.087
  H  H51  1  0.274270  0.143830  0.094930  1.0  0.0787
  H  H52  1  0.250870  0.181330  0.266630  1.0  0.1006
  H  H53  1  0.289270  0.260530  0.268130  1.0  0.0975
  H  H54  1  0.374170  0.260930  0.931430  1.0  0.079
  H  H55  1  0.429770  0.306530  0.176930  1.0  0.1065
  H  H56  1  0.507570  0.355130  0.124630  1.0  0.0959
  H  H57  1  0.531070  0.420930  0.980430  1.0  0.0693
  H  H58  1  0.404570  0.395930  0.943730  1.0  0.087
  H  H59  1  0.940930  0.477170  0.428270  1.0  0.0787
  H  H60  1  0.917530  0.514670  0.599970  1.0  0.1009
  H  H61  1  0.955930  0.593870  0.601470  1.0  0.0976
  H  H62  1  0.040830  0.594270  0.264770  1.0  0.0788
  H  H63  1  0.096430  0.639870  0.510270  1.0  0.1065
  H  H64  1  0.174230  0.688470  0.457970  1.0  0.0959
  H  H65  1  0.197730  0.754270  0.313770  1.0  0.0693
  H  H66  1  0.071230  0.729270  0.277070  1.0  0.087
  H  H67  1  0.189500  0.797100  0.761600  1.0  0.0792
  H  H68  1  0.152000  0.736200  0.933300  1.0  0.1003
  H  H69  1  0.072800  0.695400  0.934800  1.0  0.0972
  H  H70  1  0.072400  0.779900  0.598100  1.0  0.0781
  H  H71  1  0.026800  0.789900  0.843600  1.0  0.1079
  H  H72  1  0.978200  0.819100  0.791300  1.0  0.0982
  H  H73  1  0.912400  0.776800  0.647100  1.0  0.0672
  H  H74  1  0.937400  0.675300  0.610400  1.0  0.0875
  H  H75  1  0.856170  0.130430  0.094930  1.0  0.0792
  H  H76  1  0.818670  0.069530  0.266630  1.0  0.1003
  H  H77  1  0.739470  0.028730  0.268130  1.0  0.0972
  H  H78  1  0.739070  0.113230  0.931430  1.0  0.0781
  H  H79  1  0.693470  0.123230  0.176930  1.0  0.1079
  H  H80  1  0.644870  0.152430  0.124630  1.0  0.0969
  H  H81  1  0.579070  0.110130  0.980430  1.0  0.0672
  H  H82  1  0.604070  0.008630  0.943730  1.0  0.0875
  H  H83  1  0.522830  0.463770  0.428270  1.0  0.0792
  H  H84  1  0.485330  0.402870  0.599970  1.0  0.1004
  H  H85  1  0.406130  0.362070  0.601470  1.0  0.0973
  H  H86  1  0.405730  0.446570  0.264770  1.0  0.0783
  H  H87  1  0.360130  0.456570  0.510270  1.0  0.1079
  H  H88  1  0.311530  0.485770  0.457970  1.0  0.0969
  H  H89  1  0.245730  0.443470  0.313770  1.0  0.0672
  H  H90  1  0.270730  0.341970  0.277070  1.0  0.0875
  H  H91  1  0.797100  0.607600  0.238400  1.0  0.0789
  H  H92  1  0.736200  0.584200  0.066700  1.0  0.1009
  H  H93  1  0.695400  0.622600  0.065200  1.0  0.0972
  H  H94  1  0.779900  0.707500  0.401900  1.0  0.079
  H  H95  1  0.789900  0.763100  0.156400  1.0  0.107
  H  H96  1  0.819100  0.840900  0.208700  1.0  0.0963
  H  H97  1  0.776800  0.864400  0.352900  1.0  0.0661
  H  H98  1  0.675300  0.737900  0.389600  1.0  0.0879
  H  H99  1  0.463770  0.940930  0.571730  1.0  0.0789
  H  H100  1  0.402870  0.917530  0.400030  1.0  0.1003
  H  H101  1  0.362070  0.955930  0.398530  1.0  0.0972
  H  H102  1  0.446570  0.040830  0.735230  1.0  0.079
  H  H103  1  0.456570  0.096430  0.489730  1.0  0.107
  H  H104  1  0.485770  0.174230  0.542030  1.0  0.0963
  H  H105  1  0.443470  0.197730  0.686230  1.0  0.0661
  H  H106  1  0.341970  0.071230  0.722930  1.0  0.0879
  H  H107  1  0.130430  0.274270  0.905070  1.0  0.0789
  H  H108  1  0.069530  0.250870  0.733370  1.0  0.1009
  H  H109  1  0.028730  0.289270  0.731870  1.0  0.0972
  H  H110  1  0.113230  0.374170  0.068570  1.0  0.0788
  H  H111  1  0.123230  0.429770  0.823070  1.0  0.107
  H  H112  1  0.152430  0.507570  0.875370  1.0  0.0963
  H  H113  1  0.110130  0.531070  0.019570  1.0  0.066
  H  H114  1  0.008630  0.404570  0.056270  1.0  0.0879
  H  H115  1  0.392400  0.189500  0.238400  1.0  0.0792
  H  H116  1  0.415800  0.152000  0.066700  1.0  0.1013
  H  H117  1  0.377400  0.072800  0.065200  1.0  0.0974
  H  H118  1  0.292500  0.072400  0.401900  1.0  0.0794
  H  H119  1  0.236900  0.026800  0.156400  1.0  0.1069
  H  H120  1  0.159100  0.978200  0.208700  1.0  0.0967
  H  H121  1  0.135600  0.912400  0.352900  1.0  0.069
  H  H122  1  0.262100  0.937400  0.389600  1.0  0.0871
  H  H123  1  0.059070  0.522830  0.571730  1.0  0.0792
  H  H124  1  0.082470  0.485330  0.400030  1.0  0.1016
  H  H125  1  0.044070  0.406130  0.398530  1.0  0.0975
  H  H126  1  0.959170  0.405730  0.735230  1.0  0.0793
  H  H127  1  0.903570  0.360130  0.489730  1.0  0.1069
  H  H128  1  0.825770  0.311530  0.542030  1.0  0.0951
  H  H129  1  0.802270  0.245730  0.686230  1.0  0.069
  H  H130  1  0.928770  0.270730  0.722930  1.0  0.087
  H  H131  1  0.725730  0.856170  0.905070  1.0  0.0792
  H  H132  1  0.749130  0.818670  0.733370  1.0  0.1013
  H  H133  1  0.710730  0.739470  0.731870  1.0  0.0974
  H  H134  1  0.625830  0.739070  0.068570  1.0  0.0794
  H  H135  1  0.570230  0.693470  0.823070  1.0  0.1069
  H  H136  1  0.492430  0.644870  0.875370  1.0  0.0951
  H  H137  1  0.468930  0.579070  0.019570  1.0  0.069
  H  H138  1  0.595430  0.604070  0.056270  1.0  0.0871
  H  H139  1  0.810500  0.202900  0.238400  1.0  0.0803
  H  H140  1  0.848000  0.263800  0.066700  1.0  0.1013
  H  H141  1  0.927200  0.304600  0.065200  1.0  0.0972
  H  H142  1  0.927600  0.220100  0.401900  1.0  0.0787
  H  H143  1  0.973200  0.210100  0.156400  1.0  0.1078
  H  H144  1  0.021800  0.180900  0.208700  1.0  0.0989
  H  H145  1  0.087600  0.223200  0.352900  1.0  0.0686
  H  H146  1  0.062600  0.324700  0.389600  1.0  0.0876
  H  H147  1  0.477170  0.536230  0.571730  1.0  0.0803
  H  H148  1  0.514670  0.597130  0.400030  1.0  0.1016
  H  H149  1  0.593870  0.637930  0.398530  1.0  0.0973
  H  H150  1  0.594270  0.553430  0.735230  1.0  0.0788
  H  H151  1  0.639870  0.543430  0.489730  1.0  0.1078
  H  H152  1  0.688470  0.514230  0.542030  1.0  0.0972
  H  H153  1  0.754270  0.556530  0.686230  1.0  0.0686
  H  H154  1  0.729270  0.658030  0.722930  1.0  0.0876
  H  H155  1  0.143830  0.869570  0.905070  1.0  0.0803
  H  H156  1  0.181330  0.930470  0.733370  1.0  0.1013
  H  H157  1  0.260530  0.971270  0.731870  1.0  0.0972
  H  H158  1  0.260930  0.886770  0.068570  1.0  0.0787
  H  H159  1  0.306530  0.876770  0.823070  1.0  0.1078
  H  H160  1  0.355130  0.847570  0.875370  1.0  0.0972
  H  H161  1  0.420930  0.889870  0.019570  1.0  0.0686
  H  H162  1  0.395930  0.991370  0.056270  1.0  0.0875
  C  C163  1  0.219400  0.376600  0.761700  1.0  0.1364
  C  C164  1  0.255500  0.390600  0.864500  1.0  -0.1441
  C  C165  1  0.279200  0.367700  0.865900  1.0  -0.0125
  C  C166  1  0.266400  0.330500  0.767000  1.0  -0.0691
  C  C167  1  0.229400  0.318100  0.665700  1.0  0.1515
  C  C168  1  0.293400  0.306900  0.762900  1.0  0.2566
  C  C169  1  0.270300  0.257300  0.728900  1.0  -0.0382
  C  C170  1  0.227400  0.226800  0.785200  1.0  -0.1106
  C  C171  1  0.210300  0.181000  0.753800  1.0  -0.1711
  C  C172  1  0.235800  0.167200  0.668700  1.0  0.1209
  C  C173  1  0.294800  0.241000  0.646200  1.0  0.1474
  C  C174  1  0.886070  0.709930  0.095030  1.0  0.1364
  C  C175  1  0.922170  0.723930  0.197830  1.0  -0.1441
  C  C176  1  0.945870  0.701030  0.199230  1.0  -0.0125
  C  C177  1  0.933070  0.663830  0.100330  1.0  -0.0691
  C  C178  1  0.896070  0.651430  0.999030  1.0  0.1515
  C  C179  1  0.960070  0.640230  0.096230  1.0  0.2566
  C  C180  1  0.936970  0.590630  0.062230  1.0  -0.0381
  C  C181  1  0.894070  0.560130  0.118530  1.0  -0.1095
  C  C182  1  0.876970  0.514330  0.087130  1.0  -0.1702
  C  C183  1  0.902470  0.500530  0.002030  1.0  0.1209
  C  C184  1  0.961470  0.574330  0.979530  1.0  0.1474
  C  C185  1  0.552730  0.043270  0.428370  1.0  0.1365
  C  C186  1  0.588830  0.057270  0.531170  1.0  -0.1441
  C  C187  1  0.612530  0.034370  0.532570  1.0  -0.0125
  C  C188  1  0.599730  0.997170  0.433670  1.0  -0.0689
  C  C189  1  0.562730  0.984770  0.332370  1.0  0.1515
  C  C190  1  0.626730  0.973570  0.429570  1.0  0.2566
  C  C191  1  0.603630  0.923970  0.395570  1.0  -0.0382
  C  C192  1  0.560730  0.893470  0.451870  1.0  -0.1105
  C  C193  1  0.543630  0.847670  0.420470  1.0  -0.1711
  C  C194  1  0.569130  0.833870  0.335370  1.0  0.1209
  C  C195  1  0.628130  0.907670  0.312870  1.0  0.1474
  C  C196  1  0.623400  0.842800  0.761700  1.0  0.1337
  C  C197  1  0.609400  0.864900  0.864500  1.0  -0.1457
  C  C198  1  0.632300  0.911500  0.865900  1.0  -0.013
  C  C199  1  0.669500  0.935900  0.767000  1.0  -0.0674
  C  C200  1  0.681900  0.911300  0.665700  1.0  0.1512
  C  C201  1  0.693100  0.986500  0.762900  1.0  0.2562
  C  C202  1  0.742700  0.013000  0.728900  1.0  -0.0368
  C  C203  1  0.773200  0.000600  0.785200  1.0  -0.1106
  C  C204  1  0.819000  0.029300  0.753800  1.0  -0.1704
  C  C205  1  0.832800  0.068600  0.668700  1.0  0.1198
  C  C206  1  0.759000  0.053800  0.646200  1.0  0.1471
  C  C207  1  0.290070  0.176130  0.095030  1.0  0.1337
  C  C208  1  0.276070  0.198230  0.197830  1.0  -0.1457
  C  C209  1  0.298970  0.244830  0.199230  1.0  -0.013
  C  C210  1  0.336170  0.269230  0.100330  1.0  -0.0674
  C  C211  1  0.348570  0.244630  0.999030  1.0  0.1512
  C  C212  1  0.359770  0.319830  0.096230  1.0  0.2561
  C  C213  1  0.409370  0.346330  0.062230  1.0  -0.0367
  C  C214  1  0.439870  0.333930  0.118530  1.0  -0.1099
  C  C215  1  0.485670  0.362630  0.087130  1.0  -0.1697
  C  C216  1  0.499470  0.401930  0.002030  1.0  0.1199
  C  C217  1  0.425670  0.387130  0.979530  1.0  0.147
  C  C218  1  0.956730  0.509470  0.428370  1.0  0.1339
  C  C219  1  0.942730  0.531570  0.531170  1.0  -0.1458
  C  C220  1  0.965630  0.578170  0.532570  1.0  -0.013
  C  C221  1  0.002830  0.602570  0.433670  1.0  -0.0673
  C  C222  1  0.015230  0.577970  0.332370  1.0  0.1512
  C  C223  1  0.026430  0.653170  0.429570  1.0  0.2562
  C  C224  1  0.076030  0.679670  0.395570  1.0  -0.0367
  C  C225  1  0.106530  0.667270  0.451870  1.0  -0.1106
  C  C226  1  0.152330  0.695970  0.420470  1.0  -0.1704
  C  C227  1  0.166130  0.735270  0.335370  1.0  0.1198
  C  C228  1  0.092330  0.720470  0.312870  1.0  0.1471
  C  C229  1  0.157200  0.780600  0.761700  1.0  0.1395
  C  C230  1  0.135100  0.744500  0.864500  1.0  -0.1446
  C  C231  1  0.088500  0.720800  0.865900  1.0  -0.0135
  C  C232  1  0.064100  0.733600  0.767000  1.0  -0.0678
  C  C233  1  0.088700  0.770600  0.665700  1.0  0.1499
  C  C234  1  0.013500  0.706600  0.762900  1.0  0.2608
  C  C235  1  0.987000  0.729700  0.728900  1.0  -0.037
  C  C236  1  0.999400  0.772600  0.785200  1.0  -0.1126
  C  C237  1  0.970700  0.789700  0.753800  1.0  -0.1638
  C  C238  1  0.931400  0.764200  0.668700  1.0  0.121
  C  C239  1  0.946200  0.705200  0.646200  1.0  0.1489
  C  C240  1  0.823870  0.113930  0.095030  1.0  0.1395
  C  C241  1  0.801770  0.077830  0.197830  1.0  -0.1446
  C  C242  1  0.755170  0.054130  0.199230  1.0  -0.0135
  C  C243  1  0.730770  0.066930  0.100330  1.0  -0.0678
  C  C244  1  0.755370  0.103930  0.999030  1.0  0.1499
  C  C245  1  0.680170  0.039930  0.096230  1.0  0.2608
  C  C246  1  0.653670  0.063030  0.062230  1.0  -0.0371
  C  C247  1  0.666070  0.105930  0.118530  1.0  -0.1157
  C  C248  1  0.637370  0.123030  0.087130  1.0  -0.1637
  C  C249  1  0.598070  0.097530  0.002030  1.0  0.121
  C  C250  1  0.612870  0.038530  0.979530  1.0  0.1489
  C  C251  1  0.490530  0.447270  0.428370  1.0  0.1394
  C  C252  1  0.468430  0.411170  0.531170  1.0  -0.1446
  C  C253  1  0.421830  0.387470  0.532570  1.0  -0.0134
  C  C254  1  0.397430  0.400270  0.433670  1.0  -0.0677
  C  C255  1  0.422030  0.437270  0.332370  1.0  0.1498
  C  C256  1  0.346830  0.373270  0.429570  1.0  0.2607
  C  C257  1  0.320330  0.396370  0.395570  1.0  -0.037
  C  C258  1  0.332730  0.439270  0.451870  1.0  -0.1126
  C  C259  1  0.304030  0.456370  0.420470  1.0  -0.1638
  C  C260  1  0.264730  0.430870  0.335370  1.0  0.121
  C  C261  1  0.279530  0.371870  0.312870  1.0  0.1488
  C  C262  1  0.780600  0.623400  0.238300  1.0  0.1369
  C  C263  1  0.744500  0.609400  0.135500  1.0  -0.1463
  C  C264  1  0.720800  0.632300  0.134100  1.0  -0.0142
  C  C265  1  0.733600  0.669500  0.233000  1.0  -0.0688
  C  C266  1  0.770600  0.681900  0.334300  1.0  0.151
  C  C267  1  0.706600  0.693100  0.237100  1.0  0.256
  C  C268  1  0.729700  0.742700  0.271100  1.0  -0.037
  C  C269  1  0.772600  0.773200  0.214800  1.0  -0.1091
  C  C270  1  0.789700  0.819000  0.246200  1.0  -0.1661
  C  C271  1  0.764200  0.832800  0.331300  1.0  0.1218
  C  C272  1  0.705200  0.759000  0.353800  1.0  0.1481
  C  C273  1  0.447270  0.956730  0.571630  1.0  0.137
  C  C274  1  0.411170  0.942730  0.468830  1.0  -0.1465
  C  C275  1  0.387470  0.965630  0.467430  1.0  -0.0142
  C  C276  1  0.400270  0.002830  0.566330  1.0  -0.0687
  C  C277  1  0.437270  0.015230  0.667630  1.0  0.151
  C  C278  1  0.373270  0.026430  0.570430  1.0  0.256
  C  C279  1  0.396370  0.076030  0.604430  1.0  -0.037
  C  C280  1  0.439270  0.106530  0.548130  1.0  -0.1091
  C  C281  1  0.456370  0.152330  0.579530  1.0  -0.1661
  C  C282  1  0.430870  0.166130  0.664630  1.0  0.1218
  C  C283  1  0.371870  0.092330  0.687130  1.0  0.1481
  C  C284  1  0.113930  0.290070  0.904970  1.0  0.1369
  C  C285  1  0.077830  0.276070  0.802170  1.0  -0.1463
  C  C286  1  0.054130  0.298970  0.800770  1.0  -0.0142
  C  C287  1  0.066930  0.336170  0.899670  1.0  -0.0688
  C  C288  1  0.103930  0.348570  0.000970  1.0  0.151
  C  C289  1  0.039930  0.359770  0.903770  1.0  0.256
  C  C290  1  0.063030  0.409370  0.937770  1.0  -0.0369
  C  C291  1  0.105930  0.439870  0.881470  1.0  -0.1081
  C  C292  1  0.123030  0.485670  0.912870  1.0  -0.1653
  C  C293  1  0.097530  0.499470  0.997970  1.0  0.1218
  C  C294  1  0.038530  0.425670  0.020470  1.0  0.1481
  C  C295  1  0.376600  0.157200  0.238300  1.0  0.1356
  C  C296  1  0.390600  0.135100  0.135500  1.0  -0.1447
  C  C297  1  0.367700  0.088500  0.134100  1.0  -0.014
  C  C298  1  0.330500  0.064100  0.233000  1.0  -0.0683
  C  C299  1  0.318100  0.088700  0.334300  1.0  0.1519
  C  C300  1  0.306900  0.013500  0.237100  1.0  0.2565
  C  C301  1  0.257300  0.987000  0.271100  1.0  -0.0376
  C  C302  1  0.226800  0.999400  0.214800  1.0  -0.1121
  C  C303  1  0.181000  0.970700  0.246200  1.0  -0.168
  C  C304  1  0.167200  0.931400  0.331300  1.0  0.1213
  C  C305  1  0.241000  0.946200  0.353800  1.0  0.1482
  C  C306  1  0.043270  0.490530  0.571630  1.0  0.1357
  C  C307  1  0.057270  0.468430  0.468830  1.0  -0.1447
  C  C308  1  0.034370  0.421830  0.467430  1.0  -0.014
  C  C309  1  0.997170  0.397430  0.566330  1.0  -0.0681
  C  C310  1  0.984770  0.422030  0.667630  1.0  0.1519
  C  C311  1  0.973570  0.346830  0.570430  1.0  0.2563
  C  C312  1  0.923970  0.320330  0.604430  1.0  -0.0376
  C  C313  1  0.893470  0.332730  0.548130  1.0  -0.1121
  C  C314  1  0.847670  0.304030  0.579530  1.0  -0.168
  C  C315  1  0.833870  0.264730  0.664630  1.0  0.1213
  C  C316  1  0.907670  0.279530  0.687130  1.0  0.1482
  C  C317  1  0.709930  0.823870  0.904970  1.0  0.1356
  C  C318  1  0.723930  0.801770  0.802170  1.0  -0.1447
  C  C319  1  0.701030  0.755170  0.800770  1.0  -0.0141
  C  C320  1  0.663830  0.730770  0.899670  1.0  -0.0683
  C  C321  1  0.651430  0.755370  0.000970  1.0  0.1519
  C  C322  1  0.640230  0.680170  0.903770  1.0  0.2564
  C  C323  1  0.590630  0.653670  0.937770  1.0  -0.0376
  C  C324  1  0.560130  0.666070  0.881470  1.0  -0.1115
  C  C325  1  0.514330  0.637370  0.912870  1.0  -0.1674
  C  C326  1  0.500530  0.598070  0.997970  1.0  0.1213
  C  C327  1  0.574330  0.612870  0.020470  1.0  0.1481
  C  C328  1  0.842800  0.219400  0.238300  1.0  0.1401
  C  C329  1  0.864900  0.255500  0.135500  1.0  -0.1465
  C  C330  1  0.911500  0.279200  0.134100  1.0  -0.0138
  C  C331  1  0.935900  0.266400  0.233000  1.0  -0.068
  C  C332  1  0.911300  0.229400  0.334300  1.0  0.1503
  C  C333  1  0.986500  0.293400  0.237100  1.0  0.26
  C  C334  1  0.013000  0.270300  0.271100  1.0  -0.0371
  C  C335  1  0.000600  0.227400  0.214800  1.0  -0.1127
  C  C336  1  0.029300  0.210300  0.246200  1.0  -0.1654
  C  C337  1  0.068600  0.235800  0.331300  1.0  0.1215
  C  C338  1  0.053800  0.294800  0.353800  1.0  0.1471
  C  C339  1  0.509470  0.552730  0.571630  1.0  0.14
  C  C340  1  0.531570  0.588830  0.468830  1.0  -0.1466
  C  C341  1  0.578170  0.612530  0.467430  1.0  -0.0137
  C  C342  1  0.602570  0.599730  0.566330  1.0  -0.068
  C  C343  1  0.577970  0.562730  0.667630  1.0  0.1503
  C  C344  1  0.653170  0.626730  0.570430  1.0  0.2599
  C  C345  1  0.679670  0.603630  0.604430  1.0  -0.0371
  C  C346  1  0.667270  0.560730  0.548130  1.0  -0.1127
  C  C347  1  0.695970  0.543630  0.579530  1.0  -0.1654
  C  C348  1  0.735270  0.569130  0.664630  1.0  0.1215
  C  C349  1  0.720470  0.628130  0.687130  1.0  0.1471
  C  C350  1  0.176130  0.886070  0.904970  1.0  0.1401
  C  C351  1  0.198230  0.922170  0.802170  1.0  -0.1465
  C  C352  1  0.244830  0.945870  0.800770  1.0  -0.0138
  C  C353  1  0.269230  0.933070  0.899670  1.0  -0.068
  C  C354  1  0.244630  0.896070  0.000970  1.0  0.1503
  C  C355  1  0.319830  0.960070  0.903770  1.0  0.2598
  C  C356  1  0.346330  0.936970  0.937770  1.0  -0.0372
  C  C357  1  0.333930  0.894070  0.881470  1.0  -0.1158
  C  C358  1  0.362630  0.876970  0.912870  1.0  -0.1655
  C  C359  1  0.401930  0.902470  0.997970  1.0  0.1215
  C  C360  1  0.387130  0.961470  0.020470  1.0  0.1471
  N  N361  1  0.206200  0.340700  0.659300  1.0  -0.3403
  N  N362  1  0.277500  0.196100  0.614900  1.0  -0.3264
  N  N363  1  0.872870  0.674030  0.992630  1.0  -0.3403
  N  N364  1  0.944170  0.529430  0.948230  1.0  -0.3264
  N  N365  1  0.539530  0.007370  0.325970  1.0  -0.3401
  N  N366  1  0.610830  0.862770  0.281570  1.0  -0.3264
  N  N367  1  0.659300  0.865500  0.659300  1.0  -0.3376
  N  N368  1  0.803900  0.081400  0.614900  1.0  -0.3185
  N  N369  1  0.325970  0.198830  0.992630  1.0  -0.3376
  N  N370  1  0.470570  0.414730  0.948230  1.0  -0.3186
  N  N371  1  0.992630  0.532170  0.325970  1.0  -0.3376
  N  N372  1  0.137230  0.748070  0.281570  1.0  -0.3185
  N  N373  1  0.134500  0.793800  0.659300  1.0  -0.3377
  N  N374  1  0.918600  0.722500  0.614900  1.0  -0.323
  N  N375  1  0.801170  0.127130  0.992630  1.0  -0.3377
  N  N376  1  0.585270  0.055830  0.948230  1.0  -0.3231
  N  N377  1  0.467830  0.460470  0.325970  1.0  -0.3377
  N  N378  1  0.251930  0.389170  0.281570  1.0  -0.323
  N  N379  1  0.793800  0.659300  0.340700  1.0  -0.3381
  N  N380  1  0.722500  0.803900  0.385100  1.0  -0.3246
  N  N381  1  0.460470  0.992630  0.674030  1.0  -0.338
  N  N382  1  0.389170  0.137230  0.718430  1.0  -0.3246
  N  N383  1  0.127130  0.325970  0.007370  1.0  -0.3381
  N  N384  1  0.055830  0.470570  0.051770  1.0  -0.3246
  N  N385  1  0.340700  0.134500  0.340700  1.0  -0.3376
  N  N386  1  0.196100  0.918600  0.385100  1.0  -0.3177
  N  N387  1  0.007370  0.467830  0.674030  1.0  -0.3376
  N  N388  1  0.862770  0.251930  0.718430  1.0  -0.3177
  N  N389  1  0.674030  0.801170  0.007370  1.0  -0.3376
  N  N390  1  0.529430  0.585270  0.051770  1.0  -0.3177
  N  N391  1  0.865500  0.206200  0.340700  1.0  -0.3396
  N  N392  1  0.081400  0.277500  0.385100  1.0  -0.3221
  N  N393  1  0.532170  0.539530  0.674030  1.0  -0.3396
  N  N394  1  0.748070  0.610830  0.718430  1.0  -0.3221
  N  N395  1  0.198830  0.872870  0.007370  1.0  -0.3396
  N  N396  1  0.414730  0.944170  0.051770  1.0  -0.3222
  O  O397  1  0.335040  0.329010  0.786400  1.0  -0.4896
  O  O398  1  0.001710  0.662340  0.119730  1.0  -0.4896
  O  O399  1  0.668370  0.995680  0.453070  1.0  -0.4896
  O  O400  1  0.670990  0.006030  0.786400  1.0  -0.4886
  O  O401  1  0.337660  0.339360  0.119730  1.0  -0.4886
  O  O402  1  0.004320  0.672700  0.453070  1.0  -0.4886
  O  O403  1  0.993970  0.664960  0.786400  1.0  -0.4889
  O  O404  1  0.660640  0.998290  0.119730  1.0  -0.4889
  O  O405  1  0.327300  0.331630  0.453070  1.0  -0.4889
  O  O406  1  0.664960  0.670990  0.213600  1.0  -0.489
  O  O407  1  0.331630  0.004320  0.546930  1.0  -0.489
  O  O408  1  0.998290  0.337660  0.880270  1.0  -0.489
  O  O409  1  0.329010  0.993970  0.213600  1.0  -0.4889
  O  O410  1  0.995680  0.327300  0.546930  1.0  -0.4889
  O  O411  1  0.662340  0.660640  0.880270  1.0  -0.4889
  O  O412  1  0.006030  0.335040  0.213600  1.0  -0.4883
  O  O413  1  0.672700  0.668370  0.546930  1.0  -0.4883
  O  O414  1  0.339360  0.001710  0.880270  1.0  -0.4883
