# generated using pymatgen
data_AgH8C11N2O
_symmetry_space_group_name_H-M   'P 1'
_cell_length_a   33.45300000
_cell_length_b   33.45300000
_cell_length_c   8.42750000
_cell_angle_alpha   90.00000000
_cell_angle_beta   90.00000000
_cell_angle_gamma   120.00000000
_symmetry_Int_Tables_number   1
_chemical_formula_structural   AgH8C11N2O
_chemical_formula_sum   'Ag18 H144 C198 N36 O18'
_cell_volume   8167.69541572
_cell_formula_units_Z   18
loop_
 _symmetry_equiv_pos_site_id
 _symmetry_equiv_pos_as_xyz
  1  'x, y, z'
loop_
 _atom_site_type_symbol
 _atom_site_label
 _atom_site_symmetry_multiplicity
 _atom_site_fract_x
 _atom_site_fract_y
 _atom_site_fract_z
 _atom_site_occupancy
 _atom_site_charge
  Ag  Ag1  1  0.147060  0.321810  0.502630  1.0  0.1832
  Ag  Ag2  1  0.813720  0.655140  0.835960  1.0  0.1833
  Ag  Ag3  1  0.480390  0.988480  0.169300  1.0  0.1833
  Ag  Ag4  1  0.678190  0.825250  0.502630  1.0  0.1832
  Ag  Ag5  1  0.344860  0.158580  0.835960  1.0  0.1832
  Ag  Ag6  1  0.011520  0.491910  0.169300  1.0  0.1833
  Ag  Ag7  1  0.174750  0.852940  0.502630  1.0  0.1838
  Ag  Ag8  1  0.841420  0.186280  0.835960  1.0  0.1838
  Ag  Ag9  1  0.508090  0.519610  0.169300  1.0  0.1838
  Ag  Ag10  1  0.852940  0.678190  0.497370  1.0  0.1827
  Ag  Ag11  1  0.519610  0.011520  0.830700  1.0  0.1828
  Ag  Ag12  1  0.186280  0.344860  0.164040  1.0  0.1828
  Ag  Ag13  1  0.321810  0.174750  0.497370  1.0  0.1831
  Ag  Ag14  1  0.988480  0.508090  0.830700  1.0  0.1832
  Ag  Ag15  1  0.655140  0.841420  0.164040  1.0  0.183
  Ag  Ag16  1  0.825250  0.147060  0.497370  1.0  0.1833
  Ag  Ag17  1  0.491910  0.480390  0.830700  1.0  0.1832
  Ag  Ag18  1  0.158580  0.813720  0.164040  1.0  0.1833
  H  H19  1  0.201800  0.394000  0.757200  1.0  0.0668
  H  H20  1  0.262100  0.417200  0.936000  1.0  0.1017
  H  H21  1  0.304500  0.379000  0.940400  1.0  0.1012
  H  H22  1  0.220500  0.294100  0.599100  1.0  0.086
  H  H23  1  0.209200  0.237700  0.843000  1.0  0.1081
  H  H24  1  0.179700  0.158700  0.789100  1.0  0.1052
  H  H25  1  0.223600  0.135800  0.648500  1.0  0.0642
  H  H26  1  0.325900  0.263300  0.616800  1.0  0.0754
  H  H27  1  0.868470  0.727330  0.090530  1.0  0.0668
  H  H28  1  0.928770  0.750530  0.269330  1.0  0.1017
  H  H29  1  0.971170  0.712330  0.273730  1.0  0.1012
  H  H30  1  0.887170  0.627430  0.932430  1.0  0.086
  H  H31  1  0.875870  0.571030  0.176330  1.0  0.108
  H  H32  1  0.846370  0.492030  0.122430  1.0  0.1052
  H  H33  1  0.890270  0.469130  0.981830  1.0  0.0642
  H  H34  1  0.992570  0.596630  0.950130  1.0  0.0754
  H  H35  1  0.535130  0.060670  0.423870  1.0  0.0668
  H  H36  1  0.595430  0.083870  0.602670  1.0  0.1017
  H  H37  1  0.637830  0.045670  0.607070  1.0  0.1013
  H  H38  1  0.553830  0.960770  0.265770  1.0  0.086
  H  H39  1  0.542530  0.904370  0.509670  1.0  0.108
  H  H40  1  0.513030  0.825370  0.455770  1.0  0.1052
  H  H41  1  0.556930  0.802470  0.315170  1.0  0.0642
  H  H42  1  0.659230  0.929970  0.283470  1.0  0.0754
  H  H43  1  0.606000  0.807800  0.757200  1.0  0.0659
  H  H44  1  0.582800  0.844900  0.936000  1.0  0.1008
  H  H45  1  0.621000  0.925500  0.940400  1.0  0.1016
  H  H46  1  0.705900  0.926400  0.599100  1.0  0.0862
  H  H47  1  0.762300  0.971500  0.843000  1.0  0.107
  H  H48  1  0.841300  0.021000  0.789100  1.0  0.104
  H  H49  1  0.864200  0.087800  0.648500  1.0  0.0669
  H  H50  1  0.736700  0.062600  0.616800  1.0  0.0759
  H  H51  1  0.272670  0.141130  0.090530  1.0  0.0659
  H  H52  1  0.249470  0.178230  0.269330  1.0  0.1007
  H  H53  1  0.287670  0.258830  0.273730  1.0  0.1016
  H  H54  1  0.372570  0.259730  0.932430  1.0  0.0862
  H  H55  1  0.428970  0.304830  0.176330  1.0  0.107
  H  H56  1  0.507970  0.354330  0.122430  1.0  0.1041
  H  H57  1  0.530870  0.421130  0.981830  1.0  0.0669
  H  H58  1  0.403370  0.395930  0.950130  1.0  0.0759
  H  H59  1  0.939330  0.474470  0.423870  1.0  0.0659
  H  H60  1  0.916130  0.511570  0.602670  1.0  0.1007
  H  H61  1  0.954330  0.592170  0.607070  1.0  0.1016
  H  H62  1  0.039230  0.593070  0.265770  1.0  0.0862
  H  H63  1  0.095630  0.638170  0.509670  1.0  0.107
  H  H64  1  0.174630  0.687670  0.455770  1.0  0.104
  H  H65  1  0.197530  0.754470  0.315170  1.0  0.0669
  H  H66  1  0.070030  0.729270  0.283470  1.0  0.0759
  H  H67  1  0.192200  0.798200  0.757200  1.0  0.067
  H  H68  1  0.155100  0.737900  0.936000  1.0  0.1002
  H  H69  1  0.074500  0.695500  0.940400  1.0  0.1003
  H  H70  1  0.073600  0.779500  0.599100  1.0  0.0857
  H  H71  1  0.028500  0.790800  0.843000  1.0  0.1076
  H  H72  1  0.979000  0.820300  0.789100  1.0  0.1059
  H  H73  1  0.912200  0.776400  0.648500  1.0  0.0647
  H  H74  1  0.937400  0.674100  0.616800  1.0  0.0764
  H  H75  1  0.858870  0.131530  0.090530  1.0  0.067
  H  H76  1  0.821770  0.071230  0.269330  1.0  0.1001
  H  H77  1  0.741170  0.028830  0.273730  1.0  0.1003
  H  H78  1  0.740270  0.112830  0.932430  1.0  0.0856
  H  H79  1  0.695170  0.124130  0.176330  1.0  0.1076
  H  H80  1  0.645670  0.153630  0.122430  1.0  0.1059
  H  H81  1  0.578870  0.109730  0.981830  1.0  0.0647
  H  H82  1  0.604070  0.007430  0.950130  1.0  0.0765
  H  H83  1  0.525530  0.464870  0.423870  1.0  0.067
  H  H84  1  0.488430  0.404570  0.602670  1.0  0.1002
  H  H85  1  0.407830  0.362170  0.607070  1.0  0.1003
  H  H86  1  0.406930  0.446170  0.265770  1.0  0.0857
  H  H87  1  0.361830  0.457470  0.509670  1.0  0.1077
  H  H88  1  0.312330  0.486970  0.455770  1.0  0.1059
  H  H89  1  0.245530  0.443070  0.315170  1.0  0.0647
  H  H90  1  0.270730  0.340770  0.283470  1.0  0.0764
  H  H91  1  0.798200  0.606000  0.242800  1.0  0.0661
  H  H92  1  0.737900  0.582800  0.064000  1.0  0.1013
  H  H93  1  0.695500  0.621000  0.059600  1.0  0.1009
  H  H94  1  0.779500  0.705900  0.400900  1.0  0.0854
  H  H95  1  0.790800  0.762300  0.157000  1.0  0.1078
  H  H96  1  0.820300  0.841300  0.210900  1.0  0.1059
  H  H97  1  0.776400  0.864200  0.351500  1.0  0.0643
  H  H98  1  0.674100  0.736700  0.383200  1.0  0.076
  H  H99  1  0.464870  0.939330  0.576130  1.0  0.0661
  H  H100  1  0.404570  0.916130  0.397330  1.0  0.1013
  H  H101  1  0.362170  0.954330  0.392930  1.0  0.1009
  H  H102  1  0.446170  0.039230  0.734230  1.0  0.0853
  H  H103  1  0.457470  0.095630  0.490330  1.0  0.1078
  H  H104  1  0.486970  0.174630  0.544230  1.0  0.1059
  H  H105  1  0.443070  0.197530  0.684830  1.0  0.0643
  H  H106  1  0.340770  0.070030  0.716530  1.0  0.076
  H  H107  1  0.131530  0.272670  0.909470  1.0  0.0661
  H  H108  1  0.071230  0.249470  0.730670  1.0  0.1013
  H  H109  1  0.028830  0.287670  0.726270  1.0  0.1009
  H  H110  1  0.112830  0.372570  0.067570  1.0  0.0854
  H  H111  1  0.124130  0.428970  0.823670  1.0  0.1078
  H  H112  1  0.153630  0.507970  0.877570  1.0  0.1059
  H  H113  1  0.109730  0.530870  0.018170  1.0  0.0643
  H  H114  1  0.007430  0.403370  0.049870  1.0  0.076
  H  H115  1  0.394000  0.192200  0.242800  1.0  0.0652
  H  H116  1  0.417200  0.155100  0.064000  1.0  0.1013
  H  H117  1  0.379000  0.074500  0.059600  1.0  0.1019
  H  H118  1  0.294100  0.073600  0.400900  1.0  0.0857
  H  H119  1  0.237700  0.028500  0.157000  1.0  0.1075
  H  H120  1  0.158700  0.979000  0.210900  1.0  0.1047
  H  H121  1  0.135800  0.912200  0.351500  1.0  0.0666
  H  H122  1  0.263300  0.937400  0.383200  1.0  0.0757
  H  H123  1  0.060670  0.525530  0.576130  1.0  0.0652
  H  H124  1  0.083870  0.488430  0.397330  1.0  0.1013
  H  H125  1  0.045670  0.407830  0.392930  1.0  0.1019
  H  H126  1  0.960770  0.406930  0.734230  1.0  0.0857
  H  H127  1  0.904370  0.361830  0.490330  1.0  0.1075
  H  H128  1  0.825370  0.312330  0.544230  1.0  0.1047
  H  H129  1  0.802470  0.245530  0.684830  1.0  0.0666
  H  H130  1  0.929970  0.270730  0.716530  1.0  0.0757
  H  H131  1  0.727330  0.858870  0.909470  1.0  0.0652
  H  H132  1  0.750530  0.821770  0.730670  1.0  0.1013
  H  H133  1  0.712330  0.741170  0.726270  1.0  0.1019
  H  H134  1  0.627430  0.740270  0.067570  1.0  0.0857
  H  H135  1  0.571030  0.695170  0.823670  1.0  0.1075
  H  H136  1  0.492030  0.645670  0.877570  1.0  0.1048
  H  H137  1  0.469130  0.578870  0.018170  1.0  0.0666
  H  H138  1  0.596630  0.604070  0.049870  1.0  0.0756
  H  H139  1  0.807800  0.201800  0.242800  1.0  0.0685
  H  H140  1  0.844900  0.262100  0.064000  1.0  0.1015
  H  H141  1  0.925500  0.304500  0.059600  1.0  0.1007
  H  H142  1  0.926400  0.220500  0.400900  1.0  0.0852
  H  H143  1  0.971500  0.209200  0.157000  1.0  0.1083
  H  H144  1  0.021000  0.179700  0.210900  1.0  0.1066
  H  H145  1  0.087800  0.223600  0.351500  1.0  0.0654
  H  H146  1  0.062600  0.325900  0.383200  1.0  0.0759
  H  H147  1  0.474470  0.535130  0.576130  1.0  0.0685
  H  H148  1  0.511570  0.595430  0.397330  1.0  0.1015
  H  H149  1  0.592170  0.637830  0.392930  1.0  0.1007
  H  H150  1  0.593070  0.553830  0.734230  1.0  0.0852
  H  H151  1  0.638170  0.542530  0.490330  1.0  0.1083
  H  H152  1  0.687670  0.513030  0.544230  1.0  0.1066
  H  H153  1  0.754470  0.556930  0.684830  1.0  0.0654
  H  H154  1  0.729270  0.659230  0.716530  1.0  0.0759
  H  H155  1  0.141130  0.868470  0.909470  1.0  0.0685
  H  H156  1  0.178230  0.928770  0.730670  1.0  0.1014
  H  H157  1  0.258830  0.971170  0.726270  1.0  0.1007
  H  H158  1  0.259730  0.887170  0.067570  1.0  0.0851
  H  H159  1  0.304830  0.875870  0.823670  1.0  0.1083
  H  H160  1  0.354330  0.846370  0.877570  1.0  0.1066
  H  H161  1  0.421130  0.890270  0.018170  1.0  0.0654
  H  H162  1  0.395930  0.992570  0.049870  1.0  0.076
  C  C163  1  0.218470  0.377890  0.760200  1.0  0.1239
  C  C164  1  0.254460  0.392090  0.866400  1.0  -0.1383
  C  C165  1  0.279090  0.369360  0.870000  1.0  -0.0075
  C  C166  1  0.266310  0.332250  0.769700  1.0  -0.1047
  C  C167  1  0.229440  0.319750  0.667500  1.0  0.1506
  C  C168  1  0.293880  0.308530  0.766500  1.0  0.2655
  C  C169  1  0.270830  0.258450  0.732100  1.0  -0.0687
  C  C170  1  0.226950  0.227450  0.785800  1.0  -0.1145
  C  C171  1  0.209620  0.180990  0.753600  1.0  -0.1842
  C  C172  1  0.236000  0.167720  0.670400  1.0  0.122
  C  C173  1  0.295430  0.241890  0.650900  1.0  0.1548
  C  C174  1  0.885140  0.711220  0.093530  1.0  0.1239
  C  C175  1  0.921130  0.725420  0.199730  1.0  -0.1383
  C  C176  1  0.945760  0.702690  0.203330  1.0  -0.0075
  C  C177  1  0.932980  0.665580  0.103030  1.0  -0.1047
  C  C178  1  0.896110  0.653080  0.000830  1.0  0.1506
  C  C179  1  0.960550  0.641860  0.099830  1.0  0.2655
  C  C180  1  0.937500  0.591780  0.065430  1.0  -0.0687
  C  C181  1  0.893620  0.560780  0.119130  1.0  -0.1145
  C  C182  1  0.876290  0.514320  0.086930  1.0  -0.1842
  C  C183  1  0.902670  0.501050  0.003730  1.0  0.1219
  C  C184  1  0.962100  0.575220  0.984230  1.0  0.1548
  C  C185  1  0.551800  0.044560  0.426870  1.0  0.1239
  C  C186  1  0.587790  0.058760  0.533070  1.0  -0.1382
  C  C187  1  0.612420  0.036030  0.536670  1.0  -0.0075
  C  C188  1  0.599640  0.998920  0.436370  1.0  -0.1047
  C  C189  1  0.562770  0.986420  0.334170  1.0  0.1505
  C  C190  1  0.627210  0.975200  0.433170  1.0  0.2655
  C  C191  1  0.604160  0.925120  0.398770  1.0  -0.0687
  C  C192  1  0.560280  0.894120  0.452470  1.0  -0.1145
  C  C193  1  0.542950  0.847660  0.420270  1.0  -0.1842
  C  C194  1  0.569330  0.834390  0.337070  1.0  0.122
  C  C195  1  0.628760  0.908560  0.317570  1.0  0.1548
  C  C196  1  0.622110  0.840580  0.760200  1.0  0.1227
  C  C197  1  0.607910  0.862370  0.866400  1.0  -0.1422
  C  C198  1  0.630640  0.909730  0.870000  1.0  -0.0096
  C  C199  1  0.667750  0.934060  0.769700  1.0  -0.104
  C  C200  1  0.680250  0.909690  0.667500  1.0  0.1517
  C  C201  1  0.691470  0.985350  0.766500  1.0  0.2653
  C  C202  1  0.741550  0.012380  0.732100  1.0  -0.067
  C  C203  1  0.772550  0.999500  0.785800  1.0  -0.1171
  C  C204  1  0.819010  0.028630  0.753600  1.0  -0.1822
  C  C205  1  0.832280  0.068280  0.670400  1.0  0.122
  C  C206  1  0.758110  0.053540  0.650900  1.0  0.1551
  C  C207  1  0.288780  0.173910  0.093530  1.0  0.1227
  C  C208  1  0.274580  0.195700  0.199730  1.0  -0.1423
  C  C209  1  0.297310  0.243060  0.203330  1.0  -0.0096
  C  C210  1  0.334420  0.267390  0.103030  1.0  -0.104
  C  C211  1  0.346920  0.243020  0.000830  1.0  0.1517
  C  C212  1  0.358140  0.318680  0.099830  1.0  0.2652
  C  C213  1  0.408220  0.345710  0.065430  1.0  -0.067
  C  C214  1  0.439220  0.332830  0.119130  1.0  -0.1173
  C  C215  1  0.485680  0.361960  0.086930  1.0  -0.1821
  C  C216  1  0.498950  0.401610  0.003730  1.0  0.1219
  C  C217  1  0.424780  0.386870  0.984230  1.0  0.1551
  C  C218  1  0.955440  0.507250  0.426870  1.0  0.1227
  C  C219  1  0.941240  0.529040  0.533070  1.0  -0.1423
  C  C220  1  0.963970  0.576400  0.536670  1.0  -0.0096
  C  C221  1  0.001080  0.600730  0.436370  1.0  -0.104
  C  C222  1  0.013580  0.576360  0.334170  1.0  0.1516
  C  C223  1  0.024800  0.652020  0.433170  1.0  0.2653
  C  C224  1  0.074880  0.679050  0.398770  1.0  -0.067
  C  C225  1  0.105880  0.666170  0.452470  1.0  -0.1171
  C  C226  1  0.152340  0.695300  0.420270  1.0  -0.1822
  C  C227  1  0.165610  0.734950  0.337070  1.0  0.122
  C  C228  1  0.091440  0.720210  0.317570  1.0  0.1551
  C  C229  1  0.159420  0.781530  0.760200  1.0  0.127
  C  C230  1  0.137630  0.745540  0.866400  1.0  -0.1396
  C  C231  1  0.090270  0.720910  0.870000  1.0  -0.0088
  C  C232  1  0.065940  0.733690  0.769700  1.0  -0.1038
  C  C233  1  0.090310  0.770560  0.667500  1.0  0.1507
  C  C234  1  0.014650  0.706120  0.766500  1.0  0.2683
  C  C235  1  0.987620  0.729170  0.732100  1.0  -0.0673
  C  C236  1  0.000500  0.773050  0.785800  1.0  -0.1187
  C  C237  1  0.971370  0.790380  0.753600  1.0  -0.179
  C  C238  1  0.931720  0.764000  0.670400  1.0  0.1235
  C  C239  1  0.946460  0.704570  0.650900  1.0  0.1564
  C  C240  1  0.826090  0.114860  0.093530  1.0  0.127
  C  C241  1  0.804300  0.078870  0.199730  1.0  -0.1395
  C  C242  1  0.756940  0.054240  0.203330  1.0  -0.0088
  C  C243  1  0.732610  0.067020  0.103030  1.0  -0.1038
  C  C244  1  0.756980  0.103890  0.000830  1.0  0.1507
  C  C245  1  0.681320  0.039450  0.099830  1.0  0.2685
  C  C246  1  0.654290  0.062500  0.065430  1.0  -0.0673
  C  C247  1  0.667170  0.106380  0.119130  1.0  -0.1187
  C  C248  1  0.638040  0.123710  0.086930  1.0  -0.179
  C  C249  1  0.598390  0.097330  0.003730  1.0  0.1235
  C  C250  1  0.613130  0.037900  0.984230  1.0  0.1564
  C  C251  1  0.492750  0.448200  0.426870  1.0  0.1269
  C  C252  1  0.470960  0.412210  0.533070  1.0  -0.1395
  C  C253  1  0.423600  0.387580  0.536670  1.0  -0.0089
  C  C254  1  0.399270  0.400360  0.436370  1.0  -0.1038
  C  C255  1  0.423640  0.437230  0.334170  1.0  0.1507
  C  C256  1  0.347980  0.372790  0.433170  1.0  0.2683
  C  C257  1  0.320950  0.395840  0.398770  1.0  -0.0673
  C  C258  1  0.333830  0.439720  0.452470  1.0  -0.1187
  C  C259  1  0.304700  0.457050  0.420270  1.0  -0.179
  C  C260  1  0.265050  0.430670  0.337070  1.0  0.1235
  C  C261  1  0.279790  0.371240  0.317570  1.0  0.1564
  C  C262  1  0.781530  0.622110  0.239800  1.0  0.1242
  C  C263  1  0.745540  0.607910  0.133600  1.0  -0.1403
  C  C264  1  0.720910  0.630640  0.130000  1.0  -0.008
  C  C265  1  0.733690  0.667750  0.230300  1.0  -0.1043
  C  C266  1  0.770560  0.680250  0.332500  1.0  0.1514
  C  C267  1  0.706120  0.691470  0.233500  1.0  0.2655
  C  C268  1  0.729170  0.741550  0.267900  1.0  -0.0666
  C  C269  1  0.773050  0.772550  0.214200  1.0  -0.1141
  C  C270  1  0.790380  0.819010  0.246400  1.0  -0.1799
  C  C271  1  0.764000  0.832280  0.329600  1.0  0.1228
  C  C272  1  0.704570  0.758110  0.349100  1.0  0.1548
  C  C273  1  0.448200  0.955440  0.573130  1.0  0.1243
  C  C274  1  0.412210  0.941240  0.466930  1.0  -0.1402
  C  C275  1  0.387580  0.963970  0.463330  1.0  -0.0081
  C  C276  1  0.400360  0.001080  0.563630  1.0  -0.1043
  C  C277  1  0.437230  0.013580  0.665830  1.0  0.1513
  C  C278  1  0.372790  0.024800  0.566830  1.0  0.2655
  C  C279  1  0.395840  0.074880  0.601230  1.0  -0.0666
  C  C280  1  0.439720  0.105880  0.547530  1.0  -0.1141
  C  C281  1  0.457050  0.152340  0.579730  1.0  -0.1799
  C  C282  1  0.430670  0.165610  0.662930  1.0  0.1228
  C  C283  1  0.371240  0.091440  0.682430  1.0  0.1548
  C  C284  1  0.114860  0.288780  0.906470  1.0  0.1242
  C  C285  1  0.078870  0.274580  0.800270  1.0  -0.1402
  C  C286  1  0.054240  0.297310  0.796670  1.0  -0.0081
  C  C287  1  0.067020  0.334420  0.896970  1.0  -0.1043
  C  C288  1  0.103890  0.346920  0.999170  1.0  0.1514
  C  C289  1  0.039450  0.358140  0.900170  1.0  0.2655
  C  C290  1  0.062500  0.408220  0.934570  1.0  -0.0666
  C  C291  1  0.106380  0.439220  0.880870  1.0  -0.1141
  C  C292  1  0.123710  0.485680  0.913070  1.0  -0.1799
  C  C293  1  0.097330  0.498950  0.996270  1.0  0.1227
  C  C294  1  0.037900  0.424780  0.015770  1.0  0.1548
  C  C295  1  0.377890  0.159420  0.239800  1.0  0.1233
  C  C296  1  0.392090  0.137630  0.133600  1.0  -0.1401
  C  C297  1  0.369360  0.090270  0.130000  1.0  -0.0088
  C  C298  1  0.332250  0.065940  0.230300  1.0  -0.1049
  C  C299  1  0.319750  0.090310  0.332500  1.0  0.1521
  C  C300  1  0.308530  0.014650  0.233500  1.0  0.267
  C  C301  1  0.258450  0.987620  0.267900  1.0  -0.0675
  C  C302  1  0.227450  0.000500  0.214200  1.0  -0.1183
  C  C303  1  0.180990  0.971370  0.246400  1.0  -0.1808
  C  C304  1  0.167720  0.931720  0.329600  1.0  0.123
  C  C305  1  0.241890  0.946460  0.349100  1.0  0.1554
  C  C306  1  0.044560  0.492750  0.573130  1.0  0.1233
  C  C307  1  0.058760  0.470960  0.466930  1.0  -0.1402
  C  C308  1  0.036030  0.423600  0.463330  1.0  -0.0087
  C  C309  1  0.998920  0.399270  0.563630  1.0  -0.1049
  C  C310  1  0.986420  0.423640  0.665830  1.0  0.152
  C  C311  1  0.975200  0.347980  0.566830  1.0  0.267
  C  C312  1  0.925120  0.320950  0.601230  1.0  -0.0675
  C  C313  1  0.894120  0.333830  0.547530  1.0  -0.1183
  C  C314  1  0.847660  0.304700  0.579730  1.0  -0.1808
  C  C315  1  0.834390  0.265050  0.662930  1.0  0.123
  C  C316  1  0.908560  0.279790  0.682430  1.0  0.1554
  C  C317  1  0.711220  0.826090  0.906470  1.0  0.1233
  C  C318  1  0.725420  0.804300  0.800270  1.0  -0.1402
  C  C319  1  0.702690  0.756940  0.796670  1.0  -0.0088
  C  C320  1  0.665580  0.732610  0.896970  1.0  -0.1049
  C  C321  1  0.653080  0.756980  0.999170  1.0  0.1521
  C  C322  1  0.641860  0.681320  0.900170  1.0  0.2669
  C  C323  1  0.591780  0.654290  0.934570  1.0  -0.0675
  C  C324  1  0.560780  0.667170  0.880870  1.0  -0.1185
  C  C325  1  0.514320  0.638040  0.913070  1.0  -0.1807
  C  C326  1  0.501050  0.598390  0.996270  1.0  0.1229
  C  C327  1  0.575220  0.613130  0.015770  1.0  0.1553
  C  C328  1  0.840580  0.218470  0.239800  1.0  0.1258
  C  C329  1  0.862370  0.254460  0.133600  1.0  -0.1423
  C  C330  1  0.909730  0.279090  0.130000  1.0  -0.0096
  C  C331  1  0.934060  0.266310  0.230300  1.0  -0.1051
  C  C332  1  0.909690  0.229440  0.332500  1.0  0.152
  C  C333  1  0.985350  0.293880  0.233500  1.0  0.2679
  C  C334  1  0.012380  0.270830  0.267900  1.0  -0.0679
  C  C335  1  0.999500  0.226950  0.214200  1.0  -0.1192
  C  C336  1  0.028630  0.209620  0.246400  1.0  -0.1816
  C  C337  1  0.068280  0.236000  0.329600  1.0  0.1246
  C  C338  1  0.053540  0.295430  0.349100  1.0  0.1551
  C  C339  1  0.507250  0.551800  0.573130  1.0  0.1257
  C  C340  1  0.529040  0.587790  0.466930  1.0  -0.1422
  C  C341  1  0.576400  0.612420  0.463330  1.0  -0.0097
  C  C342  1  0.600730  0.599640  0.563630  1.0  -0.1051
  C  C343  1  0.576360  0.562770  0.665830  1.0  0.152
  C  C344  1  0.652020  0.627210  0.566830  1.0  0.2679
  C  C345  1  0.679050  0.604160  0.601230  1.0  -0.0679
  C  C346  1  0.666170  0.560280  0.547530  1.0  -0.1192
  C  C347  1  0.695300  0.542950  0.579730  1.0  -0.1816
  C  C348  1  0.734950  0.569330  0.662930  1.0  0.1246
  C  C349  1  0.720210  0.628760  0.682430  1.0  0.1551
  C  C350  1  0.173910  0.885140  0.906470  1.0  0.1258
  C  C351  1  0.195700  0.921130  0.800270  1.0  -0.1423
  C  C352  1  0.243060  0.945760  0.796670  1.0  -0.0096
  C  C353  1  0.267390  0.932980  0.896970  1.0  -0.1051
  C  C354  1  0.243020  0.896110  0.999170  1.0  0.152
  C  C355  1  0.318680  0.960550  0.900170  1.0  0.2681
  C  C356  1  0.345710  0.937500  0.934570  1.0  -0.0679
  C  C357  1  0.332830  0.893620  0.880870  1.0  -0.1192
  C  C358  1  0.361960  0.876290  0.913070  1.0  -0.1815
  C  C359  1  0.401610  0.902670  0.996270  1.0  0.1247
  C  C360  1  0.386870  0.962100  0.015770  1.0  0.1551
  N  N361  1  0.206050  0.342420  0.661500  1.0  -0.3115
  N  N362  1  0.278570  0.197380  0.618200  1.0  -0.3299
  N  N363  1  0.872720  0.675750  0.994830  1.0  -0.3116
  N  N364  1  0.945240  0.530710  0.951530  1.0  -0.33
  N  N365  1  0.539380  0.009090  0.328170  1.0  -0.3116
  N  N366  1  0.611900  0.864050  0.284870  1.0  -0.3299
  N  N367  1  0.657580  0.863630  0.661500  1.0  -0.3101
  N  N368  1  0.802620  0.081190  0.618200  1.0  -0.3214
  N  N369  1  0.324250  0.196960  0.994830  1.0  -0.3101
  N  N370  1  0.469290  0.414520  0.951530  1.0  -0.3213
  N  N371  1  0.990910  0.530300  0.328170  1.0  -0.3099
  N  N372  1  0.135950  0.747860  0.284870  1.0  -0.3213
  N  N373  1  0.136370  0.793950  0.661500  1.0  -0.3105
  N  N374  1  0.918810  0.721430  0.618200  1.0  -0.3265
  N  N375  1  0.803040  0.127280  0.994830  1.0  -0.3105
  N  N376  1  0.585480  0.054760  0.951530  1.0  -0.3265
  N  N377  1  0.469700  0.460620  0.328170  1.0  -0.3106
  N  N378  1  0.252140  0.388100  0.284870  1.0  -0.3265
  N  N379  1  0.793950  0.657580  0.338500  1.0  -0.3087
  N  N380  1  0.721430  0.802620  0.381800  1.0  -0.3267
  N  N381  1  0.460620  0.990910  0.671830  1.0  -0.3088
  N  N382  1  0.388100  0.135950  0.715130  1.0  -0.3267
  N  N383  1  0.127280  0.324250  0.005170  1.0  -0.3087
  N  N384  1  0.054760  0.469290  0.048470  1.0  -0.3268
  N  N385  1  0.342420  0.136370  0.338500  1.0  -0.3103
  N  N386  1  0.197380  0.918810  0.381800  1.0  -0.3207
  N  N387  1  0.009090  0.469700  0.671830  1.0  -0.3102
  N  N388  1  0.864050  0.252140  0.715130  1.0  -0.3207
  N  N389  1  0.675750  0.803040  0.005170  1.0  -0.3103
  N  N390  1  0.530710  0.585480  0.048470  1.0  -0.3207
  N  N391  1  0.863630  0.206050  0.338500  1.0  -0.3106
  N  N392  1  0.081190  0.278570  0.381800  1.0  -0.3266
  N  N393  1  0.530300  0.539380  0.671830  1.0  -0.3107
  N  N394  1  0.747860  0.611900  0.715130  1.0  -0.3266
  N  N395  1  0.196960  0.872720  0.005170  1.0  -0.3106
  N  N396  1  0.414520  0.945240  0.048470  1.0  -0.3266
  O  O397  1  0.334910  0.330060  0.792400  1.0  -0.4585
  O  O398  1  0.001580  0.663390  0.125730  1.0  -0.4586
  O  O399  1  0.668240  0.996730  0.459070  1.0  -0.4585
  O  O400  1  0.669940  0.004850  0.792400  1.0  -0.4576
  O  O401  1  0.336610  0.338180  0.125730  1.0  -0.4576
  O  O402  1  0.003270  0.671520  0.459070  1.0  -0.4576
  O  O403  1  0.995150  0.665090  0.792400  1.0  -0.4566
  O  O404  1  0.661820  0.998420  0.125730  1.0  -0.4566
  O  O405  1  0.328480  0.331760  0.459070  1.0  -0.4566
  O  O406  1  0.665090  0.669940  0.207600  1.0  -0.4578
  O  O407  1  0.331760  0.003270  0.540930  1.0  -0.4578
  O  O408  1  0.998420  0.336610  0.874270  1.0  -0.4579
  O  O409  1  0.330060  0.995150  0.207600  1.0  -0.4581
  O  O410  1  0.996730  0.328480  0.540930  1.0  -0.4581
  O  O411  1  0.663390  0.661820  0.874270  1.0  -0.4581
  O  O412  1  0.004850  0.334910  0.207600  1.0  -0.4574
  O  O413  1  0.671520  0.668240  0.540930  1.0  -0.4574
  O  O414  1  0.338180  0.001580  0.874270  1.0  -0.4574
