# generated using pymatgen
data_AgH8C11N2O
_symmetry_space_group_name_H-M   'P 1'
_cell_length_a   34.02970000
_cell_length_b   34.02970000
_cell_length_c   8.36430000
_cell_angle_alpha   90.00000000
_cell_angle_beta   90.00000000
_cell_angle_gamma   120.00000000
_symmetry_Int_Tables_number   1
_chemical_formula_structural   AgH8C11N2O
_chemical_formula_sum   'Ag18 H144 C198 N36 O18'
_cell_volume   8388.34866392
_cell_formula_units_Z   18
loop_
 _symmetry_equiv_pos_site_id
 _symmetry_equiv_pos_as_xyz
  1  'x, y, z'
loop_
 _atom_site_type_symbol
 _atom_site_label
 _atom_site_symmetry_multiplicity
 _atom_site_fract_x
 _atom_site_fract_y
 _atom_site_fract_z
 _atom_site_occupancy
 _atom_site_charge
  Ag  Ag1  1  0.147860  0.320770  0.506770  1.0  0.1688
  Ag  Ag2  1  0.814520  0.654100  0.840100  1.0  0.1688
  Ag  Ag3  1  0.481190  0.987440  0.173440  1.0  0.1683
  Ag  Ag4  1  0.679230  0.827090  0.506770  1.0  0.169
  Ag  Ag5  1  0.345900  0.160420  0.840100  1.0  0.1689
  Ag  Ag6  1  0.012560  0.493750  0.173440  1.0  0.1684
  Ag  Ag7  1  0.172910  0.852140  0.506770  1.0  0.1701
  Ag  Ag8  1  0.839580  0.185480  0.840100  1.0  0.1704
  Ag  Ag9  1  0.506250  0.518810  0.173440  1.0  0.1704
  Ag  Ag10  1  0.852140  0.679230  0.493230  1.0  0.1694
  Ag  Ag11  1  0.518810  0.012560  0.826560  1.0  0.1689
  Ag  Ag12  1  0.185480  0.345900  0.159900  1.0  0.1694
  Ag  Ag13  1  0.320770  0.172910  0.493230  1.0  0.1686
  Ag  Ag14  1  0.987440  0.506250  0.826560  1.0  0.1681
  Ag  Ag15  1  0.654100  0.839580  0.159900  1.0  0.1687
  Ag  Ag16  1  0.827090  0.147860  0.493230  1.0  0.1677
  Ag  Ag17  1  0.493750  0.481190  0.826560  1.0  0.1679
  Ag  Ag18  1  0.160420  0.814520  0.159900  1.0  0.1679
  H  H19  1  0.203900  0.391300  0.761300  1.0  0.0691
  H  H20  1  0.265400  0.415300  0.931500  1.0  0.0988
  H  H21  1  0.307700  0.378000  0.926700  1.0  0.103
  H  H22  1  0.219600  0.291200  0.598600  1.0  0.0886
  H  H23  1  0.210900  0.237400  0.838200  1.0  0.1071
  H  H24  1  0.181500  0.159200  0.788700  1.0  0.1009
  H  H25  1  0.224800  0.135700  0.647100  1.0  0.0734
  H  H26  1  0.324700  0.261300  0.602900  1.0  0.0801
  H  H27  1  0.870570  0.724630  0.094630  1.0  0.0691
  H  H28  1  0.932070  0.748630  0.264830  1.0  0.0988
  H  H29  1  0.974370  0.711330  0.260030  1.0  0.103
  H  H30  1  0.886270  0.624530  0.931930  1.0  0.0887
  H  H31  1  0.877570  0.570730  0.171530  1.0  0.1071
  H  H32  1  0.848170  0.492530  0.122030  1.0  0.101
  H  H33  1  0.891470  0.469030  0.980430  1.0  0.0734
  H  H34  1  0.991370  0.594630  0.936230  1.0  0.0801
  H  H35  1  0.537230  0.057970  0.427970  1.0  0.0691
  H  H36  1  0.598730  0.081970  0.598170  1.0  0.0987
  H  H37  1  0.641030  0.044670  0.593370  1.0  0.1029
  H  H38  1  0.552930  0.957870  0.265270  1.0  0.0887
  H  H39  1  0.544230  0.904070  0.504870  1.0  0.1071
  H  H40  1  0.514830  0.825870  0.455370  1.0  0.101
  H  H41  1  0.558130  0.802370  0.313770  1.0  0.0734
  H  H42  1  0.658030  0.927970  0.269570  1.0  0.0801
  H  H43  1  0.608700  0.812600  0.761300  1.0  0.0676
  H  H44  1  0.584700  0.850100  0.931500  1.0  0.0982
  H  H45  1  0.622000  0.929700  0.926700  1.0  0.1036
  H  H46  1  0.708800  0.928400  0.598600  1.0  0.0894
  H  H47  1  0.762600  0.973500  0.838200  1.0  0.1063
  H  H48  1  0.840800  0.022300  0.788700  1.0  0.1002
  H  H49  1  0.864300  0.089100  0.647100  1.0  0.074
  H  H50  1  0.738700  0.063400  0.602900  1.0  0.08
  H  H51  1  0.275370  0.145930  0.094630  1.0  0.0676
  H  H52  1  0.251370  0.183430  0.264830  1.0  0.0982
  H  H53  1  0.288670  0.263030  0.260030  1.0  0.1036
  H  H54  1  0.375470  0.261730  0.931930  1.0  0.0893
  H  H55  1  0.429270  0.306830  0.171530  1.0  0.1063
  H  H56  1  0.507470  0.355630  0.122030  1.0  0.0999
  H  H57  1  0.530970  0.422430  0.980430  1.0  0.074
  H  H58  1  0.405370  0.396730  0.936230  1.0  0.0799
  H  H59  1  0.942030  0.479270  0.427970  1.0  0.0676
  H  H60  1  0.918030  0.516770  0.598170  1.0  0.0982
  H  H61  1  0.955330  0.596370  0.593370  1.0  0.1036
  H  H62  1  0.042130  0.595070  0.265270  1.0  0.0894
  H  H63  1  0.095930  0.640170  0.504870  1.0  0.1063
  H  H64  1  0.174130  0.688970  0.455370  1.0  0.0999
  H  H65  1  0.197630  0.755770  0.313770  1.0  0.074
  H  H66  1  0.072030  0.730070  0.269570  1.0  0.08
  H  H67  1  0.187400  0.796100  0.761300  1.0  0.0697
  H  H68  1  0.149900  0.734600  0.931500  1.0  0.0977
  H  H69  1  0.070300  0.692300  0.926700  1.0  0.1022
  H  H70  1  0.071600  0.780400  0.598600  1.0  0.0889
  H  H71  1  0.026500  0.789100  0.838200  1.0  0.1074
  H  H72  1  0.977700  0.818500  0.788700  1.0  0.102
  H  H73  1  0.910900  0.775200  0.647100  1.0  0.0726
  H  H74  1  0.936600  0.675300  0.602900  1.0  0.08
  H  H75  1  0.854070  0.129430  0.094630  1.0  0.0697
  H  H76  1  0.816570  0.067930  0.264830  1.0  0.0977
  H  H77  1  0.736970  0.025630  0.260030  1.0  0.1022
  H  H78  1  0.738270  0.113730  0.931930  1.0  0.0889
  H  H79  1  0.693170  0.122430  0.171530  1.0  0.1074
  H  H80  1  0.644370  0.151830  0.122030  1.0  0.1046
  H  H81  1  0.577570  0.108530  0.980430  1.0  0.0726
  H  H82  1  0.603270  0.008630  0.936230  1.0  0.08
  H  H83  1  0.520730  0.462770  0.427970  1.0  0.0698
  H  H84  1  0.483230  0.401270  0.598170  1.0  0.0977
  H  H85  1  0.403630  0.358970  0.593370  1.0  0.1021
  H  H86  1  0.404930  0.447070  0.265270  1.0  0.0888
  H  H87  1  0.359830  0.455770  0.504870  1.0  0.1074
  H  H88  1  0.311030  0.485170  0.455370  1.0  0.1046
  H  H89  1  0.244230  0.441870  0.313770  1.0  0.0726
  H  H90  1  0.269930  0.341970  0.269570  1.0  0.08
  H  H91  1  0.796100  0.608700  0.238700  1.0  0.069
  H  H92  1  0.734600  0.584700  0.068500  1.0  0.0986
  H  H93  1  0.692300  0.622000  0.073300  1.0  0.1021
  H  H94  1  0.780400  0.708800  0.401400  1.0  0.089
  H  H95  1  0.789100  0.762600  0.161800  1.0  0.107
  H  H96  1  0.818500  0.840800  0.211300  1.0  0.1018
  H  H97  1  0.775200  0.864300  0.352900  1.0  0.0738
  H  H98  1  0.675300  0.738700  0.397100  1.0  0.0802
  H  H99  1  0.462770  0.942030  0.572030  1.0  0.069
  H  H100  1  0.401270  0.918030  0.401830  1.0  0.0986
  H  H101  1  0.358970  0.955330  0.406630  1.0  0.1021
  H  H102  1  0.447070  0.042130  0.734730  1.0  0.0891
  H  H103  1  0.455770  0.095930  0.495130  1.0  0.107
  H  H104  1  0.485170  0.174130  0.544630  1.0  0.1018
  H  H105  1  0.441870  0.197630  0.686230  1.0  0.0738
  H  H106  1  0.341970  0.072030  0.730430  1.0  0.0802
  H  H107  1  0.129430  0.275370  0.905370  1.0  0.069
  H  H108  1  0.067930  0.251370  0.735170  1.0  0.0986
  H  H109  1  0.025630  0.288670  0.739970  1.0  0.1021
  H  H110  1  0.113730  0.375470  0.068070  1.0  0.0891
  H  H111  1  0.122430  0.429270  0.828470  1.0  0.107
  H  H112  1  0.151830  0.507470  0.877970  1.0  0.1018
  H  H113  1  0.108530  0.530970  0.019570  1.0  0.0738
  H  H114  1  0.008630  0.405370  0.063770  1.0  0.0802
  H  H115  1  0.391300  0.187400  0.238700  1.0  0.0677
  H  H116  1  0.415300  0.149900  0.068500  1.0  0.0987
  H  H117  1  0.378000  0.070300  0.073300  1.0  0.1038
  H  H118  1  0.291200  0.071600  0.401400  1.0  0.0893
  H  H119  1  0.237400  0.026500  0.161800  1.0  0.1068
  H  H120  1  0.159200  0.977700  0.211300  1.0  0.1003
  H  H121  1  0.135700  0.910900  0.352900  1.0  0.0786
  H  H122  1  0.261300  0.936600  0.397100  1.0  0.0796
  H  H123  1  0.057970  0.520730  0.572030  1.0  0.0676
  H  H124  1  0.081970  0.483230  0.401830  1.0  0.0986
  H  H125  1  0.044670  0.403630  0.406630  1.0  0.1038
  H  H126  1  0.957870  0.404930  0.734730  1.0  0.0893
  H  H127  1  0.904070  0.359830  0.495130  1.0  0.1068
  H  H128  1  0.825870  0.311030  0.544630  1.0  0.0997
  H  H129  1  0.802370  0.244230  0.686230  1.0  0.0786
  H  H130  1  0.927970  0.269930  0.730430  1.0  0.0796
  H  H131  1  0.724630  0.854070  0.905370  1.0  0.0677
  H  H132  1  0.748630  0.816570  0.735170  1.0  0.0986
  H  H133  1  0.711330  0.736970  0.739970  1.0  0.1038
  H  H134  1  0.624530  0.738270  0.068070  1.0  0.0892
  H  H135  1  0.570730  0.693170  0.828470  1.0  0.1068
  H  H136  1  0.492530  0.644370  0.877970  1.0  0.0997
  H  H137  1  0.469030  0.577570  0.019570  1.0  0.0786
  H  H138  1  0.594630  0.603270  0.063770  1.0  0.0795
  H  H139  1  0.812600  0.203900  0.238700  1.0  0.0704
  H  H140  1  0.850100  0.265400  0.068500  1.0  0.0983
  H  H141  1  0.929700  0.307700  0.073300  1.0  0.1027
  H  H142  1  0.928400  0.219600  0.401400  1.0  0.0891
  H  H143  1  0.973500  0.210900  0.161800  1.0  0.107
  H  H144  1  0.022300  0.181500  0.211300  1.0  0.1017
  H  H145  1  0.089100  0.224800  0.352900  1.0  0.0729
  H  H146  1  0.063400  0.324700  0.397100  1.0  0.08
  H  H147  1  0.479270  0.537230  0.572030  1.0  0.0705
  H  H148  1  0.516770  0.598730  0.401830  1.0  0.0983
  H  H149  1  0.596370  0.641030  0.406630  1.0  0.1028
  H  H150  1  0.595070  0.552930  0.734730  1.0  0.089
  H  H151  1  0.640170  0.544230  0.495130  1.0  0.107
  H  H152  1  0.688970  0.514830  0.544630  1.0  0.1021
  H  H153  1  0.755770  0.558130  0.686230  1.0  0.0729
  H  H154  1  0.730070  0.658030  0.730430  1.0  0.08
  H  H155  1  0.145930  0.870570  0.905370  1.0  0.0704
  H  H156  1  0.183430  0.932070  0.735170  1.0  0.0983
  H  H157  1  0.263030  0.974370  0.739970  1.0  0.1028
  H  H158  1  0.261730  0.886270  0.068070  1.0  0.0891
  H  H159  1  0.306830  0.877570  0.828470  1.0  0.107
  H  H160  1  0.355630  0.848170  0.877970  1.0  0.1021
  H  H161  1  0.422430  0.891470  0.019570  1.0  0.0729
  H  H162  1  0.396730  0.991370  0.063770  1.0  0.0801
  C  C163  1  0.220360  0.375450  0.760800  1.0  0.132
  C  C164  1  0.257150  0.390230  0.862300  1.0  -0.1498
  C  C165  1  0.281590  0.367960  0.861200  1.0  -0.0147
  C  C166  1  0.266990  0.330060  0.761100  1.0  -0.0925
  C  C167  1  0.229590  0.317160  0.665000  1.0  0.1484
  C  C168  1  0.294370  0.306820  0.755800  1.0  0.2788
  C  C169  1  0.271210  0.257240  0.723900  1.0  -0.0663
  C  C170  1  0.228110  0.227010  0.780800  1.0  -0.1169
  C  C171  1  0.210800  0.180960  0.751200  1.0  -0.1686
  C  C172  1  0.236880  0.167190  0.666667  1.0  0.1233
  C  C173  1  0.295080  0.240430  0.640600  1.0  0.147
  C  C174  1  0.887030  0.708780  0.094130  1.0  0.132
  C  C175  1  0.923820  0.723560  0.195630  1.0  -0.1498
  C  C176  1  0.948260  0.701290  0.194530  1.0  -0.0147
  C  C177  1  0.933660  0.663390  0.094430  1.0  -0.0925
  C  C178  1  0.896260  0.650490  0.998330  1.0  0.1484
  C  C179  1  0.961040  0.640150  0.089130  1.0  0.2788
  C  C180  1  0.937880  0.590570  0.057230  1.0  -0.0657
  C  C181  1  0.894780  0.560340  0.114130  1.0  -0.1168
  C  C182  1  0.877470  0.514290  0.084530  1.0  -0.1745
  C  C183  1  0.903550  0.500520  0.999930  1.0  0.1235
  C  C184  1  0.961750  0.573760  0.973930  1.0  0.1469
  C  C185  1  0.553690  0.042120  0.427470  1.0  0.1319
  C  C186  1  0.590480  0.056900  0.528970  1.0  -0.1498
  C  C187  1  0.614920  0.034630  0.527870  1.0  -0.0147
  C  C188  1  0.600320  0.996730  0.427770  1.0  -0.0927
  C  C189  1  0.562920  0.983830  0.331670  1.0  0.1484
  C  C190  1  0.627700  0.973490  0.422470  1.0  0.2788
  C  C191  1  0.604540  0.923910  0.390570  1.0  -0.0659
  C  C192  1  0.561440  0.893680  0.447470  1.0  -0.1169
  C  C193  1  0.544130  0.847630  0.417870  1.0  -0.1745
  C  C194  1  0.570210  0.833860  0.333270  1.0  0.1235
  C  C195  1  0.628410  0.907100  0.307270  1.0  0.1469
  C  C196  1  0.624550  0.844910  0.760800  1.0  0.1296
  C  C197  1  0.609770  0.866920  0.862300  1.0  -0.1517
  C  C198  1  0.632040  0.913630  0.861200  1.0  -0.0125
  C  C199  1  0.669940  0.936930  0.761100  1.0  -0.0918
  C  C200  1  0.682840  0.912430  0.665000  1.0  0.1474
  C  C201  1  0.693180  0.987550  0.755800  1.0  0.2781
  C  C202  1  0.742760  0.013970  0.723900  1.0  -0.0658
  C  C203  1  0.772990  0.001100  0.780800  1.0  -0.1185
  C  C204  1  0.819040  0.029840  0.751200  1.0  -0.1674
  C  C205  1  0.832810  0.069690  0.666667  1.0  0.1209
  C  C206  1  0.759570  0.054650  0.640600  1.0  0.1457
  C  C207  1  0.291220  0.178240  0.094130  1.0  0.1295
  C  C208  1  0.276440  0.200250  0.195630  1.0  -0.1517
  C  C209  1  0.298710  0.246960  0.194530  1.0  -0.0125
  C  C210  1  0.336610  0.270260  0.094430  1.0  -0.0918
  C  C211  1  0.349510  0.245760  0.998330  1.0  0.1474
  C  C212  1  0.359850  0.320880  0.089130  1.0  0.2781
  C  C213  1  0.409430  0.347300  0.057230  1.0  -0.0656
  C  C214  1  0.439660  0.334430  0.114130  1.0  -0.1195
  C  C215  1  0.485710  0.363170  0.084530  1.0  -0.1732
  C  C216  1  0.499480  0.403020  0.999930  1.0  0.1211
  C  C217  1  0.426240  0.387980  0.973930  1.0  0.1455
  C  C218  1  0.957880  0.511580  0.427470  1.0  0.1296
  C  C219  1  0.943100  0.533590  0.528970  1.0  -0.1517
  C  C220  1  0.965370  0.580300  0.527870  1.0  -0.0125
  C  C221  1  0.003270  0.603600  0.427770  1.0  -0.0919
  C  C222  1  0.016170  0.579100  0.331670  1.0  0.1474
  C  C223  1  0.026510  0.654220  0.422470  1.0  0.2781
  C  C224  1  0.076090  0.680640  0.390570  1.0  -0.0654
  C  C225  1  0.106320  0.667770  0.447470  1.0  -0.1185
  C  C226  1  0.152370  0.696510  0.417870  1.0  -0.1732
  C  C227  1  0.166140  0.736360  0.333270  1.0  0.1212
  C  C228  1  0.092900  0.721320  0.307270  1.0  0.1456
  C  C229  1  0.155090  0.779640  0.760800  1.0  0.1344
  C  C230  1  0.133080  0.742850  0.862300  1.0  -0.1511
  C  C231  1  0.086370  0.718410  0.861200  1.0  -0.0136
  C  C232  1  0.063070  0.733010  0.761100  1.0  -0.0925
  C  C233  1  0.087570  0.770410  0.665000  1.0  0.1457
  C  C234  1  0.012450  0.705630  0.755800  1.0  0.2819
  C  C235  1  0.986030  0.728790  0.723900  1.0  -0.0657
  C  C236  1  0.998900  0.771890  0.780800  1.0  -0.1212
  C  C237  1  0.970160  0.789200  0.751200  1.0  -0.1655
  C  C238  1  0.930310  0.763120  0.666667  1.0  0.1235
  C  C239  1  0.945350  0.704920  0.640600  1.0  0.1478
  C  C240  1  0.821760  0.112970  0.094130  1.0  0.1343
  C  C241  1  0.799750  0.076180  0.195630  1.0  -0.1511
  C  C242  1  0.753040  0.051740  0.194530  1.0  -0.0136
  C  C243  1  0.729740  0.066340  0.094430  1.0  -0.0925
  C  C244  1  0.754240  0.103740  0.998330  1.0  0.1457
  C  C245  1  0.679120  0.038960  0.089130  1.0  0.2819
  C  C246  1  0.652700  0.062120  0.057230  1.0  -0.0652
  C  C247  1  0.665570  0.105220  0.114130  1.0  -0.1211
  C  C248  1  0.636830  0.122530  0.084530  1.0  -0.1708
  C  C249  1  0.596980  0.096450  0.999930  1.0  0.1236
  C  C250  1  0.612020  0.038250  0.973930  1.0  0.1478
  C  C251  1  0.488420  0.446310  0.427470  1.0  0.1344
  C  C252  1  0.466410  0.409520  0.528970  1.0  -0.1511
  C  C253  1  0.419700  0.385080  0.527870  1.0  -0.0136
  C  C254  1  0.396400  0.399680  0.427770  1.0  -0.0927
  C  C255  1  0.420900  0.437080  0.331670  1.0  0.1457
  C  C256  1  0.345780  0.372300  0.422470  1.0  0.2819
  C  C257  1  0.319360  0.395460  0.390570  1.0  -0.0653
  C  C258  1  0.332230  0.438560  0.447470  1.0  -0.1212
  C  C259  1  0.303490  0.455870  0.417870  1.0  -0.1708
  C  C260  1  0.263640  0.429790  0.333270  1.0  0.1236
  C  C261  1  0.278680  0.371590  0.307270  1.0  0.1478
  C  C262  1  0.779640  0.624550  0.239200  1.0  0.1323
  C  C263  1  0.742850  0.609770  0.137700  1.0  -0.1517
  C  C264  1  0.718410  0.632040  0.138800  1.0  -0.0123
  C  C265  1  0.733010  0.669940  0.238900  1.0  -0.0924
  C  C266  1  0.770410  0.682840  0.335000  1.0  0.1471
  C  C267  1  0.705630  0.693180  0.244200  1.0  0.2783
  C  C268  1  0.728790  0.742760  0.276100  1.0  -0.0654
  C  C269  1  0.771890  0.772990  0.219200  1.0  -0.1164
  C  C270  1  0.789200  0.819040  0.248800  1.0  -0.1695
  C  C271  1  0.763120  0.832810  0.333400  1.0  0.1259
  C  C272  1  0.704920  0.759570  0.359400  1.0  0.1469
  C  C273  1  0.446310  0.957880  0.572530  1.0  0.1323
  C  C274  1  0.409520  0.943100  0.471030  1.0  -0.1517
  C  C275  1  0.385080  0.965370  0.472130  1.0  -0.0123
  C  C276  1  0.399680  0.003270  0.572230  1.0  -0.0925
  C  C277  1  0.437080  0.016170  0.668330  1.0  0.1471
  C  C278  1  0.372300  0.026510  0.577530  1.0  0.2783
  C  C279  1  0.395460  0.076090  0.609430  1.0  -0.0659
  C  C280  1  0.438560  0.106320  0.552530  1.0  -0.1164
  C  C281  1  0.455870  0.152370  0.582130  1.0  -0.164
  C  C282  1  0.429790  0.166140  0.666667  1.0  0.1258
  C  C283  1  0.371590  0.092900  0.692730  1.0  0.1469
  C  C284  1  0.112970  0.291220  0.905870  1.0  0.1324
  C  C285  1  0.076180  0.276440  0.804370  1.0  -0.1517
  C  C286  1  0.051740  0.298710  0.805470  1.0  -0.0123
  C  C287  1  0.066340  0.336610  0.905570  1.0  -0.0924
  C  C288  1  0.103740  0.349510  0.001670  1.0  0.1471
  C  C289  1  0.038960  0.359850  0.910870  1.0  0.2783
  C  C290  1  0.062120  0.409430  0.942770  1.0  -0.0653
  C  C291  1  0.105220  0.439660  0.885870  1.0  -0.1163
  C  C292  1  0.122530  0.485710  0.915470  1.0  -0.1695
  C  C293  1  0.096450  0.499480  0.000070  1.0  0.1259
  C  C294  1  0.038250  0.426240  0.026070  1.0  0.1469
  C  C295  1  0.375450  0.155090  0.239200  1.0  0.1318
  C  C296  1  0.390230  0.133080  0.137700  1.0  -0.1514
  C  C297  1  0.367960  0.086370  0.138800  1.0  -0.013
  C  C298  1  0.330060  0.063070  0.238900  1.0  -0.0922
  C  C299  1  0.317160  0.087570  0.335000  1.0  0.1484
  C  C300  1  0.306820  0.012450  0.244200  1.0  0.2793
  C  C301  1  0.257240  0.986030  0.276100  1.0  -0.0656
  C  C302  1  0.227010  0.998900  0.219200  1.0  -0.1205
  C  C303  1  0.180960  0.970160  0.248800  1.0  -0.1735
  C  C304  1  0.167190  0.930310  0.333400  1.0  0.1231
  C  C305  1  0.240430  0.945350  0.359400  1.0  0.147
  C  C306  1  0.042120  0.488420  0.572530  1.0  0.1319
  C  C307  1  0.056900  0.466410  0.471030  1.0  -0.1514
  C  C308  1  0.034630  0.419700  0.472130  1.0  -0.013
  C  C309  1  0.996730  0.396400  0.572230  1.0  -0.0922
  C  C310  1  0.983830  0.420900  0.668330  1.0  0.1484
  C  C311  1  0.973490  0.345780  0.577530  1.0  0.2793
  C  C312  1  0.923910  0.319360  0.609430  1.0  -0.0661
  C  C313  1  0.893680  0.332230  0.552530  1.0  -0.1205
  C  C314  1  0.847630  0.303490  0.582130  1.0  -0.168
  C  C315  1  0.833860  0.263640  0.666667  1.0  0.123
  C  C316  1  0.907100  0.278680  0.692730  1.0  0.147
  C  C317  1  0.708780  0.821760  0.905870  1.0  0.1319
  C  C318  1  0.723560  0.799750  0.804370  1.0  -0.1514
  C  C319  1  0.701290  0.753040  0.805470  1.0  -0.013
  C  C320  1  0.663390  0.729740  0.905570  1.0  -0.0922
  C  C321  1  0.650490  0.754240  0.001670  1.0  0.1484
  C  C322  1  0.640150  0.679120  0.910870  1.0  0.2793
  C  C323  1  0.590570  0.652700  0.942770  1.0  -0.0658
  C  C324  1  0.560340  0.665570  0.885870  1.0  -0.1213
  C  C325  1  0.514290  0.636830  0.915470  1.0  -0.1735
  C  C326  1  0.500520  0.596980  0.000070  1.0  0.123
  C  C327  1  0.573760  0.612020  0.026070  1.0  0.1469
  C  C328  1  0.844910  0.220360  0.239200  1.0  0.1353
  C  C329  1  0.866920  0.257150  0.137700  1.0  -0.1539
  C  C330  1  0.913630  0.281590  0.138800  1.0  -0.0129
  C  C331  1  0.936930  0.266990  0.238900  1.0  -0.0935
  C  C332  1  0.912430  0.229590  0.335000  1.0  0.146
  C  C333  1  0.987550  0.294370  0.244200  1.0  0.282
  C  C334  1  0.013970  0.271210  0.276100  1.0  -0.0657
  C  C335  1  0.001100  0.228110  0.219200  1.0  -0.1213
  C  C336  1  0.029840  0.210800  0.248800  1.0  -0.1701
  C  C337  1  0.069690  0.236880  0.333400  1.0  0.1229
  C  C338  1  0.054650  0.295080  0.359400  1.0  0.1468
  C  C339  1  0.511580  0.553690  0.572530  1.0  0.1354
  C  C340  1  0.533590  0.590480  0.471030  1.0  -0.1539
  C  C341  1  0.580300  0.614920  0.472130  1.0  -0.0129
  C  C342  1  0.603600  0.600320  0.572230  1.0  -0.0937
  C  C343  1  0.579100  0.562920  0.668330  1.0  0.146
  C  C344  1  0.654220  0.627700  0.577530  1.0  0.282
  C  C345  1  0.680640  0.604540  0.609430  1.0  -0.0663
  C  C346  1  0.667770  0.561440  0.552530  1.0  -0.1213
  C  C347  1  0.696510  0.544130  0.582130  1.0  -0.1645
  C  C348  1  0.736360  0.570210  0.666667  1.0  0.1226
  C  C349  1  0.721320  0.628410  0.692730  1.0  0.1468
  C  C350  1  0.178240  0.887030  0.905870  1.0  0.1354
  C  C351  1  0.200250  0.923820  0.804370  1.0  -0.1539
  C  C352  1  0.246960  0.948260  0.805470  1.0  -0.0129
  C  C353  1  0.270260  0.933660  0.905570  1.0  -0.0935
  C  C354  1  0.245760  0.896260  0.001670  1.0  0.146
  C  C355  1  0.320880  0.961040  0.910870  1.0  0.282
  C  C356  1  0.347300  0.937880  0.942770  1.0  -0.0656
  C  C357  1  0.334430  0.894780  0.885870  1.0  -0.1212
  C  C358  1  0.363170  0.877470  0.915470  1.0  -0.1701
  C  C359  1  0.403020  0.903550  0.000070  1.0  0.1229
  C  C360  1  0.387980  0.961750  0.026070  1.0  0.1468
  N  N361  1  0.206600  0.339970  0.661600  1.0  -0.3356
  N  N362  1  0.278240  0.196390  0.611300  1.0  -0.3039
  N  N363  1  0.873270  0.673300  0.994930  1.0  -0.3356
  N  N364  1  0.944910  0.529720  0.944630  1.0  -0.3039
  N  N365  1  0.539930  0.006640  0.328270  1.0  -0.3356
  N  N366  1  0.611570  0.863060  0.277970  1.0  -0.304
  N  N367  1  0.660030  0.866630  0.661600  1.0  -0.3342
  N  N368  1  0.803610  0.081850  0.611300  1.0  -0.2954
  N  N369  1  0.326700  0.199960  0.994930  1.0  -0.3343
  N  N370  1  0.470280  0.415180  0.944630  1.0  -0.2955
  N  N371  1  0.993360  0.533300  0.328270  1.0  -0.334
  N  N372  1  0.136940  0.748520  0.277970  1.0  -0.2954
  N  N373  1  0.133370  0.793400  0.661600  1.0  -0.3349
  N  N374  1  0.918150  0.721760  0.611300  1.0  -0.2997
  N  N375  1  0.800040  0.126730  0.994930  1.0  -0.3349
  N  N376  1  0.584820  0.055090  0.944630  1.0  -0.2996
  N  N377  1  0.466700  0.460070  0.328270  1.0  -0.335
  N  N378  1  0.251480  0.388430  0.277970  1.0  -0.2997
  N  N379  1  0.793400  0.660030  0.338400  1.0  -0.3342
  N  N380  1  0.721760  0.803610  0.388700  1.0  -0.2994
  N  N381  1  0.460070  0.993360  0.671730  1.0  -0.3342
  N  N382  1  0.388430  0.136940  0.722030  1.0  -0.2994
  N  N383  1  0.126730  0.326700  0.005070  1.0  -0.3342
  N  N384  1  0.055090  0.470280  0.055370  1.0  -0.2994
  N  N385  1  0.339970  0.133370  0.338400  1.0  -0.3333
  N  N386  1  0.196390  0.918150  0.388700  1.0  -0.2949
  N  N387  1  0.006640  0.466700  0.671730  1.0  -0.3333
  N  N388  1  0.863060  0.251480  0.722030  1.0  -0.2949
  N  N389  1  0.673300  0.800040  0.005070  1.0  -0.3333
  N  N390  1  0.529720  0.584820  0.055370  1.0  -0.295
  N  N391  1  0.866630  0.206600  0.338400  1.0  -0.3358
  N  N392  1  0.081850  0.278240  0.388700  1.0  -0.2994
  N  N393  1  0.533300  0.539930  0.671730  1.0  -0.3358
  N  N394  1  0.748520  0.611570  0.722030  1.0  -0.2994
  N  N395  1  0.199960  0.873270  0.005070  1.0  -0.3359
  N  N396  1  0.415180  0.944910  0.055370  1.0  -0.2993
  O  O397  1  0.335010  0.327890  0.779600  1.0  -0.4755
  O  O398  1  0.001680  0.661220  0.112930  1.0  -0.4755
  O  O399  1  0.668340  0.994560  0.446270  1.0  -0.4755
  O  O400  1  0.672110  0.007120  0.779600  1.0  -0.4741
  O  O401  1  0.338780  0.340450  0.112930  1.0  -0.4741
  O  O402  1  0.005440  0.673790  0.446270  1.0  -0.4741
  O  O403  1  0.992880  0.664990  0.779600  1.0  -0.474
  O  O404  1  0.659550  0.998320  0.112930  1.0  -0.474
  O  O405  1  0.326210  0.331660  0.446270  1.0  -0.474
  O  O406  1  0.664990  0.672110  0.220400  1.0  -0.474
  O  O407  1  0.331660  0.005440  0.553730  1.0  -0.474
  O  O408  1  0.998320  0.338780  0.887070  1.0  -0.474
  O  O409  1  0.327890  0.992880  0.220400  1.0  -0.4746
  O  O410  1  0.994560  0.326210  0.553730  1.0  -0.4746
  O  O411  1  0.661220  0.659550  0.887070  1.0  -0.4746
  O  O412  1  0.007120  0.335010  0.220400  1.0  -0.4749
  O  O413  1  0.673790  0.668340  0.553730  1.0  -0.4749
  O  O414  1  0.340450  0.001680  0.887070  1.0  -0.4749
