# generated using pymatgen
data_AgH8C11N2O
_symmetry_space_group_name_H-M   'P 1'
_cell_length_a   34.14470000
_cell_length_b   34.14470000
_cell_length_c   8.35940000
_cell_angle_alpha   90.00000000
_cell_angle_beta   90.00000000
_cell_angle_gamma   120.00000000
_symmetry_Int_Tables_number   1
_chemical_formula_structural   AgH8C11N2O
_chemical_formula_sum   'Ag18 H144 C198 N36 O18'
_cell_volume   8440.19229071
_cell_formula_units_Z   18
loop_
 _symmetry_equiv_pos_site_id
 _symmetry_equiv_pos_as_xyz
  1  'x, y, z'
loop_
 _atom_site_type_symbol
 _atom_site_label
 _atom_site_symmetry_multiplicity
 _atom_site_fract_x
 _atom_site_fract_y
 _atom_site_fract_z
 _atom_site_occupancy
 _atom_site_charge
  Ag  Ag1  1  0.147110  0.320140  0.507110  1.0  0.1711
  Ag  Ag2  1  0.813780  0.653470  0.840440  1.0  0.1709
  Ag  Ag3  1  0.480450  0.986800  0.173780  1.0  0.1711
  Ag  Ag4  1  0.679860  0.826980  0.507110  1.0  0.1708
  Ag  Ag5  1  0.346530  0.160310  0.840440  1.0  0.1708
  Ag  Ag6  1  0.013200  0.493640  0.173780  1.0  0.1716
  Ag  Ag7  1  0.173020  0.852890  0.507110  1.0  0.1721
  Ag  Ag8  1  0.839690  0.186220  0.840440  1.0  0.1721
  Ag  Ag9  1  0.506360  0.519550  0.173780  1.0  0.1721
  Ag  Ag10  1  0.852890  0.679860  0.492890  1.0  0.1708
  Ag  Ag11  1  0.519550  0.013200  0.826220  1.0  0.1708
  Ag  Ag12  1  0.186220  0.346530  0.159560  1.0  0.1706
  Ag  Ag13  1  0.320140  0.173020  0.492890  1.0  0.1706
  Ag  Ag14  1  0.986800  0.506360  0.826220  1.0  0.1708
  Ag  Ag15  1  0.653470  0.839690  0.159560  1.0  0.1706
  Ag  Ag16  1  0.826980  0.147110  0.492890  1.0  0.17
  Ag  Ag17  1  0.493640  0.480450  0.826220  1.0  0.17
  Ag  Ag18  1  0.160310  0.813780  0.159560  1.0  0.17
  H  H19  1  0.203100  0.391000  0.760600  1.0  0.0709
  H  H20  1  0.265800  0.415700  0.927500  1.0  0.099
  H  H21  1  0.306900  0.377500  0.925200  1.0  0.1035
  H  H22  1  0.219700  0.291800  0.595400  1.0  0.0861
  H  H23  1  0.211400  0.237900  0.840200  1.0  0.1074
  H  H24  1  0.182000  0.159800  0.793500  1.0  0.1055
  H  H25  1  0.224000  0.136300  0.647700  1.0  0.0724
  H  H26  1  0.323700  0.261400  0.600100  1.0  0.0795
  H  H27  1  0.869770  0.724330  0.093930  1.0  0.0709
  H  H28  1  0.932470  0.749030  0.260830  1.0  0.099
  H  H29  1  0.973570  0.710830  0.258530  1.0  0.1035
  H  H30  1  0.886370  0.625130  0.928730  1.0  0.0861
  H  H31  1  0.878070  0.571230  0.173530  1.0  0.1074
  H  H32  1  0.848670  0.493130  0.126830  1.0  0.1055
  H  H33  1  0.890670  0.469630  0.981030  1.0  0.0724
  H  H34  1  0.990370  0.594730  0.933430  1.0  0.0795
  H  H35  1  0.536430  0.057670  0.427270  1.0  0.0709
  H  H36  1  0.599130  0.082370  0.594170  1.0  0.099
  H  H37  1  0.640230  0.044170  0.591870  1.0  0.1035
  H  H38  1  0.553030  0.958470  0.262070  1.0  0.0861
  H  H39  1  0.544730  0.904570  0.506870  1.0  0.1074
  H  H40  1  0.515330  0.826470  0.460170  1.0  0.1055
  H  H41  1  0.557330  0.802970  0.314370  1.0  0.0724
  H  H42  1  0.657030  0.928070  0.266770  1.0  0.0795
  H  H43  1  0.609000  0.812100  0.760600  1.0  0.0699
  H  H44  1  0.584300  0.850100  0.927500  1.0  0.0983
  H  H45  1  0.622500  0.929400  0.925200  1.0  0.1039
  H  H46  1  0.708200  0.927900  0.595400  1.0  0.0861
  H  H47  1  0.762100  0.973500  0.840200  1.0  0.1065
  H  H48  1  0.840200  0.022200  0.793500  1.0  0.1059
  H  H49  1  0.863700  0.087700  0.647700  1.0  0.0728
  H  H50  1  0.738600  0.062300  0.600100  1.0  0.0793
  H  H51  1  0.275670  0.145430  0.093930  1.0  0.0699
  H  H52  1  0.250970  0.183430  0.260830  1.0  0.0983
  H  H53  1  0.289170  0.262730  0.258530  1.0  0.1039
  H  H54  1  0.374870  0.261230  0.928730  1.0  0.0861
  H  H55  1  0.428770  0.306830  0.173530  1.0  0.1065
  H  H56  1  0.506870  0.355530  0.126830  1.0  0.1043
  H  H57  1  0.530370  0.421030  0.981030  1.0  0.0728
  H  H58  1  0.405270  0.395630  0.933430  1.0  0.0794
  H  H59  1  0.942330  0.478770  0.427270  1.0  0.07
  H  H60  1  0.917630  0.516770  0.594170  1.0  0.0984
  H  H61  1  0.955830  0.596070  0.591870  1.0  0.1039
  H  H62  1  0.041530  0.594570  0.262070  1.0  0.0861
  H  H63  1  0.095430  0.640170  0.506870  1.0  0.1065
  H  H64  1  0.173530  0.688870  0.460170  1.0  0.1043
  H  H65  1  0.197030  0.754370  0.314370  1.0  0.0728
  H  H66  1  0.071930  0.728970  0.266770  1.0  0.0793
  H  H67  1  0.187900  0.796900  0.760600  1.0  0.0714
  H  H68  1  0.149900  0.734200  0.927500  1.0  0.0979
  H  H69  1  0.070600  0.693100  0.925200  1.0  0.1031
  H  H70  1  0.072100  0.780300  0.595400  1.0  0.0855
  H  H71  1  0.026500  0.788600  0.840200  1.0  0.108
  H  H72  1  0.977800  0.818000  0.793500  1.0  0.1074
  H  H73  1  0.912300  0.776000  0.647700  1.0  0.0716
  H  H74  1  0.937700  0.676300  0.600100  1.0  0.0788
  H  H75  1  0.854570  0.130230  0.093930  1.0  0.0714
  H  H76  1  0.816570  0.067530  0.260830  1.0  0.0979
  H  H77  1  0.737270  0.026430  0.258530  1.0  0.1031
  H  H78  1  0.738770  0.113630  0.928730  1.0  0.0855
  H  H79  1  0.693170  0.121930  0.173530  1.0  0.108
  H  H80  1  0.644470  0.151330  0.126830  1.0  0.1067
  H  H81  1  0.578970  0.109330  0.981030  1.0  0.0717
  H  H82  1  0.604370  0.009630  0.933430  1.0  0.0788
  H  H83  1  0.521230  0.463570  0.427270  1.0  0.0714
  H  H84  1  0.483230  0.400870  0.594170  1.0  0.0979
  H  H85  1  0.403930  0.359770  0.591870  1.0  0.103
  H  H86  1  0.405430  0.446970  0.262070  1.0  0.0856
  H  H87  1  0.359830  0.455270  0.506870  1.0  0.108
  H  H88  1  0.311130  0.484670  0.460170  1.0  0.1067
  H  H89  1  0.245630  0.442670  0.314370  1.0  0.0716
  H  H90  1  0.271030  0.342970  0.266770  1.0  0.0788
  H  H91  1  0.796900  0.609000  0.239400  1.0  0.0704
  H  H92  1  0.734200  0.584300  0.072500  1.0  0.0985
  H  H93  1  0.693100  0.622500  0.074800  1.0  0.1031
  H  H94  1  0.780300  0.708200  0.404600  1.0  0.0861
  H  H95  1  0.788600  0.762100  0.159800  1.0  0.1068
  H  H96  1  0.818000  0.840200  0.206500  1.0  0.1054
  H  H97  1  0.776000  0.863700  0.352300  1.0  0.0711
  H  H98  1  0.676300  0.738600  0.399900  1.0  0.0797
  H  H99  1  0.463570  0.942330  0.572730  1.0  0.0704
  H  H100  1  0.400870  0.917630  0.405830  1.0  0.0985
  H  H101  1  0.359770  0.955830  0.408130  1.0  0.1031
  H  H102  1  0.446970  0.041530  0.737930  1.0  0.0861
  H  H103  1  0.455270  0.095430  0.493130  1.0  0.1068
  H  H104  1  0.484670  0.173530  0.539830  1.0  0.1054
  H  H105  1  0.442670  0.197030  0.685630  1.0  0.0711
  H  H106  1  0.342970  0.071930  0.733230  1.0  0.0797
  H  H107  1  0.130230  0.275670  0.906070  1.0  0.0704
  H  H108  1  0.067530  0.250970  0.739170  1.0  0.0985
  H  H109  1  0.026430  0.289170  0.741470  1.0  0.1031
  H  H110  1  0.113630  0.374870  0.071270  1.0  0.0861
  H  H111  1  0.121930  0.428770  0.826470  1.0  0.1068
  H  H112  1  0.151330  0.506870  0.873170  1.0  0.1054
  H  H113  1  0.109330  0.530370  0.018970  1.0  0.0712
  H  H114  1  0.009630  0.405270  0.066570  1.0  0.0797
  H  H115  1  0.391000  0.187900  0.239400  1.0  0.0695
  H  H116  1  0.415700  0.149900  0.072500  1.0  0.0989
  H  H117  1  0.377500  0.070600  0.074800  1.0  0.1044
  H  H118  1  0.291800  0.072100  0.404600  1.0  0.0863
  H  H119  1  0.237900  0.026500  0.159800  1.0  0.1071
  H  H120  1  0.159800  0.977800  0.206500  1.0  0.1052
  H  H121  1  0.136300  0.912300  0.352300  1.0  0.0777
  H  H122  1  0.261400  0.937700  0.399900  1.0  0.0787
  H  H123  1  0.057670  0.521230  0.572730  1.0  0.0696
  H  H124  1  0.082370  0.483230  0.405830  1.0  0.0989
  H  H125  1  0.044170  0.403930  0.408130  1.0  0.1044
  H  H126  1  0.958470  0.405430  0.737930  1.0  0.0863
  H  H127  1  0.904570  0.359830  0.493130  1.0  0.1071
  H  H128  1  0.826470  0.311130  0.539830  1.0  0.104
  H  H129  1  0.802970  0.245630  0.685630  1.0  0.0777
  H  H130  1  0.928070  0.271030  0.733230  1.0  0.0787
  H  H131  1  0.724330  0.854570  0.906070  1.0  0.0695
  H  H132  1  0.749030  0.816570  0.739170  1.0  0.0989
  H  H133  1  0.710830  0.737270  0.741470  1.0  0.1044
  H  H134  1  0.625130  0.738770  0.071270  1.0  0.0863
  H  H135  1  0.571230  0.693170  0.826470  1.0  0.1071
  H  H136  1  0.493130  0.644470  0.873170  1.0  0.104
  H  H137  1  0.469630  0.578970  0.018970  1.0  0.0776
  H  H138  1  0.594730  0.604370  0.066570  1.0  0.0788
  H  H139  1  0.812100  0.203100  0.239400  1.0  0.0717
  H  H140  1  0.850100  0.265800  0.072500  1.0  0.0983
  H  H141  1  0.929400  0.306900  0.074800  1.0  0.1035
  H  H142  1  0.927900  0.219700  0.404600  1.0  0.086
  H  H143  1  0.973500  0.211400  0.159800  1.0  0.1076
  H  H144  1  0.022200  0.182000  0.206500  1.0  0.1067
  H  H145  1  0.087700  0.224000  0.352300  1.0  0.0724
  H  H146  1  0.062300  0.323700  0.399900  1.0  0.0792
  H  H147  1  0.478770  0.536430  0.572730  1.0  0.0718
  H  H148  1  0.516770  0.599130  0.405830  1.0  0.0983
  H  H149  1  0.596070  0.640230  0.408130  1.0  0.1035
  H  H150  1  0.594570  0.553030  0.737930  1.0  0.086
  H  H151  1  0.640170  0.544730  0.493130  1.0  0.1076
  H  H152  1  0.688870  0.515330  0.539830  1.0  0.1057
  H  H153  1  0.754370  0.557330  0.685630  1.0  0.0724
  H  H154  1  0.728970  0.657030  0.733230  1.0  0.0791
  H  H155  1  0.145430  0.869770  0.906070  1.0  0.0717
  H  H156  1  0.183430  0.932470  0.739170  1.0  0.0983
  H  H157  1  0.262730  0.973570  0.741470  1.0  0.1035
  H  H158  1  0.261230  0.886370  0.071270  1.0  0.086
  H  H159  1  0.306830  0.878070  0.826470  1.0  0.1076
  H  H160  1  0.355530  0.848670  0.873170  1.0  0.1058
  H  H161  1  0.421030  0.890670  0.018970  1.0  0.0725
  H  H162  1  0.395630  0.990370  0.066570  1.0  0.0791
  C  C163  1  0.219660  0.375350  0.759600  1.0  0.1326
  C  C164  1  0.256980  0.390280  0.859600  1.0  -0.1259
  C  C165  1  0.281090  0.367680  0.858900  1.0  -0.016
  C  C166  1  0.266960  0.330310  0.759800  1.0  -0.0998
  C  C167  1  0.229330  0.317400  0.663000  1.0  0.1456
  C  C168  1  0.293920  0.306930  0.753100  1.0  0.2702
  C  C169  1  0.270790  0.257350  0.721200  1.0  -0.0663
  C  C170  1  0.228200  0.227370  0.781700  1.0  -0.1166
  C  C171  1  0.210960  0.181410  0.753600  1.0  -0.1807
  C  C172  1  0.236310  0.167720  0.667300  1.0  0.1253
  C  C173  1  0.294270  0.240570  0.638400  1.0  0.149
  C  C174  1  0.886330  0.708680  0.092930  1.0  0.1326
  C  C175  1  0.923650  0.723610  0.192930  1.0  -0.1259
  C  C176  1  0.947760  0.701010  0.192230  1.0  -0.016
  C  C177  1  0.933630  0.663640  0.093130  1.0  -0.0998
  C  C178  1  0.896000  0.650730  0.996330  1.0  0.1457
  C  C179  1  0.960590  0.640260  0.086430  1.0  0.2703
  C  C180  1  0.937460  0.590680  0.054530  1.0  -0.0663
  C  C181  1  0.894870  0.560700  0.115030  1.0  -0.1165
  C  C182  1  0.877630  0.514740  0.086930  1.0  -0.1807
  C  C183  1  0.902980  0.501050  0.000630  1.0  0.1252
  C  C184  1  0.960940  0.573900  0.971730  1.0  0.149
  C  C185  1  0.552990  0.042020  0.426270  1.0  0.1326
  C  C186  1  0.590310  0.056950  0.526270  1.0  -0.126
  C  C187  1  0.614420  0.034350  0.525570  1.0  -0.016
  C  C188  1  0.600290  0.996980  0.426470  1.0  -0.0998
  C  C189  1  0.562660  0.984070  0.329670  1.0  0.1455
  C  C190  1  0.627250  0.973600  0.419770  1.0  0.2708
  C  C191  1  0.604120  0.924020  0.387870  1.0  -0.0663
  C  C192  1  0.561530  0.894040  0.448370  1.0  -0.1166
  C  C193  1  0.544290  0.848080  0.420270  1.0  -0.1807
  C  C194  1  0.569640  0.834390  0.333970  1.0  0.1253
  C  C195  1  0.627600  0.907240  0.305070  1.0  0.149
  C  C196  1  0.624650  0.844310  0.759600  1.0  0.1297
  C  C197  1  0.609720  0.866700  0.859600  1.0  -0.1277
  C  C198  1  0.632320  0.913410  0.858900  1.0  -0.0159
  C  C199  1  0.669690  0.936650  0.759800  1.0  -0.0986
  C  C200  1  0.682600  0.911930  0.663000  1.0  0.1442
  C  C201  1  0.693070  0.986990  0.753100  1.0  0.2697
  C  C202  1  0.742650  0.013440  0.721200  1.0  -0.0648
  C  C203  1  0.772630  0.000830  0.781700  1.0  -0.119
  C  C204  1  0.818590  0.029550  0.753600  1.0  -0.1813
  C  C205  1  0.832280  0.068590  0.667300  1.0  0.1229
  C  C206  1  0.759430  0.053700  0.638400  1.0  0.148
  C  C207  1  0.291320  0.177640  0.092930  1.0  0.1297
  C  C208  1  0.276390  0.200030  0.192930  1.0  -0.1277
  C  C209  1  0.298990  0.246740  0.192230  1.0  -0.0159
  C  C210  1  0.336360  0.269980  0.093130  1.0  -0.0986
  C  C211  1  0.349270  0.245260  0.996330  1.0  0.1442
  C  C212  1  0.359740  0.320320  0.086430  1.0  0.2706
  C  C213  1  0.409320  0.346770  0.054530  1.0  -0.0649
  C  C214  1  0.439300  0.334160  0.115030  1.0  -0.119
  C  C215  1  0.485260  0.362880  0.086930  1.0  -0.1813
  C  C216  1  0.498950  0.401920  0.000630  1.0  0.1229
  C  C217  1  0.426100  0.387030  0.971730  1.0  0.1481
  C  C218  1  0.957980  0.510980  0.426270  1.0  0.1298
  C  C219  1  0.943050  0.533370  0.526270  1.0  -0.1276
  C  C220  1  0.965650  0.580080  0.525570  1.0  -0.0159
  C  C221  1  0.003020  0.603320  0.426470  1.0  -0.0986
  C  C222  1  0.015930  0.578600  0.329670  1.0  0.1441
  C  C223  1  0.026400  0.653660  0.419770  1.0  0.2698
  C  C224  1  0.075980  0.680110  0.387870  1.0  -0.0648
  C  C225  1  0.105960  0.667500  0.448370  1.0  -0.119
  C  C226  1  0.151920  0.696220  0.420270  1.0  -0.1813
  C  C227  1  0.165610  0.735260  0.333970  1.0  0.1229
  C  C228  1  0.092760  0.720370  0.305070  1.0  0.148
  C  C229  1  0.155690  0.780340  0.759600  1.0  0.1348
  C  C230  1  0.133300  0.743020  0.859600  1.0  -0.128
  C  C231  1  0.086590  0.718910  0.858900  1.0  -0.0157
  C  C232  1  0.063350  0.733040  0.759800  1.0  -0.0985
  C  C233  1  0.088070  0.770670  0.663000  1.0  0.1419
  C  C234  1  0.013010  0.706080  0.753100  1.0  0.2743
  C  C235  1  0.986560  0.729210  0.721200  1.0  -0.0652
  C  C236  1  0.999170  0.771800  0.781700  1.0  -0.1207
  C  C237  1  0.970450  0.789040  0.753600  1.0  -0.1798
  C  C238  1  0.931410  0.763690  0.667300  1.0  0.1239
  C  C239  1  0.946300  0.705730  0.638400  1.0  0.149
  C  C240  1  0.822360  0.113670  0.092930  1.0  0.1348
  C  C241  1  0.799970  0.076350  0.192930  1.0  -0.128
  C  C242  1  0.753260  0.052240  0.192230  1.0  -0.0157
  C  C243  1  0.730020  0.066370  0.093130  1.0  -0.0985
  C  C244  1  0.754740  0.104000  0.996330  1.0  0.1419
  C  C245  1  0.679680  0.039410  0.086430  1.0  0.2743
  C  C246  1  0.653230  0.062540  0.054530  1.0  -0.0652
  C  C247  1  0.665840  0.105130  0.115030  1.0  -0.1207
  C  C248  1  0.637120  0.122370  0.086930  1.0  -0.1798
  C  C249  1  0.598080  0.097020  0.000630  1.0  0.1239
  C  C250  1  0.612970  0.039060  0.971730  1.0  0.149
  C  C251  1  0.489020  0.447010  0.426270  1.0  0.1348
  C  C252  1  0.466630  0.409690  0.526270  1.0  -0.128
  C  C253  1  0.419920  0.385580  0.525570  1.0  -0.0157
  C  C254  1  0.396680  0.399710  0.426470  1.0  -0.0985
  C  C255  1  0.421400  0.437340  0.329670  1.0  0.1422
  C  C256  1  0.346340  0.372750  0.419770  1.0  0.2752
  C  C257  1  0.319890  0.395880  0.387870  1.0  -0.0653
  C  C258  1  0.332500  0.438470  0.448370  1.0  -0.1207
  C  C259  1  0.303780  0.455710  0.420270  1.0  -0.1798
  C  C260  1  0.264740  0.430360  0.333970  1.0  0.1239
  C  C261  1  0.279630  0.372400  0.305070  1.0  0.149
  C  C262  1  0.780340  0.624650  0.240400  1.0  0.133
  C  C263  1  0.743020  0.609720  0.140400  1.0  -0.1273
  C  C264  1  0.718910  0.632320  0.141100  1.0  -0.0145
  C  C265  1  0.733040  0.669690  0.240200  1.0  -0.099
  C  C266  1  0.770670  0.682600  0.337000  1.0  0.1438
  C  C267  1  0.706080  0.693070  0.246900  1.0  0.2696
  C  C268  1  0.729210  0.742650  0.278800  1.0  -0.0645
  C  C269  1  0.771800  0.772630  0.218300  1.0  -0.117
  C  C270  1  0.789040  0.818590  0.246400  1.0  -0.1788
  C  C271  1  0.763690  0.832280  0.332700  1.0  0.1262
  C  C272  1  0.705730  0.759430  0.361600  1.0  0.1481
  C  C273  1  0.447010  0.957980  0.573730  1.0  0.133
  C  C274  1  0.409690  0.943050  0.473730  1.0  -0.1274
  C  C275  1  0.385580  0.965650  0.474430  1.0  -0.0145
  C  C276  1  0.399710  0.003020  0.573530  1.0  -0.099
  C  C277  1  0.437340  0.015930  0.670330  1.0  0.1438
  C  C278  1  0.372750  0.026400  0.580230  1.0  0.2702
  C  C279  1  0.395880  0.075980  0.612130  1.0  -0.0644
  C  C280  1  0.438470  0.105960  0.551630  1.0  -0.117
  C  C281  1  0.455710  0.151920  0.579730  1.0  -0.1788
  C  C282  1  0.430360  0.165610  0.666030  1.0  0.1262
  C  C283  1  0.372400  0.092760  0.694930  1.0  0.1482
  C  C284  1  0.113670  0.291320  0.907070  1.0  0.133
  C  C285  1  0.076350  0.276390  0.807070  1.0  -0.1273
  C  C286  1  0.052240  0.298990  0.807770  1.0  -0.0145
  C  C287  1  0.066370  0.336360  0.906870  1.0  -0.099
  C  C288  1  0.104000  0.349270  0.003670  1.0  0.1438
  C  C289  1  0.039410  0.359740  0.913570  1.0  0.2696
  C  C290  1  0.062540  0.409320  0.945470  1.0  -0.0644
  C  C291  1  0.105130  0.439300  0.884970  1.0  -0.1169
  C  C292  1  0.122370  0.485260  0.913070  1.0  -0.1788
  C  C293  1  0.097020  0.498950  0.999370  1.0  0.1262
  C  C294  1  0.039060  0.426100  0.028270  1.0  0.1482
  C  C295  1  0.375350  0.155690  0.240400  1.0  0.1315
  C  C296  1  0.390280  0.133300  0.140400  1.0  -0.1269
  C  C297  1  0.367680  0.086590  0.141100  1.0  -0.0152
  C  C298  1  0.330310  0.063350  0.240200  1.0  -0.099
  C  C299  1  0.317400  0.088070  0.337000  1.0  0.1459
  C  C300  1  0.306930  0.013010  0.246900  1.0  0.2711
  C  C301  1  0.257350  0.986560  0.278800  1.0  -0.0657
  C  C302  1  0.227370  0.999170  0.218300  1.0  -0.1204
  C  C303  1  0.181410  0.970450  0.246400  1.0  -0.1796
  C  C304  1  0.167720  0.931410  0.332700  1.0  0.1237
  C  C305  1  0.240570  0.946300  0.361600  1.0  0.1494
  C  C306  1  0.042020  0.489020  0.573730  1.0  0.1315
  C  C307  1  0.056950  0.466630  0.473730  1.0  -0.1269
  C  C308  1  0.034350  0.419920  0.474430  1.0  -0.0152
  C  C309  1  0.996980  0.396680  0.573530  1.0  -0.099
  C  C310  1  0.984070  0.421400  0.670330  1.0  0.1458
  C  C311  1  0.973600  0.346340  0.580230  1.0  0.2712
  C  C312  1  0.924020  0.319890  0.612130  1.0  -0.0657
  C  C313  1  0.894040  0.332500  0.551630  1.0  -0.1204
  C  C314  1  0.848080  0.303780  0.579730  1.0  -0.1796
  C  C315  1  0.834390  0.264740  0.666030  1.0  0.1237
  C  C316  1  0.907240  0.279630  0.694930  1.0  0.1494
  C  C317  1  0.708680  0.822360  0.907070  1.0  0.1315
  C  C318  1  0.723610  0.799970  0.807070  1.0  -0.1269
  C  C319  1  0.701010  0.753260  0.807770  1.0  -0.0152
  C  C320  1  0.663640  0.730020  0.906870  1.0  -0.099
  C  C321  1  0.650730  0.754740  0.003670  1.0  0.1459
  C  C322  1  0.640260  0.679680  0.913570  1.0  0.272
  C  C323  1  0.590680  0.653230  0.945470  1.0  -0.0657
  C  C324  1  0.560700  0.665840  0.884970  1.0  -0.1204
  C  C325  1  0.514740  0.637120  0.913070  1.0  -0.1796
  C  C326  1  0.501050  0.598080  0.999370  1.0  0.1237
  C  C327  1  0.573900  0.612970  0.028270  1.0  0.1494
  C  C328  1  0.844310  0.219660  0.240400  1.0  0.1364
  C  C329  1  0.866700  0.256980  0.140400  1.0  -0.1292
  C  C330  1  0.913410  0.281090  0.141100  1.0  -0.0159
  C  C331  1  0.936650  0.266960  0.240200  1.0  -0.1
  C  C332  1  0.911930  0.229330  0.337000  1.0  0.1424
  C  C333  1  0.986990  0.293920  0.246900  1.0  0.2738
  C  C334  1  0.013440  0.270790  0.278800  1.0  -0.065
  C  C335  1  0.000830  0.228200  0.218300  1.0  -0.1218
  C  C336  1  0.029550  0.210960  0.246400  1.0  -0.1772
  C  C337  1  0.068590  0.236310  0.332700  1.0  0.1257
  C  C338  1  0.053700  0.294270  0.361600  1.0  0.1486
  C  C339  1  0.510980  0.552990  0.573730  1.0  0.1364
  C  C340  1  0.533370  0.590310  0.473730  1.0  -0.1291
  C  C341  1  0.580080  0.614420  0.474430  1.0  -0.0159
  C  C342  1  0.603320  0.600290  0.573530  1.0  -0.1
  C  C343  1  0.578600  0.562660  0.670330  1.0  0.1427
  C  C344  1  0.653660  0.627250  0.580230  1.0  0.2752
  C  C345  1  0.680110  0.604120  0.612130  1.0  -0.0651
  C  C346  1  0.667500  0.561530  0.551630  1.0  -0.1218
  C  C347  1  0.696220  0.544290  0.579730  1.0  -0.1772
  C  C348  1  0.735260  0.569640  0.666030  1.0  0.1257
  C  C349  1  0.720370  0.627600  0.694930  1.0  0.1486
  C  C350  1  0.177640  0.886330  0.907070  1.0  0.1364
  C  C351  1  0.200030  0.923650  0.807070  1.0  -0.1292
  C  C352  1  0.246740  0.947760  0.807770  1.0  -0.0159
  C  C353  1  0.269980  0.933630  0.906870  1.0  -0.1
  C  C354  1  0.245260  0.896000  0.003670  1.0  0.1424
  C  C355  1  0.320320  0.960590  0.913570  1.0  0.2738
  C  C356  1  0.346770  0.937460  0.945470  1.0  -0.065
  C  C357  1  0.334160  0.894870  0.884970  1.0  -0.1218
  C  C358  1  0.362880  0.877630  0.913070  1.0  -0.1772
  C  C359  1  0.401920  0.902980  0.999370  1.0  0.1256
  C  C360  1  0.387030  0.960940  0.028270  1.0  0.1486
  N  N361  1  0.206030  0.339600  0.661200  1.0  -0.3195
  N  N362  1  0.277640  0.196510  0.609400  1.0  -0.3135
  N  N363  1  0.872700  0.672930  0.994530  1.0  -0.3195
  N  N364  1  0.944310  0.529840  0.942730  1.0  -0.3135
  N  N365  1  0.539360  0.006270  0.327870  1.0  -0.3196
  N  N366  1  0.610970  0.863180  0.276070  1.0  -0.3135
  N  N367  1  0.660400  0.866430  0.661200  1.0  -0.3198
  N  N368  1  0.803490  0.081130  0.609400  1.0  -0.3048
  N  N369  1  0.327070  0.199760  0.994530  1.0  -0.3198
  N  N370  1  0.470160  0.414460  0.942730  1.0  -0.3047
  N  N371  1  0.993730  0.533100  0.327870  1.0  -0.3197
  N  N372  1  0.136820  0.747800  0.276070  1.0  -0.3048
  N  N373  1  0.133570  0.793970  0.661200  1.0  -0.3187
  N  N374  1  0.918870  0.722360  0.609400  1.0  -0.3105
  N  N375  1  0.800240  0.127300  0.994530  1.0  -0.3187
  N  N376  1  0.585540  0.055690  0.942730  1.0  -0.3105
  N  N377  1  0.466900  0.460640  0.327870  1.0  -0.3188
  N  N378  1  0.252200  0.389030  0.276070  1.0  -0.3105
  N  N379  1  0.793970  0.660400  0.338800  1.0  -0.3177
  N  N380  1  0.722360  0.803490  0.390600  1.0  -0.3102
  N  N381  1  0.460640  0.993730  0.672130  1.0  -0.3177
  N  N382  1  0.389030  0.136820  0.723930  1.0  -0.3102
  N  N383  1  0.127300  0.327070  0.005470  1.0  -0.3177
  N  N384  1  0.055690  0.470160  0.057270  1.0  -0.3102
  N  N385  1  0.339600  0.133570  0.338800  1.0  -0.3167
  N  N386  1  0.196510  0.918870  0.390600  1.0  -0.3056
  N  N387  1  0.006270  0.466900  0.672130  1.0  -0.3167
  N  N388  1  0.863180  0.252200  0.723930  1.0  -0.3056
  N  N389  1  0.672930  0.800240  0.005470  1.0  -0.3167
  N  N390  1  0.529840  0.585540  0.057270  1.0  -0.3055
  N  N391  1  0.866430  0.206030  0.338800  1.0  -0.32
  N  N392  1  0.081130  0.277640  0.390600  1.0  -0.31
  N  N393  1  0.533100  0.539360  0.672130  1.0  -0.32
  N  N394  1  0.747800  0.610970  0.723930  1.0  -0.31
  N  N395  1  0.199760  0.872700  0.005470  1.0  -0.32
  N  N396  1  0.414460  0.944310  0.057270  1.0  -0.31
  O  O397  1  0.334720  0.328300  0.775800  1.0  -0.4834
  O  O398  1  0.001390  0.661630  0.109130  1.0  -0.4834
  O  O399  1  0.668050  0.994970  0.442470  1.0  -0.4834
  O  O400  1  0.671700  0.006420  0.775800  1.0  -0.4822
  O  O401  1  0.338370  0.339750  0.109130  1.0  -0.4822
  O  O402  1  0.005030  0.673090  0.442470  1.0  -0.4822
  O  O403  1  0.993580  0.665280  0.775800  1.0  -0.4827
  O  O404  1  0.660250  0.998610  0.109130  1.0  -0.4827
  O  O405  1  0.326910  0.331950  0.442470  1.0  -0.4827
  O  O406  1  0.665280  0.671700  0.224200  1.0  -0.4823
  O  O407  1  0.331950  0.005030  0.557530  1.0  -0.4823
  O  O408  1  0.998610  0.338370  0.890870  1.0  -0.4823
  O  O409  1  0.328300  0.993580  0.224200  1.0  -0.4827
  O  O410  1  0.994970  0.326910  0.557530  1.0  -0.4827
  O  O411  1  0.661630  0.660250  0.890870  1.0  -0.4827
  O  O412  1  0.006420  0.334720  0.224200  1.0  -0.4826
  O  O413  1  0.673090  0.668050  0.557530  1.0  -0.4826
  O  O414  1  0.339750  0.001390  0.890870  1.0  -0.4826
