# generated using pymatgen
data_AgH8C11N2O
_symmetry_space_group_name_H-M   'P 1'
_cell_length_a   34.47100000
_cell_length_b   34.47100000
_cell_length_c   8.46300000
_cell_angle_alpha   90.00000000
_cell_angle_beta   90.00000000
_cell_angle_gamma   120.00000000
_symmetry_Int_Tables_number   1
_chemical_formula_structural   AgH8C11N2O
_chemical_formula_sum   'Ag18 H144 C198 N36 O18'
_cell_volume   8708.88864268
_cell_formula_units_Z   18
loop_
 _symmetry_equiv_pos_site_id
 _symmetry_equiv_pos_as_xyz
  1  'x, y, z'
loop_
 _atom_site_type_symbol
 _atom_site_label
 _atom_site_symmetry_multiplicity
 _atom_site_fract_x
 _atom_site_fract_y
 _atom_site_fract_z
 _atom_site_occupancy
 _atom_site_charge
  Ag  Ag1  1  0.145700  0.318470  0.505220  1.0  0.1976
  Ag  Ag2  1  0.812370  0.651800  0.838550  1.0  0.1976
  Ag  Ag3  1  0.479040  0.985130  0.171890  1.0  0.1976
  Ag  Ag4  1  0.681530  0.827230  0.505220  1.0  0.1973
  Ag  Ag5  1  0.348200  0.160570  0.838550  1.0  0.1973
  Ag  Ag6  1  0.014870  0.493900  0.171890  1.0  0.1985
  Ag  Ag7  1  0.172770  0.854300  0.505220  1.0  0.1987
  Ag  Ag8  1  0.839430  0.187630  0.838550  1.0  0.1986
  Ag  Ag9  1  0.506100  0.520960  0.171890  1.0  0.1979
  Ag  Ag10  1  0.854300  0.681530  0.494780  1.0  0.198
  Ag  Ag11  1  0.520960  0.014870  0.828110  1.0  0.198
  Ag  Ag12  1  0.187630  0.348200  0.161450  1.0  0.198
  Ag  Ag13  1  0.318470  0.172770  0.494780  1.0  0.1975
  Ag  Ag14  1  0.985130  0.506100  0.828110  1.0  0.1984
  Ag  Ag15  1  0.651800  0.839430  0.161450  1.0  0.1974
  Ag  Ag16  1  0.827230  0.145700  0.494780  1.0  0.1972
  Ag  Ag17  1  0.493900  0.479040  0.828110  1.0  0.1965
  Ag  Ag18  1  0.160570  0.812370  0.161450  1.0  0.1972
  H  H19  1  0.202600  0.388700  0.753300  1.0  0.0581
  H  H20  1  0.264300  0.414200  0.908900  1.0  0.0963
  H  H21  1  0.305700  0.377600  0.905400  1.0  0.0927
  H  H22  1  0.218800  0.292200  0.588700  1.0  0.0719
  H  H23  1  0.212700  0.239400  0.827200  1.0  0.0985
  H  H24  1  0.184500  0.163300  0.789700  1.0  0.0929
  H  H25  1  0.224100  0.139200  0.647700  1.0  0.0574
  H  H26  1  0.321800  0.260900  0.592900  1.0  0.0578
  H  H27  1  0.869270  0.722030  0.086630  1.0  0.0581
  H  H28  1  0.930970  0.747530  0.242230  1.0  0.0963
  H  H29  1  0.972370  0.710930  0.238730  1.0  0.0925
  H  H30  1  0.885470  0.625530  0.922030  1.0  0.0719
  H  H31  1  0.879370  0.572730  0.160530  1.0  0.0985
  H  H32  1  0.851170  0.496630  0.123030  1.0  0.0929
  H  H33  1  0.890770  0.472530  0.981030  1.0  0.0574
  H  H34  1  0.988470  0.594230  0.926230  1.0  0.0576
  H  H35  1  0.535930  0.055370  0.419970  1.0  0.0586
  H  H36  1  0.597630  0.080870  0.575570  1.0  0.0963
  H  H37  1  0.639030  0.044270  0.572070  1.0  0.0926
  H  H38  1  0.552130  0.958870  0.255370  1.0  0.0719
  H  H39  1  0.546030  0.906070  0.493870  1.0  0.0985
  H  H40  1  0.517830  0.829970  0.456370  1.0  0.0929
  H  H41  1  0.557430  0.805870  0.314370  1.0  0.0573
  H  H42  1  0.655130  0.927570  0.259570  1.0  0.0576
  H  H43  1  0.611300  0.813900  0.753300  1.0  0.0558
  H  H44  1  0.585800  0.850100  0.908900  1.0  0.0961
  H  H45  1  0.622400  0.928100  0.905400  1.0  0.0933
  H  H46  1  0.707800  0.926600  0.588700  1.0  0.0708
  H  H47  1  0.760600  0.973300  0.827200  1.0  0.0984
  H  H48  1  0.836700  0.021200  0.789700  1.0  0.0947
  H  H49  1  0.860800  0.084900  0.647700  1.0  0.0572
  H  H50  1  0.739100  0.060900  0.592900  1.0  0.057
  H  H51  1  0.277970  0.147230  0.086630  1.0  0.0561
  H  H52  1  0.252470  0.183430  0.242230  1.0  0.0961
  H  H53  1  0.289070  0.261430  0.238730  1.0  0.0934
  H  H54  1  0.374470  0.259930  0.922030  1.0  0.0708
  H  H55  1  0.427270  0.306630  0.160530  1.0  0.0984
  H  H56  1  0.503370  0.354530  0.123030  1.0  0.093
  H  H57  1  0.527470  0.418230  0.981030  1.0  0.0571
  H  H58  1  0.405770  0.394230  0.926230  1.0  0.0574
  H  H59  1  0.944630  0.480570  0.419970  1.0  0.0561
  H  H60  1  0.919130  0.516770  0.575570  1.0  0.0961
  H  H61  1  0.955730  0.594770  0.572070  1.0  0.0932
  H  H62  1  0.041130  0.593270  0.255370  1.0  0.0708
  H  H63  1  0.093930  0.639970  0.493870  1.0  0.0984
  H  H64  1  0.170030  0.687870  0.456370  1.0  0.093
  H  H65  1  0.194130  0.751570  0.314370  1.0  0.0573
  H  H66  1  0.072430  0.727570  0.259570  1.0  0.0572
  H  H67  1  0.186100  0.797400  0.753300  1.0  0.0588
  H  H68  1  0.149900  0.735700  0.908900  1.0  0.0965
  H  H69  1  0.071900  0.694300  0.905400  1.0  0.0926
  H  H70  1  0.073400  0.781200  0.588700  1.0  0.0709
  H  H71  1  0.026700  0.787300  0.827200  1.0  0.0993
  H  H72  1  0.978800  0.815500  0.789700  1.0  0.0951
  H  H73  1  0.915100  0.775900  0.647700  1.0  0.0562
  H  H74  1  0.939100  0.678200  0.592900  1.0  0.0574
  H  H75  1  0.852770  0.130730  0.086630  1.0  0.0592
  H  H76  1  0.816570  0.069030  0.242230  1.0  0.0965
  H  H77  1  0.738570  0.027630  0.238730  1.0  0.0927
  H  H78  1  0.740070  0.114530  0.922030  1.0  0.0709
  H  H79  1  0.693370  0.120630  0.160530  1.0  0.0993
  H  H80  1  0.645470  0.148830  0.123030  1.0  0.0945
  H  H81  1  0.581770  0.109230  0.981030  1.0  0.0562
  H  H82  1  0.605770  0.011530  0.926230  1.0  0.0577
  H  H83  1  0.519430  0.464070  0.419970  1.0  0.0592
  H  H84  1  0.483230  0.402370  0.575570  1.0  0.0965
  H  H85  1  0.405230  0.360970  0.572070  1.0  0.0927
  H  H86  1  0.406730  0.447870  0.255370  1.0  0.0709
  H  H87  1  0.360030  0.453970  0.493870  1.0  0.0993
  H  H88  1  0.312130  0.482170  0.456370  1.0  0.0945
  H  H89  1  0.248430  0.442570  0.314370  1.0  0.0562
  H  H90  1  0.272430  0.344870  0.259570  1.0  0.0576
  H  H91  1  0.797400  0.611300  0.246700  1.0  0.0576
  H  H92  1  0.735700  0.585800  0.091100  1.0  0.0963
  H  H93  1  0.694300  0.622400  0.094600  1.0  0.0928
  H  H94  1  0.781200  0.707800  0.411300  1.0  0.071
  H  H95  1  0.787300  0.760600  0.172800  1.0  0.0984
  H  H96  1  0.815500  0.836700  0.210300  1.0  0.0948
  H  H97  1  0.775900  0.860800  0.352300  1.0  0.0548
  H  H98  1  0.678200  0.739100  0.407100  1.0  0.0572
  H  H99  1  0.464070  0.944630  0.580030  1.0  0.0581
  H  H100  1  0.402370  0.919130  0.424430  1.0  0.0963
  H  H101  1  0.360970  0.955730  0.427930  1.0  0.0927
  H  H102  1  0.447870  0.041130  0.744630  1.0  0.071
  H  H103  1  0.453970  0.093930  0.506130  1.0  0.0984
  H  H104  1  0.482170  0.170030  0.543630  1.0  0.0948
  H  H105  1  0.442570  0.194130  0.685630  1.0  0.0548
  H  H106  1  0.344870  0.072430  0.740430  1.0  0.057
  H  H107  1  0.130730  0.277970  0.913370  1.0  0.0576
  H  H108  1  0.069030  0.252470  0.757770  1.0  0.0963
  H  H109  1  0.027630  0.289070  0.761270  1.0  0.0926
  H  H110  1  0.114530  0.374470  0.077970  1.0  0.0711
  H  H111  1  0.120630  0.427270  0.839470  1.0  0.0984
  H  H112  1  0.148830  0.503370  0.876970  1.0  0.0948
  H  H113  1  0.109230  0.527470  0.018970  1.0  0.0548
  H  H114  1  0.011530  0.405770  0.073770  1.0  0.057
  H  H115  1  0.388700  0.186100  0.246700  1.0  0.0545
  H  H116  1  0.414200  0.149900  0.091100  1.0  0.0968
  H  H117  1  0.377600  0.071900  0.094600  1.0  0.0945
  H  H118  1  0.292200  0.073400  0.411300  1.0  0.071
  H  H119  1  0.239400  0.026700  0.172800  1.0  0.0993
  H  H120  1  0.163300  0.978800  0.210300  1.0  0.0937
  H  H121  1  0.139200  0.915100  0.352300  1.0  0.0575
  H  H122  1  0.260900  0.939100  0.407100  1.0  0.0573
  H  H123  1  0.055370  0.519430  0.580030  1.0  0.0548
  H  H124  1  0.080870  0.483230  0.424430  1.0  0.0968
  H  H125  1  0.044270  0.405230  0.427930  1.0  0.0944
  H  H126  1  0.958870  0.406730  0.744630  1.0  0.071
  H  H127  1  0.906070  0.360030  0.506130  1.0  0.0993
  H  H128  1  0.829970  0.312130  0.543630  1.0  0.0922
  H  H129  1  0.805870  0.248430  0.685630  1.0  0.0576
  H  H130  1  0.927570  0.272430  0.740430  1.0  0.0574
  H  H131  1  0.722030  0.852770  0.913370  1.0  0.0548
  H  H132  1  0.747530  0.816570  0.757770  1.0  0.0968
  H  H133  1  0.710930  0.738570  0.761270  1.0  0.0946
  H  H134  1  0.625530  0.740070  0.077970  1.0  0.071
  H  H135  1  0.572730  0.693370  0.839470  1.0  0.0993
  H  H136  1  0.496630  0.645470  0.876970  1.0  0.0922
  H  H137  1  0.472530  0.581770  0.018970  1.0  0.0573
  H  H138  1  0.594230  0.605770  0.073770  1.0  0.0577
  H  H139  1  0.813900  0.202600  0.246700  1.0  0.0587
  H  H140  1  0.850100  0.264300  0.091100  1.0  0.0969
  H  H141  1  0.928100  0.305700  0.094600  1.0  0.0928
  H  H142  1  0.926600  0.218800  0.411300  1.0  0.0705
  H  H143  1  0.973300  0.212700  0.172800  1.0  0.0997
  H  H144  1  0.021200  0.184500  0.210300  1.0  0.0961
  H  H145  1  0.084900  0.224100  0.352300  1.0  0.0575
  H  H146  1  0.060900  0.321800  0.407100  1.0  0.0575
  H  H147  1  0.480570  0.535930  0.580030  1.0  0.0591
  H  H148  1  0.516770  0.597630  0.424430  1.0  0.0968
  H  H149  1  0.594770  0.639030  0.427930  1.0  0.0929
  H  H150  1  0.593270  0.552130  0.744630  1.0  0.0705
  H  H151  1  0.639970  0.546030  0.506130  1.0  0.0997
  H  H152  1  0.687870  0.517830  0.543630  1.0  0.0944
  H  H153  1  0.751570  0.557430  0.685630  1.0  0.0575
  H  H154  1  0.727570  0.655130  0.740430  1.0  0.0577
  H  H155  1  0.147230  0.869270  0.913370  1.0  0.0592
  H  H156  1  0.183430  0.930970  0.757770  1.0  0.0969
  H  H157  1  0.261430  0.972370  0.761270  1.0  0.0929
  H  H158  1  0.259930  0.885470  0.077970  1.0  0.0705
  H  H159  1  0.306630  0.879370  0.839470  1.0  0.0997
  H  H160  1  0.354530  0.851170  0.876970  1.0  0.0944
  H  H161  1  0.418230  0.890770  0.018970  1.0  0.0575
  H  H162  1  0.394230  0.988470  0.073770  1.0  0.0579
  C  C163  1  0.218910  0.373870  0.750800  1.0  0.1291
  C  C164  1  0.255700  0.389400  0.844600  1.0  -0.1916
  C  C165  1  0.280200  0.367500  0.843000  1.0  0.0017
  C  C166  1  0.266230  0.330150  0.746500  1.0  -0.0527
  C  C167  1  0.228350  0.316970  0.654100  1.0  0.155
  C  C168  1  0.293220  0.307460  0.738100  1.0  0.2892
  C  C169  1  0.270850  0.258620  0.710900  1.0  -0.0378
  C  C170  1  0.229000  0.229100  0.771900  1.0  -0.1201
  C  C171  1  0.212300  0.183900  0.748400  1.0  -0.181
  C  C172  1  0.236400  0.169800  0.665100  1.0  0.1317
  C  C173  1  0.293370  0.241150  0.631600  1.0  0.1584
  C  C174  1  0.885580  0.707200  0.084130  1.0  0.1291
  C  C175  1  0.922370  0.722730  0.177930  1.0  -0.1916
  C  C176  1  0.946870  0.700830  0.176330  1.0  0.0017
  C  C177  1  0.932900  0.663480  0.079830  1.0  -0.0527
  C  C178  1  0.895020  0.650300  0.987430  1.0  0.155
  C  C179  1  0.959890  0.640790  0.071430  1.0  0.2893
  C  C180  1  0.937520  0.591950  0.044230  1.0  -0.0378
  C  C181  1  0.895670  0.562430  0.105230  1.0  -0.1203
  C  C182  1  0.878970  0.517230  0.081730  1.0  -0.181
  C  C183  1  0.903070  0.503130  0.998430  1.0  0.1317
  C  C184  1  0.960040  0.574480  0.964930  1.0  0.1586
  C  C185  1  0.552240  0.040540  0.417470  1.0  0.1291
  C  C186  1  0.589030  0.056070  0.511270  1.0  -0.1916
  C  C187  1  0.613530  0.034170  0.509670  1.0  0.0014
  C  C188  1  0.599560  0.996820  0.413170  1.0  -0.0527
  C  C189  1  0.561680  0.983640  0.320770  1.0  0.1548
  C  C190  1  0.626550  0.974130  0.404770  1.0  0.2892
  C  C191  1  0.604180  0.925290  0.377570  1.0  -0.0378
  C  C192  1  0.562330  0.895770  0.438570  1.0  -0.1201
  C  C193  1  0.545630  0.850570  0.415070  1.0  -0.181
  C  C194  1  0.569730  0.836470  0.331770  1.0  0.1317
  C  C195  1  0.626700  0.907820  0.298270  1.0  0.1584
  C  C196  1  0.626130  0.845040  0.750800  1.0  0.1273
  C  C197  1  0.610600  0.866300  0.844600  1.0  -0.1951
  C  C198  1  0.632500  0.912700  0.843000  1.0  0.0018
  C  C199  1  0.669850  0.936080  0.746500  1.0  -0.0511
  C  C200  1  0.683030  0.911380  0.654100  1.0  0.1569
  C  C201  1  0.692540  0.985760  0.738100  1.0  0.2897
  C  C202  1  0.741380  0.012230  0.710900  1.0  -0.0376
  C  C203  1  0.770900  0.999900  0.771900  1.0  -0.1233
  C  C204  1  0.816100  0.028400  0.748400  1.0  -0.1779
  C  C205  1  0.830200  0.066600  0.665100  1.0  0.1293
  C  C206  1  0.758850  0.052220  0.631600  1.0  0.1581
  C  C207  1  0.292800  0.178370  0.084130  1.0  0.1273
  C  C208  1  0.277270  0.199630  0.177930  1.0  -0.1951
  C  C209  1  0.299170  0.246030  0.176330  1.0  0.0018
  C  C210  1  0.336520  0.269410  0.079830  1.0  -0.0511
  C  C211  1  0.349700  0.244710  0.987430  1.0  0.1569
  C  C212  1  0.359210  0.319090  0.071430  1.0  0.2899
  C  C213  1  0.408050  0.345560  0.044230  1.0  -0.0377
  C  C214  1  0.437570  0.333230  0.105230  1.0  -0.1232
  C  C215  1  0.482770  0.361730  0.081730  1.0  -0.1779
  C  C216  1  0.496870  0.399930  0.998430  1.0  0.1293
  C  C217  1  0.425520  0.385550  0.964930  1.0  0.1579
  C  C218  1  0.959460  0.511710  0.417470  1.0  0.1273
  C  C219  1  0.943930  0.532970  0.511270  1.0  -0.1951
  C  C220  1  0.965830  0.579370  0.509670  1.0  0.0018
  C  C221  1  0.003180  0.602750  0.413170  1.0  -0.0511
  C  C222  1  0.016360  0.578050  0.320770  1.0  0.1566
  C  C223  1  0.025870  0.652430  0.404770  1.0  0.2897
  C  C224  1  0.074710  0.678900  0.377570  1.0  -0.0376
  C  C225  1  0.104230  0.666570  0.438570  1.0  -0.1233
  C  C226  1  0.149430  0.695070  0.415070  1.0  -0.1779
  C  C227  1  0.163530  0.733270  0.331770  1.0  0.1293
  C  C228  1  0.092180  0.718890  0.298270  1.0  0.1581
  C  C229  1  0.154960  0.781090  0.750800  1.0  0.131
  C  C230  1  0.133700  0.744300  0.844600  1.0  -0.1945
  C  C231  1  0.087300  0.719800  0.843000  1.0  0.0008
  C  C232  1  0.063920  0.733770  0.746500  1.0  -0.0508
  C  C233  1  0.088620  0.771650  0.654100  1.0  0.1526
  C  C234  1  0.014240  0.706780  0.738100  1.0  0.293
  C  C235  1  0.987770  0.729150  0.710900  1.0  -0.0376
  C  C236  1  0.000100  0.771000  0.771900  1.0  -0.1235
  C  C237  1  0.971600  0.787700  0.748400  1.0  -0.1749
  C  C238  1  0.933400  0.763600  0.665100  1.0  0.129
  C  C239  1  0.947780  0.706630  0.631600  1.0  0.16
  C  C240  1  0.821630  0.114420  0.084130  1.0  0.131
  C  C241  1  0.800370  0.077630  0.177930  1.0  -0.1947
  C  C242  1  0.753970  0.053130  0.176330  1.0  0.0008
  C  C243  1  0.730590  0.067100  0.079830  1.0  -0.0508
  C  C244  1  0.755290  0.104980  0.987430  1.0  0.1526
  C  C245  1  0.680910  0.040110  0.071430  1.0  0.2928
  C  C246  1  0.654440  0.062480  0.044230  1.0  -0.0376
  C  C247  1  0.666770  0.104330  0.105230  1.0  -0.1235
  C  C248  1  0.638270  0.121030  0.081730  1.0  -0.1749
  C  C249  1  0.600070  0.096930  0.998430  1.0  0.129
  C  C250  1  0.614450  0.039960  0.964930  1.0  0.16
  C  C251  1  0.488290  0.447760  0.417470  1.0  0.131
  C  C252  1  0.467030  0.410970  0.511270  1.0  -0.1945
  C  C253  1  0.420630  0.386470  0.509670  1.0  0.0012
  C  C254  1  0.397250  0.400440  0.413170  1.0  -0.0508
  C  C255  1  0.421950  0.438320  0.320770  1.0  0.1529
  C  C256  1  0.347570  0.373450  0.404770  1.0  0.2928
  C  C257  1  0.321100  0.395820  0.377570  1.0  -0.0377
  C  C258  1  0.333430  0.437670  0.438570  1.0  -0.1235
  C  C259  1  0.304930  0.454370  0.415070  1.0  -0.1749
  C  C260  1  0.266730  0.430270  0.331770  1.0  0.129
  C  C261  1  0.281110  0.373300  0.298270  1.0  0.1598
  C  C262  1  0.781090  0.626130  0.249200  1.0  0.1289
  C  C263  1  0.744300  0.610600  0.155400  1.0  -0.1929
  C  C264  1  0.719800  0.632500  0.157000  1.0  0.0011
  C  C265  1  0.733770  0.669850  0.253500  1.0  -0.0524
  C  C266  1  0.771650  0.683030  0.345900  1.0  0.155
  C  C267  1  0.706780  0.692540  0.261900  1.0  0.2891
  C  C268  1  0.729150  0.741380  0.289100  1.0  -0.0371
  C  C269  1  0.771000  0.770900  0.228100  1.0  -0.1222
  C  C270  1  0.787700  0.816100  0.251600  1.0  -0.1772
  C  C271  1  0.763600  0.830200  0.334900  1.0  0.1319
  C  C272  1  0.706630  0.758850  0.368400  1.0  0.1589
  C  C273  1  0.447760  0.959460  0.582530  1.0  0.1288
  C  C274  1  0.410970  0.943930  0.488730  1.0  -0.1929
  C  C275  1  0.386470  0.965830  0.490330  1.0  0.0008
  C  C276  1  0.400440  0.003180  0.586830  1.0  -0.0523
  C  C277  1  0.438320  0.016360  0.679230  1.0  0.1548
  C  C278  1  0.373450  0.025870  0.595230  1.0  0.2891
  C  C279  1  0.395820  0.074710  0.622430  1.0  -0.0371
  C  C280  1  0.437670  0.104230  0.561430  1.0  -0.1222
  C  C281  1  0.454370  0.149430  0.584930  1.0  -0.1772
  C  C282  1  0.430270  0.163530  0.668230  1.0  0.1319
  C  C283  1  0.373300  0.092180  0.701730  1.0  0.1589
  C  C284  1  0.114420  0.292800  0.915870  1.0  0.1289
  C  C285  1  0.077630  0.277270  0.822070  1.0  -0.1929
  C  C286  1  0.053130  0.299170  0.823670  1.0  0.0011
  C  C287  1  0.067100  0.336520  0.920170  1.0  -0.0523
  C  C288  1  0.104980  0.349700  0.012570  1.0  0.155
  C  C289  1  0.040110  0.359210  0.928570  1.0  0.2892
  C  C290  1  0.062480  0.408050  0.955770  1.0  -0.0371
  C  C291  1  0.104330  0.437570  0.894770  1.0  -0.1223
  C  C292  1  0.121030  0.482770  0.918270  1.0  -0.1772
  C  C293  1  0.096930  0.496870  0.001570  1.0  0.1319
  C  C294  1  0.039960  0.425520  0.035070  1.0  0.1591
  C  C295  1  0.373870  0.154960  0.249200  1.0  0.1276
  C  C296  1  0.389400  0.133700  0.155400  1.0  -0.1947
  C  C297  1  0.367500  0.087300  0.157000  1.0  0.0013
  C  C298  1  0.330150  0.063920  0.253500  1.0  -0.052
  C  C299  1  0.316970  0.088620  0.345900  1.0  0.1565
  C  C300  1  0.307460  0.014240  0.261900  1.0  0.2894
  C  C301  1  0.258620  0.987770  0.289100  1.0  -0.0376
  C  C302  1  0.229100  0.000100  0.228100  1.0  -0.1233
  C  C303  1  0.183900  0.971600  0.251600  1.0  -0.1772
  C  C304  1  0.169800  0.933400  0.334900  1.0  0.131
  C  C305  1  0.241150  0.947780  0.368400  1.0  0.1596
  C  C306  1  0.040540  0.488290  0.582530  1.0  0.1276
  C  C307  1  0.056070  0.467030  0.488730  1.0  -0.1947
  C  C308  1  0.034170  0.420630  0.490330  1.0  0.0013
  C  C309  1  0.996820  0.397250  0.586830  1.0  -0.052
  C  C310  1  0.983640  0.421950  0.679230  1.0  0.1563
  C  C311  1  0.974130  0.347570  0.595230  1.0  0.2894
  C  C312  1  0.925290  0.321100  0.622430  1.0  -0.0376
  C  C313  1  0.895770  0.333430  0.561430  1.0  -0.1233
  C  C314  1  0.850570  0.304930  0.584930  1.0  -0.1772
  C  C315  1  0.836470  0.266730  0.668230  1.0  0.131
  C  C316  1  0.907820  0.281110  0.701730  1.0  0.1597
  C  C317  1  0.707200  0.821630  0.915870  1.0  0.1276
  C  C318  1  0.722730  0.800370  0.822070  1.0  -0.1947
  C  C319  1  0.700830  0.753970  0.823670  1.0  0.0013
  C  C320  1  0.663480  0.730590  0.920170  1.0  -0.0521
  C  C321  1  0.650300  0.755290  0.012570  1.0  0.1565
  C  C322  1  0.640790  0.680910  0.928570  1.0  0.2896
  C  C323  1  0.591950  0.654440  0.955770  1.0  -0.0377
  C  C324  1  0.562430  0.666770  0.894770  1.0  -0.1233
  C  C325  1  0.517230  0.638270  0.918270  1.0  -0.1772
  C  C326  1  0.503130  0.600070  0.001570  1.0  0.1309
  C  C327  1  0.574480  0.614450  0.035070  1.0  0.1595
  C  C328  1  0.845040  0.218910  0.249200  1.0  0.1314
  C  C329  1  0.866300  0.255700  0.155400  1.0  -0.196
  C  C330  1  0.912700  0.280200  0.157000  1.0  0.001
  C  C331  1  0.936080  0.266230  0.253500  1.0  -0.0515
  C  C332  1  0.911380  0.228350  0.345900  1.0  0.1529
  C  C333  1  0.985760  0.293220  0.261900  1.0  0.2924
  C  C334  1  0.012230  0.270850  0.289100  1.0  -0.0382
  C  C335  1  0.999900  0.229000  0.228100  1.0  -0.1233
  C  C336  1  0.028400  0.212300  0.251600  1.0  -0.1749
  C  C337  1  0.066600  0.236400  0.334900  1.0  0.1291
  C  C338  1  0.052220  0.293370  0.368400  1.0  0.1595
  C  C339  1  0.511710  0.552240  0.582530  1.0  0.1314
  C  C340  1  0.532970  0.589030  0.488730  1.0  -0.196
  C  C341  1  0.579370  0.613530  0.490330  1.0  0.0014
  C  C342  1  0.602750  0.599560  0.586830  1.0  -0.0515
  C  C343  1  0.578050  0.561680  0.679230  1.0  0.1531
  C  C344  1  0.652430  0.626550  0.595230  1.0  0.2923
  C  C345  1  0.678900  0.604180  0.622430  1.0  -0.0383
  C  C346  1  0.666570  0.562330  0.561430  1.0  -0.1233
  C  C347  1  0.695070  0.545630  0.584930  1.0  -0.1749
  C  C348  1  0.733270  0.569730  0.668230  1.0  0.1291
  C  C349  1  0.718890  0.626700  0.701730  1.0  0.1594
  C  C350  1  0.178370  0.885580  0.915870  1.0  0.1314
  C  C351  1  0.199630  0.922370  0.822070  1.0  -0.1962
  C  C352  1  0.246030  0.946870  0.823670  1.0  0.001
  C  C353  1  0.269410  0.932900  0.920170  1.0  -0.0515
  C  C354  1  0.244710  0.895020  0.012570  1.0  0.1529
  C  C355  1  0.319090  0.959890  0.928570  1.0  0.2923
  C  C356  1  0.345560  0.937520  0.955770  1.0  -0.0382
  C  C357  1  0.333230  0.895670  0.894770  1.0  -0.1233
  C  C358  1  0.361730  0.878970  0.918270  1.0  -0.1749
  C  C359  1  0.399930  0.903070  0.001570  1.0  0.129
  C  C360  1  0.385550  0.960040  0.035070  1.0  0.1595
  N  N361  1  0.204900  0.338420  0.655000  1.0  -0.3224
  N  N362  1  0.276860  0.197660  0.607000  1.0  -0.3114
  N  N363  1  0.871570  0.671750  0.988330  1.0  -0.3224
  N  N364  1  0.943530  0.530990  0.940330  1.0  -0.3114
  N  N365  1  0.538230  0.005090  0.321670  1.0  -0.3222
  N  N366  1  0.610190  0.864330  0.273670  1.0  -0.3114
  N  N367  1  0.661580  0.866480  0.655000  1.0  -0.3196
  N  N368  1  0.802340  0.079200  0.607000  1.0  -0.3072
  N  N369  1  0.328250  0.199810  0.988330  1.0  -0.3194
  N  N370  1  0.469010  0.412530  0.940330  1.0  -0.3071
  N  N371  1  0.994910  0.533150  0.321670  1.0  -0.3197
  N  N372  1  0.135670  0.745870  0.273670  1.0  -0.3072
  N  N373  1  0.133520  0.795100  0.655000  1.0  -0.3198
  N  N374  1  0.920800  0.723140  0.607000  1.0  -0.3096
  N  N375  1  0.800190  0.128430  0.988330  1.0  -0.3198
  N  N376  1  0.587470  0.056470  0.940330  1.0  -0.3096
  N  N377  1  0.466850  0.461770  0.321670  1.0  -0.3195
  N  N378  1  0.254130  0.389810  0.273670  1.0  -0.3096
  N  N379  1  0.795100  0.661580  0.345000  1.0  -0.3201
  N  N380  1  0.723140  0.802340  0.393000  1.0  -0.31
  N  N381  1  0.461770  0.994910  0.678330  1.0  -0.32
  N  N382  1  0.389810  0.135670  0.726330  1.0  -0.31
  N  N383  1  0.128430  0.328250  0.011670  1.0  -0.3201
  N  N384  1  0.056470  0.469010  0.059670  1.0  -0.31
  N  N385  1  0.338420  0.133520  0.345000  1.0  -0.3219
  N  N386  1  0.197660  0.920800  0.393000  1.0  -0.3064
  N  N387  1  0.005090  0.466850  0.678330  1.0  -0.322
  N  N388  1  0.864330  0.254130  0.726330  1.0  -0.3063
  N  N389  1  0.671750  0.800190  0.011670  1.0  -0.3217
  N  N390  1  0.530990  0.587470  0.059670  1.0  -0.3063
  N  N391  1  0.866480  0.204900  0.345000  1.0  -0.3213
  N  N392  1  0.079200  0.276860  0.393000  1.0  -0.3082
  N  N393  1  0.533150  0.538230  0.678330  1.0  -0.3211
  N  N394  1  0.745870  0.610190  0.726330  1.0  -0.3082
  N  N395  1  0.199810  0.871570  0.011670  1.0  -0.3214
  N  N396  1  0.412530  0.943530  0.059670  1.0  -0.3083
  O  O397  1  0.333850  0.328900  0.757300  1.0  -0.4761
  O  O398  1  0.000520  0.662230  0.090630  1.0  -0.4761
  O  O399  1  0.667180  0.995570  0.423970  1.0  -0.4761
  O  O400  1  0.671100  0.004950  0.757300  1.0  -0.4748
  O  O401  1  0.337770  0.338280  0.090630  1.0  -0.4748
  O  O402  1  0.004430  0.671620  0.423970  1.0  -0.4748
  O  O403  1  0.995050  0.666150  0.757300  1.0  -0.4744
  O  O404  1  0.661720  0.999480  0.090630  1.0  -0.4744
  O  O405  1  0.328380  0.332820  0.423970  1.0  -0.4744
  O  O406  1  0.666150  0.671100  0.242700  1.0  -0.4752
  O  O407  1  0.332820  0.004430  0.576030  1.0  -0.4752
  O  O408  1  0.999480  0.337770  0.909370  1.0  -0.4752
  O  O409  1  0.328900  0.995050  0.242700  1.0  -0.4755
  O  O410  1  0.995570  0.328380  0.576030  1.0  -0.4755
  O  O411  1  0.662230  0.661720  0.909370  1.0  -0.4755
  O  O412  1  0.004950  0.333850  0.242700  1.0  -0.4743
  O  O413  1  0.671620  0.667180  0.576030  1.0  -0.4743
  O  O414  1  0.338280  0.000520  0.909370  1.0  -0.4743
