# generated using pymatgen
data_AgH8C11N2O
_symmetry_space_group_name_H-M   'P 1'
_cell_length_a   34.53300000
_cell_length_b   34.53300000
_cell_length_c   8.47300000
_cell_angle_alpha   90.00000000
_cell_angle_beta   90.00000000
_cell_angle_gamma   120.00000000
_symmetry_Int_Tables_number   1
_chemical_formula_structural   AgH8C11N2O
_chemical_formula_sum   'Ag18 H144 C198 N36 O18'
_cell_volume   8750.57225857
_cell_formula_units_Z   18
loop_
 _symmetry_equiv_pos_site_id
 _symmetry_equiv_pos_as_xyz
  1  'x, y, z'
loop_
 _atom_site_type_symbol
 _atom_site_label
 _atom_site_symmetry_multiplicity
 _atom_site_fract_x
 _atom_site_fract_y
 _atom_site_fract_z
 _atom_site_occupancy
 _atom_site_charge
  Ag  Ag1  1  0.145180  0.317740  0.505810  1.0  0.1905
  Ag  Ag2  1  0.682260  0.827440  0.505810  1.0  0.191
  Ag  Ag3  1  0.172560  0.854820  0.505810  1.0  0.1922
  Ag  Ag4  1  0.854820  0.682260  0.494190  1.0  0.191
  Ag  Ag5  1  0.317740  0.172560  0.494190  1.0  0.1898
  Ag  Ag6  1  0.827440  0.145180  0.494190  1.0  0.1878
  Ag  Ag7  1  0.811850  0.651070  0.839140  1.0  0.1905
  Ag  Ag8  1  0.348930  0.160770  0.839140  1.0  0.191
  Ag  Ag9  1  0.839230  0.188150  0.839140  1.0  0.1922
  Ag  Ag10  1  0.521490  0.015590  0.827520  1.0  0.191
  Ag  Ag11  1  0.984410  0.505890  0.827520  1.0  0.1898
  Ag  Ag12  1  0.494110  0.478510  0.827520  1.0  0.1878
  Ag  Ag13  1  0.478510  0.984410  0.172480  1.0  0.1905
  Ag  Ag14  1  0.015590  0.494110  0.172480  1.0  0.191
  Ag  Ag15  1  0.505890  0.521490  0.172480  1.0  0.1922
  Ag  Ag16  1  0.188150  0.348930  0.160860  1.0  0.191
  Ag  Ag17  1  0.651070  0.839230  0.160860  1.0  0.1898
  Ag  Ag18  1  0.160770  0.811850  0.160860  1.0  0.1878
  H  H19  1  0.201500  0.387400  0.754200  1.0  0.0679
  H  H20  1  0.263800  0.412800  0.911800  1.0  0.0976
  H  H21  1  0.305700  0.377900  0.901600  1.0  0.0949
  H  H22  1  0.218400  0.292400  0.587100  1.0  0.0686
  H  H23  1  0.212500  0.239200  0.831700  1.0  0.1098
  H  H24  1  0.184000  0.163300  0.791600  1.0  0.0928
  H  H25  1  0.224700  0.138900  0.652100  1.0  0.0566
  H  H26  1  0.321700  0.260900  0.590200  1.0  0.0684
  H  H27  1  0.612600  0.814100  0.754200  1.0  0.0668
  H  H28  1  0.587200  0.851000  0.911800  1.0  0.0976
  H  H29  1  0.622100  0.927800  0.901600  1.0  0.0959
  H  H30  1  0.707600  0.926000  0.587100  1.0  0.0675
  H  H31  1  0.760800  0.973300  0.831700  1.0  0.11
  H  H32  1  0.836700  0.020700  0.791600  1.0  0.0938
  H  H33  1  0.861100  0.085800  0.652100  1.0  0.0594
  H  H34  1  0.739100  0.060800  0.590200  1.0  0.0678
  H  H35  1  0.185900  0.798500  0.754200  1.0  0.068
  H  H36  1  0.149000  0.736200  0.911800  1.0  0.098
  H  H37  1  0.072200  0.694300  0.901600  1.0  0.0951
  H  H38  1  0.074000  0.781600  0.587100  1.0  0.0672
  H  H39  1  0.026700  0.787500  0.831700  1.0  0.111
  H  H40  1  0.979300  0.816000  0.791600  1.0  0.0941
  H  H41  1  0.914200  0.775300  0.652100  1.0  0.0592
  H  H42  1  0.939200  0.678300  0.590200  1.0  0.0683
  H  H43  1  0.798500  0.612600  0.245800  1.0  0.0666
  H  H44  1  0.736200  0.587200  0.088200  1.0  0.0982
  H  H45  1  0.694300  0.622100  0.098400  1.0  0.0946
  H  H46  1  0.781600  0.707600  0.412900  1.0  0.0678
  H  H47  1  0.787500  0.760800  0.168300  1.0  0.1089
  H  H48  1  0.816000  0.836700  0.208400  1.0  0.0934
  H  H49  1  0.775300  0.861100  0.347900  1.0  0.0557
  H  H50  1  0.678300  0.739100  0.409800  1.0  0.0679
  H  H51  1  0.387400  0.185900  0.245800  1.0  0.0662
  H  H52  1  0.412800  0.149000  0.088200  1.0  0.0986
  H  H53  1  0.377900  0.072200  0.098400  1.0  0.0968
  H  H54  1  0.292400  0.074000  0.412900  1.0  0.0679
  H  H55  1  0.239200  0.026700  0.168300  1.0  0.1102
  H  H56  1  0.163300  0.979300  0.208400  1.0  0.0922
  H  H57  1  0.138900  0.914200  0.347900  1.0  0.0595
  H  H58  1  0.260900  0.939200  0.409800  1.0  0.0681
  H  H59  1  0.814100  0.201500  0.245800  1.0  0.0681
  H  H60  1  0.851000  0.263800  0.088200  1.0  0.0982
  H  H61  1  0.927800  0.305700  0.098400  1.0  0.0952
  H  H62  1  0.926000  0.218400  0.412900  1.0  0.0674
  H  H63  1  0.973300  0.212500  0.168300  1.0  0.1112
  H  H64  1  0.020700  0.184000  0.208400  1.0  0.0945
  H  H65  1  0.085800  0.224700  0.347900  1.0  0.0585
  H  H66  1  0.060800  0.321700  0.409800  1.0  0.0685
  H  H67  1  0.868170  0.720730  0.087530  1.0  0.0679
  H  H68  1  0.930470  0.746130  0.245130  1.0  0.0976
  H  H69  1  0.972370  0.711230  0.234930  1.0  0.0949
  H  H70  1  0.885070  0.625730  0.920430  1.0  0.0686
  H  H71  1  0.879170  0.572530  0.165030  1.0  0.1098
  H  H72  1  0.850670  0.496630  0.124930  1.0  0.0928
  H  H73  1  0.891370  0.472230  0.985430  1.0  0.0566
  H  H74  1  0.988370  0.594230  0.923530  1.0  0.0684
  H  H75  1  0.279270  0.147430  0.087530  1.0  0.0668
  H  H76  1  0.253870  0.184330  0.245130  1.0  0.0976
  H  H77  1  0.288770  0.261130  0.234930  1.0  0.0959
  H  H78  1  0.374270  0.259330  0.920430  1.0  0.0675
  H  H79  1  0.427470  0.306630  0.165030  1.0  0.11
  H  H80  1  0.503370  0.354030  0.124930  1.0  0.0928
  H  H81  1  0.527770  0.419130  0.985430  1.0  0.0594
  H  H82  1  0.405770  0.394130  0.923530  1.0  0.0678
  H  H83  1  0.852570  0.131830  0.087530  1.0  0.068
  H  H84  1  0.815670  0.069530  0.245130  1.0  0.098
  H  H85  1  0.738870  0.027630  0.234930  1.0  0.0951
  H  H86  1  0.740670  0.114930  0.920430  1.0  0.0672
  H  H87  1  0.693370  0.120830  0.165030  1.0  0.111
  H  H88  1  0.645970  0.149330  0.124930  1.0  0.0931
  H  H89  1  0.580870  0.108630  0.985430  1.0  0.0592
  H  H90  1  0.605870  0.011630  0.923530  1.0  0.0684
  H  H91  1  0.465170  0.945930  0.579130  1.0  0.0666
  H  H92  1  0.402870  0.920530  0.421530  1.0  0.0982
  H  H93  1  0.360970  0.955430  0.431730  1.0  0.0946
  H  H94  1  0.448270  0.040930  0.746230  1.0  0.0678
  H  H95  1  0.454170  0.094130  0.501630  1.0  0.1091
  H  H96  1  0.482670  0.170030  0.541730  1.0  0.0934
  H  H97  1  0.441970  0.194430  0.681230  1.0  0.0557
  H  H98  1  0.344970  0.072430  0.743130  1.0  0.0681
  H  H99  1  0.054070  0.519230  0.579130  1.0  0.0662
  H  H100  1  0.079470  0.482330  0.421530  1.0  0.0985
  H  H101  1  0.044570  0.405530  0.431730  1.0  0.0968
  H  H102  1  0.959070  0.407330  0.746230  1.0  0.0679
  H  H103  1  0.905870  0.360030  0.501630  1.0  0.1101
  H  H104  1  0.829970  0.312630  0.541730  1.0  0.0918
  H  H105  1  0.805570  0.247530  0.681230  1.0  0.0595
  H  H106  1  0.927570  0.272530  0.743130  1.0  0.0681
  H  H107  1  0.480770  0.534830  0.579130  1.0  0.0682
  H  H108  1  0.517670  0.597130  0.421530  1.0  0.0982
  H  H109  1  0.594470  0.639030  0.431730  1.0  0.0952
  H  H110  1  0.592670  0.551730  0.746230  1.0  0.0674
  H  H111  1  0.639970  0.545830  0.501630  1.0  0.1112
  H  H112  1  0.687370  0.517330  0.541730  1.0  0.0934
  H  H113  1  0.752470  0.558030  0.681230  1.0  0.0585
  H  H114  1  0.727470  0.655030  0.743130  1.0  0.0685
  H  H115  1  0.534830  0.054070  0.420870  1.0  0.0679
  H  H116  1  0.597130  0.079470  0.578470  1.0  0.0976
  H  H117  1  0.639030  0.044570  0.568270  1.0  0.0949
  H  H118  1  0.551730  0.959070  0.253770  1.0  0.0686
  H  H119  1  0.545830  0.905870  0.498370  1.0  0.1099
  H  H120  1  0.517330  0.829970  0.458270  1.0  0.0928
  H  H121  1  0.558030  0.805570  0.318770  1.0  0.0566
  H  H122  1  0.655030  0.927570  0.256870  1.0  0.0683
  H  H123  1  0.945930  0.480770  0.420870  1.0  0.0668
  H  H124  1  0.920530  0.517670  0.578470  1.0  0.0976
  H  H125  1  0.955430  0.594470  0.568270  1.0  0.0959
  H  H126  1  0.040930  0.592670  0.253770  1.0  0.0675
  H  H127  1  0.094130  0.639970  0.498370  1.0  0.11
  H  H128  1  0.170030  0.687370  0.458270  1.0  0.0928
  H  H129  1  0.194430  0.752470  0.318770  1.0  0.0594
  H  H130  1  0.072430  0.727470  0.256870  1.0  0.0678
  H  H131  1  0.519230  0.465170  0.420870  1.0  0.068
  H  H132  1  0.482330  0.402870  0.578470  1.0  0.098
  H  H133  1  0.405530  0.360970  0.568270  1.0  0.0951
  H  H134  1  0.407330  0.448270  0.253770  1.0  0.0672
  H  H135  1  0.360030  0.454170  0.498370  1.0  0.111
  H  H136  1  0.312630  0.482670  0.458270  1.0  0.0931
  H  H137  1  0.247530  0.441970  0.318770  1.0  0.0592
  H  H138  1  0.272530  0.344970  0.256870  1.0  0.0683
  H  H139  1  0.131830  0.279270  0.912470  1.0  0.0666
  H  H140  1  0.069530  0.253870  0.754870  1.0  0.0982
  H  H141  1  0.027630  0.288770  0.765070  1.0  0.0946
  H  H142  1  0.114930  0.374270  0.079570  1.0  0.0678
  H  H143  1  0.120830  0.427470  0.834970  1.0  0.1091
  H  H144  1  0.149330  0.503370  0.875070  1.0  0.0934
  H  H145  1  0.108630  0.527770  0.014570  1.0  0.0557
  H  H146  1  0.011630  0.405770  0.076470  1.0  0.0682
  H  H147  1  0.720730  0.852570  0.912470  1.0  0.0662
  H  H148  1  0.746130  0.815670  0.754870  1.0  0.0986
  H  H149  1  0.711230  0.738870  0.765070  1.0  0.0968
  H  H150  1  0.625730  0.740670  0.079570  1.0  0.0679
  H  H151  1  0.572530  0.693370  0.834970  1.0  0.1101
  H  H152  1  0.496630  0.645970  0.875070  1.0  0.0918
  H  H153  1  0.472230  0.580870  0.014570  1.0  0.0595
  H  H154  1  0.594230  0.605870  0.076470  1.0  0.0681
  H  H155  1  0.147430  0.868170  0.912470  1.0  0.0681
  H  H156  1  0.184330  0.930470  0.754870  1.0  0.0982
  H  H157  1  0.261130  0.972370  0.765070  1.0  0.0952
  H  H158  1  0.259330  0.885070  0.079570  1.0  0.0674
  H  H159  1  0.306630  0.879170  0.834970  1.0  0.1112
  H  H160  1  0.354030  0.850670  0.875070  1.0  0.0934
  H  H161  1  0.419130  0.891370  0.014570  1.0  0.0585
  H  H162  1  0.394130  0.988370  0.076470  1.0  0.0686
  C  C163  1  0.218100  0.372800  0.750800  1.0  0.1286
  C  C164  1  0.255500  0.388400  0.845600  1.0  -0.1421
  C  C165  1  0.280000  0.367500  0.840800  1.0  0.0104
  C  C166  1  0.266000  0.330100  0.743800  1.0  -0.0839
  C  C167  1  0.228000  0.317100  0.652800  1.0  0.1607
  C  C168  1  0.292800  0.307400  0.734400  1.0  0.3027
  C  C169  1  0.270500  0.258500  0.708600  1.0  -0.0522
  C  C170  1  0.228400  0.228800  0.774400  1.0  -0.159
  C  C171  1  0.211800  0.184000  0.750800  1.0  -0.1592
  C  C172  1  0.236500  0.169400  0.666200  1.0  0.1269
  C  C173  1  0.293300  0.241200  0.628600  1.0  0.131
  C  C174  1  0.627200  0.845300  0.750800  1.0  0.1275
  C  C175  1  0.611600  0.867100  0.845600  1.0  -0.1425
  C  C176  1  0.632500  0.912500  0.840800  1.0  0.0111
  C  C177  1  0.669900  0.935900  0.743800  1.0  -0.0824
  C  C178  1  0.682900  0.910900  0.652800  1.0  0.1624
  C  C179  1  0.692600  0.985400  0.734400  1.0  0.3031
  C  C180  1  0.741500  0.012000  0.708600  1.0  -0.0518
  C  C181  1  0.771200  0.999600  0.774400  1.0  -0.1619
  C  C182  1  0.816000  0.027800  0.750800  1.0  -0.1592
  C  C183  1  0.830600  0.067100  0.666200  1.0  0.1239
  C  C184  1  0.758800  0.052100  0.628600  1.0  0.1302
  C  C185  1  0.154700  0.781900  0.750800  1.0  0.1309
  C  C186  1  0.132900  0.744500  0.845600  1.0  -0.1428
  C  C187  1  0.087500  0.720000  0.840800  1.0  0.0101
  C  C188  1  0.064100  0.734000  0.743800  1.0  -0.0824
  C  C189  1  0.089100  0.772000  0.652800  1.0  0.1597
  C  C190  1  0.014600  0.707200  0.734400  1.0  0.309
  C  C191  1  0.988000  0.729500  0.708600  1.0  -0.0525
  C  C192  1  0.000400  0.771600  0.774400  1.0  -0.1617
  C  C193  1  0.972200  0.788200  0.750800  1.0  -0.1541
  C  C194  1  0.932900  0.763500  0.666200  1.0  0.1237
  C  C195  1  0.947900  0.706700  0.628600  1.0  0.1299
  C  C196  1  0.781900  0.627200  0.249200  1.0  0.1297
  C  C197  1  0.744500  0.611600  0.154400  1.0  -0.1426
  C  C198  1  0.720000  0.632500  0.159200  1.0  0.0112
  C  C199  1  0.734000  0.669900  0.256200  1.0  -0.083
  C  C200  1  0.772000  0.682900  0.347200  1.0  0.1609
  C  C201  1  0.707200  0.692600  0.265600  1.0  0.3062
  C  C202  1  0.729500  0.741500  0.291400  1.0  -0.0514
  C  C203  1  0.771600  0.771200  0.225600  1.0  -0.1607
  C  C204  1  0.788200  0.816000  0.249200  1.0  -0.1567
  C  C205  1  0.763500  0.830600  0.333800  1.0  0.1272
  C  C206  1  0.706700  0.758800  0.371400  1.0  0.1318
  C  C207  1  0.372800  0.154700  0.249200  1.0  0.1279
  C  C208  1  0.388400  0.132900  0.154400  1.0  -0.1433
  C  C209  1  0.367500  0.087500  0.159200  1.0  0.0121
  C  C210  1  0.330100  0.064100  0.256200  1.0  -0.0829
  C  C211  1  0.317100  0.089100  0.347200  1.0  0.1626
  C  C212  1  0.307400  0.014600  0.265600  1.0  0.3025
  C  C213  1  0.258500  0.988000  0.291400  1.0  -0.0525
  C  C214  1  0.228800  0.000400  0.225600  1.0  -0.1621
  C  C215  1  0.184000  0.972200  0.249200  1.0  -0.1598
  C  C216  1  0.169400  0.932900  0.333800  1.0  0.1241
  C  C217  1  0.241200  0.947900  0.371400  1.0  0.1309
  C  C218  1  0.845300  0.218100  0.249200  1.0  0.1314
  C  C219  1  0.867100  0.255500  0.154400  1.0  -0.145
  C  C220  1  0.912500  0.280000  0.159200  1.0  0.0117
  C  C221  1  0.935900  0.266000  0.256200  1.0  -0.0831
  C  C222  1  0.910900  0.228000  0.347200  1.0  0.1588
  C  C223  1  0.985400  0.292800  0.265600  1.0  0.3055
  C  C224  1  0.012000  0.270500  0.291400  1.0  -0.0522
  C  C225  1  0.999600  0.228400  0.225600  1.0  -0.1629
  C  C226  1  0.027800  0.211800  0.249200  1.0  -0.1568
  C  C227  1  0.067100  0.236500  0.333800  1.0  0.1238
  C  C228  1  0.052100  0.293300  0.371400  1.0  0.1314
  C  C229  1  0.884770  0.706130  0.084130  1.0  0.1286
  C  C230  1  0.922170  0.721730  0.178930  1.0  -0.1421
  C  C231  1  0.946670  0.700830  0.174130  1.0  0.0104
  C  C232  1  0.932670  0.663430  0.077130  1.0  -0.0839
  C  C233  1  0.894670  0.650430  0.986130  1.0  0.1607
  C  C234  1  0.959470  0.640730  0.067730  1.0  0.3025
  C  C235  1  0.937170  0.591830  0.041930  1.0  -0.0522
  C  C236  1  0.895070  0.562130  0.107730  1.0  -0.1591
  C  C237  1  0.878470  0.517330  0.084130  1.0  -0.1592
  C  C238  1  0.903170  0.502730  0.999530  1.0  0.127
  C  C239  1  0.959970  0.574530  0.961930  1.0  0.1312
  C  C240  1  0.293870  0.178630  0.084130  1.0  0.1275
  C  C241  1  0.278270  0.200430  0.178930  1.0  -0.1425
  C  C242  1  0.299170  0.245830  0.174130  1.0  0.0111
  C  C243  1  0.336570  0.269230  0.077130  1.0  -0.0824
  C  C244  1  0.349570  0.244230  0.986130  1.0  0.1622
  C  C245  1  0.359270  0.318730  0.067730  1.0  0.3032
  C  C246  1  0.408170  0.345330  0.041930  1.0  -0.052
  C  C247  1  0.437870  0.332930  0.107730  1.0  -0.1619
  C  C248  1  0.482670  0.361130  0.084130  1.0  -0.1592
  C  C249  1  0.497270  0.400430  0.999530  1.0  0.1238
  C  C250  1  0.425470  0.385430  0.961930  1.0  0.1301
  C  C251  1  0.821370  0.115230  0.084130  1.0  0.1309
  C  C252  1  0.799570  0.077830  0.178930  1.0  -0.1428
  C  C253  1  0.754170  0.053330  0.174130  1.0  0.0101
  C  C254  1  0.730770  0.067330  0.077130  1.0  -0.0829
  C  C255  1  0.755770  0.105330  0.986130  1.0  0.1597
  C  C256  1  0.681270  0.040530  0.067730  1.0  0.3056
  C  C257  1  0.654670  0.062830  0.041930  1.0  -0.0523
  C  C258  1  0.667070  0.104930  0.107730  1.0  -0.1617
  C  C259  1  0.638870  0.121530  0.084130  1.0  -0.1541
  C  C260  1  0.599570  0.096830  0.999530  1.0  0.1237
  C  C261  1  0.614570  0.040030  0.961930  1.0  0.1297
  C  C262  1  0.448570  0.960530  0.582530  1.0  0.1297
  C  C263  1  0.411170  0.944930  0.487730  1.0  -0.1427
  C  C264  1  0.386670  0.965830  0.492530  1.0  0.0113
  C  C265  1  0.400670  0.003230  0.589530  1.0  -0.0834
  C  C266  1  0.438670  0.016230  0.680530  1.0  0.1607
  C  C267  1  0.373870  0.025930  0.598930  1.0  0.3027
  C  C268  1  0.396170  0.074830  0.624730  1.0  -0.0514
  C  C269  1  0.438270  0.104530  0.558930  1.0  -0.1607
  C  C270  1  0.454870  0.149330  0.582530  1.0  -0.1567
  C  C271  1  0.430170  0.163930  0.667130  1.0  0.1272
  C  C272  1  0.373370  0.092130  0.704730  1.0  0.1317
  C  C273  1  0.039470  0.488030  0.582530  1.0  0.1279
  C  C274  1  0.055070  0.466230  0.487730  1.0  -0.1433
  C  C275  1  0.034170  0.420830  0.492530  1.0  0.0121
  C  C276  1  0.996770  0.397430  0.589530  1.0  -0.0829
  C  C277  1  0.983770  0.422430  0.680530  1.0  0.1625
  C  C278  1  0.974070  0.347930  0.598930  1.0  0.3023
  C  C279  1  0.925170  0.321330  0.624730  1.0  -0.0525
  C  C280  1  0.895470  0.333730  0.558930  1.0  -0.1622
  C  C281  1  0.850670  0.305530  0.582530  1.0  -0.1598
  C  C282  1  0.836070  0.266230  0.667130  1.0  0.1241
  C  C283  1  0.907870  0.281230  0.704730  1.0  0.1309
  C  C284  1  0.511970  0.551430  0.582530  1.0  0.1315
  C  C285  1  0.533770  0.588830  0.487730  1.0  -0.1451
  C  C286  1  0.579170  0.613330  0.492530  1.0  0.0117
  C  C287  1  0.602570  0.599330  0.589530  1.0  -0.0826
  C  C288  1  0.577570  0.561330  0.680530  1.0  0.159
  C  C289  1  0.652070  0.626130  0.598930  1.0  0.3089
  C  C290  1  0.678670  0.603830  0.624730  1.0  -0.0524
  C  C291  1  0.666270  0.561730  0.558930  1.0  -0.1629
  C  C292  1  0.694470  0.545130  0.582530  1.0  -0.1568
  C  C293  1  0.733770  0.569830  0.667130  1.0  0.1238
  C  C294  1  0.718770  0.626630  0.704730  1.0  0.1346
  C  C295  1  0.551430  0.039470  0.417470  1.0  0.1286
  C  C296  1  0.588830  0.055070  0.512270  1.0  -0.1421
  C  C297  1  0.613330  0.034170  0.507470  1.0  0.0104
  C  C298  1  0.599330  0.996770  0.410470  1.0  -0.0835
  C  C299  1  0.561330  0.983770  0.319470  1.0  0.1608
  C  C300  1  0.626130  0.974070  0.401070  1.0  0.3063
  C  C301  1  0.603830  0.925170  0.375270  1.0  -0.0524
  C  C302  1  0.561730  0.895470  0.441070  1.0  -0.1589
  C  C303  1  0.545130  0.850670  0.417470  1.0  -0.1592
  C  C304  1  0.569830  0.836070  0.332870  1.0  0.1269
  C  C305  1  0.626630  0.907870  0.295270  1.0  0.131
  C  C306  1  0.960530  0.511970  0.417470  1.0  0.1275
  C  C307  1  0.944930  0.533770  0.512270  1.0  -0.1425
  C  C308  1  0.965830  0.579170  0.507470  1.0  0.0111
  C  C309  1  0.003230  0.602570  0.410470  1.0  -0.0824
  C  C310  1  0.016230  0.577570  0.319470  1.0  0.1624
  C  C311  1  0.025930  0.652070  0.401070  1.0  0.3032
  C  C312  1  0.074830  0.678670  0.375270  1.0  -0.0518
  C  C313  1  0.104530  0.666270  0.441070  1.0  -0.1619
  C  C314  1  0.149330  0.694470  0.417470  1.0  -0.1592
  C  C315  1  0.163930  0.733770  0.332870  1.0  0.1238
  C  C316  1  0.092130  0.718770  0.295270  1.0  0.1301
  C  C317  1  0.488030  0.448570  0.417470  1.0  0.1309
  C  C318  1  0.466230  0.411170  0.512270  1.0  -0.1429
  C  C319  1  0.420830  0.386670  0.507470  1.0  0.0101
  C  C320  1  0.397430  0.400670  0.410470  1.0  -0.0829
  C  C321  1  0.422430  0.438670  0.319470  1.0  0.1599
  C  C322  1  0.347930  0.373870  0.401070  1.0  0.3057
  C  C323  1  0.321330  0.396170  0.375270  1.0  -0.0523
  C  C324  1  0.333730  0.438270  0.441070  1.0  -0.1617
  C  C325  1  0.305530  0.454870  0.417470  1.0  -0.1541
  C  C326  1  0.266230  0.430170  0.332870  1.0  0.1237
  C  C327  1  0.281230  0.373370  0.295270  1.0  0.1322
  C  C328  1  0.115230  0.293870  0.915870  1.0  0.1297
  C  C329  1  0.077830  0.278270  0.821070  1.0  -0.1427
  C  C330  1  0.053330  0.299170  0.825870  1.0  0.0114
  C  C331  1  0.067330  0.336570  0.922870  1.0  -0.0834
  C  C332  1  0.105330  0.349570  0.013870  1.0  0.1608
  C  C333  1  0.040530  0.359270  0.932270  1.0  0.3027
  C  C334  1  0.062830  0.408170  0.958070  1.0  -0.0514
  C  C335  1  0.104930  0.437870  0.892270  1.0  -0.1609
  C  C336  1  0.121530  0.482670  0.915870  1.0  -0.1567
  C  C337  1  0.096830  0.497270  0.000470  1.0  0.1272
  C  C338  1  0.040030  0.425470  0.038070  1.0  0.1317
  C  C339  1  0.706130  0.821370  0.915870  1.0  0.1279
  C  C340  1  0.721730  0.799570  0.821070  1.0  -0.1433
  C  C341  1  0.700830  0.754170  0.825870  1.0  0.0121
  C  C342  1  0.663430  0.730770  0.922870  1.0  -0.0829
  C  C343  1  0.650430  0.755770  0.013870  1.0  0.1627
  C  C344  1  0.640730  0.681270  0.932270  1.0  0.3025
  C  C345  1  0.591830  0.654670  0.958070  1.0  -0.0524
  C  C346  1  0.562130  0.667070  0.892270  1.0  -0.1621
  C  C347  1  0.517330  0.638870  0.915870  1.0  -0.1598
  C  C348  1  0.502730  0.599570  0.000470  1.0  0.1242
  C  C349  1  0.574530  0.614570  0.038070  1.0  0.1309
  C  C350  1  0.178630  0.884770  0.915870  1.0  0.1314
  C  C351  1  0.200430  0.922170  0.821070  1.0  -0.145
  C  C352  1  0.245830  0.946670  0.825870  1.0  0.0117
  C  C353  1  0.269230  0.932670  0.922870  1.0  -0.0831
  C  C354  1  0.244230  0.894670  0.013870  1.0  0.1588
  C  C355  1  0.318730  0.959470  0.932270  1.0  0.3054
  C  C356  1  0.345330  0.937170  0.958070  1.0  -0.0522
  C  C357  1  0.332930  0.895070  0.892270  1.0  -0.1629
  C  C358  1  0.361130  0.878470  0.915870  1.0  -0.1568
  C  C359  1  0.400430  0.903170  0.000470  1.0  0.1238
  C  C360  1  0.385430  0.959970  0.038070  1.0  0.1314
  N  N361  1  0.204700  0.337800  0.654700  1.0  -0.3243
  N  N362  1  0.276500  0.197500  0.603600  1.0  -0.3191
  N  N363  1  0.662200  0.866900  0.654700  1.0  -0.3246
  N  N364  1  0.802500  0.079000  0.603600  1.0  -0.3103
  N  N365  1  0.133100  0.795300  0.654700  1.0  -0.3235
  N  N366  1  0.921000  0.723500  0.603600  1.0  -0.3156
  N  N367  1  0.795300  0.662200  0.345300  1.0  -0.3223
  N  N368  1  0.723500  0.802500  0.396400  1.0  -0.3153
  N  N369  1  0.337800  0.133100  0.345300  1.0  -0.3229
  N  N370  1  0.197500  0.921000  0.396400  1.0  -0.3094
  N  N371  1  0.866900  0.204700  0.345300  1.0  -0.3235
  N  N372  1  0.079000  0.276500  0.396400  1.0  -0.314
  N  N373  1  0.871370  0.671130  0.988030  1.0  -0.3243
  N  N374  1  0.943170  0.530830  0.936930  1.0  -0.319
  N  N375  1  0.328870  0.200230  0.988030  1.0  -0.3246
  N  N376  1  0.469170  0.412330  0.936930  1.0  -0.3103
  N  N377  1  0.799770  0.128630  0.988030  1.0  -0.3235
  N  N378  1  0.587670  0.056830  0.936930  1.0  -0.3155
  N  N379  1  0.461970  0.995530  0.678630  1.0  -0.3223
  N  N380  1  0.390170  0.135830  0.729730  1.0  -0.3153
  N  N381  1  0.004470  0.466430  0.678630  1.0  -0.3228
  N  N382  1  0.864170  0.254330  0.729730  1.0  -0.3094
  N  N383  1  0.533570  0.538030  0.678630  1.0  -0.3236
  N  N384  1  0.745670  0.609830  0.729730  1.0  -0.3141
  N  N385  1  0.538030  0.004470  0.321370  1.0  -0.3243
  N  N386  1  0.609830  0.864170  0.270270  1.0  -0.3192
  N  N387  1  0.995530  0.533570  0.321370  1.0  -0.3245
  N  N388  1  0.135830  0.745670  0.270270  1.0  -0.3103
  N  N389  1  0.466430  0.461970  0.321370  1.0  -0.3235
  N  N390  1  0.254330  0.390170  0.270270  1.0  -0.3156
  N  N391  1  0.128630  0.328870  0.011970  1.0  -0.3223
  N  N392  1  0.056830  0.469170  0.063070  1.0  -0.3153
  N  N393  1  0.671130  0.799770  0.011970  1.0  -0.3229
  N  N394  1  0.530830  0.587670  0.063070  1.0  -0.3094
  N  N395  1  0.200230  0.871370  0.011970  1.0  -0.3235
  N  N396  1  0.412330  0.943170  0.063070  1.0  -0.3141
  O  O397  1  0.333280  0.328800  0.751600  1.0  -0.4767
  O  O398  1  0.671200  0.004480  0.751600  1.0  -0.4753
  O  O399  1  0.995520  0.666667  0.751600  1.0  -0.4745
  O  O400  1  0.666667  0.671200  0.248400  1.0  -0.477
  O  O401  1  0.328800  0.995520  0.248400  1.0  -0.4764
  O  O402  1  0.004480  0.333280  0.248400  1.0  -0.4742
  O  O403  1  0.999950  0.662130  0.084930  1.0  -0.4767
  O  O404  1  0.337870  0.337810  0.084930  1.0  -0.4752
  O  O405  1  0.662190  0.000050  0.084930  1.0  -0.4741
  O  O406  1  0.333390  0.004530  0.581730  1.0  -0.4758
  O  O407  1  0.995470  0.328850  0.581730  1.0  -0.4764
  O  O408  1  0.671150  0.666667  0.581730  1.0  -0.4752
  O  O409  1  0.666667  0.995470  0.418270  1.0  -0.478
  O  O410  1  0.004530  0.671150  0.418270  1.0  -0.4753
  O  O411  1  0.328850  0.333390  0.418270  1.0  -0.474
  O  O412  1  0.000050  0.337870  0.915070  1.0  -0.4759
  O  O413  1  0.662130  0.662190  0.915070  1.0  -0.4763
  O  O414  1  0.337810  0.999950  0.915070  1.0  -0.4742
