# generated using pymatgen
data_AgH8C11N2O
_symmetry_space_group_name_H-M   'P 1'
_cell_length_a   34.56190000
_cell_length_b   34.56190000
_cell_length_c   8.33430000
_cell_angle_alpha   90.00000000
_cell_angle_beta   90.00000000
_cell_angle_gamma   120.00000000
_symmetry_Int_Tables_number   1
_chemical_formula_structural   AgH8C11N2O
_chemical_formula_sum   'Ag18 H144 C198 N36 O18'
_cell_volume   8621.74114121
_cell_formula_units_Z   18
loop_
 _symmetry_equiv_pos_site_id
 _symmetry_equiv_pos_as_xyz
  1  'x, y, z'
loop_
 _atom_site_type_symbol
 _atom_site_label
 _atom_site_symmetry_multiplicity
 _atom_site_fract_x
 _atom_site_fract_y
 _atom_site_fract_z
 _atom_site_occupancy
 _atom_site_charge
  Ag  Ag1  1  0.807380  0.150600  0.836470  1.0  0.1928
  Ag  Ag2  1  0.849400  0.656780  0.836470  1.0  0.1931
  Ag  Ag3  1  0.343220  0.192620  0.836470  1.0  0.1926
  Ag  Ag4  1  0.525960  0.516060  0.830200  1.0  0.1936
  Ag  Ag5  1  0.483940  0.009890  0.830200  1.0  0.1934
  Ag  Ag6  1  0.990110  0.474040  0.830200  1.0  0.1936
  Ag  Ag7  1  0.474040  0.483940  0.169800  1.0  0.1928
  Ag  Ag8  1  0.516060  0.990110  0.169800  1.0  0.1931
  Ag  Ag9  1  0.009890  0.525960  0.169800  1.0  0.1926
  Ag  Ag10  1  0.192620  0.849400  0.163530  1.0  0.1936
  Ag  Ag11  1  0.150600  0.343220  0.163530  1.0  0.1934
  Ag  Ag12  1  0.656780  0.807380  0.163530  1.0  0.1936
  Ag  Ag13  1  0.140710  0.817270  0.503140  1.0  0.1928
  Ag  Ag14  1  0.182730  0.323440  0.503140  1.0  0.1931
  Ag  Ag15  1  0.676560  0.859290  0.503140  1.0  0.1926
  Ag  Ag16  1  0.859290  0.182730  0.496860  1.0  0.1936
  Ag  Ag17  1  0.817270  0.676560  0.496860  1.0  0.1934
  Ag  Ag18  1  0.323440  0.140710  0.496860  1.0  0.1936
  H  H19  1  0.883000  0.250500  0.901200  1.0  0.0983
  H  H20  1  0.973300  0.252500  0.215100  1.0  0.1171
  H  H21  1  0.926700  0.174800  0.248000  1.0  0.1122
  H  H22  1  0.862100  0.137600  0.096000  1.0  0.067
  H  H23  1  0.992100  0.385400  0.891200  1.0  0.0723
  H  H24  1  0.885400  0.299700  0.156300  1.0  0.1122
  H  H25  1  0.860700  0.351000  0.149300  1.0  0.1002
  H  H26  1  0.901100  0.417400  0.011000  1.0  0.0791
  H  H27  1  0.749500  0.632500  0.901200  1.0  0.0976
  H  H28  1  0.747500  0.720800  0.215100  1.0  0.1157
  H  H29  1  0.825200  0.751900  0.248000  1.0  0.1131
  H  H30  1  0.862400  0.724500  0.096000  1.0  0.0676
  H  H31  1  0.614600  0.606700  0.891200  1.0  0.0729
  H  H32  1  0.700300  0.585700  0.156300  1.0  0.1122
  H  H33  1  0.649000  0.509700  0.149300  1.0  0.1017
  H  H34  1  0.582600  0.483700  0.011000  1.0  0.078
  H  H35  1  0.367500  0.117000  0.901200  1.0  0.0983
  H  H36  1  0.279200  0.026700  0.215100  1.0  0.1159
  H  H37  1  0.248100  0.073300  0.248000  1.0  0.1124
  H  H38  1  0.275500  0.137900  0.096000  1.0  0.0684
  H  H39  1  0.393300  0.007900  0.891200  1.0  0.0734
  H  H40  1  0.414300  0.114600  0.156300  1.0  0.1119
  H  H41  1  0.490300  0.139300  0.149300  1.0  0.1022
  H  H42  1  0.516300  0.098900  0.011000  1.0  0.0781
  H  H43  1  0.450330  0.416170  0.765470  1.0  0.0982
  H  H44  1  0.360030  0.414170  0.451570  1.0  0.1174
  H  H45  1  0.406630  0.491870  0.418670  1.0  0.1124
  H  H46  1  0.471230  0.529070  0.570670  1.0  0.0663
  H  H47  1  0.341230  0.281270  0.775470  1.0  0.0727
  H  H48  1  0.447930  0.366970  0.510370  1.0  0.112
  H  H49  1  0.472630  0.315670  0.517370  1.0  0.1004
  H  H50  1  0.432230  0.249270  0.655670  1.0  0.0791
  H  H51  1  0.583830  0.034170  0.765470  1.0  0.0974
  H  H52  1  0.585830  0.945870  0.451570  1.0  0.1153
  H  H53  1  0.508130  0.914770  0.418670  1.0  0.1127
  H  H54  1  0.470930  0.942170  0.570670  1.0  0.0681
  H  H55  1  0.718730  0.059970  0.775470  1.0  0.0729
  H  H56  1  0.633030  0.080970  0.510370  1.0  0.1109
  H  H57  1  0.684330  0.156970  0.517370  1.0  0.1022
  H  H58  1  0.750730  0.182970  0.655670  1.0  0.0771
  H  H59  1  0.965830  0.549670  0.765470  1.0  0.0975
  H  H60  1  0.054130  0.639970  0.451570  1.0  0.1159
  H  H61  1  0.085230  0.593370  0.418670  1.0  0.1122
  H  H62  1  0.057830  0.528770  0.570670  1.0  0.0675
  H  H63  1  0.940030  0.658770  0.775470  1.0  0.073
  H  H64  1  0.919030  0.552070  0.510370  1.0  0.1113
  H  H65  1  0.843030  0.527370  0.517370  1.0  0.1023
  H  H66  1  0.817030  0.567770  0.655670  1.0  0.0786
  H  H67  1  0.549670  0.583830  0.234530  1.0  0.0983
  H  H68  1  0.639970  0.585830  0.548430  1.0  0.1171
  H  H69  1  0.593370  0.508130  0.581330  1.0  0.1122
  H  H70  1  0.528770  0.470930  0.429330  1.0  0.067
  H  H71  1  0.658770  0.718730  0.224530  1.0  0.0722
  H  H72  1  0.552070  0.633030  0.489630  1.0  0.1122
  H  H73  1  0.527370  0.684330  0.482630  1.0  0.1002
  H  H74  1  0.567770  0.750730  0.344330  1.0  0.0791
  H  H75  1  0.416170  0.965830  0.234530  1.0  0.0976
  H  H76  1  0.414170  0.054130  0.548430  1.0  0.1157
  H  H77  1  0.491870  0.085230  0.581330  1.0  0.1131
  H  H78  1  0.529070  0.057830  0.429330  1.0  0.0676
  H  H79  1  0.281270  0.940030  0.224530  1.0  0.0729
  H  H80  1  0.366970  0.919030  0.489630  1.0  0.1122
  H  H81  1  0.315670  0.843030  0.482630  1.0  0.1016
  H  H82  1  0.249270  0.817030  0.344330  1.0  0.078
  H  H83  1  0.034170  0.450330  0.234530  1.0  0.0983
  H  H84  1  0.945870  0.360030  0.548430  1.0  0.1159
  H  H85  1  0.914770  0.406630  0.581330  1.0  0.1124
  H  H86  1  0.942170  0.471230  0.429330  1.0  0.0685
  H  H87  1  0.059970  0.341230  0.224530  1.0  0.0736
  H  H88  1  0.080970  0.447930  0.489630  1.0  0.1119
  H  H89  1  0.156970  0.472630  0.482630  1.0  0.1022
  H  H90  1  0.182970  0.432230  0.344330  1.0  0.0781
  H  H91  1  0.117000  0.749500  0.098800  1.0  0.0982
  H  H92  1  0.026700  0.747500  0.784900  1.0  0.1174
  H  H93  1  0.073300  0.825200  0.752000  1.0  0.1124
  H  H94  1  0.137900  0.862400  0.904000  1.0  0.0662
  H  H95  1  0.007900  0.614600  0.108800  1.0  0.0728
  H  H96  1  0.114600  0.700300  0.843700  1.0  0.112
  H  H97  1  0.139300  0.649000  0.850700  1.0  0.1004
  H  H98  1  0.098900  0.582600  0.989000  1.0  0.0791
  H  H99  1  0.250500  0.367500  0.098800  1.0  0.0974
  H  H100  1  0.252500  0.279200  0.784900  1.0  0.1153
  H  H101  1  0.174800  0.248100  0.752000  1.0  0.1127
  H  H102  1  0.137600  0.275500  0.904000  1.0  0.0681
  H  H103  1  0.385400  0.393300  0.108800  1.0  0.0729
  H  H104  1  0.299700  0.414300  0.843700  1.0  0.1109
  H  H105  1  0.351000  0.490300  0.850700  1.0  0.1023
  H  H106  1  0.417400  0.516300  0.989000  1.0  0.0771
  H  H107  1  0.632500  0.883000  0.098800  1.0  0.0975
  H  H108  1  0.720800  0.973300  0.784900  1.0  0.1159
  H  H109  1  0.751900  0.926700  0.752000  1.0  0.1122
  H  H110  1  0.724500  0.862100  0.904000  1.0  0.0676
  H  H111  1  0.606700  0.992100  0.108800  1.0  0.0728
  H  H112  1  0.585700  0.885400  0.843700  1.0  0.1112
  H  H113  1  0.509700  0.860700  0.850700  1.0  0.1023
  H  H114  1  0.483700  0.901100  0.989000  1.0  0.0786
  H  H115  1  0.216330  0.917170  0.567870  1.0  0.0983
  H  H116  1  0.306630  0.919170  0.881770  1.0  0.117
  H  H117  1  0.260030  0.841470  0.914670  1.0  0.1122
  H  H118  1  0.195430  0.804270  0.762670  1.0  0.067
  H  H119  1  0.325430  0.052070  0.557870  1.0  0.0722
  H  H120  1  0.218730  0.966370  0.822970  1.0  0.1122
  H  H121  1  0.194030  0.017670  0.815970  1.0  0.0994
  H  H122  1  0.234430  0.084070  0.677670  1.0  0.0791
  H  H123  1  0.082830  0.299170  0.567870  1.0  0.0977
  H  H124  1  0.080830  0.387470  0.881770  1.0  0.1159
  H  H125  1  0.158530  0.418570  0.914670  1.0  0.1131
  H  H126  1  0.195730  0.391170  0.762670  1.0  0.0676
  H  H127  1  0.947930  0.273370  0.557870  1.0  0.073
  H  H128  1  0.033630  0.252370  0.822970  1.0  0.1123
  H  H129  1  0.982330  0.176370  0.815970  1.0  0.1024
  H  H130  1  0.915930  0.150370  0.677670  1.0  0.078
  H  H131  1  0.700830  0.783670  0.567870  1.0  0.0984
  H  H132  1  0.612530  0.693370  0.881770  1.0  0.1159
  H  H133  1  0.581430  0.739970  0.914670  1.0  0.1124
  H  H134  1  0.608830  0.804570  0.762670  1.0  0.0684
  H  H135  1  0.726630  0.674570  0.557870  1.0  0.0734
  H  H136  1  0.747630  0.781270  0.822970  1.0  0.1119
  H  H137  1  0.823630  0.805970  0.815970  1.0  0.1022
  H  H138  1  0.849630  0.765570  0.677670  1.0  0.0781
  H  H139  1  0.783670  0.082830  0.432130  1.0  0.0982
  H  H140  1  0.693370  0.080830  0.118230  1.0  0.1174
  H  H141  1  0.739970  0.158530  0.085330  1.0  0.1124
  H  H142  1  0.804570  0.195730  0.237330  1.0  0.0662
  H  H143  1  0.674570  0.947930  0.442130  1.0  0.0727
  H  H144  1  0.781270  0.033630  0.177030  1.0  0.112
  H  H145  1  0.805970  0.982330  0.184030  1.0  0.0997
  H  H146  1  0.765570  0.915930  0.322330  1.0  0.0791
  H  H147  1  0.917170  0.700830  0.432130  1.0  0.0974
  H  H148  1  0.919170  0.612530  0.118230  1.0  0.1154
  H  H149  1  0.841470  0.581430  0.085330  1.0  0.1127
  H  H150  1  0.804270  0.608830  0.237330  1.0  0.0681
  H  H151  1  0.052070  0.726630  0.442130  1.0  0.073
  H  H152  1  0.966370  0.747630  0.177030  1.0  0.1109
  H  H153  1  0.017670  0.823630  0.184030  1.0  0.1025
  H  H154  1  0.084070  0.849630  0.322330  1.0  0.0771
  H  H155  1  0.299170  0.216330  0.432130  1.0  0.0976
  H  H156  1  0.387470  0.306630  0.118230  1.0  0.1159
  H  H157  1  0.418570  0.260030  0.085330  1.0  0.1122
  H  H158  1  0.391170  0.195430  0.237330  1.0  0.0675
  H  H159  1  0.273370  0.325430  0.442130  1.0  0.0729
  H  H160  1  0.252370  0.218730  0.177030  1.0  0.1113
  H  H161  1  0.176370  0.194030  0.184030  1.0  0.1023
  H  H162  1  0.150370  0.234430  0.322330  1.0  0.0786
  C  C163  1  0.892700  0.235000  0.969400  1.0  0.1339
  C  C164  1  0.932200  0.258900  0.054100  1.0  -0.0386
  C  C165  1  0.946000  0.236700  0.157700  1.0  -0.0429
  C  C166  1  0.918900  0.190900  0.175100  1.0  -0.1782
  C  C167  1  0.880400  0.169100  0.084400  1.0  0.1337
  C  C168  1  0.962000  0.308500  0.030700  1.0  0.2819
  C  C169  1  0.965000  0.378400  0.944300  1.0  0.1543
  C  C170  1  0.941800  0.337600  0.023000  1.0  -0.1347
  C  C171  1  0.902100  0.327200  0.100900  1.0  -0.113
  C  C172  1  0.887600  0.357300  0.096400  1.0  -0.1551
  C  C173  1  0.912100  0.397100  0.014800  1.0  0.1218
  C  C174  1  0.765000  0.657700  0.969400  1.0  0.1333
  C  C175  1  0.741100  0.673300  0.054100  1.0  -0.0389
  C  C176  1  0.763300  0.709300  0.157700  1.0  -0.0459
  C  C177  1  0.809100  0.728000  0.175100  1.0  -0.177
  C  C178  1  0.830900  0.711300  0.084400  1.0  0.1343
  C  C179  1  0.691500  0.653500  0.030700  1.0  0.2804
  C  C180  1  0.621600  0.586600  0.944300  1.0  0.1556
  C  C181  1  0.662400  0.604200  0.023000  1.0  -0.1346
  C  C182  1  0.672800  0.574900  0.100900  1.0  -0.1075
  C  C183  1  0.642700  0.530300  0.096400  1.0  -0.1507
  C  C184  1  0.602900  0.515000  0.014800  1.0  0.1243
  C  C185  1  0.342300  0.107300  0.969400  1.0  0.1328
  C  C186  1  0.326700  0.067800  0.054100  1.0  -0.0381
  C  C187  1  0.290700  0.054000  0.157700  1.0  -0.0413
  C  C188  1  0.272000  0.081100  0.175100  1.0  -0.1818
  C  C189  1  0.288700  0.119600  0.084400  1.0  0.1372
  C  C190  1  0.346500  0.038000  0.030700  1.0  0.2847
  C  C191  1  0.413400  0.035000  0.944300  1.0  0.1541
  C  C192  1  0.395800  0.058200  0.023000  1.0  -0.1341
  C  C193  1  0.425100  0.097900  0.100900  1.0  -0.1118
  C  C194  1  0.469700  0.112400  0.096400  1.0  -0.1481
  C  C195  1  0.485000  0.087900  0.014800  1.0  0.1239
  C  C196  1  0.440630  0.431670  0.697270  1.0  0.1339
  C  C197  1  0.401130  0.407770  0.612570  1.0  -0.0383
  C  C198  1  0.387330  0.429970  0.508970  1.0  -0.0442
  C  C199  1  0.414430  0.475770  0.491570  1.0  -0.1786
  C  C200  1  0.452930  0.497570  0.582270  1.0  0.1343
  C  C201  1  0.371330  0.358170  0.635970  1.0  0.2818
  C  C202  1  0.368330  0.288270  0.722370  1.0  0.1553
  C  C203  1  0.391530  0.329070  0.643670  1.0  -0.1346
  C  C204  1  0.431230  0.339470  0.565770  1.0  -0.1119
  C  C205  1  0.445730  0.309370  0.570270  1.0  -0.1566
  C  C206  1  0.421230  0.269570  0.651870  1.0  0.1207
  C  C207  1  0.568330  0.008970  0.697270  1.0  0.1341
  C  C208  1  0.592230  0.993370  0.612570  1.0  -0.0396
  C  C209  1  0.570030  0.957370  0.508970  1.0  -0.0448
  C  C210  1  0.524230  0.938670  0.491570  1.0  -0.1788
  C  C211  1  0.502430  0.955370  0.582270  1.0  0.1351
  C  C212  1  0.641830  0.013170  0.635970  1.0  0.2821
  C  C213  1  0.711730  0.080070  0.722370  1.0  0.1555
  C  C214  1  0.670930  0.062470  0.643670  1.0  -0.1346
  C  C215  1  0.660530  0.091770  0.565770  1.0  -0.1107
  C  C216  1  0.690630  0.136370  0.570270  1.0  -0.1522
  C  C217  1  0.730430  0.151670  0.651870  1.0  0.1285
  C  C218  1  0.991030  0.559370  0.697270  1.0  0.1336
  C  C219  1  0.006630  0.598870  0.612570  1.0  -0.0381
  C  C220  1  0.042630  0.612670  0.508970  1.0  -0.0429
  C  C221  1  0.061330  0.585570  0.491570  1.0  -0.1783
  C  C222  1  0.044630  0.547070  0.582270  1.0  0.1372
  C  C223  1  0.986830  0.628670  0.635970  1.0  0.2844
  C  C224  1  0.919930  0.631670  0.722370  1.0  0.1567
  C  C225  1  0.937530  0.608470  0.643670  1.0  -0.1344
  C  C226  1  0.908230  0.568770  0.565770  1.0  -0.1104
  C  C227  1  0.863630  0.554270  0.570270  1.0  -0.1477
  C  C228  1  0.848330  0.578770  0.651870  1.0  0.1231
  C  C229  1  0.559370  0.568330  0.302730  1.0  0.1339
  C  C230  1  0.598870  0.592230  0.387430  1.0  -0.0386
  C  C231  1  0.612670  0.570030  0.491030  1.0  -0.0429
  C  C232  1  0.585570  0.524230  0.508430  1.0  -0.178
  C  C233  1  0.547070  0.502430  0.417730  1.0  0.1336
  C  C234  1  0.628670  0.641830  0.364030  1.0  0.2819
  C  C235  1  0.631670  0.711730  0.277630  1.0  0.1543
  C  C236  1  0.608470  0.670930  0.356330  1.0  -0.1347
  C  C237  1  0.568770  0.660530  0.434230  1.0  -0.113
  C  C238  1  0.554270  0.690630  0.429730  1.0  -0.1551
  C  C239  1  0.578770  0.730430  0.348130  1.0  0.1218
  C  C240  1  0.431670  0.991030  0.302730  1.0  0.1333
  C  C241  1  0.407770  0.006630  0.387430  1.0  -0.0389
  C  C242  1  0.429970  0.042630  0.491030  1.0  -0.0459
  C  C243  1  0.475770  0.061330  0.508430  1.0  -0.1771
  C  C244  1  0.497570  0.044630  0.417730  1.0  0.1344
  C  C245  1  0.358170  0.986830  0.364030  1.0  0.2805
  C  C246  1  0.288270  0.919930  0.277630  1.0  0.1556
  C  C247  1  0.329070  0.937530  0.356330  1.0  -0.1348
  C  C248  1  0.339470  0.908230  0.434230  1.0  -0.1079
  C  C249  1  0.309370  0.863630  0.429730  1.0  -0.1507
  C  C250  1  0.269570  0.848330  0.348130  1.0  0.1242
  C  C251  1  0.008970  0.440630  0.302730  1.0  0.1328
  C  C252  1  0.993370  0.401130  0.387430  1.0  -0.0381
  C  C253  1  0.957370  0.387330  0.491030  1.0  -0.0413
  C  C254  1  0.938670  0.414430  0.508430  1.0  -0.1817
  C  C255  1  0.955370  0.452930  0.417730  1.0  0.1372
  C  C256  1  0.013170  0.371330  0.364030  1.0  0.2846
  C  C257  1  0.080070  0.368330  0.277630  1.0  0.1542
  C  C258  1  0.062470  0.391530  0.356330  1.0  -0.1341
  C  C259  1  0.091770  0.431230  0.434230  1.0  -0.1116
  C  C260  1  0.136370  0.445730  0.429730  1.0  -0.1481
  C  C261  1  0.151670  0.421230  0.348130  1.0  0.1238
  C  C262  1  0.107300  0.765000  0.030600  1.0  0.1339
  C  C263  1  0.067800  0.741100  0.945900  1.0  -0.0383
  C  C264  1  0.054000  0.763300  0.842300  1.0  -0.0442
  C  C265  1  0.081100  0.809100  0.824900  1.0  -0.1788
  C  C266  1  0.119600  0.830900  0.915600  1.0  0.1344
  C  C267  1  0.038000  0.691500  0.969300  1.0  0.2818
  C  C268  1  0.035000  0.621600  0.055700  1.0  0.1553
  C  C269  1  0.058200  0.662400  0.977000  1.0  -0.1346
  C  C270  1  0.097900  0.672800  0.899100  1.0  -0.1119
  C  C271  1  0.112400  0.642700  0.903600  1.0  -0.1566
  C  C272  1  0.087900  0.602900  0.985200  1.0  0.1207
  C  C273  1  0.235000  0.342300  0.030600  1.0  0.1341
  C  C274  1  0.258900  0.326700  0.945900  1.0  -0.0396
  C  C275  1  0.236700  0.290700  0.842300  1.0  -0.0448
  C  C276  1  0.190900  0.272000  0.824900  1.0  -0.1787
  C  C277  1  0.169100  0.288700  0.915600  1.0  0.135
  C  C278  1  0.308500  0.346500  0.969300  1.0  0.2821
  C  C279  1  0.378400  0.413400  0.055700  1.0  0.1555
  C  C280  1  0.337600  0.395800  0.977000  1.0  -0.1344
  C  C281  1  0.327200  0.425100  0.899100  1.0  -0.1103
  C  C282  1  0.357300  0.469700  0.903600  1.0  -0.1522
  C  C283  1  0.397100  0.485000  0.985200  1.0  0.1286
  C  C284  1  0.657700  0.892700  0.030600  1.0  0.1336
  C  C285  1  0.673300  0.932200  0.945900  1.0  -0.0381
  C  C286  1  0.709300  0.946000  0.842300  1.0  -0.0429
  C  C287  1  0.728000  0.918900  0.824900  1.0  -0.1783
  C  C288  1  0.711300  0.880400  0.915600  1.0  0.1372
  C  C289  1  0.653500  0.962000  0.969300  1.0  0.2845
  C  C290  1  0.586600  0.965000  0.055700  1.0  0.1567
  C  C291  1  0.604200  0.941800  0.977000  1.0  -0.1345
  C  C292  1  0.574900  0.902100  0.899100  1.0  -0.1107
  C  C293  1  0.530300  0.887600  0.903600  1.0  -0.1477
  C  C294  1  0.515000  0.912100  0.985200  1.0  0.1231
  C  C295  1  0.226030  0.901670  0.636070  1.0  0.1339
  C  C296  1  0.265530  0.925570  0.720770  1.0  -0.0386
  C  C297  1  0.279330  0.903370  0.824370  1.0  -0.0429
  C  C298  1  0.252230  0.857570  0.841770  1.0  -0.1781
  C  C299  1  0.213730  0.835770  0.751070  1.0  0.1337
  C  C300  1  0.295330  0.975170  0.697370  1.0  0.2821
  C  C301  1  0.298330  0.045070  0.610970  1.0  0.1544
  C  C302  1  0.275130  0.004270  0.689670  1.0  -0.1349
  C  C303  1  0.235430  0.993870  0.767570  1.0  -0.1131
  C  C304  1  0.220930  0.023970  0.763070  1.0  -0.1551
  C  C305  1  0.245430  0.063770  0.681470  1.0  0.1218
  C  C306  1  0.098330  0.324370  0.636070  1.0  0.1333
  C  C307  1  0.074430  0.339970  0.720770  1.0  -0.0389
  C  C308  1  0.096630  0.375970  0.824370  1.0  -0.0459
  C  C309  1  0.142430  0.394670  0.841770  1.0  -0.177
  C  C310  1  0.164230  0.377970  0.751070  1.0  0.1344
  C  C311  1  0.024830  0.320170  0.697370  1.0  0.2803
  C  C312  1  0.954930  0.253270  0.610970  1.0  0.1556
  C  C313  1  0.995730  0.270870  0.689670  1.0  -0.1346
  C  C314  1  0.006130  0.241570  0.767570  1.0  -0.1075
  C  C315  1  0.976030  0.196970  0.763070  1.0  -0.1506
  C  C316  1  0.936230  0.181670  0.681470  1.0  0.1243
  C  C317  1  0.675630  0.773970  0.636070  1.0  0.1328
  C  C318  1  0.660030  0.734470  0.720770  1.0  -0.0381
  C  C319  1  0.624030  0.720670  0.824370  1.0  -0.0413
  C  C320  1  0.605330  0.747770  0.841770  1.0  -0.1816
  C  C321  1  0.622030  0.786270  0.751070  1.0  0.1372
  C  C322  1  0.679830  0.704670  0.697370  1.0  0.2847
  C  C323  1  0.746730  0.701670  0.610970  1.0  0.1542
  C  C324  1  0.729130  0.724870  0.689670  1.0  -0.1341
  C  C325  1  0.758430  0.764570  0.767570  1.0  -0.1118
  C  C326  1  0.803030  0.779070  0.763070  1.0  -0.1481
  C  C327  1  0.818330  0.754570  0.681470  1.0  0.1238
  C  C328  1  0.773970  0.098330  0.363930  1.0  0.1339
  C  C329  1  0.734470  0.074430  0.279230  1.0  -0.0383
  C  C330  1  0.720670  0.096630  0.175630  1.0  -0.0442
  C  C331  1  0.747770  0.142430  0.158230  1.0  -0.1786
  C  C332  1  0.786270  0.164230  0.248930  1.0  0.1344
  C  C333  1  0.704670  0.024830  0.302630  1.0  0.282
  C  C334  1  0.701670  0.954930  0.389030  1.0  0.1554
  C  C335  1  0.724870  0.995730  0.310330  1.0  -0.1349
  C  C336  1  0.764570  0.006130  0.232430  1.0  -0.112
  C  C337  1  0.779070  0.976030  0.236930  1.0  -0.1566
  C  C338  1  0.754570  0.936230  0.318530  1.0  0.1207
  C  C339  1  0.901670  0.675630  0.363930  1.0  0.1341
  C  C340  1  0.925570  0.660030  0.279230  1.0  -0.0396
  C  C341  1  0.903370  0.624030  0.175630  1.0  -0.0448
  C  C342  1  0.857570  0.605330  0.158230  1.0  -0.1787
  C  C343  1  0.835770  0.622030  0.248930  1.0  0.1351
  C  C344  1  0.975170  0.679830  0.302630  1.0  0.282
  C  C345  1  0.045070  0.746730  0.389030  1.0  0.1554
  C  C346  1  0.004270  0.729130  0.310330  1.0  -0.1344
  C  C347  1  0.993870  0.758430  0.232430  1.0  -0.1103
  C  C348  1  0.023970  0.803030  0.236930  1.0  -0.1521
  C  C349  1  0.063770  0.818330  0.318530  1.0  0.1286
  C  C350  1  0.324370  0.226030  0.363930  1.0  0.1336
  C  C351  1  0.339970  0.265530  0.279230  1.0  -0.0381
  C  C352  1  0.375970  0.279330  0.175630  1.0  -0.0429
  C  C353  1  0.394670  0.252230  0.158230  1.0  -0.1782
  C  C354  1  0.377970  0.213730  0.248930  1.0  0.1372
  C  C355  1  0.320170  0.295330  0.302630  1.0  0.2845
  C  C356  1  0.253270  0.298330  0.389030  1.0  0.1567
  C  C357  1  0.270870  0.275130  0.310330  1.0  -0.1345
  C  C358  1  0.241570  0.235430  0.232430  1.0  -0.1107
  C  C359  1  0.196970  0.220930  0.236930  1.0  -0.1477
  C  C360  1  0.181670  0.245430  0.318530  1.0  0.1231
  N  N361  1  0.867560  0.190000  0.981400  1.0  -0.3309
  N  N362  1  0.951210  0.408320  0.939600  1.0  -0.3251
  N  N363  1  0.810000  0.677560  0.981400  1.0  -0.3292
  N  N364  1  0.591680  0.542890  0.939600  1.0  -0.3321
  N  N365  1  0.322440  0.132440  0.981400  1.0  -0.3254
  N  N366  1  0.457110  0.048790  0.939600  1.0  -0.3274
  N  N367  1  0.465770  0.476670  0.685270  1.0  -0.328
  N  N368  1  0.382120  0.258350  0.727070  1.0  -0.3251
  N  N369  1  0.523330  0.989110  0.685270  1.0  -0.3298
  N  N370  1  0.741650  0.123780  0.727070  1.0  -0.3261
  N  N371  1  0.010890  0.534230  0.685270  1.0  -0.3289
  N  N372  1  0.876220  0.617880  0.727070  1.0  -0.328
  N  N373  1  0.534230  0.523330  0.314730  1.0  -0.3309
  N  N374  1  0.617880  0.741650  0.272930  1.0  -0.3251
  N  N375  1  0.476670  0.010890  0.314730  1.0  -0.3293
  N  N376  1  0.258350  0.876220  0.272930  1.0  -0.3321
  N  N377  1  0.989110  0.465770  0.314730  1.0  -0.3254
  N  N378  1  0.123780  0.382120  0.272930  1.0  -0.3274
  N  N379  1  0.132440  0.810000  0.018600  1.0  -0.3281
  N  N380  1  0.048790  0.591680  0.060400  1.0  -0.3251
  N  N381  1  0.190000  0.322440  0.018600  1.0  -0.3297
  N  N382  1  0.408320  0.457110  0.060400  1.0  -0.3261
  N  N383  1  0.677560  0.867560  0.018600  1.0  -0.3289
  N  N384  1  0.542890  0.951210  0.060400  1.0  -0.328
  N  N385  1  0.200890  0.856670  0.648070  1.0  -0.3309
  N  N386  1  0.284540  0.074990  0.606270  1.0  -0.3251
  N  N387  1  0.143330  0.344230  0.648070  1.0  -0.3293
  N  N388  1  0.925010  0.209560  0.606270  1.0  -0.3321
  N  N389  1  0.655770  0.799110  0.648070  1.0  -0.3254
  N  N390  1  0.790440  0.715460  0.606270  1.0  -0.3274
  N  N391  1  0.799110  0.143330  0.351930  1.0  -0.3281
  N  N392  1  0.715460  0.925010  0.393730  1.0  -0.3251
  N  N393  1  0.856670  0.655770  0.351930  1.0  -0.3298
  N  N394  1  0.074990  0.790440  0.393730  1.0  -0.3262
  N  N395  1  0.344230  0.200890  0.351930  1.0  -0.3289
  N  N396  1  0.209560  0.284540  0.393730  1.0  -0.328
  O  O397  1  0.002000  0.323940  0.019600  1.0  -0.4688
  O  O398  1  0.676060  0.678060  0.019600  1.0  -0.4679
  O  O399  1  0.321940  0.998000  0.019600  1.0  -0.4668
  O  O400  1  0.331330  0.342730  0.647070  1.0  -0.4682
  O  O401  1  0.657270  0.988610  0.647070  1.0  -0.4683
  O  O402  1  0.011390  0.668670  0.647070  1.0  -0.4679
  O  O403  1  0.668670  0.657270  0.352930  1.0  -0.4688
  O  O404  1  0.342730  0.011390  0.352930  1.0  -0.4679
  O  O405  1  0.988610  0.331330  0.352930  1.0  -0.4668
  O  O406  1  0.998000  0.676060  0.980400  1.0  -0.4682
  O  O407  1  0.323940  0.321940  0.980400  1.0  -0.4683
  O  O408  1  0.678060  0.002000  0.980400  1.0  -0.4679
  O  O409  1  0.335330  0.990610  0.686270  1.0  -0.4688
  O  O410  1  0.009390  0.344730  0.686270  1.0  -0.4678
  O  O411  1  0.655270  0.664670  0.686270  1.0  -0.4668
  O  O412  1  0.664670  0.009390  0.313730  1.0  -0.4682
  O  O413  1  0.990610  0.655270  0.313730  1.0  -0.4683
  O  O414  1  0.344730  0.335330  0.313730  1.0  -0.4679
