# generated using pymatgen
data_Mn2H3C9ClO6
_symmetry_space_group_name_H-M   'P 1'
_cell_length_a   12.79300000
_cell_length_b   14.74000000
_cell_length_c   15.18300000
_cell_angle_alpha   90.00000000
_cell_angle_beta   90.00000000
_cell_angle_gamma   90.00000000
_symmetry_Int_Tables_number   1
_chemical_formula_structural   Mn2H3C9ClO6
_chemical_formula_sum   'Mn8 H12 C36 Cl4 O24'
_cell_volume   2863.04039406
_cell_formula_units_Z   4
loop_
 _symmetry_equiv_pos_site_id
 _symmetry_equiv_pos_as_xyz
  1  'x, y, z'
loop_
 _atom_site_type_symbol
 _atom_site_label
 _atom_site_symmetry_multiplicity
 _atom_site_fract_x
 _atom_site_fract_y
 _atom_site_fract_z
 _atom_site_occupancy
 _atom_site_charge
  Mn  Mn1  1  0.257470  0.717860  0.774200  1.0  1.0617
  Mn  Mn2  1  0.060080  0.586750  0.913270  1.0  1.1098
  Mn  Mn3  1  0.242530  0.282140  0.274200  1.0  1.0612
  Mn  Mn4  1  0.439920  0.413250  0.413270  1.0  1.1128
  Mn  Mn5  1  0.742530  0.217860  0.725800  1.0  1.0613
  Mn  Mn6  1  0.939920  0.086750  0.586730  1.0  1.1114
  Mn  Mn7  1  0.757470  0.782140  0.225800  1.0  1.0618
  Mn  Mn8  1  0.560080  0.913250  0.086730  1.0  1.1089
  H  H9  1  0.458700  0.704400  0.005500  1.0  0.1028
  H  H10  1  0.510800  0.561500  0.225100  1.0  0.103
  H  H11  1  0.285300  0.483200  0.059600  1.0  0.1038
  H  H12  1  0.041300  0.295600  0.505500  1.0  0.1028
  H  H13  1  0.989200  0.438500  0.725100  1.0  0.103
  H  H14  1  0.214700  0.516800  0.559600  1.0  0.104
  H  H15  1  0.541300  0.204400  0.494500  1.0  0.1025
  H  H16  1  0.489200  0.061500  0.274900  1.0  0.1033
  H  H17  1  0.714700  0.983200  0.440400  1.0  0.1037
  H  H18  1  0.958700  0.795600  0.994500  1.0  0.1029
  H  H19  1  0.010800  0.938500  0.774900  1.0  0.1036
  H  H20  1  0.785300  0.016800  0.940400  1.0  0.1037
  C  C21  1  0.302800  0.607900  0.934000  1.0  0.7259
  C  C22  1  0.363400  0.595300  0.017400  1.0  -0.1875
  C  C23  1  0.442600  0.655500  0.041800  1.0  0.0383
  C  C24  1  0.496800  0.643200  0.118900  1.0  -0.1925
  C  C25  1  0.473300  0.570300  0.173400  1.0  0.0464
  C  C26  1  0.393900  0.510400  0.150600  1.0  -0.1802
  C  C27  1  0.339100  0.522900  0.074100  1.0  0.04
  C  C28  1  0.584200  0.706400  0.143500  1.0  0.7164
  C  C29  1  0.370400  0.431400  0.210800  1.0  0.744
  C  C30  1  0.197200  0.392100  0.434000  1.0  0.7254
  C  C31  1  0.136600  0.404700  0.517400  1.0  -0.1873
  C  C32  1  0.057400  0.344500  0.541800  1.0  0.0377
  C  C33  1  0.003200  0.356800  0.618900  1.0  -0.1924
  C  C34  1  0.026700  0.429700  0.673400  1.0  0.0451
  C  C35  1  0.106100  0.489600  0.650600  1.0  -0.1804
  C  C36  1  0.160900  0.477100  0.574100  1.0  0.0395
  C  C37  1  0.915800  0.293600  0.643500  1.0  0.7161
  C  C38  1  0.129600  0.568600  0.710800  1.0  0.7436
  C  C39  1  0.697200  0.107900  0.566000  1.0  0.7271
  C  C40  1  0.636600  0.095300  0.482600  1.0  -0.1882
  C  C41  1  0.557400  0.155500  0.458200  1.0  0.0387
  C  C42  1  0.503200  0.143200  0.381100  1.0  -0.192
  C  C43  1  0.526700  0.070300  0.326600  1.0  0.0455
  C  C44  1  0.606100  0.010400  0.349400  1.0  -0.1801
  C  C45  1  0.660900  0.022900  0.425900  1.0  0.0408
  C  C46  1  0.415800  0.206400  0.356500  1.0  0.7164
  C  C47  1  0.629600  0.931400  0.289200  1.0  0.7436
  C  C48  1  0.802800  0.892100  0.066000  1.0  0.7267
  C  C49  1  0.863400  0.904700  0.982600  1.0  -0.188
  C  C50  1  0.942600  0.844500  0.958200  1.0  0.0382
  C  C51  1  0.996800  0.856800  0.881100  1.0  -0.1922
  C  C52  1  0.973300  0.929700  0.826600  1.0  0.0454
  C  C53  1  0.893900  0.989600  0.849400  1.0  -0.1803
  C  C54  1  0.839100  0.977100  0.925900  1.0  0.0399
  C  C55  1  0.084200  0.793600  0.856500  1.0  0.716
  C  C56  1  0.870400  0.068600  0.789200  1.0  0.7434
  Cl  Cl57  1  0.387350  0.795910  0.695970  1.0  -0.5851
  Cl  Cl58  1  0.112650  0.204090  0.195970  1.0  -0.5852
  Cl  Cl59  1  0.612650  0.295910  0.804030  1.0  -0.5845
  Cl  Cl60  1  0.887350  0.704090  0.304030  1.0  -0.5834
  O  O61  1  0.336300  0.667800  0.881190  1.0  -0.5767
  O  O62  1  0.225100  0.558580  0.921300  1.0  -0.631
  O  O63  1  0.603800  0.771570  0.093200  1.0  -0.6657
  O  O64  1  0.635400  0.690000  0.211400  1.0  -0.5514
  O  O65  1  0.429500  0.416900  0.272920  1.0  -0.6514
  O  O66  1  0.291900  0.384800  0.192000  1.0  -0.5711
  O  O67  1  0.163700  0.332200  0.381190  1.0  -0.5764
  O  O68  1  0.274900  0.441420  0.421300  1.0  -0.631
  O  O69  1  0.896200  0.228430  0.593200  1.0  -0.6664
  O  O70  1  0.864600  0.310000  0.711400  1.0  -0.5506
  O  O71  1  0.070500  0.583100  0.772920  1.0  -0.6514
  O  O72  1  0.208100  0.615200  0.692000  1.0  -0.5709
  O  O73  1  0.663700  0.167800  0.618810  1.0  -0.5772
  O  O74  1  0.774900  0.058580  0.578700  1.0  -0.6333
  O  O75  1  0.396200  0.271570  0.406800  1.0  -0.6652
  O  O76  1  0.364600  0.190000  0.288600  1.0  -0.5512
  O  O77  1  0.570500  0.916900  0.227080  1.0  -0.652
  O  O78  1  0.708100  0.884800  0.308000  1.0  -0.5714
  O  O79  1  0.836300  0.832200  0.118810  1.0  -0.5747
  O  O80  1  0.725100  0.941420  0.078700  1.0  -0.63
  O  O81  1  0.103800  0.728430  0.906800  1.0  -0.6655
  O  O82  1  0.135400  0.810000  0.788600  1.0  -0.552
  O  O83  1  0.929500  0.083100  0.727080  1.0  -0.6508
  O  O84  1  0.791900  0.115200  0.808000  1.0  -0.5714
