# generated using pymatgen
data_FeH7C15O4
_symmetry_space_group_name_H-M   'P 1'
_cell_length_a   16.54130000
_cell_length_b   16.59570000
_cell_length_c   16.59570000
_cell_angle_alpha   70.46250000
_cell_angle_beta   70.59510000
_cell_angle_gamma   109.40500000
_symmetry_Int_Tables_number   1
_chemical_formula_structural   FeH7C15O4
_chemical_formula_sum   'Fe6 H42 C90 O24'
_cell_volume   3509.88557590
_cell_formula_units_Z   6
loop_
 _symmetry_equiv_pos_site_id
 _symmetry_equiv_pos_as_xyz
  1  'x, y, z'
loop_
 _atom_site_type_symbol
 _atom_site_label
 _atom_site_symmetry_multiplicity
 _atom_site_fract_x
 _atom_site_fract_y
 _atom_site_fract_z
 _atom_site_occupancy
 _atom_site_charge
  Fe  Fe1  1  0.072410  0.598570  0.401430  1.0  1.0111
  Fe  Fe2  1  0.473840  0.401430  0.000000  1.0  1.0146
  Fe  Fe3  1  0.473840  0.000000  0.598570  1.0  1.0152
  Fe  Fe4  1  0.526160  0.000000  0.401430  1.0  1.0096
  Fe  Fe5  1  0.526160  0.598570  0.000000  1.0  1.0183
  Fe  Fe6  1  0.927590  0.401430  0.598570  1.0  1.0128
  H  H7  1  0.969100  0.503600  0.232500  1.0  0.109
  H  H8  1  0.040000  0.362300  0.174000  1.0  0.1055
  H  H9  1  0.170400  0.350100  0.073000  1.0  0.0906
  H  H10  1  0.201600  0.232500  0.263900  1.0  0.1097
  H  H11  1  0.214000  0.174000  0.463700  1.0  0.1059
  H  H12  1  0.243400  0.073000  0.576900  1.0  0.0963
  H  H13  1  0.465500  0.263900  0.503600  1.0  0.11
  H  H14  1  0.677700  0.463700  0.362300  1.0  0.1056
  H  H15  1  0.820300  0.576900  0.350100  1.0  0.0951
  H  H16  1  0.798400  0.263900  0.232500  1.0  0.1105
  H  H17  1  0.786000  0.463700  0.174000  1.0  0.1053
  H  H18  1  0.756600  0.576900  0.073000  1.0  0.0948
  H  H19  1  0.534500  0.503600  0.263900  1.0  0.1074
  H  H20  1  0.322300  0.362300  0.463700  1.0  0.1057
  H  H21  1  0.179700  0.350100  0.576900  1.0  0.0921
  H  H22  1  0.030900  0.232500  0.503600  1.0  0.11
  H  H23  1  0.960000  0.174000  0.362300  1.0  0.1057
  H  H24  1  0.829600  0.073000  0.350100  1.0  0.0912
  H  H25  1  0.030900  0.496400  0.767500  1.0  0.1093
  H  H26  1  0.960000  0.637700  0.826000  1.0  0.1055
  H  H27  1  0.829600  0.649900  0.927000  1.0  0.0908
  H  H28  1  0.798400  0.767500  0.736100  1.0  0.1096
  H  H29  1  0.786000  0.826000  0.536300  1.0  0.1055
  H  H30  1  0.756600  0.927000  0.423100  1.0  0.096
  H  H31  1  0.534500  0.736100  0.496400  1.0  0.11
  H  H32  1  0.322300  0.536300  0.637700  1.0  0.105
  H  H33  1  0.179700  0.423100  0.649900  1.0  0.0954
  H  H34  1  0.201600  0.736100  0.767500  1.0  0.11
  H  H35  1  0.214000  0.536300  0.826000  1.0  0.1053
  H  H36  1  0.243400  0.423100  0.927000  1.0  0.0944
  H  H37  1  0.465500  0.496400  0.736100  1.0  0.1075
  H  H38  1  0.677700  0.637700  0.536300  1.0  0.1053
  H  H39  1  0.820300  0.649900  0.423100  1.0  0.0917
  H  H40  1  0.969100  0.767500  0.496400  1.0  0.1094
  H  H41  1  0.040000  0.826000  0.637700  1.0  0.1055
  H  H42  1  0.170400  0.927000  0.649900  1.0  0.0923
  H  H43  1  0.754600  0.254600  0.490800  1.0  0.1135
  H  H44  1  0.245400  0.490800  0.254600  1.0  0.1116
  H  H45  1  0.500000  0.254600  0.254600  1.0  0.1139
  H  H46  1  0.245400  0.745400  0.509200  1.0  0.112
  H  H47  1  0.754600  0.509200  0.745400  1.0  0.1117
  H  H48  1  0.500000  0.745400  0.745400  1.0  0.1148
  C  C49  1  0.904900  0.430800  0.423400  1.0  0.6978
  C  C50  1  0.870900  0.385000  0.369200  1.0  -0.153
  C  C51  1  0.918200  0.436600  0.267200  1.0  -0.0614
  C  C52  1  0.034500  0.446500  0.053600  1.0  0.0209
  C  C53  1  0.068300  0.393600  0.104200  1.0  -0.1296
  C  C54  1  0.149100  0.391100  0.041700  1.0  -0.0539
  C  C55  1  0.328300  0.423400  0.145800  1.0  0.6951
  C  C56  1  0.240100  0.369200  0.245800  1.0  -0.1553
  C  C57  1  0.185400  0.267200  0.296200  1.0  -0.0568
  C  C58  1  0.088100  0.053600  0.499900  1.0  0.0231
  C  C59  1  0.172500  0.104200  0.502200  1.0  -0.1323
  C  C60  1  0.190800  0.041700  0.567200  1.0  -0.0544
  C  C61  1  0.474100  0.145800  0.430800  1.0  0.6963
  C  C62  1  0.485900  0.245800  0.385000  1.0  -0.156
  C  C63  1  0.481600  0.296200  0.436600  1.0  -0.0591
  C  C64  1  0.588000  0.499900  0.446500  1.0  0.0226
  C  C65  1  0.674700  0.502200  0.393600  1.0  -0.1303
  C  C66  1  0.758000  0.567200  0.391100  1.0  -0.0533
  C  C67  1  0.671700  0.145800  0.423400  1.0  0.6958
  C  C68  1  0.759900  0.245800  0.369200  1.0  -0.1546
  C  C69  1  0.814600  0.296200  0.267200  1.0  -0.0585
  C  C70  1  0.911900  0.499900  0.053600  1.0  0.0224
  C  C71  1  0.827500  0.502200  0.104200  1.0  -0.1321
  C  C72  1  0.809200  0.567200  0.041700  1.0  -0.0549
  C  C73  1  0.525900  0.430800  0.145800  1.0  0.6963
  C  C74  1  0.514100  0.385000  0.245800  1.0  -0.1539
  C  C75  1  0.518400  0.436600  0.296200  1.0  -0.0628
  C  C76  1  0.412000  0.446500  0.499900  1.0  0.0203
  C  C77  1  0.325300  0.393600  0.502200  1.0  -0.1299
  C  C78  1  0.242000  0.391100  0.567200  1.0  -0.0528
  C  C79  1  0.095100  0.423400  0.430800  1.0  0.6936
  C  C80  1  0.129100  0.369200  0.385000  1.0  -0.1539
  C  C81  1  0.081800  0.267200  0.436600  1.0  -0.058
  C  C82  1  0.965500  0.053600  0.446500  1.0  0.0205
  C  C83  1  0.931700  0.104200  0.393600  1.0  -0.1318
  C  C84  1  0.850900  0.041700  0.391100  1.0  -0.057
  C  C85  1  0.095100  0.569200  0.576600  1.0  0.6971
  C  C86  1  0.129100  0.615000  0.630800  1.0  -0.1544
  C  C87  1  0.081800  0.563400  0.732800  1.0  -0.0626
  C  C88  1  0.965500  0.553500  0.946400  1.0  0.02
  C  C89  1  0.931700  0.606400  0.895800  1.0  -0.1292
  C  C90  1  0.850900  0.608900  0.958300  1.0  -0.0524
  C  C91  1  0.671700  0.576600  0.854200  1.0  0.6949
  C  C92  1  0.759900  0.630800  0.754200  1.0  -0.1549
  C  C93  1  0.814600  0.732800  0.703800  1.0  -0.0578
  C  C94  1  0.911900  0.946400  0.500100  1.0  0.0231
  C  C95  1  0.827500  0.895800  0.497800  1.0  -0.1322
  C  C96  1  0.809200  0.958300  0.432800  1.0  -0.0539
  C  C97  1  0.525900  0.854200  0.569200  1.0  0.6964
  C  C98  1  0.514100  0.754200  0.615000  1.0  -0.1533
  C  C99  1  0.518400  0.703800  0.563400  1.0  -0.0582
  C  C100  1  0.412000  0.500100  0.553500  1.0  0.0224
  C  C101  1  0.325300  0.497800  0.606400  1.0  -0.13
  C  C102  1  0.242000  0.432800  0.608900  1.0  -0.0538
  C  C103  1  0.328300  0.854200  0.576600  1.0  0.6954
  C  C104  1  0.240100  0.754200  0.630800  1.0  -0.1547
  C  C105  1  0.185400  0.703800  0.732800  1.0  -0.0592
  C  C106  1  0.088100  0.500100  0.946400  1.0  0.022
  C  C107  1  0.172500  0.497800  0.895800  1.0  -0.1311
  C  C108  1  0.190800  0.432800  0.958300  1.0  -0.0529
  C  C109  1  0.474100  0.569200  0.854200  1.0  0.696
  C  C110  1  0.485900  0.615000  0.754200  1.0  -0.1528
  C  C111  1  0.481600  0.563400  0.703800  1.0  -0.0616
  C  C112  1  0.588000  0.553500  0.500100  1.0  0.0212
  C  C113  1  0.674700  0.606400  0.497800  1.0  -0.1306
  C  C114  1  0.758000  0.608900  0.432800  1.0  -0.0523
  C  C115  1  0.904900  0.576600  0.569200  1.0  0.6933
  C  C116  1  0.870900  0.630800  0.615000  1.0  -0.1561
  C  C117  1  0.918200  0.732800  0.563400  1.0  -0.0566
  C  C118  1  0.034500  0.946400  0.553500  1.0  0.0211
  C  C119  1  0.068300  0.895800  0.606400  1.0  -0.1316
  C  C120  1  0.149100  0.958300  0.608900  1.0  -0.0566
  C  C121  1  0.789600  0.289600  0.420800  1.0  0.0017
  C  C122  1  0.893100  0.393100  0.213800  1.0  0.038
  C  C123  1  0.948500  0.448500  0.103000  1.0  -0.0433
  C  C124  1  0.210400  0.420800  0.289600  1.0  0.0032
  C  C125  1  0.106900  0.213800  0.393100  1.0  0.0385
  C  C126  1  0.051500  0.103000  0.448500  1.0  -0.0437
  C  C127  1  0.500000  0.289600  0.289600  1.0  0.0006
  C  C128  1  0.500000  0.393100  0.393100  1.0  0.038
  C  C129  1  0.500000  0.448500  0.448500  1.0  -0.0467
  C  C130  1  0.210400  0.710400  0.579200  1.0  -0.0002
  C  C131  1  0.106900  0.606900  0.786200  1.0  0.038
  C  C132  1  0.051500  0.551500  0.897000  1.0  -0.0435
  C  C133  1  0.789600  0.579200  0.710400  1.0  0.0036
  C  C134  1  0.893100  0.786200  0.606900  1.0  0.0385
  C  C135  1  0.948500  0.897000  0.551500  1.0  -0.0433
  C  C136  1  0.500000  0.710400  0.710400  1.0  0.0005
  C  C137  1  0.500000  0.606900  0.606900  1.0  0.0379
  C  C138  1  0.500000  0.551500  0.551500  1.0  -0.0465
  O  O139  1  0.970770  0.519090  0.374380  1.0  -0.5977
  O  O140  1  0.862600  0.376800  0.516400  1.0  -0.5921
  O  O141  1  0.345150  0.374380  0.106530  1.0  -0.5933
  O  O142  1  0.379000  0.516400  0.106800  1.0  -0.5931
  O  O143  1  0.451680  0.106530  0.519090  1.0  -0.5967
  O  O144  1  0.485800  0.106800  0.376800  1.0  -0.5899
  O  O145  1  0.654850  0.106530  0.374380  1.0  -0.5929
  O  O146  1  0.621000  0.106800  0.516400  1.0  -0.5944
  O  O147  1  0.548320  0.519090  0.106530  1.0  -0.5946
  O  O148  1  0.514200  0.376800  0.106800  1.0  -0.5943
  O  O149  1  0.029230  0.374380  0.519090  1.0  -0.5963
  O  O150  1  0.137400  0.516400  0.376800  1.0  -0.588
  O  O151  1  0.029230  0.480910  0.625620  1.0  -0.5985
  O  O152  1  0.137400  0.623200  0.483600  1.0  -0.594
  O  O153  1  0.654850  0.625620  0.893470  1.0  -0.5937
  O  O154  1  0.621000  0.483600  0.893200  1.0  -0.5928
  O  O155  1  0.548320  0.893470  0.480910  1.0  -0.5976
  O  O156  1  0.514200  0.893200  0.623200  1.0  -0.5902
  O  O157  1  0.345150  0.893470  0.625620  1.0  -0.593
  O  O158  1  0.379000  0.893200  0.483600  1.0  -0.5956
  O  O159  1  0.451680  0.480910  0.893470  1.0  -0.5957
  O  O160  1  0.485800  0.623200  0.893200  1.0  -0.5953
  O  O161  1  0.970770  0.625620  0.480910  1.0  -0.5957
  O  O162  1  0.862600  0.483600  0.623200  1.0  -0.5877
