# generated using pymatgen
data_Cu6C13N3
_symmetry_space_group_name_H-M   'P 1'
_cell_length_a   6.72000000
_cell_length_b   9.49400000
_cell_length_c   10.68200000
_cell_angle_alpha   111.97900000
_cell_angle_beta   96.87900000
_cell_angle_gamma   106.67800000
_symmetry_Int_Tables_number   1
_chemical_formula_structural   Cu6C13N3
_chemical_formula_sum   'Cu6 C13 N3'
_cell_volume   585.25800507
_cell_formula_units_Z   1
loop_
 _symmetry_equiv_pos_site_id
 _symmetry_equiv_pos_as_xyz
  1  'x, y, z'
loop_
 _atom_site_type_symbol
 _atom_site_label
 _atom_site_symmetry_multiplicity
 _atom_site_fract_x
 _atom_site_fract_y
 _atom_site_fract_z
 _atom_site_occupancy
 _atom_site_charge
  Cu  Cu1  1  0.168190  0.396240  0.292100  1.0  0.5664
  Cu  Cu2  1  0.010500  0.149080  0.769270  1.0  0.307
  Cu  Cu3  1  0.359540  0.963580  0.390010  1.0  0.3148
  Cu  Cu4  1  0.831810  0.603760  0.707900  1.0  0.5654
  Cu  Cu5  1  0.989500  0.850920  0.230730  1.0  0.3034
  Cu  Cu6  1  0.640460  0.036420  0.609990  1.0  0.3207
  C  C7  1  0.144200  0.722600  0.309800  1.0  -0.018
  C  C8  1  0.275500  0.116300  0.331400  1.0  -0.0677
  C  C9  1  0.055900  0.232500  0.968600  1.0  -0.014
  C  C10  1  0.223500  0.088600  0.672200  1.0  -0.0293
  C  C11  1  0.118900  0.594800  0.297200  1.0  -0.1245
  C  C12  1  0.091900  0.289100  0.087800  1.0  0.0212
  C  C13  1  0.247700  0.217800  0.309200  1.0  -0.1104
  C  C14  1  0.352100  0.056800  0.620000  1.0  -0.0944
  C  C15  1  0.944100  0.767500  0.031400  1.0  -0.0158
  C  C16  1  0.776500  0.911400  0.327800  1.0  -0.0247
  C  C17  1  0.881100  0.405200  0.702800  1.0  -0.1263
  C  C18  1  0.908100  0.710900  0.912200  1.0  0.0222
  C  C19  1  0.752300  0.782200  0.690800  1.0  -0.1132
  N  N20  1  0.855800  0.277400  0.690200  1.0  -0.5659
  N  N21  1  0.724500  0.883700  0.668600  1.0  -0.5517
  N  N22  1  0.647900  0.943200  0.380000  1.0  -0.5651
