# generated using pymatgen
data_ZnH16C27NO4
_symmetry_space_group_name_H-M   'P 1'
_cell_length_a   15.29040000
_cell_length_b   15.29040000
_cell_length_c   17.66760000
_cell_angle_alpha   115.64100000
_cell_angle_beta   115.64100000
_cell_angle_gamma   90.00010000
_symmetry_Int_Tables_number   1
_chemical_formula_structural   ZnH16C27NO4
_chemical_formula_sum   'Zn4 H64 C108 N4 O16'
_cell_volume   3266.81430130
_cell_formula_units_Z   4
loop_
 _symmetry_equiv_pos_site_id
 _symmetry_equiv_pos_as_xyz
  1  'x, y, z'
loop_
 _atom_site_type_symbol
 _atom_site_label
 _atom_site_symmetry_multiplicity
 _atom_site_fract_x
 _atom_site_fract_y
 _atom_site_fract_z
 _atom_site_occupancy
 _atom_site_charge
  Zn  Zn1  1  0.055860  0.055870  0.111740  1.0  1.047
  Zn  Zn2  1  0.444230  0.444250  0.888460  1.0  1.0554
  Zn  Zn3  1  0.944230  0.944210  0.888410  1.0  1.0552
  Zn  Zn4  1  0.555690  0.555690  0.111400  1.0  1.0561
  H  H5  1  0.018720  0.889290  0.180450  1.0  0.1075
  H  H6  1  0.064210  0.866890  0.318220  1.0  0.1054
  H  H7  1  0.192050  0.005420  0.256450  1.0  0.1129
  H  H8  1  0.281480  0.090970  0.432630  1.0  0.1271
  H  H9  1  0.162110  0.291120  0.180700  1.0  0.1058
  H  H10  1  0.254300  0.451370  0.318350  1.0  0.1065
  H  H11  1  0.064380  0.251010  0.256440  1.0  0.1123
  H  H12  1  0.151140  0.341660  0.432610  1.0  0.1273
  H  H13  1  0.823750  0.093100  0.125800  1.0  0.1166
  H  H14  1  0.743320  0.128560  0.226130  1.0  0.1099
  H  H15  1  0.302070  0.032710  0.126040  1.0  0.1127
  H  H16  1  0.482810  0.097560  0.226560  1.0  0.1121
  H  H17  1  0.339160  0.610420  0.820140  1.0  0.1186
  H  H18  1  0.246580  0.631780  0.681790  1.0  0.0988
  H  H19  1  0.481110  0.209830  0.820010  1.0  0.1174
  H  H20  1  0.435460  0.050260  0.681580  1.0  0.1051
  H  H21  1  0.197090  0.406240  0.873460  1.0  0.1124
  H  H22  1  0.016240  0.370550  0.773390  1.0  0.1036
  H  H23  1  0.241900  0.418270  0.744690  1.0  0.1138
  H  H24  1  0.150970  0.331440  0.568250  1.0  0.1299
  H  H25  1  0.676550  0.467230  0.873750  1.0  0.1138
  H  H26  1  0.757170  0.402760  0.773540  1.0  0.109
  H  H27  1  0.502820  0.326480  0.744690  1.0  0.1146
  H  H28  1  0.417300  0.236850  0.568250  1.0  0.1295
  H  H29  1  0.967310  0.176540  0.874630  1.0  0.113
  H  H30  1  0.902250  0.256600  0.773970  1.0  0.1043
  H  H31  1  0.830410  0.004070  0.744610  1.0  0.1131
  H  H32  1  0.739700  0.918530  0.568550  1.0  0.1245
  H  H33  1  0.907020  0.697980  0.874320  1.0  0.1114
  H  H34  1  0.871480  0.517240  0.773800  1.0  0.1036
  H  H35  1  0.914250  0.740570  0.744610  1.0  0.1121
  H  H36  1  0.828860  0.650040  0.568550  1.0  0.1255
  H  H37  1  0.110430  0.838160  0.819290  1.0  0.1182
  H  H38  1  0.132480  0.745410  0.681370  1.0  0.097
  H  H39  1  0.708970  0.981270  0.819140  1.0  0.1151
  H  H40  1  0.549130  0.936210  0.681140  1.0  0.105
  H  H41  1  0.593310  0.323330  0.125970  1.0  0.1133
  H  H42  1  0.629000  0.242760  0.226220  1.0  0.1061
  H  H43  1  0.584390  0.496240  0.255160  1.0  0.1136
  H  H44  1  0.669740  0.581810  0.431240  1.0  0.1241
  H  H45  1  0.532670  0.802660  0.126200  1.0  0.1112
  H  H46  1  0.597210  0.983450  0.226640  1.0  0.1074
  H  H47  1  0.670730  0.758910  0.255150  1.0  0.1126
  H  H48  1  0.761460  0.849430  0.431220  1.0  0.1276
  H  H49  1  0.790130  0.660810  0.179780  1.0  0.116
  H  H50  1  0.950080  0.752940  0.317890  1.0  0.1023
  H  H51  1  0.389400  0.519100  0.179560  1.0  0.1185
  H  H52  1  0.367760  0.565090  0.317780  1.0  0.1068
  H  H53  1  0.737110  0.946340  0.953730  1.0  0.1099
  H  H54  1  0.565580  0.961240  0.911800  1.0  0.0987
  H  H55  1  0.216780  0.007470  0.953960  1.0  0.1092
  H  H56  1  0.346320  0.950610  0.911940  1.0  0.0974
  H  H57  1  0.992830  0.262970  0.046900  1.0  0.1116
  H  H58  1  0.049920  0.434700  0.089460  1.0  0.0971
  H  H59  1  0.053600  0.783450  0.046150  1.0  0.1106
  H  H60  1  0.038240  0.653460  0.087510  1.0  0.0961
  H  H61  1  0.282800  0.553410  0.045830  1.0  0.1093
  H  H62  1  0.152770  0.538380  0.087260  1.0  0.0928
  H  H63  1  0.763300  0.492700  0.046580  1.0  0.1099
  H  H64  1  0.935150  0.549530  0.089220  1.0  0.0953
  H  H65  1  0.446180  0.236810  0.953450  1.0  0.1098
  H  H66  1  0.461040  0.065280  0.911710  1.0  0.0933
  H  H67  1  0.507350  0.716780  0.953650  1.0  0.1096
  H  H68  1  0.450700  0.846480  0.911790  1.0  0.0954
  C  C69  1  0.865980  0.798990  0.098540  1.0  0.0224
  C  C70  1  0.962160  0.845240  0.178240  1.0  -0.1349
  C  C71  1  0.990310  0.830600  0.257410  1.0  -0.1114
  C  C72  1  0.183830  0.079240  0.295750  1.0  0.1311
  C  C73  1  0.234830  0.128110  0.395800  1.0  -0.1872
  C  C74  1  0.232640  0.299580  0.098580  1.0  0.0247
  C  C75  1  0.216310  0.333010  0.178370  1.0  -0.1333
  C  C76  1  0.267290  0.426860  0.257490  1.0  -0.1064
  C  C77  1  0.111890  0.216490  0.295740  1.0  0.1323
  C  C78  1  0.160960  0.267700  0.395800  1.0  -0.1907
  C  C79  1  0.759080  0.192190  0.069340  1.0  0.0223
  C  C80  1  0.776690  0.145770  0.126250  1.0  -0.1399
  C  C81  1  0.730210  0.165100  0.182910  1.0  -0.09
  C  C82  1  0.310270  0.877160  0.069510  1.0  0.0218
  C  C83  1  0.349560  0.980480  0.126510  1.0  -0.1466
  C  C84  1  0.452700  0.017820  0.183280  1.0  -0.1069
  C  C85  1  0.267860  0.700790  0.901600  1.0  0.0304
  C  C86  1  0.284580  0.654290  0.822050  1.0  -0.1501
  C  C87  1  0.233420  0.668350  0.742540  1.0  -0.1096
  C  C88  1  0.633860  0.200930  0.901520  1.0  0.0319
  C  C89  1  0.537630  0.167920  0.821930  1.0  -0.1463
  C  C90  1  0.509320  0.074400  0.742350  1.0  -0.1137
  C  C91  1  0.189340  0.307300  0.930170  1.0  0.0333
  C  C92  1  0.149750  0.353570  0.873170  1.0  -0.127
  C  C93  1  0.046560  0.334170  0.816720  1.0  -0.0933
  C  C94  1  0.279550  0.378560  0.705110  1.0  0.1406
  C  C95  1  0.228280  0.329500  0.605060  1.0  -0.1916
  C  C96  1  0.740840  0.622870  0.930220  1.0  0.0315
  C  C97  1  0.723480  0.519580  0.873320  1.0  -0.133
  C  C98  1  0.770140  0.482480  0.816790  1.0  -0.091
  C  C99  1  0.425590  0.326600  0.705110  1.0  0.1373
  C  C100  1  0.376800  0.275600  0.605060  1.0  -0.1921
  C  C101  1  0.122800  0.240760  0.930500  1.0  0.0355
  C  C102  1  0.019450  0.223310  0.873830  1.0  -0.1364
  C  C103  1  0.982010  0.269640  0.817040  1.0  -0.1101
  C  C104  1  0.829100  0.926360  0.705010  1.0  0.1463
  C  C105  1  0.778320  0.877680  0.604960  1.0  -0.1941
  C  C106  1  0.807640  0.689690  0.930450  1.0  0.0338
  C  C107  1  0.854190  0.650440  0.873660  1.0  -0.1318
  C  C108  1  0.834870  0.547300  0.816950  1.0  -0.114
  C  C109  1  0.875960  0.778680  0.705010  1.0  0.1479
  C  C110  1  0.826660  0.727290  0.604960  1.0  -0.1914
  C  C111  1  0.200950  0.767460  0.901360  1.0  0.0265
  C  C112  1  0.154530  0.783800  0.821570  1.0  -0.1474
  C  C113  1  0.168960  0.732540  0.742300  1.0  -0.1083
  C  C114  1  0.700530  0.134020  0.901280  1.0  0.0285
  C  C115  1  0.667190  0.037930  0.821430  1.0  -0.1476
  C  C116  1  0.573540  0.009970  0.742110  1.0  -0.111
  C  C117  1  0.692480  0.258990  0.069530  1.0  0.0278
  C  C118  1  0.646080  0.276380  0.126420  1.0  -0.1417
  C  C119  1  0.665480  0.229770  0.182980  1.0  -0.0949
  C  C120  1  0.623230  0.573770  0.294770  1.0  0.1471
  C  C121  1  0.672510  0.622450  0.394820  1.0  -0.1919
  C  C122  1  0.377060  0.810550  0.069700  1.0  0.0285
  C  C123  1  0.480350  0.850050  0.126670  1.0  -0.1387
  C  C124  1  0.517490  0.953200  0.183330  1.0  -0.1013
  C  C125  1  0.671500  0.720990  0.294760  1.0  0.1511
  C  C126  1  0.722280  0.772370  0.394820  1.0  -0.1939
  C  C127  1  0.799070  0.732080  0.098300  1.0  0.0252
  C  C128  1  0.832140  0.715290  0.177820  1.0  -0.1508
  C  C129  1  0.925840  0.766220  0.257220  1.0  -0.1005
  C  C130  1  0.299220  0.366250  0.098260  1.0  0.0294
  C  C131  1  0.345580  0.462620  0.177700  1.0  -0.1432
  C  C132  1  0.331380  0.491100  0.257160  1.0  -0.1063
  C  C133  1  0.223600  0.223600  0.447190  1.0  0.109
  C  C134  1  0.276840  0.276850  0.553670  1.0  0.1151
  C  C135  1  0.776650  0.776650  0.553300  1.0  0.1062
  C  C136  1  0.723230  0.723240  0.446480  1.0  0.1074
  C  C137  1  0.828500  0.801290  0.002290  1.0  -0.0671
  C  C138  1  0.723580  0.821190  0.978650  1.0  0.018
  C  C139  1  0.896130  0.877080  0.999530  1.0  0.6665
  C  C140  1  0.689410  0.895720  0.955000  1.0  -0.1303
  C  C141  1  0.591400  0.904610  0.931240  1.0  -0.0869
  C  C142  1  0.173840  0.201030  0.002350  1.0  -0.0611
  C  C143  1  0.255100  0.157480  0.978690  1.0  0.0249
  C  C144  1  0.103440  0.122470  0.999580  1.0  0.6667
  C  C145  1  0.265680  0.059330  0.955130  1.0  -0.134
  C  C146  1  0.339890  0.026660  0.931320  1.0  -0.0837
  C  C147  1  0.798960  0.171410  0.997600  1.0  -0.0686
  C  C148  1  0.842620  0.276390  0.021460  1.0  0.0186
  C  C149  1  0.877440  0.103740  0.000320  1.0  0.6576
  C  C150  1  0.940940  0.310660  0.045520  1.0  -0.137
  C  C151  1  0.973720  0.408770  0.069630  1.0  -0.0931
  C  C152  1  0.198680  0.826220  0.997610  1.0  -0.0683
  C  C153  1  0.178700  0.744930  0.021200  1.0  0.0182
  C  C154  1  0.122910  0.896600  0.000330  1.0  0.6562
  C  C155  1  0.104120  0.734390  0.044780  1.0  -0.144
  C  C156  1  0.095000  0.659960  0.068260  1.0  -0.0945
  C  C157  1  0.326390  0.698880  0.998070  1.0  -0.0695
  C  C158  1  0.244820  0.678860  0.021330  1.0  0.0271
  C  C159  1  0.397040  0.623400  0.001410  1.0  0.668
  C  C160  1  0.233960  0.604160  0.044670  1.0  -0.1331
  C  C161  1  0.159490  0.595200  0.068140  1.0  -0.0859
  C  C162  1  0.671700  0.299210  0.998060  1.0  -0.0692
  C  C163  1  0.776630  0.342580  0.021580  1.0  0.0265
  C  C164  1  0.604380  0.378030  0.001410  1.0  0.668
  C  C165  1  0.810980  0.440780  0.045410  1.0  -0.1381
  C  C166  1  0.909130  0.473410  0.069510  1.0  -0.0869
  C  C167  1  0.301040  0.328280  0.001750  1.0  -0.0695
  C  C168  1  0.321060  0.223440  0.978440  1.0  0.0188
  C  C169  1  0.376510  0.395590  0.998410  1.0  0.6677
  C  C170  1  0.395570  0.189180  0.954800  1.0  -0.1367
  C  C171  1  0.404460  0.091200  0.931180  1.0  -0.0889
  C  C172  1  0.700730  0.673510  0.001800  1.0  -0.0711
  C  C173  1  0.657400  0.755020  0.978470  1.0  0.0224
  C  C174  1  0.621920  0.602850  0.998460  1.0  0.6684
  C  C175  1  0.559270  0.765690  0.954900  1.0  -0.1386
  C  C176  1  0.526740  0.840010  0.931220  1.0  -0.0933
  N  N177  1  0.123870  0.123880  0.247770  1.0  -0.2875
  N  N178  1  0.376480  0.376490  0.752920  1.0  -0.2887
  N  N179  1  0.876450  0.876430  0.752840  1.0  -0.2884
  N  N180  1  0.623460  0.623470  0.246950  1.0  -0.2856
  O  O181  1  0.962080  0.950510  0.076950  1.0  -0.6124
  O  O182  1  0.114870  0.126460  0.076980  1.0  -0.6109
  O  O183  1  0.949280  0.117380  0.079930  1.0  -0.6237
  O  O184  1  0.130630  0.962540  0.079920  1.0  -0.6235
  O  O185  1  0.385840  0.549900  0.924230  1.0  -0.6128
  O  O186  1  0.538420  0.374380  0.924250  1.0  -0.6131
  O  O187  1  0.368550  0.381570  0.918590  1.0  -0.6192
  O  O188  1  0.550050  0.537070  0.918630  1.0  -0.6183
  O  O189  1  0.037610  0.050440  0.919840  1.0  -0.6167
  O  O190  1  0.882240  0.869370  0.919800  1.0  -0.6162
  O  O191  1  0.049430  0.885040  0.923020  1.0  -0.6095
  O  O192  1  0.873640  0.037990  0.923030  1.0  -0.6093
  O  O193  1  0.618430  0.449910  0.081240  1.0  -0.6202
  O  O194  1  0.462800  0.631320  0.081230  1.0  -0.6213
  O  O195  1  0.625560  0.614110  0.075630  1.0  -0.6135
  O  O196  1  0.450060  0.461500  0.075600  1.0  -0.6127
