# generated using pymatgen
data_Zn5H42C60(NO9)4
_symmetry_space_group_name_H-M   'P 1'
_cell_length_a   24.94200000
_cell_length_b   24.94200000
_cell_length_c   24.94200000
_cell_angle_alpha   90.00000000
_cell_angle_beta   90.00000000
_cell_angle_gamma   90.00000000
_symmetry_Int_Tables_number   1
_chemical_formula_structural   Zn5H42C60(NO9)4
_chemical_formula_sum   'Zn20 H168 C240 N16 O144'
_cell_volume   15516.50210489
_cell_formula_units_Z   4
loop_
 _symmetry_equiv_pos_site_id
 _symmetry_equiv_pos_as_xyz
  1  'x, y, z'
loop_
 _atom_site_type_symbol
 _atom_site_label
 _atom_site_symmetry_multiplicity
 _atom_site_fract_x
 _atom_site_fract_y
 _atom_site_fract_z
 _atom_site_occupancy
 _atom_site_charge
  Zn  Zn1  1  0.078860  0.078860  0.078860  1.0  0.9458
  Zn  Zn2  1  0.231830  0.231830  0.231830  1.0  0.9266
  Zn  Zn3  1  0.421140  0.921140  0.578860  1.0  0.9467
  Zn  Zn4  1  0.268170  0.768170  0.731830  1.0  0.9291
  Zn  Zn5  1  0.921140  0.578860  0.421140  1.0  0.9464
  Zn  Zn6  1  0.768170  0.731830  0.268170  1.0  0.9272
  Zn  Zn7  1  0.578860  0.421140  0.921140  1.0  0.9459
  Zn  Zn8  1  0.731830  0.268170  0.768170  1.0  0.9264
  Zn  Zn9  1  0.921140  0.921140  0.921140  1.0  0.9463
  Zn  Zn10  1  0.768170  0.768170  0.768170  1.0  0.9274
  Zn  Zn11  1  0.578860  0.078860  0.421140  1.0  0.9458
  Zn  Zn12  1  0.731830  0.231830  0.268170  1.0  0.9265
  Zn  Zn13  1  0.078860  0.421140  0.578860  1.0  0.9463
  Zn  Zn14  1  0.231830  0.268170  0.731830  1.0  0.9271
  Zn  Zn15  1  0.421140  0.578860  0.078860  1.0  0.9465
  Zn  Zn16  1  0.268170  0.731830  0.231830  1.0  0.9276
  Zn  Zn17  1  0.000000  0.000000  0.000000  1.0  1.0823
  Zn  Zn18  1  0.500000  0.000000  0.500000  1.0  1.0823
  Zn  Zn19  1  0.000000  0.500000  0.500000  1.0  1.0823
  Zn  Zn20  1  0.500000  0.500000  0.000000  1.0  1.0823
  H  H21  1  0.956400  0.163100  0.154000  1.0  0.1439
  H  H22  1  0.882000  0.190900  0.202800  1.0  0.1427
  H  H23  1  0.869800  0.038700  0.095500  1.0  0.2529
  H  H24  1  0.116400  0.085300  0.196400  1.0  0.1168
  H  H25  1  0.069700  0.128100  0.185400  1.0  0.1109
  H  H26  1  0.114700  0.193300  0.226500  1.0  0.1118
  H  H27  1  0.152500  0.146800  0.250000  1.0  0.1175
  H  H28  1  0.543600  0.836900  0.654000  1.0  0.144
  H  H29  1  0.618000  0.809100  0.702800  1.0  0.1427
  H  H30  1  0.630200  0.961300  0.595500  1.0  0.2505
  H  H31  1  0.383600  0.914700  0.696400  1.0  0.117
  H  H32  1  0.430300  0.871900  0.685400  1.0  0.108
  H  H33  1  0.385300  0.806700  0.726500  1.0  0.1125
  H  H34  1  0.347500  0.853200  0.750000  1.0  0.1164
  H  H35  1  0.043600  0.663100  0.346000  1.0  0.1442
  H  H36  1  0.118000  0.690900  0.297200  1.0  0.1429
  H  H37  1  0.130200  0.538700  0.404500  1.0  0.2532
  H  H38  1  0.883600  0.585300  0.303600  1.0  0.115
  H  H39  1  0.930300  0.628100  0.314600  1.0  0.1093
  H  H40  1  0.885300  0.693300  0.273500  1.0  0.1123
  H  H41  1  0.847500  0.646800  0.250000  1.0  0.1159
  H  H42  1  0.456400  0.336900  0.846000  1.0  0.1438
  H  H43  1  0.382000  0.309100  0.797200  1.0  0.1423
  H  H44  1  0.369800  0.461300  0.904500  1.0  0.249
  H  H45  1  0.616400  0.414700  0.803600  1.0  0.1168
  H  H46  1  0.569700  0.371900  0.814600  1.0  0.1111
  H  H47  1  0.614700  0.306700  0.773500  1.0  0.1103
  H  H48  1  0.652500  0.353200  0.750000  1.0  0.1161
  H  H49  1  0.154000  0.956400  0.163100  1.0  0.1428
  H  H50  1  0.202800  0.882000  0.190900  1.0  0.143
  H  H51  1  0.095500  0.869800  0.038700  1.0  0.254
  H  H52  1  0.196400  0.116400  0.085300  1.0  0.1199
  H  H53  1  0.185400  0.069700  0.128100  1.0  0.1102
  H  H54  1  0.226500  0.114700  0.193300  1.0  0.1132
  H  H55  1  0.250000  0.152500  0.146800  1.0  0.1096
  H  H56  1  0.654000  0.543600  0.836900  1.0  0.1429
  H  H57  1  0.702800  0.618000  0.809100  1.0  0.1432
  H  H58  1  0.595500  0.630200  0.961300  1.0  0.2527
  H  H59  1  0.696400  0.383600  0.914700  1.0  0.119
  H  H60  1  0.685400  0.430300  0.871900  1.0  0.1142
  H  H61  1  0.726500  0.385300  0.806700  1.0  0.1126
  H  H62  1  0.750000  0.347500  0.853200  1.0  0.109
  H  H63  1  0.346000  0.043600  0.663100  1.0  0.143
  H  H64  1  0.297200  0.118000  0.690900  1.0  0.143
  H  H65  1  0.404500  0.130200  0.538700  1.0  0.2542
  H  H66  1  0.303600  0.883600  0.585300  1.0  0.1186
  H  H67  1  0.314600  0.930300  0.628100  1.0  0.1143
  H  H68  1  0.273500  0.885300  0.693300  1.0  0.1131
  H  H69  1  0.250000  0.847500  0.646800  1.0  0.1118
  H  H70  1  0.846000  0.456400  0.336900  1.0  0.1427
  H  H71  1  0.797200  0.382000  0.309100  1.0  0.1432
  H  H72  1  0.904500  0.369800  0.461300  1.0  0.254
  H  H73  1  0.803600  0.616400  0.414700  1.0  0.1193
  H  H74  1  0.814600  0.569700  0.371900  1.0  0.1093
  H  H75  1  0.773500  0.614700  0.306700  1.0  0.112
  H  H76  1  0.750000  0.652500  0.353200  1.0  0.1117
  H  H77  1  0.163100  0.154000  0.956400  1.0  0.1433
  H  H78  1  0.190900  0.202800  0.882000  1.0  0.1435
  H  H79  1  0.038700  0.095500  0.869800  1.0  0.254
  H  H80  1  0.085300  0.196400  0.116400  1.0  0.112
  H  H81  1  0.128100  0.185400  0.069700  1.0  0.1163
  H  H82  1  0.193300  0.226500  0.114700  1.0  0.1119
  H  H83  1  0.146800  0.250000  0.152500  1.0  0.1161
  H  H84  1  0.836900  0.654000  0.543600  1.0  0.1433
  H  H85  1  0.809100  0.702800  0.618000  1.0  0.1434
  H  H86  1  0.961300  0.595500  0.630200  1.0  0.2532
  H  H87  1  0.914700  0.696400  0.383600  1.0  0.1121
  H  H88  1  0.871900  0.685400  0.430300  1.0  0.1164
  H  H89  1  0.806700  0.726500  0.385300  1.0  0.1115
  H  H90  1  0.853200  0.750000  0.347500  1.0  0.1157
  H  H91  1  0.663100  0.346000  0.043600  1.0  0.1438
  H  H92  1  0.690900  0.297200  0.118000  1.0  0.1436
  H  H93  1  0.538700  0.404500  0.130200  1.0  0.2506
  H  H94  1  0.585300  0.303600  0.883600  1.0  0.1113
  H  H95  1  0.628100  0.314600  0.930300  1.0  0.1168
  H  H96  1  0.693300  0.273500  0.885300  1.0  0.1124
  H  H97  1  0.646800  0.250000  0.847500  1.0  0.1109
  H  H98  1  0.336900  0.846000  0.456400  1.0  0.1436
  H  H99  1  0.309100  0.797200  0.382000  1.0  0.1432
  H  H100  1  0.461300  0.904500  0.369800  1.0  0.2519
  H  H101  1  0.414700  0.803600  0.616400  1.0  0.1125
  H  H102  1  0.371900  0.814600  0.569700  1.0  0.1155
  H  H103  1  0.306700  0.773500  0.614700  1.0  0.1106
  H  H104  1  0.353200  0.750000  0.652500  1.0  0.1122
  H  H105  1  0.043600  0.836900  0.846000  1.0  0.144
  H  H106  1  0.118000  0.809100  0.797200  1.0  0.1422
  H  H107  1  0.130200  0.961300  0.904500  1.0  0.2494
  H  H108  1  0.883600  0.914700  0.803600  1.0  0.1167
  H  H109  1  0.930300  0.871900  0.814600  1.0  0.1097
  H  H110  1  0.885300  0.806700  0.773500  1.0  0.1116
  H  H111  1  0.847500  0.853200  0.750000  1.0  0.1161
  H  H112  1  0.456400  0.163100  0.346000  1.0  0.1437
  H  H113  1  0.382000  0.190900  0.297200  1.0  0.143
  H  H114  1  0.369800  0.038700  0.404500  1.0  0.2523
  H  H115  1  0.616400  0.085300  0.303600  1.0  0.1141
  H  H116  1  0.569700  0.128100  0.314600  1.0  0.1111
  H  H117  1  0.614700  0.193300  0.273500  1.0  0.1114
  H  H118  1  0.652500  0.146800  0.250000  1.0  0.1163
  H  H119  1  0.956400  0.336900  0.654000  1.0  0.144
  H  H120  1  0.882000  0.309100  0.702800  1.0  0.1426
  H  H121  1  0.869800  0.461300  0.595500  1.0  0.2499
  H  H122  1  0.116400  0.414700  0.696400  1.0  0.1171
  H  H123  1  0.069700  0.371900  0.685400  1.0  0.1111
  H  H124  1  0.114700  0.306700  0.726500  1.0  0.1122
  H  H125  1  0.152500  0.353200  0.750000  1.0  0.1169
  H  H126  1  0.543600  0.663100  0.154000  1.0  0.1442
  H  H127  1  0.618000  0.690900  0.202800  1.0  0.1426
  H  H128  1  0.630200  0.538700  0.095500  1.0  0.2537
  H  H129  1  0.383600  0.585300  0.196400  1.0  0.1174
  H  H130  1  0.430300  0.628100  0.185400  1.0  0.1075
  H  H131  1  0.385300  0.693300  0.226500  1.0  0.1119
  H  H132  1  0.347500  0.646800  0.250000  1.0  0.1167
  H  H133  1  0.846000  0.043600  0.836900  1.0  0.1428
  H  H134  1  0.797200  0.118000  0.809100  1.0  0.1431
  H  H135  1  0.904500  0.130200  0.961300  1.0  0.253
  H  H136  1  0.803600  0.883600  0.914700  1.0  0.1195
  H  H137  1  0.814600  0.930300  0.871900  1.0  0.1144
  H  H138  1  0.773500  0.885300  0.806700  1.0  0.1127
  H  H139  1  0.750000  0.847500  0.853200  1.0  0.1117
  H  H140  1  0.346000  0.456400  0.163100  1.0  0.1425
  H  H141  1  0.297200  0.382000  0.190900  1.0  0.1428
  H  H142  1  0.404500  0.369800  0.038700  1.0  0.2555
  H  H143  1  0.303600  0.616400  0.085300  1.0  0.1187
  H  H144  1  0.314600  0.569700  0.128100  1.0  0.1096
  H  H145  1  0.273500  0.614700  0.193300  1.0  0.1125
  H  H146  1  0.250000  0.652500  0.146800  1.0  0.1116
  H  H147  1  0.654000  0.956400  0.336900  1.0  0.143
  H  H148  1  0.702800  0.882000  0.309100  1.0  0.1433
  H  H149  1  0.595500  0.869800  0.461300  1.0  0.2534
  H  H150  1  0.696400  0.116400  0.414700  1.0  0.1189
  H  H151  1  0.685400  0.069700  0.371900  1.0  0.1099
  H  H152  1  0.726500  0.114700  0.306700  1.0  0.1122
  H  H153  1  0.750000  0.152500  0.353200  1.0  0.1092
  H  H154  1  0.154000  0.543600  0.663100  1.0  0.143
  H  H155  1  0.202800  0.618000  0.690900  1.0  0.1432
  H  H156  1  0.095500  0.630200  0.538700  1.0  0.2529
  H  H157  1  0.196400  0.383600  0.585300  1.0  0.1202
  H  H158  1  0.185400  0.430300  0.628100  1.0  0.1144
  H  H159  1  0.226500  0.385300  0.693300  1.0  0.1134
  H  H160  1  0.250000  0.347500  0.646800  1.0  0.1093
  H  H161  1  0.836900  0.846000  0.043600  1.0  0.1433
  H  H162  1  0.809100  0.797200  0.118000  1.0  0.1432
  H  H163  1  0.961300  0.904500  0.130200  1.0  0.2513
  H  H164  1  0.914700  0.803600  0.883600  1.0  0.1124
  H  H165  1  0.871900  0.814600  0.930300  1.0  0.1164
  H  H166  1  0.806700  0.773500  0.885300  1.0  0.1122
  H  H167  1  0.853200  0.750000  0.847500  1.0  0.1112
  H  H168  1  0.163100  0.346000  0.456400  1.0  0.1437
  H  H169  1  0.190900  0.297200  0.382000  1.0  0.1435
  H  H170  1  0.038700  0.404500  0.369800  1.0  0.2509
  H  H171  1  0.085300  0.303600  0.616400  1.0  0.1115
  H  H172  1  0.128100  0.314600  0.569700  1.0  0.1158
  H  H173  1  0.193300  0.273500  0.614700  1.0  0.1104
  H  H174  1  0.146800  0.250000  0.652500  1.0  0.1112
  H  H175  1  0.336900  0.654000  0.956400  1.0  0.1432
  H  H176  1  0.309100  0.702800  0.882000  1.0  0.1433
  H  H177  1  0.461300  0.595500  0.869800  1.0  0.2542
  H  H178  1  0.414700  0.696400  0.116400  1.0  0.1128
  H  H179  1  0.371900  0.685400  0.069700  1.0  0.1162
  H  H180  1  0.306700  0.726500  0.114700  1.0  0.1117
  H  H181  1  0.353200  0.750000  0.152500  1.0  0.1159
  H  H182  1  0.663100  0.154000  0.543600  1.0  0.1439
  H  H183  1  0.690900  0.202800  0.618000  1.0  0.1439
  H  H184  1  0.538700  0.095500  0.630200  1.0  0.2529
  H  H185  1  0.585300  0.196400  0.383600  1.0  0.1115
  H  H186  1  0.628100  0.185400  0.430300  1.0  0.1165
  H  H187  1  0.693300  0.226500  0.385300  1.0  0.1126
  H  H188  1  0.646800  0.250000  0.347500  1.0  0.1162
  C  C189  1  0.969080  0.078130  0.092090  1.0  0.7072
  C  C190  1  0.920520  0.097690  0.120630  1.0  -0.1299
  C  C191  1  0.923780  0.143520  0.152050  1.0  -0.0209
  C  C192  1  0.879420  0.160360  0.180280  1.0  0.0006
  C  C193  1  0.831410  0.133530  0.176270  1.0  -0.0968
  C  C194  1  0.783720  0.154250  0.206090  1.0  0.7526
  C  C195  1  0.828160  0.088350  0.144490  1.0  0.2861
  C  C196  1  0.872290  0.070050  0.116940  1.0  -0.0935
  C  C197  1  0.108750  0.121730  0.182710  1.0  0.0017
  C  C198  1  0.139100  0.163600  0.216610  1.0  0.0023
  C  C199  1  0.530920  0.921870  0.592090  1.0  0.7094
  C  C200  1  0.579480  0.902310  0.620630  1.0  -0.1304
  C  C201  1  0.576220  0.856480  0.652050  1.0  -0.0199
  C  C202  1  0.620580  0.839640  0.680280  1.0  -0.0015
  C  C203  1  0.668590  0.866470  0.676270  1.0  -0.0953
  C  C204  1  0.716280  0.845750  0.706090  1.0  0.7528
  C  C205  1  0.671840  0.911650  0.644490  1.0  0.2836
  C  C206  1  0.627710  0.929950  0.616940  1.0  -0.0911
  C  C207  1  0.391250  0.878270  0.682710  1.0  0.0022
  C  C208  1  0.360900  0.836400  0.716610  1.0  0.0028
  C  C209  1  0.030920  0.578130  0.407910  1.0  0.71
  C  C210  1  0.079480  0.597690  0.379370  1.0  -0.1306
  C  C211  1  0.076220  0.643520  0.347950  1.0  -0.0215
  C  C212  1  0.120580  0.660360  0.319720  1.0  -0.0008
  C  C213  1  0.168590  0.633530  0.323730  1.0  -0.0951
  C  C214  1  0.216280  0.654250  0.293910  1.0  0.7532
  C  C215  1  0.171840  0.588350  0.355510  1.0  0.2837
  C  C216  1  0.127710  0.570050  0.383060  1.0  -0.0954
  C  C217  1  0.891250  0.621730  0.317290  1.0  0.0011
  C  C218  1  0.860900  0.663600  0.283390  1.0  0.0016
  C  C219  1  0.469080  0.421870  0.907910  1.0  0.7078
  C  C220  1  0.420520  0.402310  0.879370  1.0  -0.1309
  C  C221  1  0.423780  0.356480  0.847950  1.0  -0.0199
  C  C222  1  0.379420  0.339640  0.819720  1.0  -0.002
  C  C223  1  0.331410  0.366470  0.823730  1.0  -0.0974
  C  C224  1  0.283720  0.345750  0.793910  1.0  0.7524
  C  C225  1  0.328160  0.411650  0.855510  1.0  0.2854
  C  C226  1  0.372290  0.429950  0.883060  1.0  -0.0932
  C  C227  1  0.608750  0.378270  0.817290  1.0  0.0008
  C  C228  1  0.639100  0.336400  0.783390  1.0  0.0035
  C  C229  1  0.092090  0.969080  0.078130  1.0  0.7106
  C  C230  1  0.120630  0.920520  0.097690  1.0  -0.132
  C  C231  1  0.152050  0.923780  0.143520  1.0  -0.0214
  C  C232  1  0.180280  0.879420  0.160360  1.0  -0.0009
  C  C233  1  0.176270  0.831410  0.133530  1.0  -0.0976
  C  C234  1  0.206090  0.783720  0.154250  1.0  0.7555
  C  C235  1  0.144490  0.828160  0.088350  1.0  0.2836
  C  C236  1  0.116940  0.872290  0.070050  1.0  -0.0949
  C  C237  1  0.182710  0.108750  0.121730  1.0  0.0004
  C  C238  1  0.216610  0.139100  0.163600  1.0  -0.0016
  C  C239  1  0.592090  0.530920  0.921870  1.0  0.7099
  C  C240  1  0.620630  0.579480  0.902310  1.0  -0.1326
  C  C241  1  0.652050  0.576220  0.856480  1.0  -0.0218
  C  C242  1  0.680280  0.620580  0.839640  1.0  -0.0005
  C  C243  1  0.676270  0.668590  0.866470  1.0  -0.0968
  C  C244  1  0.706090  0.716280  0.845750  1.0  0.7552
  C  C245  1  0.644490  0.671840  0.911650  1.0  0.2818
  C  C246  1  0.616940  0.627710  0.929950  1.0  -0.0936
  C  C247  1  0.682710  0.391250  0.878270  1.0  0.0008
  C  C248  1  0.716610  0.360900  0.836400  1.0  -0.0007
  C  C249  1  0.407910  0.030920  0.578130  1.0  0.7098
  C  C250  1  0.379370  0.079480  0.597690  1.0  -0.1314
  C  C251  1  0.347950  0.076220  0.643520  1.0  -0.0215
  C  C252  1  0.319720  0.120580  0.660360  1.0  -0.0015
  C  C253  1  0.323730  0.168590  0.633530  1.0  -0.0975
  C  C254  1  0.293910  0.216280  0.654250  1.0  0.756
  C  C255  1  0.355510  0.171840  0.588350  1.0  0.2843
  C  C256  1  0.383060  0.127710  0.570050  1.0  -0.0945
  C  C257  1  0.317290  0.891250  0.621730  1.0  -1e-04
  C  C258  1  0.283390  0.860900  0.663600  1.0  -0.0015
  C  C259  1  0.907910  0.469080  0.421870  1.0  0.7099
  C  C260  1  0.879370  0.420520  0.402310  1.0  -0.1321
  C  C261  1  0.847950  0.423780  0.356480  1.0  -0.0219
  C  C262  1  0.819720  0.379420  0.339640  1.0  -0.0008
  C  C263  1  0.823730  0.331410  0.366470  1.0  -0.0976
  C  C264  1  0.793910  0.283720  0.345750  1.0  0.7561
  C  C265  1  0.855510  0.328160  0.411650  1.0  0.283
  C  C266  1  0.883060  0.372290  0.429950  1.0  -0.0909
  C  C267  1  0.817290  0.608750  0.378270  1.0  0.0007
  C  C268  1  0.783390  0.639100  0.336400  1.0  0.0004
  C  C269  1  0.078130  0.092090  0.969080  1.0  0.7112
  C  C270  1  0.097690  0.120630  0.920520  1.0  -0.1311
  C  C271  1  0.143520  0.152050  0.923780  1.0  -0.0192
  C  C272  1  0.160360  0.180280  0.879420  1.0  -0.0003
  C  C273  1  0.133530  0.176270  0.831410  1.0  -0.0952
  C  C274  1  0.154250  0.206090  0.783720  1.0  0.7558
  C  C275  1  0.088350  0.144490  0.828160  1.0  0.2902
  C  C276  1  0.070050  0.116940  0.872290  1.0  -0.0929
  C  C277  1  0.121730  0.182710  0.108750  1.0  0.0018
  C  C278  1  0.163600  0.216610  0.139100  1.0  -0.0042
  C  C279  1  0.921870  0.592090  0.530920  1.0  0.7126
  C  C280  1  0.902310  0.620630  0.579480  1.0  -0.1317
  C  C281  1  0.856480  0.652050  0.576220  1.0  -0.0194
  C  C282  1  0.839640  0.680280  0.620580  1.0  -0.0004
  C  C283  1  0.866470  0.676270  0.668590  1.0  -0.0952
  C  C284  1  0.845750  0.706090  0.716280  1.0  0.7572
  C  C285  1  0.911650  0.644490  0.671840  1.0  0.2898
  C  C286  1  0.929950  0.616940  0.627710  1.0  -0.0897
  C  C287  1  0.878270  0.682710  0.391250  1.0  0.0009
  C  C288  1  0.836400  0.716610  0.360900  1.0  -0.002
  C  C289  1  0.578130  0.407910  0.030920  1.0  0.7132
  C  C290  1  0.597690  0.379370  0.079480  1.0  -0.1309
  C  C291  1  0.643520  0.347950  0.076220  1.0  -0.0188
  C  C292  1  0.660360  0.319720  0.120580  1.0  -0.0008
  C  C293  1  0.633530  0.323730  0.168590  1.0  -0.0955
  C  C294  1  0.654250  0.293910  0.216280  1.0  0.7564
  C  C295  1  0.588350  0.355510  0.171840  1.0  0.2915
  C  C296  1  0.570050  0.383060  0.127710  1.0  -0.0938
  C  C297  1  0.621730  0.317290  0.891250  1.0  0.0013
  C  C298  1  0.663600  0.283390  0.860900  1.0  -0.0011
  C  C299  1  0.421870  0.907910  0.469080  1.0  0.7114
  C  C300  1  0.402310  0.879370  0.420520  1.0  -0.1314
  C  C301  1  0.356480  0.847950  0.423780  1.0  -0.0197
  C  C302  1  0.339640  0.819720  0.379420  1.0  -0.0005
  C  C303  1  0.366470  0.823730  0.331410  1.0  -0.0954
  C  C304  1  0.345750  0.793910  0.283720  1.0  0.7562
  C  C305  1  0.411650  0.855510  0.328160  1.0  0.2894
  C  C306  1  0.429950  0.883060  0.372290  1.0  -0.0898
  C  C307  1  0.378270  0.817290  0.608750  1.0  0.0011
  C  C308  1  0.336400  0.783390  0.639100  1.0  -0.0019
  C  C309  1  0.030920  0.921870  0.907910  1.0  0.7099
  C  C310  1  0.079480  0.902310  0.879370  1.0  -0.1313
  C  C311  1  0.076220  0.856480  0.847950  1.0  -0.0201
  C  C312  1  0.120580  0.839640  0.819720  1.0  -0.0013
  C  C313  1  0.168590  0.866470  0.823730  1.0  -0.0953
  C  C314  1  0.216280  0.845750  0.793910  1.0  0.7528
  C  C315  1  0.171840  0.911650  0.855510  1.0  0.2829
  C  C316  1  0.127710  0.929950  0.883060  1.0  -0.0937
  C  C317  1  0.891250  0.878270  0.817290  1.0  0.0027
  C  C318  1  0.860900  0.836400  0.783390  1.0  0.002
  C  C319  1  0.469080  0.078130  0.407910  1.0  0.708
  C  C320  1  0.420520  0.097690  0.379370  1.0  -0.1304
  C  C321  1  0.423780  0.143520  0.347950  1.0  -0.0206
  C  C322  1  0.379420  0.160360  0.319720  1.0  -0.0008
  C  C323  1  0.331410  0.133530  0.323730  1.0  -0.0971
  C  C324  1  0.283720  0.154250  0.293910  1.0  0.7526
  C  C325  1  0.328160  0.088350  0.355510  1.0  0.2857
  C  C326  1  0.372290  0.070050  0.383060  1.0  -0.0941
  C  C327  1  0.608750  0.121730  0.317290  1.0  0.0011
  C  C328  1  0.639100  0.163600  0.283390  1.0  0.003
  C  C329  1  0.969080  0.421870  0.592090  1.0  0.7073
  C  C330  1  0.920520  0.402310  0.620630  1.0  -0.13
  C  C331  1  0.923780  0.356480  0.652050  1.0  -0.0196
  C  C332  1  0.879420  0.339640  0.680280  1.0  -0.0015
  C  C333  1  0.831410  0.366470  0.676270  1.0  -0.097
  C  C334  1  0.783720  0.345750  0.706090  1.0  0.7526
  C  C335  1  0.828160  0.411650  0.644490  1.0  0.2858
  C  C336  1  0.872290  0.429950  0.616940  1.0  -0.0921
  C  C337  1  0.108750  0.378270  0.682710  1.0  0.0003
  C  C338  1  0.139100  0.336400  0.716610  1.0  0.0027
  C  C339  1  0.530920  0.578130  0.092090  1.0  0.7093
  C  C340  1  0.579480  0.597690  0.120630  1.0  -0.1302
  C  C341  1  0.576220  0.643520  0.152050  1.0  -0.0217
  C  C342  1  0.620580  0.660360  0.180280  1.0  -0.0003
  C  C343  1  0.668590  0.633530  0.176270  1.0  -0.0951
  C  C344  1  0.716280  0.654250  0.206090  1.0  0.7529
  C  C345  1  0.671840  0.588350  0.144490  1.0  0.2844
  C  C346  1  0.627710  0.570050  0.116940  1.0  -0.0933
  C  C347  1  0.391250  0.621730  0.182710  1.0  0.0014
  C  C348  1  0.360900  0.663600  0.216610  1.0  0.0025
  C  C349  1  0.907910  0.030920  0.921870  1.0  0.7097
  C  C350  1  0.879370  0.079480  0.902310  1.0  -0.1324
  C  C351  1  0.847950  0.076220  0.856480  1.0  -0.0206
  C  C352  1  0.819720  0.120580  0.839640  1.0  -0.0004
  C  C353  1  0.823730  0.168590  0.866470  1.0  -0.0971
  C  C354  1  0.793910  0.216280  0.845750  1.0  0.7557
  C  C355  1  0.855510  0.171840  0.911650  1.0  0.2822
  C  C356  1  0.883060  0.127710  0.929950  1.0  -0.0913
  C  C357  1  0.817290  0.891250  0.878270  1.0  -0.0011
  C  C358  1  0.783390  0.860900  0.836400  1.0  -0.0008
  C  C359  1  0.407910  0.469080  0.078130  1.0  0.71
  C  C360  1  0.379370  0.420520  0.097690  1.0  -0.1315
  C  C361  1  0.347950  0.423780  0.143520  1.0  -0.023
  C  C362  1  0.319720  0.379420  0.160360  1.0  -0.0018
  C  C363  1  0.323730  0.331410  0.133530  1.0  -0.0978
  C  C364  1  0.293910  0.283720  0.154250  1.0  0.7565
  C  C365  1  0.355510  0.328160  0.088350  1.0  0.2844
  C  C366  1  0.383060  0.372290  0.070050  1.0  -0.0944
  C  C367  1  0.317290  0.608750  0.121730  1.0  0.0015
  C  C368  1  0.283390  0.639100  0.163600  1.0  -0.0004
  C  C369  1  0.592090  0.969080  0.421870  1.0  0.7105
  C  C370  1  0.620630  0.920520  0.402310  1.0  -0.1323
  C  C371  1  0.652050  0.923780  0.356480  1.0  -0.0222
  C  C372  1  0.680280  0.879420  0.339640  1.0  -0.0011
  C  C373  1  0.676270  0.831410  0.366470  1.0  -0.0973
  C  C374  1  0.706090  0.783720  0.345750  1.0  0.7553
  C  C375  1  0.644490  0.828160  0.411650  1.0  0.2819
  C  C376  1  0.616940  0.872290  0.429950  1.0  -0.0925
  C  C377  1  0.682710  0.108750  0.378270  1.0  0.001
  C  C378  1  0.716610  0.139100  0.336400  1.0  -0.0008
  C  C379  1  0.092090  0.530920  0.578130  1.0  0.7101
  C  C380  1  0.120630  0.579480  0.597690  1.0  -0.1318
  C  C381  1  0.152050  0.576220  0.643520  1.0  -0.0211
  C  C382  1  0.180280  0.620580  0.660360  1.0  -0.0004
  C  C383  1  0.176270  0.668590  0.633530  1.0  -0.0972
  C  C384  1  0.206090  0.716280  0.654250  1.0  0.7554
  C  C385  1  0.144490  0.671840  0.588350  1.0  0.2839
  C  C386  1  0.116940  0.627710  0.570050  1.0  -0.0955
  C  C387  1  0.182710  0.391250  0.621730  1.0  0.0
  C  C388  1  0.216610  0.360900  0.663600  1.0  -0.0012
  C  C389  1  0.921870  0.907910  0.030920  1.0  0.7126
  C  C390  1  0.902310  0.879370  0.079480  1.0  -0.1314
  C  C391  1  0.856480  0.847950  0.076220  1.0  -0.0196
  C  C392  1  0.839640  0.819720  0.120580  1.0  -0.001
  C  C393  1  0.866470  0.823730  0.168590  1.0  -0.0951
  C  C394  1  0.845750  0.793910  0.216280  1.0  0.7571
  C  C395  1  0.911650  0.855510  0.171840  1.0  0.291
  C  C396  1  0.929950  0.883060  0.127710  1.0  -0.0895
  C  C397  1  0.878270  0.817290  0.891250  1.0  0.0006
  C  C398  1  0.836400  0.783390  0.860900  1.0  -0.0003
  C  C399  1  0.078130  0.407910  0.469080  1.0  0.7117
  C  C400  1  0.097690  0.379370  0.420520  1.0  -0.1316
  C  C401  1  0.143520  0.347950  0.423780  1.0  -0.0185
  C  C402  1  0.160360  0.319720  0.379420  1.0  -1e-04
  C  C403  1  0.133530  0.323730  0.331410  1.0  -0.0957
  C  C404  1  0.154250  0.293910  0.283720  1.0  0.7558
  C  C405  1  0.088350  0.355510  0.328160  1.0  0.2899
  C  C406  1  0.070050  0.383060  0.372290  1.0  -0.0936
  C  C407  1  0.121730  0.317290  0.608750  1.0  0.002
  C  C408  1  0.163600  0.283390  0.639100  1.0  -0.0029
  C  C409  1  0.421870  0.592090  0.969080  1.0  0.7109
  C  C410  1  0.402310  0.620630  0.920520  1.0  -0.1313
  C  C411  1  0.356480  0.652050  0.923780  1.0  -0.02
  C  C412  1  0.339640  0.680280  0.879420  1.0  -0.0002
  C  C413  1  0.366470  0.676270  0.831410  1.0  -0.095
  C  C414  1  0.345750  0.706090  0.783720  1.0  0.7563
  C  C415  1  0.411650  0.644490  0.828160  1.0  0.2891
  C  C416  1  0.429950  0.616940  0.872290  1.0  -0.0887
  C  C417  1  0.378270  0.682710  0.108750  1.0  0.0022
  C  C418  1  0.336400  0.716610  0.139100  1.0  -0.0034
  C  C419  1  0.578130  0.092090  0.530920  1.0  0.7131
  C  C420  1  0.597690  0.120630  0.579480  1.0  -0.1308
  C  C421  1  0.643520  0.152050  0.576220  1.0  -0.0189
  C  C422  1  0.660360  0.180280  0.620580  1.0  -0.0005
  C  C423  1  0.633530  0.176270  0.668590  1.0  -0.0956
  C  C424  1  0.654250  0.206090  0.716280  1.0  0.7565
  C  C425  1  0.588350  0.144490  0.671840  1.0  0.2906
  C  C426  1  0.570050  0.116940  0.627710  1.0  -0.094
  C  C427  1  0.621730  0.182710  0.391250  1.0  1e-04
  C  C428  1  0.663600  0.216610  0.360900  1.0  -0.0024
  N  N429  1  0.125910  0.125910  0.125910  1.0  -0.1369
  N  N430  1  0.184710  0.184710  0.184710  1.0  -0.1373
  N  N431  1  0.374090  0.874090  0.625910  1.0  -0.1372
  N  N432  1  0.315290  0.815290  0.684710  1.0  -0.1391
  N  N433  1  0.874090  0.625910  0.374090  1.0  -0.1375
  N  N434  1  0.815290  0.684710  0.315290  1.0  -0.14
  N  N435  1  0.625910  0.374090  0.874090  1.0  -0.1365
  N  N436  1  0.684710  0.315290  0.815290  1.0  -0.1384
  N  N437  1  0.874090  0.874090  0.874090  1.0  -0.1366
  N  N438  1  0.815290  0.815290  0.815290  1.0  -0.1399
  N  N439  1  0.625910  0.125910  0.374090  1.0  -0.1365
  N  N440  1  0.684710  0.184710  0.315290  1.0  -0.1388
  N  N441  1  0.125910  0.374090  0.625910  1.0  -0.1372
  N  N442  1  0.184710  0.315290  0.684710  1.0  -0.1374
  N  N443  1  0.374090  0.625910  0.125910  1.0  -0.1371
  N  N444  1  0.315290  0.684710  0.184710  1.0  -0.1393
  O  O445  1  0.009580  0.109860  0.092960  1.0  -0.5879
  O  O446  1  0.968950  0.033200  0.070790  1.0  -0.5651
  O  O447  1  0.791790  0.193740  0.237110  1.0  -0.5569
  O  O448  1  0.738980  0.132030  0.199930  1.0  -0.4983
  O  O449  1  0.780470  0.061840  0.137160  1.0  -0.3454
  O  O450  1  0.868500  0.021400  0.092000  1.0  -0.5592
  O  O451  1  0.490420  0.890140  0.592960  1.0  -0.5881
  O  O452  1  0.531050  0.966800  0.570790  1.0  -0.5637
  O  O453  1  0.708210  0.806260  0.737110  1.0  -0.5571
  O  O454  1  0.761020  0.867970  0.699930  1.0  -0.5003
  O  O455  1  0.719530  0.938160  0.637160  1.0  -0.3474
  O  O456  1  0.631500  0.978600  0.592000  1.0  -0.5479
  O  O457  1  0.990420  0.609860  0.407040  1.0  -0.5873
  O  O458  1  0.031050  0.533200  0.429210  1.0  -0.5643
  O  O459  1  0.208210  0.693740  0.262890  1.0  -0.5578
  O  O460  1  0.261020  0.632030  0.300070  1.0  -0.5004
  O  O461  1  0.219530  0.561840  0.362840  1.0  -0.3478
  O  O462  1  0.131500  0.521400  0.408000  1.0  -0.5596
  O  O463  1  0.509580  0.390140  0.907040  1.0  -0.5874
  O  O464  1  0.468950  0.466800  0.929210  1.0  -0.5639
  O  O465  1  0.291790  0.306260  0.762890  1.0  -0.5579
  O  O466  1  0.238980  0.367970  0.800070  1.0  -0.4989
  O  O467  1  0.280470  0.438160  0.862840  1.0  -0.3482
  O  O468  1  0.368500  0.478600  0.908000  1.0  -0.5528
  O  O469  1  0.092960  0.009580  0.109860  1.0  -0.5871
  O  O470  1  0.070790  0.968950  0.033200  1.0  -0.563
  O  O471  1  0.237110  0.791790  0.193740  1.0  -0.5578
  O  O472  1  0.199930  0.738980  0.132030  1.0  -0.503
  O  O473  1  0.137160  0.780470  0.061840  1.0  -0.3477
  O  O474  1  0.092000  0.868500  0.021400  1.0  -0.5517
  O  O475  1  0.592960  0.490420  0.890140  1.0  -0.5901
  O  O476  1  0.570790  0.531050  0.966800  1.0  -0.5634
  O  O477  1  0.737110  0.708210  0.806260  1.0  -0.5569
  O  O478  1  0.699930  0.761020  0.867970  1.0  -0.5034
  O  O479  1  0.637160  0.719530  0.938160  1.0  -0.3513
  O  O480  1  0.592000  0.631500  0.978600  1.0  -0.5564
  O  O481  1  0.407040  0.990420  0.609860  1.0  -0.5881
  O  O482  1  0.429210  0.031050  0.533200  1.0  -0.5625
  O  O483  1  0.262890  0.208210  0.693740  1.0  -0.5581
  O  O484  1  0.300070  0.261020  0.632030  1.0  -0.5028
  O  O485  1  0.362840  0.219530  0.561840  1.0  -0.3524
  O  O486  1  0.408000  0.131500  0.521400  1.0  -0.5526
  O  O487  1  0.907040  0.509580  0.390140  1.0  -0.5889
  O  O488  1  0.929210  0.468950  0.466800  1.0  -0.562
  O  O489  1  0.762890  0.291790  0.306260  1.0  -0.5582
  O  O490  1  0.800070  0.238980  0.367970  1.0  -0.5055
  O  O491  1  0.862840  0.280470  0.438160  1.0  -0.3492
  O  O492  1  0.908000  0.368500  0.478600  1.0  -0.5555
  O  O493  1  0.109860  0.092960  0.009580  1.0  -0.5859
  O  O494  1  0.033200  0.070790  0.968950  1.0  -0.5627
  O  O495  1  0.193740  0.237110  0.791790  1.0  -0.5557
  O  O496  1  0.132030  0.199930  0.738980  1.0  -0.5032
  O  O497  1  0.061840  0.137160  0.780470  1.0  -0.3437
  O  O498  1  0.021400  0.092000  0.868500  1.0  -0.5627
  O  O499  1  0.890140  0.592960  0.490420  1.0  -0.5878
  O  O500  1  0.966800  0.570790  0.531050  1.0  -0.5623
  O  O501  1  0.806260  0.737110  0.708210  1.0  -0.5554
  O  O502  1  0.867970  0.699930  0.761020  1.0  -0.5067
  O  O503  1  0.938160  0.637160  0.719530  1.0  -0.346
  O  O504  1  0.978600  0.592000  0.631500  1.0  -0.5688
  O  O505  1  0.609860  0.407040  0.990420  1.0  -0.5866
  O  O506  1  0.533200  0.429210  0.031050  1.0  -0.5625
  O  O507  1  0.693740  0.262890  0.208210  1.0  -0.5569
  O  O508  1  0.632030  0.300070  0.261020  1.0  -0.5036
  O  O509  1  0.561840  0.362840  0.219530  1.0  -0.3482
  O  O510  1  0.521400  0.408000  0.131500  1.0  -0.5604
  O  O511  1  0.390140  0.907040  0.509580  1.0  -0.5876
  O  O512  1  0.466800  0.929210  0.468950  1.0  -0.5625
  O  O513  1  0.306260  0.762890  0.291790  1.0  -0.5558
  O  O514  1  0.367970  0.800070  0.238980  1.0  -0.5054
  O  O515  1  0.438160  0.862840  0.280470  1.0  -0.3465
  O  O516  1  0.478600  0.908000  0.368500  1.0  -0.5714
  O  O517  1  0.990420  0.890140  0.907040  1.0  -0.5875
  O  O518  1  0.031050  0.966800  0.929210  1.0  -0.5634
  O  O519  1  0.208210  0.806260  0.762890  1.0  -0.5581
  O  O520  1  0.261020  0.867970  0.800070  1.0  -0.5002
  O  O521  1  0.219530  0.938160  0.862840  1.0  -0.3464
  O  O522  1  0.131500  0.978600  0.908000  1.0  -0.5506
  O  O523  1  0.509580  0.109860  0.407040  1.0  -0.5878
  O  O524  1  0.468950  0.033200  0.429210  1.0  -0.5647
  O  O525  1  0.291790  0.193740  0.262890  1.0  -0.5571
  O  O526  1  0.238980  0.132030  0.300070  1.0  -0.4999
  O  O527  1  0.280470  0.061840  0.362840  1.0  -0.3479
  O  O528  1  0.368500  0.021400  0.408000  1.0  -0.5614
  O  O529  1  0.009580  0.390140  0.592960  1.0  -0.5879
  O  O530  1  0.968950  0.466800  0.570790  1.0  -0.5639
  O  O531  1  0.791790  0.306260  0.737110  1.0  -0.5577
  O  O532  1  0.738980  0.367970  0.699930  1.0  -0.4987
  O  O533  1  0.780470  0.438160  0.637160  1.0  -0.3479
  O  O534  1  0.868500  0.478600  0.592000  1.0  -0.55
  O  O535  1  0.490420  0.609860  0.092960  1.0  -0.5875
  O  O536  1  0.531050  0.533200  0.070790  1.0  -0.5637
  O  O537  1  0.708210  0.693740  0.237110  1.0  -0.5569
  O  O538  1  0.761020  0.632030  0.199930  1.0  -0.4992
  O  O539  1  0.719530  0.561840  0.137160  1.0  -0.3474
  O  O540  1  0.631500  0.521400  0.092000  1.0  -0.5577
  O  O541  1  0.907040  0.990420  0.890140  1.0  -0.5899
  O  O542  1  0.929210  0.031050  0.966800  1.0  -0.5627
  O  O543  1  0.762890  0.208210  0.806260  1.0  -0.5578
  O  O544  1  0.800070  0.261020  0.867970  1.0  -0.5042
  O  O545  1  0.862840  0.219530  0.938160  1.0  -0.3486
  O  O546  1  0.908000  0.131500  0.978600  1.0  -0.5566
  O  O547  1  0.407040  0.509580  0.109860  1.0  -0.5869
  O  O548  1  0.429210  0.468950  0.033200  1.0  -0.5622
  O  O549  1  0.262890  0.291790  0.193740  1.0  -0.5576
  O  O550  1  0.300070  0.238980  0.132030  1.0  -0.5044
  O  O551  1  0.362840  0.280470  0.061840  1.0  -0.3492
  O  O552  1  0.408000  0.368500  0.021400  1.0  -0.5509
  O  O553  1  0.592960  0.009580  0.390140  1.0  -0.5893
  O  O554  1  0.570790  0.968950  0.466800  1.0  -0.5626
  O  O555  1  0.737110  0.791790  0.306260  1.0  -0.5584
  O  O556  1  0.699930  0.738980  0.367970  1.0  -0.5031
  O  O557  1  0.637160  0.780470  0.438160  1.0  -0.3504
  O  O558  1  0.592000  0.868500  0.478600  1.0  -0.5558
  O  O559  1  0.092960  0.490420  0.609860  1.0  -0.588
  O  O560  1  0.070790  0.531050  0.533200  1.0  -0.5629
  O  O561  1  0.237110  0.708210  0.693740  1.0  -0.5572
  O  O562  1  0.199930  0.761020  0.632030  1.0  -0.5031
  O  O563  1  0.137160  0.719530  0.561840  1.0  -0.3534
  O  O564  1  0.092000  0.631500  0.521400  1.0  -0.5526
  O  O565  1  0.890140  0.907040  0.990420  1.0  -0.5881
  O  O566  1  0.966800  0.929210  0.031050  1.0  -0.5619
  O  O567  1  0.806260  0.762890  0.208210  1.0  -0.5558
  O  O568  1  0.867970  0.800070  0.261020  1.0  -0.5065
  O  O569  1  0.938160  0.862840  0.219530  1.0  -0.3441
  O  O570  1  0.978600  0.908000  0.131500  1.0  -0.5681
  O  O571  1  0.109860  0.407040  0.509580  1.0  -0.5867
  O  O572  1  0.033200  0.429210  0.468950  1.0  -0.5626
  O  O573  1  0.193740  0.262890  0.291790  1.0  -0.5563
  O  O574  1  0.132030  0.300070  0.238980  1.0  -0.5035
  O  O575  1  0.061840  0.362840  0.280470  1.0  -0.3465
  O  O576  1  0.021400  0.408000  0.368500  1.0  -0.5624
  O  O577  1  0.390140  0.592960  0.009580  1.0  -0.587
  O  O578  1  0.466800  0.570790  0.968950  1.0  -0.5621
  O  O579  1  0.306260  0.737110  0.791790  1.0  -0.5556
  O  O580  1  0.367970  0.699930  0.738980  1.0  -0.504
  O  O581  1  0.438160  0.637160  0.780470  1.0  -0.3461
  O  O582  1  0.478600  0.592000  0.868500  1.0  -0.5723
  O  O583  1  0.609860  0.092960  0.490420  1.0  -0.5863
  O  O584  1  0.533200  0.070790  0.531050  1.0  -0.5619
  O  O585  1  0.693740  0.237110  0.708210  1.0  -0.5566
  O  O586  1  0.632030  0.199930  0.761020  1.0  -0.5044
  O  O587  1  0.561840  0.137160  0.719530  1.0  -0.3481
  O  O588  1  0.521400  0.092000  0.631500  1.0  -0.561
