# generated using pymatgen
data_ZnH3(C3O2)3
_symmetry_space_group_name_H-M   'P 1'
_cell_length_a   9.46000000
_cell_length_b   15.98000000
_cell_length_c   11.57400000
_cell_angle_alpha   90.00000000
_cell_angle_beta   93.89000000
_cell_angle_gamma   90.00000000
_symmetry_Int_Tables_number   1
_chemical_formula_structural   ZnH3(C3O2)3
_chemical_formula_sum   'Zn4 H12 C36 O24'
_cell_volume   1745.61987908
_cell_formula_units_Z   4
loop_
 _symmetry_equiv_pos_site_id
 _symmetry_equiv_pos_as_xyz
  1  'x, y, z'
loop_
 _atom_site_type_symbol
 _atom_site_label
 _atom_site_symmetry_multiplicity
 _atom_site_fract_x
 _atom_site_fract_y
 _atom_site_fract_z
 _atom_site_occupancy
 _atom_site_charge
  Zn  Zn1  1  0.142760  0.918810  0.450220  1.0  1.1088
  Zn  Zn2  1  0.357240  0.418810  0.049780  1.0  1.1098
  Zn  Zn3  1  0.857240  0.081190  0.549780  1.0  1.1095
  Zn  Zn4  1  0.642760  0.581190  0.950220  1.0  1.1086
  H  H5  1  0.578900  0.956200  0.372500  1.0  0.1281
  H  H6  1  0.860300  0.827600  0.202800  1.0  0.116
  H  H7  1  0.448900  0.767300  0.165700  1.0  0.1241
  H  H8  1  0.921100  0.456200  0.127500  1.0  0.1287
  H  H9  1  0.639700  0.327600  0.297200  1.0  0.1175
  H  H10  1  0.051100  0.267300  0.334300  1.0  0.1231
  H  H11  1  0.421100  0.043800  0.627500  1.0  0.1286
  H  H12  1  0.139700  0.172400  0.797200  1.0  0.1176
  H  H13  1  0.551100  0.232700  0.834300  1.0  0.1234
  H  H14  1  0.078900  0.543800  0.872500  1.0  0.1286
  H  H15  1  0.360300  0.672400  0.702800  1.0  0.1162
  H  H16  1  0.948900  0.732700  0.665700  1.0  0.1247
  C  C17  1  0.598700  0.912400  0.323200  1.0  0.0185
  C  C18  1  0.345600  0.871900  0.313800  1.0  0.6786
  C  C19  1  0.767100  0.836300  0.220600  1.0  0.0325
  C  C20  1  0.521900  0.800800  0.197500  1.0  0.0386
  C  C21  1  0.490600  0.862600  0.274000  1.0  -0.1389
  C  C22  1  0.739200  0.895400  0.297100  1.0  -0.1073
  C  C23  1  0.693300  0.717600  0.087000  1.0  0.7129
  C  C24  1  0.659200  0.786700  0.165900  1.0  -0.1316
  C  C25  1  0.854500  0.941800  0.364300  1.0  0.7392
  C  C26  1  0.901300  0.412400  0.176800  1.0  0.0187
  C  C27  1  0.154400  0.371900  0.186200  1.0  0.68
  C  C28  1  0.732900  0.336300  0.279400  1.0  0.0307
  C  C29  1  0.978100  0.300800  0.302500  1.0  0.0394
  C  C30  1  0.009400  0.362600  0.226000  1.0  -0.1395
  C  C31  1  0.760800  0.395400  0.202900  1.0  -0.1064
  C  C32  1  0.806700  0.217600  0.413000  1.0  0.7133
  C  C33  1  0.840800  0.286700  0.334100  1.0  -0.1328
  C  C34  1  0.645500  0.441800  0.135700  1.0  0.7391
  C  C35  1  0.401300  0.087600  0.676800  1.0  0.0188
  C  C36  1  0.654400  0.128100  0.686200  1.0  0.6798
  C  C37  1  0.232900  0.163700  0.779400  1.0  0.0307
  C  C38  1  0.478100  0.199200  0.802500  1.0  0.0389
  C  C39  1  0.509400  0.137400  0.726000  1.0  -0.1393
  C  C40  1  0.260800  0.104600  0.702900  1.0  -0.1067
  C  C41  1  0.306700  0.282400  0.913000  1.0  0.7134
  C  C42  1  0.340800  0.213300  0.834100  1.0  -0.1332
  C  C43  1  0.145500  0.058200  0.635700  1.0  0.7396
  C  C44  1  0.098700  0.587600  0.823200  1.0  0.0196
  C  C45  1  0.845600  0.628100  0.813800  1.0  0.6784
  C  C46  1  0.267100  0.663700  0.720600  1.0  0.0329
  C  C47  1  0.021900  0.699200  0.697500  1.0  0.0387
  C  C48  1  0.990600  0.637400  0.774000  1.0  -0.139
  C  C49  1  0.239200  0.604600  0.797100  1.0  -0.107
  C  C50  1  0.193300  0.782400  0.587000  1.0  0.7131
  C  C51  1  0.159200  0.713300  0.665900  1.0  -0.1312
  C  C52  1  0.354500  0.558200  0.864300  1.0  0.7399
  O  O53  1  0.980300  0.931900  0.335000  1.0  -0.574
  O  O54  1  0.255500  0.814000  0.292500  1.0  -0.5083
  O  O55  1  0.316500  0.935400  0.370600  1.0  -0.5691
  O  O56  1  0.587200  0.672600  0.045900  1.0  -0.5642
  O  O57  1  0.821700  0.983800  0.450700  1.0  -0.6429
  O  O58  1  0.816700  0.703200  0.064600  1.0  -0.4637
  O  O59  1  0.519700  0.431900  0.165000  1.0  -0.5759
  O  O60  1  0.244500  0.314000  0.207500  1.0  -0.5055
  O  O61  1  0.183500  0.435400  0.129400  1.0  -0.5683
  O  O62  1  0.912800  0.172600  0.454100  1.0  -0.5636
  O  O63  1  0.678300  0.483800  0.049300  1.0  -0.6425
  O  O64  1  0.683300  0.203200  0.435400  1.0  -0.4652
  O  O65  1  0.019700  0.068100  0.665000  1.0  -0.5758
  O  O66  1  0.744500  0.186000  0.707500  1.0  -0.507
  O  O67  1  0.683500  0.064600  0.629400  1.0  -0.5672
  O  O68  1  0.412800  0.327400  0.954100  1.0  -0.5637
  O  O69  1  0.178300  0.016200  0.549300  1.0  -0.6425
  O  O70  1  0.183300  0.296800  0.935400  1.0  -0.4655
  O  O71  1  0.480300  0.568100  0.835000  1.0  -0.5735
  O  O72  1  0.755500  0.686000  0.792500  1.0  -0.5086
  O  O73  1  0.816500  0.564600  0.870600  1.0  -0.568
  O  O74  1  0.087200  0.827400  0.545900  1.0  -0.5641
  O  O75  1  0.321700  0.516200  0.950700  1.0  -0.6429
  O  O76  1  0.316700  0.796800  0.564600  1.0  -0.4639
