# generated using pymatgen
data_ZnH3(C3O2)3
_symmetry_space_group_name_H-M   'P 1'
_cell_length_a   9.50900000
_cell_length_b   15.18000000
_cell_length_c   12.24600000
_cell_angle_alpha   90.00000000
_cell_angle_beta   93.83500000
_cell_angle_gamma   90.00000000
_symmetry_Int_Tables_number   1
_chemical_formula_structural   ZnH3(C3O2)3
_chemical_formula_sum   'Zn4 H12 C36 O24'
_cell_volume   1763.71054069
_cell_formula_units_Z   4
loop_
 _symmetry_equiv_pos_site_id
 _symmetry_equiv_pos_as_xyz
  1  'x, y, z'
loop_
 _atom_site_type_symbol
 _atom_site_label
 _atom_site_symmetry_multiplicity
 _atom_site_fract_x
 _atom_site_fract_y
 _atom_site_fract_z
 _atom_site_occupancy
 _atom_site_charge
  Zn  Zn1  1  0.142150  0.078270  0.447610  1.0  1.0675
  Zn  Zn2  1  0.357850  0.578270  0.052390  1.0  1.0681
  Zn  Zn3  1  0.857850  0.921730  0.552390  1.0  1.0683
  Zn  Zn4  1  0.642150  0.421730  0.947610  1.0  1.0676
  H  H5  1  0.446900  0.240000  0.169400  1.0  0.1215
  H  H6  1  0.575700  0.052400  0.384400  1.0  0.1184
  H  H7  1  0.857800  0.177600  0.209400  1.0  0.1237
  H  H8  1  0.053100  0.740000  0.330600  1.0  0.1212
  H  H9  1  0.924300  0.552400  0.115600  1.0  0.1185
  H  H10  1  0.642200  0.677600  0.290600  1.0  0.1236
  H  H11  1  0.553100  0.760000  0.830600  1.0  0.121
  H  H12  1  0.424300  0.947600  0.615600  1.0  0.1184
  H  H13  1  0.142200  0.822400  0.790600  1.0  0.1238
  H  H14  1  0.946900  0.260000  0.669400  1.0  0.1212
  H  H15  1  0.075700  0.447600  0.884400  1.0  0.1176
  H  H16  1  0.357800  0.322400  0.709400  1.0  0.1235
  C  C17  1  0.519200  0.206450  0.203380  1.0  0.0451
  C  C18  1  0.340500  0.136000  0.317920  1.0  0.6825
  C  C19  1  0.488000  0.143990  0.281160  1.0  -0.1303
  C  C20  1  0.735600  0.108020  0.307240  1.0  -0.1631
  C  C21  1  0.596200  0.094590  0.332710  1.0  0.045
  C  C22  1  0.657600  0.219420  0.175730  1.0  -0.1468
  C  C23  1  0.853000  0.063700  0.374210  1.0  0.7345
  C  C24  1  0.765400  0.169640  0.227810  1.0  0.0477
  C  C25  1  0.691900  0.290870  0.096800  1.0  0.7329
  C  C26  1  0.980800  0.706450  0.296620  1.0  0.0451
  C  C27  1  0.159500  0.636000  0.182080  1.0  0.683
  C  C28  1  0.012000  0.643990  0.218840  1.0  -0.1306
  C  C29  1  0.764400  0.608020  0.192760  1.0  -0.1632
  C  C30  1  0.903800  0.594590  0.167290  1.0  0.0453
  C  C31  1  0.842400  0.719420  0.324270  1.0  -0.1489
  C  C32  1  0.647000  0.563700  0.125790  1.0  0.7335
  C  C33  1  0.734600  0.669640  0.272190  1.0  0.0461
  C  C34  1  0.808100  0.790870  0.403200  1.0  0.7331
  C  C35  1  0.480800  0.793550  0.796620  1.0  0.0453
  C  C36  1  0.659500  0.864000  0.682080  1.0  0.683
  C  C37  1  0.512000  0.856010  0.718840  1.0  -0.1307
  C  C38  1  0.264400  0.891980  0.692760  1.0  -0.1629
  C  C39  1  0.403800  0.905410  0.667290  1.0  0.0449
  C  C40  1  0.342400  0.780580  0.824270  1.0  -0.1488
  C  C41  1  0.147000  0.936300  0.625790  1.0  0.7338
  C  C42  1  0.234600  0.830360  0.772190  1.0  0.0462
  C  C43  1  0.308100  0.709130  0.903200  1.0  0.7334
  C  C44  1  0.019200  0.293550  0.703380  1.0  0.0445
  C  C45  1  0.840500  0.364000  0.817920  1.0  0.6825
  C  C46  1  0.988000  0.356010  0.781160  1.0  -0.1303
  C  C47  1  0.235600  0.391980  0.807240  1.0  -0.1631
  C  C48  1  0.096200  0.405410  0.832710  1.0  0.0442
  C  C49  1  0.157600  0.280580  0.675730  1.0  -0.1474
  C  C50  1  0.353000  0.436300  0.874210  1.0  0.7353
  C  C51  1  0.265400  0.330360  0.727810  1.0  0.0478
  C  C52  1  0.191900  0.209130  0.596800  1.0  0.7326
  O  O53  1  0.976160  0.071060  0.342360  1.0  -0.5789
  O  O54  1  0.313800  0.066540  0.370700  1.0  -0.5799
  O  O55  1  0.821060  0.026450  0.459900  1.0  -0.6152
  O  O56  1  0.587760  0.325600  0.041850  1.0  -0.5661
  O  O57  1  0.255480  0.196760  0.299210  1.0  -0.4443
  O  O58  1  0.816280  0.314150  0.089610  1.0  -0.4896
  O  O59  1  0.523840  0.571060  0.157640  1.0  -0.5821
  O  O60  1  0.186200  0.566540  0.129300  1.0  -0.5793
  O  O61  1  0.678940  0.526450  0.040100  1.0  -0.6131
  O  O62  1  0.912240  0.825600  0.458150  1.0  -0.566
  O  O63  1  0.244520  0.696760  0.200790  1.0  -0.445
  O  O64  1  0.683720  0.814150  0.410390  1.0  -0.4923
  O  O65  1  0.023840  0.928940  0.657640  1.0  -0.5814
  O  O66  1  0.686200  0.933460  0.629300  1.0  -0.5806
  O  O67  1  0.178940  0.973550  0.540100  1.0  -0.6131
  O  O68  1  0.412240  0.674400  0.958150  1.0  -0.5654
  O  O69  1  0.744520  0.803240  0.700790  1.0  -0.4445
  O  O70  1  0.183720  0.685850  0.910390  1.0  -0.4919
  O  O71  1  0.476160  0.428940  0.842360  1.0  -0.579
  O  O72  1  0.813800  0.433460  0.870700  1.0  -0.5813
  O  O73  1  0.321060  0.473550  0.959900  1.0  -0.6153
  O  O74  1  0.087760  0.174400  0.541850  1.0  -0.5661
  O  O75  1  0.755480  0.303240  0.799210  1.0  -0.4458
  O  O76  1  0.316280  0.185850  0.589610  1.0  -0.4891
