# generated using pymatgen
data_Zn3H10C21(NO6)2
_symmetry_space_group_name_H-M   'P 1'
_cell_length_a   12.36600000
_cell_length_b   13.43900000
_cell_length_c   26.96900000
_cell_angle_alpha   90.00000000
_cell_angle_beta   95.46300000
_cell_angle_gamma   90.00000000
_symmetry_Int_Tables_number   1
_chemical_formula_structural   Zn3H10C21(NO6)2
_chemical_formula_sum   'Zn12 H40 C84 N8 O48'
_cell_volume   4461.53115986
_cell_formula_units_Z   4
loop_
 _symmetry_equiv_pos_site_id
 _symmetry_equiv_pos_as_xyz
  1  'x, y, z'
loop_
 _atom_site_type_symbol
 _atom_site_label
 _atom_site_symmetry_multiplicity
 _atom_site_fract_x
 _atom_site_fract_y
 _atom_site_fract_z
 _atom_site_occupancy
 _atom_site_charge
  Zn  Zn1  1  0.079290  0.932740  0.030040  1.0  1.117
  Zn  Zn2  1  0.108740  0.036500  0.633850  1.0  1.0305
  Zn  Zn3  1  0.972240  0.180170  0.716110  1.0  1.0627
  Zn  Zn4  1  0.420710  0.432740  0.469960  1.0  1.1135
  Zn  Zn5  1  0.391260  0.536500  0.866150  1.0  1.0321
  Zn  Zn6  1  0.527760  0.680170  0.783890  1.0  1.0669
  Zn  Zn7  1  0.920710  0.067260  0.969960  1.0  1.1141
  Zn  Zn8  1  0.891260  0.963500  0.366150  1.0  1.0319
  Zn  Zn9  1  0.027760  0.819830  0.283890  1.0  1.0661
  Zn  Zn10  1  0.579290  0.567260  0.530040  1.0  1.1163
  Zn  Zn11  1  0.608740  0.463500  0.133850  1.0  1.0305
  Zn  Zn12  1  0.472240  0.319830  0.216110  1.0  1.0635
  H  H13  1  0.107800  0.375600  0.863100  1.0  0.307
  H  H14  1  0.183100  0.282800  0.946500  1.0  0.0831
  H  H15  1  0.407400  0.438300  0.029700  1.0  0.1047
  H  H16  1  0.281400  0.189600  0.084900  1.0  0.1115
  H  H17  1  0.200300  0.795400  0.900200  1.0  0.1028
  H  H18  1  0.226200  0.830800  0.754700  1.0  0.0969
  H  H19  1  0.023800  0.005800  0.823900  1.0  0.0926
  H  H20  1  0.101000  0.360800  0.775400  1.0  0.0958
  H  H21  1  0.989600  0.256800  0.897900  1.0  0.1207
  H  H22  1  0.903600  0.163900  0.826200  1.0  0.0978
  H  H23  1  0.392200  0.875600  0.636900  1.0  0.3063
  H  H24  1  0.316900  0.782800  0.553500  1.0  0.0829
  H  H25  1  0.092600  0.938300  0.470300  1.0  0.1049
  H  H26  1  0.218600  0.689600  0.415100  1.0  0.1114
  H  H27  1  0.299700  0.295400  0.599800  1.0  0.1031
  H  H28  1  0.273800  0.330800  0.745300  1.0  0.0972
  H  H29  1  0.476200  0.505800  0.676100  1.0  0.0926
  H  H30  1  0.399000  0.860800  0.724600  1.0  0.0955
  H  H31  1  0.510400  0.756800  0.602100  1.0  0.1203
  H  H32  1  0.596400  0.663900  0.673800  1.0  0.0982
  H  H33  1  0.892200  0.624400  0.136900  1.0  0.3056
  H  H34  1  0.816900  0.717200  0.053500  1.0  0.0826
  H  H35  1  0.592600  0.561700  0.970300  1.0  0.1037
  H  H36  1  0.718600  0.810400  0.915100  1.0  0.1114
  H  H37  1  0.799700  0.204600  0.099800  1.0  0.1033
  H  H38  1  0.773800  0.169200  0.245300  1.0  0.097
  H  H39  1  0.976200  0.994200  0.176100  1.0  0.0938
  H  H40  1  0.899000  0.639200  0.224600  1.0  0.0961
  H  H41  1  0.010400  0.743200  0.102100  1.0  0.1203
  H  H42  1  0.096400  0.836100  0.173800  1.0  0.0977
  H  H43  1  0.607800  0.124400  0.363100  1.0  0.3072
  H  H44  1  0.683100  0.217200  0.446500  1.0  0.083
  H  H45  1  0.907400  0.061700  0.529700  1.0  0.1036
  H  H46  1  0.781400  0.310400  0.584900  1.0  0.1117
  H  H47  1  0.700300  0.704600  0.400200  1.0  0.1027
  H  H48  1  0.726200  0.669200  0.254700  1.0  0.0967
  H  H49  1  0.523800  0.494200  0.323900  1.0  0.093
  H  H50  1  0.601000  0.139200  0.275400  1.0  0.0955
  H  H51  1  0.489600  0.243200  0.397900  1.0  0.1211
  H  H52  1  0.403600  0.336100  0.326200  1.0  0.0976
  C  C53  1  0.220800  0.223100  0.014000  1.0  -0.1056
  C  C54  1  0.227700  0.290500  0.976000  1.0  -0.0077
  C  C55  1  0.299000  0.368700  0.980900  1.0  -0.1064
  C  C56  1  0.360300  0.384300  0.026100  1.0  0.0077
  C  C57  1  0.351800  0.319900  0.065900  1.0  -0.1746
  C  C58  1  0.284100  0.235900  0.059400  1.0  0.0035
  C  C59  1  0.143300  0.137500  0.007400  1.0  0.692
  C  C60  1  0.060600  0.942100  0.916400  1.0  0.7246
  C  C61  1  0.105800  0.907300  0.870000  1.0  -0.1712
  C  C62  1  0.180000  0.828800  0.870600  1.0  0.0328
  C  C63  1  0.223500  0.800400  0.827300  1.0  -0.1372
  C  C64  1  0.194800  0.849300  0.783400  1.0  -0.0151
  C  C65  1  0.118900  0.926600  0.781200  1.0  -0.1767
  C  C66  1  0.074700  0.954700  0.824900  1.0  0.0129
  C  C67  1  0.084400  0.980900  0.734100  1.0  0.7244
  C  C68  1  0.306300  0.718500  0.829300  1.0  0.7072
  C  C69  1  0.412100  0.338800  0.114800  1.0  0.6905
  C  C70  1  0.311400  0.433200  0.931600  1.0  0.7268
  C  C71  1  0.061500  0.323100  0.796300  1.0  0.1616
  C  C72  1  0.000800  0.266100  0.864600  1.0  -0.075
  C  C73  1  0.953600  0.215400  0.824900  1.0  -0.0263
  C  C74  1  0.279200  0.723100  0.486000  1.0  -0.1047
  C  C75  1  0.272300  0.790500  0.524000  1.0  -0.0084
  C  C76  1  0.201000  0.868700  0.519100  1.0  -0.1052
  C  C77  1  0.139700  0.884300  0.473900  1.0  0.0084
  C  C78  1  0.148200  0.819900  0.434100  1.0  -0.1735
  C  C79  1  0.215900  0.735900  0.440600  1.0  0.003
  C  C80  1  0.356700  0.637500  0.492600  1.0  0.6923
  C  C81  1  0.439400  0.442100  0.583600  1.0  0.7247
  C  C82  1  0.394200  0.407300  0.630000  1.0  -0.1709
  C  C83  1  0.320000  0.328800  0.629400  1.0  0.032
  C  C84  1  0.276500  0.300400  0.672700  1.0  -0.1375
  C  C85  1  0.305200  0.349300  0.716600  1.0  -0.0157
  C  C86  1  0.381100  0.426600  0.718800  1.0  -0.178
  C  C87  1  0.425300  0.454700  0.675100  1.0  0.0122
  C  C88  1  0.415600  0.480900  0.765900  1.0  0.7233
  C  C89  1  0.193700  0.218500  0.670700  1.0  0.7086
  C  C90  1  0.087900  0.838800  0.385200  1.0  0.692
  C  C91  1  0.188600  0.933200  0.568400  1.0  0.7265
  C  C92  1  0.438500  0.823100  0.703700  1.0  0.1611
  C  C93  1  0.499200  0.766100  0.635400  1.0  -0.0729
  C  C94  1  0.546400  0.715400  0.675100  1.0  -0.0274
  C  C95  1  0.779200  0.776900  0.986000  1.0  -0.1045
  C  C96  1  0.772300  0.709500  0.024000  1.0  -0.0085
  C  C97  1  0.701000  0.631300  0.019100  1.0  -0.1057
  C  C98  1  0.639700  0.615700  0.973900  1.0  0.0092
  C  C99  1  0.648200  0.680100  0.934100  1.0  -0.1734
  C  C100  1  0.715900  0.764100  0.940600  1.0  0.003
  C  C101  1  0.856700  0.862500  0.992600  1.0  0.693
  C  C102  1  0.939400  0.057900  0.083600  1.0  0.7247
  C  C103  1  0.894200  0.092700  0.130000  1.0  -0.1708
  C  C104  1  0.820000  0.171200  0.129400  1.0  0.0323
  C  C105  1  0.776500  0.199600  0.172700  1.0  -0.1372
  C  C106  1  0.805200  0.150700  0.216600  1.0  -0.0161
  C  C107  1  0.881100  0.073400  0.218800  1.0  -0.1777
  C  C108  1  0.925300  0.045300  0.175100  1.0  0.0127
  C  C109  1  0.915600  0.019100  0.265900  1.0  0.7234
  C  C110  1  0.693700  0.281500  0.170700  1.0  0.7085
  C  C111  1  0.587900  0.661200  0.885200  1.0  0.6921
  C  C112  1  0.688600  0.566800  0.068400  1.0  0.7258
  C  C113  1  0.938500  0.676900  0.203700  1.0  0.1601
  C  C114  1  0.999200  0.733900  0.135400  1.0  -0.0738
  C  C115  1  0.046400  0.784600  0.175100  1.0  -0.0283
  C  C116  1  0.720800  0.276900  0.514000  1.0  -0.105
  C  C117  1  0.727700  0.209500  0.476000  1.0  -0.0077
  C  C118  1  0.799000  0.131300  0.480900  1.0  -0.1068
  C  C119  1  0.860300  0.115700  0.526100  1.0  0.0085
  C  C120  1  0.851800  0.180100  0.565900  1.0  -0.1745
  C  C121  1  0.784100  0.264100  0.559400  1.0  0.0025
  C  C122  1  0.643300  0.362500  0.507400  1.0  0.6929
  C  C123  1  0.560600  0.557900  0.416400  1.0  0.7244
  C  C124  1  0.605800  0.592700  0.370000  1.0  -0.1711
  C  C125  1  0.680000  0.671200  0.370600  1.0  0.0319
  C  C126  1  0.723500  0.699600  0.327300  1.0  -0.1371
  C  C127  1  0.694800  0.650700  0.283400  1.0  -0.0151
  C  C128  1  0.618900  0.573400  0.281200  1.0  -0.1767
  C  C129  1  0.574700  0.545300  0.324900  1.0  0.0135
  C  C130  1  0.584400  0.519100  0.234100  1.0  0.7253
  C  C131  1  0.806300  0.781500  0.329300  1.0  0.7071
  C  C132  1  0.912100  0.161200  0.614800  1.0  0.6905
  C  C133  1  0.811400  0.066800  0.431600  1.0  0.726
  C  C134  1  0.561500  0.176900  0.296300  1.0  0.1603
  C  C135  1  0.500800  0.233900  0.364600  1.0  -0.074
  C  C136  1  0.453600  0.284600  0.324900  1.0  -0.0281
  N  N137  1  0.993000  0.253700  0.781100  1.0  -0.3359
  N  N138  1  0.067800  0.333333  0.845900  1.0  -0.2434
  N  N139  1  0.507000  0.753700  0.718900  1.0  -0.3357
  N  N140  1  0.432200  0.833300  0.654100  1.0  -0.2452
  N  N141  1  0.007000  0.746300  0.218900  1.0  -0.337
  N  N142  1  0.932200  0.666667  0.154100  1.0  -0.2446
  N  N143  1  0.493000  0.246300  0.281100  1.0  -0.333
  N  N144  1  0.567800  0.166700  0.345900  1.0  -0.2458
  O  O145  1  0.133500  0.963100  0.696800  1.0  -0.5959
  O  O146  1  0.007400  0.041300  0.735700  1.0  -0.6497
  O  O147  1  0.100100  0.905200  0.956700  1.0  -0.6557
  O  O148  1  0.174300  0.056800  0.028700  1.0  -0.6132
  O  O149  1  0.363300  0.709800  0.793800  1.0  -0.6168
  O  O150  1  0.310900  0.661900  0.866900  1.0  -0.5827
  O  O151  1  0.418300  0.273000  0.148100  1.0  -0.6034
  O  O152  1  0.453900  0.426600  0.121100  1.0  -0.6349
  O  O153  1  0.396300  0.476500  0.932300  1.0  -0.5424
  O  O154  1  0.232900  0.437100  0.899400  1.0  -0.6481
  O  O155  1  0.986800  0.006100  0.911900  1.0  -0.5799
  O  O156  1  0.057500  0.152900  0.980200  1.0  -0.6077
  O  O157  1  0.366500  0.463100  0.803200  1.0  -0.5963
  O  O158  1  0.492600  0.541300  0.764300  1.0  -0.6494
  O  O159  1  0.399900  0.405200  0.543300  1.0  -0.6559
  O  O160  1  0.325700  0.556800  0.471300  1.0  -0.6112
  O  O161  1  0.136700  0.209800  0.706200  1.0  -0.6163
  O  O162  1  0.189100  0.161900  0.633100  1.0  -0.5818
  O  O163  1  0.081700  0.773000  0.351900  1.0  -0.6028
  O  O164  1  0.046100  0.926600  0.378900  1.0  -0.633
  O  O165  1  0.103700  0.976500  0.567700  1.0  -0.5423
  O  O166  1  0.267100  0.937100  0.600600  1.0  -0.6506
  O  O167  1  0.513200  0.506100  0.588100  1.0  -0.5804
  O  O168  1  0.442500  0.652900  0.519800  1.0  -0.6079
  O  O169  1  0.866500  0.036900  0.303200  1.0  -0.5962
  O  O170  1  0.992600  0.958700  0.264300  1.0  -0.65
  O  O171  1  0.899900  0.094800  0.043300  1.0  -0.6563
  O  O172  1  0.825700  0.943200  0.971300  1.0  -0.6142
  O  O173  1  0.636700  0.290200  0.206200  1.0  -0.6166
  O  O174  1  0.689100  0.338100  0.133100  1.0  -0.5824
  O  O175  1  0.581700  0.727000  0.851900  1.0  -0.6039
  O  O176  1  0.546100  0.573400  0.878900  1.0  -0.6336
  O  O177  1  0.603700  0.523500  0.067700  1.0  -0.5424
  O  O178  1  0.767100  0.562900  0.100600  1.0  -0.6504
  O  O179  1  0.013200  0.993900  0.088100  1.0  -0.5805
  O  O180  1  0.942500  0.847100  0.019800  1.0  -0.6078
  O  O181  1  0.633500  0.536900  0.196800  1.0  -0.5961
  O  O182  1  0.507400  0.458700  0.235700  1.0  -0.6504
  O  O183  1  0.600100  0.594800  0.456700  1.0  -0.6566
  O  O184  1  0.674300  0.443200  0.528700  1.0  -0.6141
  O  O185  1  0.863300  0.790200  0.293800  1.0  -0.6171
  O  O186  1  0.810900  0.838100  0.366900  1.0  -0.5829
  O  O187  1  0.918300  0.227000  0.648100  1.0  -0.6055
  O  O188  1  0.953900  0.073400  0.621100  1.0  -0.6336
  O  O189  1  0.896300  0.023500  0.432300  1.0  -0.5421
  O  O190  1  0.732900  0.062900  0.399400  1.0  -0.648
  O  O191  1  0.486800  0.493900  0.411900  1.0  -0.5801
  O  O192  1  0.557500  0.347100  0.480200  1.0  -0.6079
