# generated using pymatgen
data_ZnH3(C3O2)3
_symmetry_space_group_name_H-M   'P 1'
_cell_length_a   9.29870000
_cell_length_b   16.67000000
_cell_length_c   11.41890000
_cell_angle_alpha   90.00000000
_cell_angle_beta   108.48100000
_cell_angle_gamma   90.00000000
_symmetry_Int_Tables_number   1
_chemical_formula_structural   ZnH3(C3O2)3
_chemical_formula_sum   'Zn4 H12 C36 O24'
_cell_volume   1678.75318970
_cell_formula_units_Z   4
loop_
 _symmetry_equiv_pos_site_id
 _symmetry_equiv_pos_as_xyz
  1  'x, y, z'
loop_
 _atom_site_type_symbol
 _atom_site_label
 _atom_site_symmetry_multiplicity
 _atom_site_fract_x
 _atom_site_fract_y
 _atom_site_fract_z
 _atom_site_occupancy
 _atom_site_charge
  Zn  Zn1  1  0.621270  0.093360  0.959850  1.0  1.0908
  Zn  Zn2  1  0.878730  0.593360  0.540150  1.0  1.0912
  Zn  Zn3  1  0.378730  0.906640  0.040150  1.0  1.091
  Zn  Zn4  1  0.121270  0.406640  0.459850  1.0  1.0908
  H  H5  1  0.977700  0.946200  0.133000  1.0  0.123
  H  H6  1  0.706900  0.829100  0.286100  1.0  0.126
  H  H7  1  0.136600  0.758800  0.356200  1.0  0.1245
  H  H8  1  0.522300  0.446200  0.367000  1.0  0.1223
  H  H9  1  0.793100  0.329100  0.213900  1.0  0.1257
  H  H10  1  0.363400  0.258800  0.143800  1.0  0.125
  H  H11  1  0.022300  0.053800  0.867000  1.0  0.1224
  H  H12  1  0.293100  0.170900  0.713900  1.0  0.1256
  H  H13  1  0.863400  0.241200  0.643800  1.0  0.1247
  H  H14  1  0.477700  0.553800  0.633000  1.0  0.1228
  H  H15  1  0.206900  0.670900  0.786100  1.0  0.1257
  H  H16  1  0.636600  0.741200  0.856200  1.0  0.1241
  C  C17  1  0.963300  0.905400  0.183600  1.0  0.0592
  C  C18  1  0.822300  0.897100  0.200400  1.0  -0.154
  C  C19  1  0.696600  0.954000  0.136900  1.0  0.7466
  C  C20  1  0.918100  0.783300  0.331700  1.0  -0.1646
  C  C21  1  0.233600  0.864500  0.218900  1.0  0.7127
  C  C22  1  0.800800  0.835500  0.274500  1.0  0.0407
  C  C23  1  0.057500  0.793100  0.316200  1.0  0.0518
  C  C24  1  0.081800  0.855000  0.239900  1.0  -0.1387
  C  C25  1  0.892300  0.714500  0.410700  1.0  0.6964
  C  C26  1  0.536700  0.405400  0.316400  1.0  0.0577
  C  C27  1  0.677700  0.397100  0.299600  1.0  -0.1537
  C  C28  1  0.803400  0.454000  0.363100  1.0  0.7482
  C  C29  1  0.581900  0.283300  0.168300  1.0  -0.1624
  C  C30  1  0.266400  0.364500  0.281100  1.0  0.7078
  C  C31  1  0.699200  0.335500  0.225500  1.0  0.0407
  C  C32  1  0.442500  0.293100  0.183800  1.0  0.0511
  C  C33  1  0.418200  0.355000  0.260100  1.0  -0.1382
  C  C34  1  0.607700  0.214500  0.089300  1.0  0.6964
  C  C35  1  0.036700  0.094600  0.816400  1.0  0.0595
  C  C36  1  0.177700  0.102900  0.799600  1.0  -0.1544
  C  C37  1  0.303400  0.046000  0.863100  1.0  0.7673
  C  C38  1  0.081900  0.216700  0.668300  1.0  -0.1619
  C  C39  1  0.766400  0.135500  0.781100  1.0  0.7078
  C  C40  1  0.199200  0.164500  0.725500  1.0  0.0412
  C  C41  1  0.942500  0.206900  0.683800  1.0  0.0504
  C  C42  1  0.918200  0.145000  0.760100  1.0  -0.1383
  C  C43  1  0.107700  0.285500  0.589300  1.0  0.696
  C  C44  1  0.463300  0.594600  0.683600  1.0  0.0594
  C  C45  1  0.322300  0.602900  0.700400  1.0  -0.1545
  C  C46  1  0.196600  0.546000  0.636900  1.0  0.7478
  C  C47  1  0.418100  0.716700  0.831700  1.0  -0.1645
  C  C48  1  0.733600  0.635500  0.718900  1.0  0.7127
  C  C49  1  0.300800  0.664500  0.774500  1.0  0.0449
  C  C50  1  0.557500  0.706900  0.816200  1.0  0.0514
  C  C51  1  0.581800  0.645000  0.739900  1.0  -0.1388
  C  C52  1  0.392300  0.785500  0.910700  1.0  0.698
  O  O53  1  0.231500  0.908500  0.128400  1.0  -0.5674
  O  O54  1  0.726800  0.005000  0.068400  1.0  -0.6057
  O  O55  1  0.572100  0.946800  0.156900  1.0  -0.6198
  O  O56  1  0.992000  0.664400  0.447500  1.0  -0.5244
  O  O57  1  0.773500  0.711000  0.435200  1.0  -0.5323
  O  O58  1  0.345000  0.828400  0.284700  1.0  -0.4709
  O  O59  1  0.268500  0.408500  0.371600  1.0  -0.5635
  O  O60  1  0.773200  0.505000  0.431600  1.0  -0.607
  O  O61  1  0.927900  0.446800  0.343100  1.0  -0.6177
  O  O62  1  0.508000  0.164400  0.052500  1.0  -0.5255
  O  O63  1  0.726500  0.211000  0.064800  1.0  -0.5319
  O  O64  1  0.155000  0.328400  0.215300  1.0  -0.473
  O  O65  1  0.768500  0.091500  0.871600  1.0  -0.5654
  O  O66  1  0.273200  0.995000  0.931600  1.0  -0.6058
  O  O67  1  0.427900  0.053200  0.843100  1.0  -0.6174
  O  O68  1  0.008000  0.335600  0.552500  1.0  -0.5255
  O  O69  1  0.226500  0.289000  0.564800  1.0  -0.533
  O  O70  1  0.655000  0.171600  0.715300  1.0  -0.473
  O  O71  1  0.731500  0.591500  0.628400  1.0  -0.567
  O  O72  1  0.226800  0.495000  0.568400  1.0  -0.6048
  O  O73  1  0.072100  0.553200  0.656900  1.0  -0.618
  O  O74  1  0.492000  0.835600  0.947500  1.0  -0.5246
  O  O75  1  0.273500  0.789000  0.935200  1.0  -0.5328
  O  O76  1  0.845000  0.671600  0.784700  1.0  -0.4707
