# generated using pymatgen
data_Gd2H12C15(NO2)6
_symmetry_space_group_name_H-M   'P 1'
_cell_length_a   10.57700000
_cell_length_b   10.57700000
_cell_length_c   14.76810000
_cell_angle_alpha   90.59750000
_cell_angle_beta   90.59750000
_cell_angle_gamma   105.75400000
_symmetry_Int_Tables_number   1
_chemical_formula_structural   Gd2H12C15(NO2)6
_chemical_formula_sum   'Gd4 H24 C30 N12 O24'
_cell_volume   1589.85230687
_cell_formula_units_Z   2
loop_
 _symmetry_equiv_pos_site_id
 _symmetry_equiv_pos_as_xyz
  1  'x, y, z'
loop_
 _atom_site_type_symbol
 _atom_site_label
 _atom_site_symmetry_multiplicity
 _atom_site_fract_x
 _atom_site_fract_y
 _atom_site_fract_z
 _atom_site_occupancy
 _atom_site_charge
  Gd  Gd1  1  0.324770  0.427390  0.942540  1.0  2.1904
  Gd  Gd2  1  0.072610  0.175230  0.557460  1.0  2.1915
  Gd  Gd3  1  0.675230  0.572610  0.057460  1.0  2.1917
  Gd  Gd4  1  0.927390  0.824770  0.442540  1.0  2.1906
  H  H5  1  0.039100  0.674900  0.159400  1.0  0.1207
  H  H6  1  0.155400  0.802800  0.169500  1.0  0.1229
  H  H7  1  0.385500  0.676500  0.252900  1.0  0.1358
  H  H8  1  0.359400  0.793600  0.199000  1.0  0.1216
  H  H9  1  0.438200  0.210400  0.212500  1.0  0.1196
  H  H10  1  0.446800  0.354400  0.244600  1.0  0.1288
  H  H11  1  0.825100  0.460900  0.340600  1.0  0.1184
  H  H12  1  0.697200  0.344600  0.330500  1.0  0.1236
  H  H13  1  0.823500  0.114500  0.247100  1.0  0.1376
  H  H14  1  0.706400  0.140600  0.301000  1.0  0.1219
  H  H15  1  0.289600  0.061800  0.287500  1.0  0.1215
  H  H16  1  0.145600  0.053200  0.255400  1.0  0.1286
  H  H17  1  0.960900  0.325100  0.840600  1.0  0.1171
  H  H18  1  0.844600  0.197200  0.830500  1.0  0.1237
  H  H19  1  0.614500  0.323500  0.747100  1.0  0.1354
  H  H20  1  0.640600  0.206400  0.801000  1.0  0.1214
  H  H21  1  0.561800  0.789600  0.787500  1.0  0.1205
  H  H22  1  0.553200  0.645600  0.755400  1.0  0.129
  H  H23  1  0.174900  0.539100  0.659400  1.0  0.1184
  H  H24  1  0.302800  0.655400  0.669500  1.0  0.1233
  H  H25  1  0.176500  0.885500  0.752900  1.0  0.1371
  H  H26  1  0.293600  0.859400  0.699000  1.0  0.1217
  H  H27  1  0.710400  0.938200  0.712500  1.0  0.1206
  H  H28  1  0.854400  0.946800  0.744600  1.0  0.1288
  C  C29  1  0.154300  0.514100  0.230700  1.0  0.5833
  C  C30  1  0.110700  0.721700  0.199100  1.0  -0.1998
  C  C31  1  0.053400  0.755600  0.286200  1.0  0.7075
  C  C32  1  0.341300  0.698700  0.200000  1.0  -0.2413
  C  C33  1  0.400000  0.653600  0.115400  1.0  0.8004
  C  C34  1  0.394300  0.279700  0.210000  1.0  -0.2072
  C  C35  1  0.383700  0.319500  0.111600  1.0  0.7822
  C  C36  1  0.985900  0.345700  0.269300  1.0  0.582
  C  C37  1  0.778300  0.389300  0.300900  1.0  -0.1989
  C  C38  1  0.744400  0.446600  0.213800  1.0  0.7053
  C  C39  1  0.801300  0.158700  0.300000  1.0  -0.2373
  C  C40  1  0.846400  0.100000  0.384600  1.0  0.8044
  C  C41  1  0.220300  0.105700  0.290000  1.0  -0.2098
  C  C42  1  0.180500  0.116300  0.388400  1.0  0.7813
  C  C43  1  0.845700  0.485900  0.769300  1.0  0.5834
  C  C44  1  0.889300  0.278300  0.800900  1.0  -0.2004
  C  C45  1  0.946600  0.244400  0.713800  1.0  0.7058
  C  C46  1  0.658700  0.301300  0.800000  1.0  -0.2402
  C  C47  1  0.600000  0.346400  0.884600  1.0  0.8012
  C  C48  1  0.605700  0.720300  0.790000  1.0  -0.2074
  C  C49  1  0.616300  0.680500  0.888400  1.0  0.7811
  C  C50  1  0.014100  0.654300  0.730700  1.0  0.5826
  C  C51  1  0.221700  0.610700  0.699100  1.0  -0.1996
  C  C52  1  0.255600  0.553400  0.786200  1.0  0.7058
  C  C53  1  0.198700  0.841300  0.700000  1.0  -0.2399
  C  C54  1  0.153600  0.900000  0.615400  1.0  0.8019
  C  C55  1  0.779700  0.894300  0.710000  1.0  -0.2104
  C  C56  1  0.819500  0.883700  0.611600  1.0  0.7821
  C  C57  1  0.185800  0.314200  0.250000  1.0  0.5884
  C  C58  1  0.814200  0.685800  0.750000  1.0  0.5875
  N  N59  1  0.240900  0.440900  0.231200  1.0  -0.6511
  N  N60  1  0.201400  0.643000  0.209600  1.0  -0.0757
  N  N61  1  0.059100  0.259100  0.268800  1.0  -0.6524
  N  N62  1  0.857000  0.298600  0.290400  1.0  -0.075
  N  N63  1  0.759100  0.559100  0.768800  1.0  -0.6513
  N  N64  1  0.798600  0.357000  0.790400  1.0  -0.075
  N  N65  1  0.940900  0.740900  0.731200  1.0  -0.6493
  N  N66  1  0.143000  0.701400  0.709600  1.0  -0.0747
  N  N67  1  0.026700  0.473300  0.250000  1.0  -0.6409
  N  N68  1  0.265600  0.234400  0.250000  1.0  -0.0871
  N  N69  1  0.973300  0.526700  0.750000  1.0  -0.6389
  N  N70  1  0.734400  0.765600  0.750000  1.0  -0.0914
  O  O71  1  0.950500  0.795700  0.280100  1.0  -0.7185
  O  O72  1  0.105100  0.750900  0.361500  1.0  -0.6621
  O  O73  1  0.324200  0.592600  0.054200  1.0  -0.7277
  O  O74  1  0.524500  0.682300  0.115100  1.0  -0.7457
  O  O75  1  0.286100  0.263700  0.064000  1.0  -0.6874
  O  O76  1  0.476000  0.409800  0.079000  1.0  -0.8321
  O  O77  1  0.704300  0.549500  0.219900  1.0  -0.7177
  O  O78  1  0.749100  0.394900  0.138500  1.0  -0.6558
  O  O79  1  0.907400  0.175800  0.445800  1.0  -0.7337
  O  O80  1  0.817700  0.975500  0.384900  1.0  -0.739
  O  O81  1  0.236300  0.213900  0.436000  1.0  -0.6826
  O  O82  1  0.090200  0.024000  0.421000  1.0  -0.8342
  O  O83  1  0.049500  0.204300  0.719900  1.0  -0.715
  O  O84  1  0.894900  0.249100  0.638500  1.0  -0.6568
  O  O85  1  0.675800  0.407400  0.945800  1.0  -0.7288
  O  O86  1  0.475500  0.317700  0.884900  1.0  -0.7394
  O  O87  1  0.713900  0.736300  0.936000  1.0  -0.6872
  O  O88  1  0.524000  0.590200  0.921000  1.0  -0.8337
  O  O89  1  0.295700  0.450500  0.780100  1.0  -0.7144
  O  O90  1  0.250900  0.605100  0.861500  1.0  -0.6638
  O  O91  1  0.092600  0.824200  0.554200  1.0  -0.7308
  O  O92  1  0.182300  0.024500  0.615100  1.0  -0.7424
  O  O93  1  0.763700  0.786100  0.564000  1.0  -0.6906
  O  O94  1  0.909800  0.976000  0.579000  1.0  -0.8342
