# generated using pymatgen
data_ZnH3(C3O2)3
_symmetry_space_group_name_H-M   'P 1'
_cell_length_a   32.40700000
_cell_length_b   9.57500000
_cell_length_c   12.19300000
_cell_angle_alpha   90.00000000
_cell_angle_beta   90.00000000
_cell_angle_gamma   90.00000000
_symmetry_Int_Tables_number   1
_chemical_formula_structural   ZnH3(C3O2)3
_chemical_formula_sum   'Zn8 H24 C72 O48'
_cell_volume   3783.45162582
_cell_formula_units_Z   8
loop_
 _symmetry_equiv_pos_site_id
 _symmetry_equiv_pos_as_xyz
  1  'x, y, z'
loop_
 _atom_site_type_symbol
 _atom_site_label
 _atom_site_symmetry_multiplicity
 _atom_site_fract_x
 _atom_site_fract_y
 _atom_site_fract_z
 _atom_site_occupancy
 _atom_site_charge
  Zn  Zn1  1  0.331800  0.456530  0.391040  1.0  1.0921
  Zn  Zn2  1  0.417760  0.756200  0.436380  1.0  1.1078
  Zn  Zn3  1  0.668200  0.543470  0.891040  1.0  1.0914
  Zn  Zn4  1  0.582240  0.243800  0.936380  1.0  1.1099
  Zn  Zn5  1  0.831800  0.043470  0.391040  1.0  1.0922
  Zn  Zn6  1  0.917760  0.743800  0.436380  1.0  1.1026
  Zn  Zn7  1  0.168200  0.956530  0.891040  1.0  1.0914
  Zn  Zn8  1  0.082240  0.256200  0.936380  1.0  1.1015
  H  H9  1  0.468200  0.488700  0.681200  1.0  0.1218
  H  H10  1  0.244200  0.635400  0.617900  1.0  0.1222
  H  H11  1  0.503600  0.090400  0.693700  1.0  0.1235
  H  H12  1  0.219100  0.230100  0.655000  1.0  0.122
  H  H13  1  0.159600  0.512300  0.833000  1.0  0.1114
  H  H14  1  0.416900  0.209100  0.478300  1.0  0.1253
  H  H15  1  0.531800  0.511300  0.181200  1.0  0.1219
  H  H16  1  0.755800  0.364600  0.117900  1.0  0.122
  H  H17  1  0.496400  0.909600  0.193700  1.0  0.1239
  H  H18  1  0.780900  0.769900  0.155000  1.0  0.1221
  H  H19  1  0.840400  0.487700  0.333000  1.0  0.112
  H  H20  1  0.583100  0.790900  0.978300  1.0  0.1252
  H  H21  1  0.968200  0.011300  0.681200  1.0  0.1218
  H  H22  1  0.744200  0.864600  0.617900  1.0  0.1219
  H  H23  1  0.003600  0.409600  0.693700  1.0  0.1233
  H  H24  1  0.719100  0.269900  0.655000  1.0  0.122
  H  H25  1  0.659600  0.987700  0.833000  1.0  0.1115
  H  H26  1  0.916900  0.290900  0.478300  1.0  0.1253
  H  H27  1  0.031800  0.988700  0.181200  1.0  0.1218
  H  H28  1  0.255800  0.135400  0.117900  1.0  0.1224
  H  H29  1  0.996400  0.590400  0.193700  1.0  0.1236
  H  H30  1  0.280900  0.730100  0.155000  1.0  0.122
  H  H31  1  0.340400  0.012300  0.333000  1.0  0.1118
  H  H32  1  0.083100  0.709100  0.978300  1.0  0.1253
  C  C33  1  0.201300  0.598700  0.732800  1.0  -0.1504
  C  C34  1  0.186700  0.353200  0.756100  1.0  -0.2035
  C  C35  1  0.237200  0.427000  0.623600  1.0  -0.1773
  C  C36  1  0.522200  0.333200  0.788900  1.0  0.7074
  C  C37  1  0.466800  0.397900  0.654500  1.0  0.032
  C  C38  1  0.229700  0.564400  0.652900  1.0  0.0537
  C  C39  1  0.487700  0.160700  0.662200  1.0  0.0443
  C  C40  1  0.456900  0.977100  0.541500  1.0  0.7074
  C  C41  1  0.214900  0.322700  0.675400  1.0  0.0409
  C  C42  1  0.179700  0.490800  0.781200  1.0  0.0221
  C  C43  1  0.270600  0.391600  0.539500  1.0  0.7405
  C  C44  1  0.415300  0.480300  0.515100  1.0  0.7665
  C  C45  1  0.164400  0.240100  0.817200  1.0  0.7358
  C  C46  1  0.439400  0.367500  0.570300  1.0  -0.154
  C  C47  1  0.435700  0.231000  0.533300  1.0  0.0516
  C  C48  1  0.491800  0.296300  0.699400  1.0  -0.1642
  C  C49  1  0.460200  0.127500  0.578500  1.0  -0.149
  C  C50  1  0.195600  0.748700  0.767900  1.0  0.6479
  C  C51  1  0.798700  0.401300  0.232800  1.0  -0.1505
  C  C52  1  0.813300  0.646800  0.256100  1.0  -0.2037
  C  C53  1  0.762800  0.573000  0.123600  1.0  -0.1765
  C  C54  1  0.477800  0.666800  0.288900  1.0  0.7085
  C  C55  1  0.533200  0.602100  0.154500  1.0  0.0325
  C  C56  1  0.770300  0.435600  0.152900  1.0  0.0549
  C  C57  1  0.512300  0.839300  0.162200  1.0  0.0427
  C  C58  1  0.543100  0.022900  0.041500  1.0  0.7079
  C  C59  1  0.785100  0.677300  0.175400  1.0  0.0399
  C  C60  1  0.820300  0.509200  0.281200  1.0  0.0231
  C  C61  1  0.729400  0.608400  0.039500  1.0  0.7403
  C  C62  1  0.584700  0.519700  0.015100  1.0  0.7652
  C  C63  1  0.835600  0.759900  0.317200  1.0  0.7352
  C  C64  1  0.560600  0.632500  0.070300  1.0  -0.1542
  C  C65  1  0.564300  0.769000  0.033300  1.0  0.0519
  C  C66  1  0.508200  0.703700  0.199400  1.0  -0.1642
  C  C67  1  0.539800  0.872500  0.078500  1.0  -0.1491
  C  C68  1  0.804400  0.251300  0.267900  1.0  0.6486
  C  C69  1  0.701300  0.901300  0.732800  1.0  -0.1506
  C  C70  1  0.686700  0.146800  0.756100  1.0  -0.2034
  C  C71  1  0.737200  0.073000  0.623600  1.0  -0.1767
  C  C72  1  0.022200  0.166800  0.788900  1.0  0.708
  C  C73  1  0.966800  0.102100  0.654500  1.0  0.0325
  C  C74  1  0.729700  0.935600  0.652900  1.0  0.0549
  C  C75  1  0.987700  0.339300  0.662200  1.0  0.043
  C  C76  1  0.956900  0.522900  0.541500  1.0  0.7074
  C  C77  1  0.714900  0.177300  0.675400  1.0  0.0394
  C  C78  1  0.679700  0.009200  0.781200  1.0  0.0226
  C  C79  1  0.770600  0.108400  0.539500  1.0  0.74
  C  C80  1  0.915300  0.019700  0.515100  1.0  0.7667
  C  C81  1  0.664400  0.259900  0.817200  1.0  0.7357
  C  C82  1  0.939400  0.132500  0.570300  1.0  -0.1545
  C  C83  1  0.935700  0.269000  0.533300  1.0  0.0516
  C  C84  1  0.991800  0.203700  0.699400  1.0  -0.1639
  C  C85  1  0.960200  0.372500  0.578500  1.0  -0.1493
  C  C86  1  0.695600  0.751300  0.767900  1.0  0.6481
  C  C87  1  0.298700  0.098700  0.232800  1.0  -0.1505
  C  C88  1  0.313300  0.853200  0.256100  1.0  -0.2034
  C  C89  1  0.262800  0.927000  0.123600  1.0  -0.1773
  C  C90  1  0.977800  0.833200  0.288900  1.0  0.708
  C  C91  1  0.033200  0.897900  0.154500  1.0  0.0318
  C  C92  1  0.270300  0.064400  0.152900  1.0  0.0539
  C  C93  1  0.012300  0.660700  0.162200  1.0  0.0446
  C  C94  1  0.043100  0.477100  0.041500  1.0  0.7083
  C  C95  1  0.285100  0.822700  0.175400  1.0  0.0413
  C  C96  1  0.320300  0.990800  0.281200  1.0  0.0227
  C  C97  1  0.229400  0.891600  0.039500  1.0  0.7409
  C  C98  1  0.084700  0.980300  0.015100  1.0  0.7651
  C  C99  1  0.335600  0.740100  0.317200  1.0  0.7352
  C  C100  1  0.060600  0.867500  0.070300  1.0  -0.1544
  C  C101  1  0.064300  0.731000  0.033300  1.0  0.0518
  C  C102  1  0.008200  0.796300  0.199400  1.0  -0.1641
  C  C103  1  0.039800  0.627500  0.078500  1.0  -0.1489
  C  C104  1  0.304400  0.248700  0.267900  1.0  0.6483
  O  O105  1  0.163000  0.777900  0.816200  1.0  -0.5689
  O  O106  1  0.141600  0.276400  0.895600  1.0  -0.6129
  O  O107  1  0.172300  0.114900  0.789500  1.0  -0.5658
  O  O108  1  0.388300  0.446000  0.448300  1.0  -0.6498
  O  O109  1  0.290900  0.496100  0.501200  1.0  -0.5764
  O  O110  1  0.518500  0.445900  0.837300  1.0  -0.4629
  O  O111  1  0.422500  0.605300  0.544100  1.0  -0.5731
  O  O112  1  0.423300  0.944900  0.493500  1.0  -0.5912
  O  O113  1  0.484800  0.894000  0.560400  1.0  -0.4405
  O  O114  1  0.276100  0.270700  0.515300  1.0  -0.4497
  O  O115  1  0.550000  0.243700  0.804500  1.0  -0.5546
  O  O116  1  0.222900  0.832900  0.750400  1.0  -0.4297
  O  O117  1  0.837000  0.222100  0.316200  1.0  -0.5689
  O  O118  1  0.858400  0.723600  0.395600  1.0  -0.6134
  O  O119  1  0.827700  0.885100  0.289500  1.0  -0.5659
  O  O120  1  0.611700  0.554000  0.948300  1.0  -0.6503
  O  O121  1  0.709100  0.503900  0.001200  1.0  -0.5761
  O  O122  1  0.481500  0.554100  0.337300  1.0  -0.4626
  O  O123  1  0.577500  0.394700  0.044100  1.0  -0.5722
  O  O124  1  0.576700  0.055100  0.993500  1.0  -0.5905
  O  O125  1  0.515200  0.106000  0.060400  1.0  -0.4403
  O  O126  1  0.723900  0.729300  0.015300  1.0  -0.4502
  O  O127  1  0.450000  0.756300  0.304500  1.0  -0.555
  O  O128  1  0.777100  0.167100  0.250400  1.0  -0.4309
  O  O129  1  0.663000  0.722100  0.816200  1.0  -0.5692
  O  O130  1  0.641600  0.223600  0.895600  1.0  -0.6123
  O  O131  1  0.672300  0.385100  0.789500  1.0  -0.5665
  O  O132  1  0.888300  0.054000  0.448300  1.0  -0.65
  O  O133  1  0.790900  0.003900  0.501200  1.0  -0.5758
  O  O134  1  0.018500  0.054100  0.837300  1.0  -0.4632
  O  O135  1  0.922500  0.894700  0.544100  1.0  -0.5723
  O  O136  1  0.923300  0.555100  0.493500  1.0  -0.5918
  O  O137  1  0.984800  0.606000  0.560400  1.0  -0.4401
  O  O138  1  0.776100  0.229300  0.515300  1.0  -0.4481
  O  O139  1  0.050000  0.256300  0.804500  1.0  -0.5548
  O  O140  1  0.722900  0.667100  0.750400  1.0  -0.4309
  O  O141  1  0.337000  0.277900  0.316200  1.0  -0.5691
  O  O142  1  0.358400  0.776400  0.395600  1.0  -0.6139
  O  O143  1  0.327700  0.614900  0.289500  1.0  -0.5656
  O  O144  1  0.111700  0.946000  0.948300  1.0  -0.65
  O  O145  1  0.209100  0.996100  0.001200  1.0  -0.5757
  O  O146  1  0.981500  0.945900  0.337300  1.0  -0.4622
  O  O147  1  0.077500  0.105300  0.044100  1.0  -0.5729
  O  O148  1  0.076700  0.444900  0.993500  1.0  -0.5906
  O  O149  1  0.015200  0.394000  0.060400  1.0  -0.4418
  O  O150  1  0.223900  0.770700  0.015300  1.0  -0.4495
  O  O151  1  0.950000  0.743700  0.304500  1.0  -0.5554
  O  O152  1  0.277100  0.332900  0.250400  1.0  -0.4304
