# generated using pymatgen
data_Zn5H18(C3O2)18
_symmetry_space_group_name_H-M   'P 1'
_cell_length_a   23.31000000
_cell_length_b   18.95200000
_cell_length_c   26.57000000
_cell_angle_alpha   90.00000000
_cell_angle_beta   94.75700000
_cell_angle_gamma   90.00000000
_symmetry_Int_Tables_number   1
_chemical_formula_structural   Zn5H18(C3O2)18
_chemical_formula_sum   'Zn20 H72 C216 O144'
_cell_volume   11697.42617375
_cell_formula_units_Z   4
loop_
 _symmetry_equiv_pos_site_id
 _symmetry_equiv_pos_as_xyz
  1  'x, y, z'
loop_
 _atom_site_type_symbol
 _atom_site_label
 _atom_site_symmetry_multiplicity
 _atom_site_fract_x
 _atom_site_fract_y
 _atom_site_fract_z
 _atom_site_occupancy
 _atom_site_charge
  Zn  Zn1  1  0.959320  0.278080  0.193230  1.0  1.07
  Zn  Zn2  1  0.034220  0.260880  0.318040  1.0  1.102
  Zn  Zn3  1  0.868250  0.775680  0.318840  1.0  1.1192
  Zn  Zn4  1  0.129530  0.763050  0.178810  1.0  1.0728
  Zn  Zn5  1  0.722630  0.409890  0.501600  1.0  1.0947
  Zn  Zn6  1  0.540680  0.778080  0.306770  1.0  1.0722
  Zn  Zn7  1  0.465780  0.760880  0.181960  1.0  1.1017
  Zn  Zn8  1  0.631750  0.275680  0.181160  1.0  1.1172
  Zn  Zn9  1  0.370470  0.263050  0.321190  1.0  1.0739
  Zn  Zn10  1  0.777370  0.909890  0.998400  1.0  1.0947
  Zn  Zn11  1  0.040680  0.721920  0.806770  1.0  1.0721
  Zn  Zn12  1  0.965780  0.739120  0.681960  1.0  1.1007
  Zn  Zn13  1  0.131750  0.224320  0.681160  1.0  1.1175
  Zn  Zn14  1  0.870470  0.236950  0.821190  1.0  1.0741
  Zn  Zn15  1  0.277370  0.590110  0.498400  1.0  1.0947
  Zn  Zn16  1  0.459320  0.221920  0.693230  1.0  1.0698
  Zn  Zn17  1  0.534220  0.239120  0.818040  1.0  1.1017
  Zn  Zn18  1  0.368250  0.724320  0.818840  1.0  1.1198
  Zn  Zn19  1  0.629530  0.736950  0.678810  1.0  1.0731
  Zn  Zn20  1  0.222630  0.090110  0.001600  1.0  1.0947
  H  H21  1  0.888600  0.257000  0.991300  1.0  0.1435
  H  H22  1  0.842300  0.056300  0.961200  1.0  0.1147
  H  H23  1  0.898000  0.111600  0.103000  1.0  0.1324
  H  H24  1  0.888900  0.310500  0.385400  1.0  0.1294
  H  H25  1  0.102900  0.225000  0.129600  1.0  0.1304
  H  H26  1  0.187700  0.262600  0.261900  1.0  0.113
  H  H27  1  0.956300  0.048900  0.311300  1.0  0.1359
  H  H28  1  0.002600  0.862800  0.254800  1.0  0.1317
  H  H29  1  0.116900  0.018200  0.272200  1.0  0.1269
  H  H30  1  0.270700  0.190700  0.147400  1.0  0.1276
  H  H31  1  0.916700  0.745200  0.519300  1.0  0.1318
  H  H32  1  0.839000  0.572000  0.564700  1.0  0.13
  H  H33  1  0.808400  0.638500  0.422000  1.0  0.124
  H  H34  1  0.809200  0.280800  0.248300  1.0  0.1191
  H  H35  1  0.887400  0.514500  0.246600  1.0  0.1419
  H  H36  1  0.042600  0.490100  0.191800  1.0  0.1349
  H  H37  1  0.996300  0.677800  0.244500  1.0  0.1264
  H  H38  1  0.717100  0.326900  0.363600  1.0  0.1315
  H  H39  1  0.611400  0.757000  0.508700  1.0  0.1432
  H  H40  1  0.657700  0.556300  0.538800  1.0  0.1133
  H  H41  1  0.602000  0.611600  0.397000  1.0  0.1325
  H  H42  1  0.611100  0.810500  0.114600  1.0  0.1297
  H  H43  1  0.397100  0.725000  0.370400  1.0  0.1297
  H  H44  1  0.312300  0.762600  0.238100  1.0  0.1127
  H  H45  1  0.543700  0.548900  0.188700  1.0  0.1355
  H  H46  1  0.497400  0.362800  0.245200  1.0  0.1318
  H  H47  1  0.383100  0.518200  0.227800  1.0  0.1266
  H  H48  1  0.229300  0.690700  0.352600  1.0  0.1276
  H  H49  1  0.583300  0.245200  0.980700  1.0  0.1318
  H  H50  1  0.661000  0.072000  0.935300  1.0  0.1305
  H  H51  1  0.691600  0.138500  0.078000  1.0  0.1243
  H  H52  1  0.690800  0.780800  0.251700  1.0  0.1185
  H  H53  1  0.612600  0.014500  0.253400  1.0  0.142
  H  H54  1  0.457400  0.990100  0.308200  1.0  0.1358
  H  H55  1  0.503700  0.177800  0.255500  1.0  0.1264
  H  H56  1  0.782900  0.826900  0.136400  1.0  0.1305
  H  H57  1  0.111400  0.743000  0.008700  1.0  0.1433
  H  H58  1  0.157700  0.943700  0.038800  1.0  0.1149
  H  H59  1  0.102000  0.888400  0.897000  1.0  0.1329
  H  H60  1  0.111100  0.689500  0.614600  1.0  0.1296
  H  H61  1  0.897100  0.775000  0.870400  1.0  0.1299
  H  H62  1  0.812300  0.737400  0.738100  1.0  0.1128
  H  H63  1  0.043700  0.951100  0.688700  1.0  0.1351
  H  H64  1  0.997400  0.137200  0.745200  1.0  0.1319
  H  H65  1  0.883100  0.981800  0.727800  1.0  0.1267
  H  H66  1  0.729300  0.809300  0.852600  1.0  0.1275
  H  H67  1  0.083300  0.254800  0.480700  1.0  0.1311
  H  H68  1  0.161000  0.428000  0.435300  1.0  0.1307
  H  H69  1  0.191600  0.361500  0.578000  1.0  0.124
  H  H70  1  0.190800  0.719200  0.751700  1.0  0.1184
  H  H71  1  0.112600  0.485500  0.753400  1.0  0.1421
  H  H72  1  0.957400  0.509900  0.808200  1.0  0.1358
  H  H73  1  0.003700  0.322200  0.755500  1.0  0.1263
  H  H74  1  0.282900  0.673100  0.636400  1.0  0.1302
  H  H75  1  0.388600  0.243000  0.491300  1.0  0.1435
  H  H76  1  0.342300  0.443700  0.461200  1.0  0.1136
  H  H77  1  0.398000  0.388400  0.603000  1.0  0.1322
  H  H78  1  0.388900  0.189500  0.885400  1.0  0.1294
  H  H79  1  0.602900  0.275000  0.629600  1.0  0.1302
  H  H80  1  0.687700  0.237400  0.761900  1.0  0.1133
  H  H81  1  0.456300  0.451100  0.811300  1.0  0.1359
  H  H82  1  0.502600  0.637200  0.754800  1.0  0.1319
  H  H83  1  0.616900  0.481800  0.772200  1.0  0.1272
  H  H84  1  0.770700  0.309300  0.647400  1.0  0.1277
  H  H85  1  0.416700  0.754800  0.019300  1.0  0.1316
  H  H86  1  0.339000  0.928000  0.064700  1.0  0.1303
  H  H87  1  0.308400  0.861500  0.922000  1.0  0.1241
  H  H88  1  0.309200  0.219200  0.748300  1.0  0.1191
  H  H89  1  0.387400  0.985500  0.746600  1.0  0.1418
  H  H90  1  0.542600  0.009900  0.691800  1.0  0.135
  H  H91  1  0.496300  0.822200  0.744500  1.0  0.1268
  H  H92  1  0.217100  0.173100  0.863600  1.0  0.1313
  C  C93  1  0.914400  0.247900  0.092200  1.0  0.6285
  C  C94  1  0.893500  0.191000  0.053900  1.0  -0.1314
  C  C95  1  0.915000  0.282600  0.291200  1.0  0.7254
  C  C96  1  0.882800  0.210900  0.001800  1.0  0.0198
  C  C97  1  0.863400  0.158100  0.967500  1.0  -0.1448
  C  C98  1  0.856700  0.090100  0.984300  1.0  -0.013
  C  C99  1  0.870300  0.069300  0.034100  1.0  -0.1218
  C  C100  1  0.888900  0.123100  0.069200  1.0  0.0577
  C  C101  1  0.948700  0.411500  0.206300  1.0  0.712
  C  C102  1  0.858100  0.291300  0.312600  1.0  -0.1149
  C  C103  1  0.855400  0.308300  0.363900  1.0  0.0087
  C  C104  1  0.081100  0.256200  0.223700  1.0  0.7108
  C  C105  1  0.136900  0.241500  0.200800  1.0  -0.1092
  C  C106  1  0.137000  0.223000  0.150300  1.0  0.003
  C  C107  1  0.187600  0.246400  0.228800  1.0  0.0065
  C  C108  1  0.910100  0.665600  0.603300  1.0  0.726
  C  C109  1  0.052900  0.123200  0.305100  1.0  0.7283
  C  C110  1  0.038800  0.046700  0.292000  1.0  -0.1462
  C  C111  1  0.984100  0.019900  0.298900  1.0  0.047
  C  C112  1  0.971400  0.951000  0.287200  1.0  -0.0892
  C  C113  1  0.012200  0.908600  0.265000  1.0  -0.0162
  C  C114  1  0.066400  0.935000  0.258300  1.0  -0.0938
  C  C115  1  0.079500  0.001900  0.273800  1.0  0.0454
  C  C116  1  0.916200  0.917500  0.302100  1.0  0.6637
  C  C117  1  0.296800  0.231900  0.238600  1.0  0.6853
  C  C118  1  0.108700  0.890600  0.233600  1.0  0.722
  C  C119  1  0.873400  0.753200  0.422900  1.0  0.7137
  C  C120  1  0.236900  0.205000  0.160700  1.0  0.0518
  C  C121  1  0.863800  0.701700  0.464100  1.0  -0.1461
  C  C122  1  0.891200  0.708100  0.512500  1.0  0.042
  C  C123  1  0.881600  0.661200  0.550900  1.0  -0.1654
  C  C124  1  0.845100  0.604700  0.539600  1.0  -0.0008
  C  C125  1  0.816700  0.595000  0.491000  1.0  -0.1325
  C  C126  1  0.826700  0.643900  0.454300  1.0  0.034
  C  C127  1  0.779300  0.532400  0.479700  1.0  0.7033
  C  C128  1  0.698700  0.292500  0.268100  1.0  0.6831
  C  C129  1  0.754400  0.299500  0.300900  1.0  -0.1568
  C  C130  1  0.807700  0.289400  0.282600  1.0  0.0378
  C  C131  1  0.896300  0.643300  0.282200  1.0  0.7158
  C  C132  1  0.937800  0.602400  0.252300  1.0  -0.1157
  C  C133  1  0.923100  0.532600  0.239900  1.0  0.0493
  C  C134  1  0.963200  0.490600  0.217400  1.0  -0.1275
  C  C135  1  0.015300  0.518700  0.205300  1.0  0.056
  C  C136  1  0.026500  0.590300  0.213700  1.0  -0.1107
  C  C137  1  0.988000  0.630500  0.237800  1.0  0.0165
  C  C138  1  0.080100  0.622000  0.195100  1.0  0.6257
  C  C139  1  0.872000  0.993800  0.051600  1.0  0.6674
  C  C140  1  0.799300  0.342700  0.437100  1.0  0.7195
  C  C141  1  0.801800  0.321800  0.382600  1.0  -0.1357
  C  C142  1  0.752400  0.317600  0.351100  1.0  0.0321
  C  C143  1  0.184400  0.174400  0.076700  1.0  0.6864
  C  C144  1  0.853300  0.173100  0.912800  1.0  0.7245
  C  C145  1  0.239300  0.228500  0.210600  1.0  -0.0972
  C  C146  1  0.186100  0.202200  0.130600  1.0  -0.0934
  C  C147  1  0.585600  0.747900  0.407800  1.0  0.6285
  C  C148  1  0.606500  0.691000  0.446100  1.0  -0.1309
  C  C149  1  0.585000  0.782600  0.208800  1.0  0.726
  C  C150  1  0.617200  0.710900  0.498200  1.0  0.0205
  C  C151  1  0.636600  0.658100  0.532500  1.0  -0.145
  C  C152  1  0.643300  0.590100  0.515700  1.0  -0.012
  C  C153  1  0.629700  0.569300  0.465900  1.0  -0.1233
  C  C154  1  0.611100  0.623100  0.430800  1.0  0.0587
  C  C155  1  0.551300  0.911500  0.293700  1.0  0.7118
  C  C156  1  0.641900  0.791300  0.187400  1.0  -0.1146
  C  C157  1  0.644600  0.808300  0.136100  1.0  0.007
  C  C158  1  0.418900  0.756200  0.276300  1.0  0.7106
  C  C159  1  0.363100  0.741500  0.299200  1.0  -0.1092
  C  C160  1  0.363000  0.723000  0.349700  1.0  0.0041
  C  C161  1  0.312400  0.746400  0.271200  1.0  0.0089
  C  C162  1  0.589900  0.165600  0.896700  1.0  0.7262
  C  C163  1  0.447100  0.623200  0.194900  1.0  0.7291
  C  C164  1  0.461200  0.546700  0.208000  1.0  -0.1465
  C  C165  1  0.515900  0.519900  0.201100  1.0  0.0476
  C  C166  1  0.528600  0.451000  0.212800  1.0  -0.0896
  C  C167  1  0.487800  0.408600  0.235000  1.0  -0.0149
  C  C168  1  0.433600  0.435000  0.241700  1.0  -0.0931
  C  C169  1  0.420500  0.501900  0.226200  1.0  0.0441
  C  C170  1  0.583800  0.417500  0.197900  1.0  0.6638
  C  C171  1  0.203200  0.731900  0.261400  1.0  0.6864
  C  C172  1  0.391300  0.390600  0.266400  1.0  0.7212
  C  C173  1  0.626600  0.253200  0.077100  1.0  0.7119
  C  C174  1  0.263100  0.705000  0.339300  1.0  0.0512
  C  C175  1  0.636200  0.201700  0.035900  1.0  -0.1465
  C  C176  1  0.608800  0.208100  0.987500  1.0  0.0422
  C  C177  1  0.618400  0.161200  0.949100  1.0  -0.1634
  C  C178  1  0.654900  0.104700  0.960400  1.0  -0.0017
  C  C179  1  0.683300  0.095000  0.009000  1.0  -0.1335
  C  C180  1  0.673300  0.143900  0.045700  1.0  0.0337
  C  C181  1  0.720700  0.032400  0.020300  1.0  0.7034
  C  C182  1  0.801300  0.792500  0.231900  1.0  0.6826
  C  C183  1  0.745600  0.799500  0.199100  1.0  -0.1558
  C  C184  1  0.692300  0.789400  0.217400  1.0  0.036
  C  C185  1  0.603700  0.143300  0.217800  1.0  0.716
  C  C186  1  0.562200  0.102400  0.247700  1.0  -0.1175
  C  C187  1  0.576900  0.032600  0.260100  1.0  0.0502
  C  C188  1  0.536800  0.990600  0.282600  1.0  -0.1272
  C  C189  1  0.484700  0.018700  0.294700  1.0  0.056
  C  C190  1  0.473500  0.090300  0.286300  1.0  -0.1106
  C  C191  1  0.512000  0.130500  0.262200  1.0  0.0161
  C  C192  1  0.419900  0.122000  0.304900  1.0  0.6247
  C  C193  1  0.628000  0.493800  0.448400  1.0  0.6699
  C  C194  1  0.700700  0.842700  0.062900  1.0  0.7177
  C  C195  1  0.698200  0.821800  0.117400  1.0  -0.1351
  C  C196  1  0.747600  0.817600  0.148900  1.0  0.0307
  C  C197  1  0.315600  0.674400  0.423300  1.0  0.6872
  C  C198  1  0.646700  0.673100  0.587200  1.0  0.7253
  C  C199  1  0.260700  0.728500  0.289400  1.0  -0.0985
  C  C200  1  0.313900  0.702200  0.369400  1.0  -0.0946
  C  C201  1  0.085600  0.752100  0.907800  1.0  0.6297
  C  C202  1  0.106500  0.809000  0.946100  1.0  -0.1311
  C  C203  1  0.085000  0.717400  0.708800  1.0  0.7252
  C  C204  1  0.117200  0.789100  0.998200  1.0  0.0196
  C  C205  1  0.136600  0.841900  0.032500  1.0  -0.1451
  C  C206  1  0.143300  0.909900  0.015700  1.0  -0.0122
  C  C207  1  0.129700  0.930700  0.965900  1.0  -0.1224
  C  C208  1  0.111100  0.876900  0.930800  1.0  0.0583
  C  C209  1  0.051300  0.588500  0.793700  1.0  0.7117
  C  C210  1  0.141900  0.708700  0.687400  1.0  -0.1145
  C  C211  1  0.144600  0.691700  0.636100  1.0  0.0071
  C  C212  1  0.918900  0.743800  0.776300  1.0  0.711
  C  C213  1  0.863100  0.758500  0.799200  1.0  -0.1088
  C  C214  1  0.863000  0.777000  0.849700  1.0  0.0038
  C  C215  1  0.812400  0.753600  0.771200  1.0  0.0092
  C  C216  1  0.089900  0.334400  0.396700  1.0  0.7259
  C  C217  1  0.947100  0.876800  0.694900  1.0  0.7288
  C  C218  1  0.961200  0.953300  0.708000  1.0  -0.147
  C  C219  1  0.015900  0.980100  0.701100  1.0  0.0471
  C  C220  1  0.028600  0.049000  0.712800  1.0  -0.0896
  C  C221  1  0.987800  0.091400  0.735000  1.0  -0.0183
  C  C222  1  0.933600  0.065000  0.741700  1.0  -0.0927
  C  C223  1  0.920500  0.998100  0.726200  1.0  0.0441
  C  C224  1  0.083800  0.082500  0.697900  1.0  0.6639
  C  C225  1  0.703200  0.768100  0.761400  1.0  0.6864
  C  C226  1  0.891300  0.109400  0.766400  1.0  0.7217
  C  C227  1  0.126600  0.246800  0.577100  1.0  0.7132
  C  C228  1  0.763100  0.795000  0.839300  1.0  0.0511
  C  C229  1  0.136200  0.298300  0.535900  1.0  -0.1466
  C  C230  1  0.108800  0.291900  0.487500  1.0  0.042
  C  C231  1  0.118400  0.338800  0.449100  1.0  -0.1637
  C  C232  1  0.154900  0.395300  0.460400  1.0  -0.0025
  C  C233  1  0.183300  0.405000  0.509000  1.0  -0.1336
  C  C234  1  0.173300  0.356100  0.545700  1.0  0.0338
  C  C235  1  0.220700  0.467600  0.520300  1.0  0.7031
  C  C236  1  0.301300  0.707500  0.731900  1.0  0.6826
  C  C237  1  0.245600  0.700500  0.699100  1.0  -0.1561
  C  C238  1  0.192300  0.710600  0.717400  1.0  0.0356
  C  C239  1  0.103700  0.356700  0.717800  1.0  0.7153
  C  C240  1  0.062200  0.397600  0.747700  1.0  -0.1171
  C  C241  1  0.076900  0.467400  0.760100  1.0  0.0501
  C  C242  1  0.036800  0.509400  0.782600  1.0  -0.1274
  C  C243  1  0.984700  0.481300  0.794700  1.0  0.0556
  C  C244  1  0.973500  0.409700  0.786300  1.0  -0.1105
  C  C245  1  0.012000  0.369500  0.762200  1.0  0.018
  C  C246  1  0.919900  0.378000  0.804900  1.0  0.6238
  C  C247  1  0.128000  0.006200  0.948400  1.0  0.6713
  C  C248  1  0.200700  0.657300  0.562900  1.0  0.7183
  C  C249  1  0.198200  0.678200  0.617400  1.0  -0.135
  C  C250  1  0.247600  0.682400  0.648900  1.0  0.0311
  C  C251  1  0.815600  0.825600  0.923300  1.0  0.6871
  C  C252  1  0.146700  0.826900  0.087200  1.0  0.7254
  C  C253  1  0.760700  0.771500  0.789400  1.0  -0.0983
  C  C254  1  0.813900  0.797800  0.869400  1.0  -0.0947
  C  C255  1  0.414400  0.252100  0.592200  1.0  0.6298
  C  C256  1  0.393500  0.309000  0.553900  1.0  -0.1311
  C  C257  1  0.415000  0.217400  0.791200  1.0  0.7247
  C  C258  1  0.382800  0.289100  0.501800  1.0  0.0197
  C  C259  1  0.363400  0.341900  0.467500  1.0  -0.1458
  C  C260  1  0.356700  0.409900  0.484300  1.0  -0.0134
  C  C261  1  0.370300  0.430700  0.534100  1.0  -0.1211
  C  C262  1  0.388900  0.376900  0.569200  1.0  0.0576
  C  C263  1  0.448700  0.088500  0.706300  1.0  0.7117
  C  C264  1  0.358100  0.208700  0.812600  1.0  -0.1152
  C  C265  1  0.355400  0.191700  0.863900  1.0  0.0087
  C  C266  1  0.581100  0.243800  0.723700  1.0  0.7116
  C  C267  1  0.636900  0.258500  0.700800  1.0  -0.1097
  C  C268  1  0.637000  0.277000  0.650300  1.0  0.0026
  C  C269  1  0.687600  0.253600  0.728800  1.0  0.0075
  C  C270  1  0.410100  0.834400  0.103300  1.0  0.7252
  C  C271  1  0.552900  0.376800  0.805100  1.0  0.7279
  C  C272  1  0.538800  0.453300  0.792000  1.0  -0.1463
  C  C273  1  0.484100  0.480100  0.798900  1.0  0.0468
  C  C274  1  0.471400  0.549000  0.787200  1.0  -0.0891
  C  C275  1  0.512200  0.591400  0.765000  1.0  -0.0192
  C  C276  1  0.566400  0.565000  0.758300  1.0  -0.0942
  C  C277  1  0.579500  0.498100  0.773800  1.0  0.0453
  C  C278  1  0.416200  0.582500  0.802100  1.0  0.6638
  C  C279  1  0.796800  0.268100  0.738600  1.0  0.6851
  C  C280  1  0.608700  0.609400  0.733600  1.0  0.7224
  C  C281  1  0.373400  0.746800  0.922900  1.0  0.713
  C  C282  1  0.736900  0.295000  0.660700  1.0  0.0517
  C  C283  1  0.363800  0.798300  0.964100  1.0  -0.1466
  C  C284  1  0.391200  0.791900  0.012500  1.0  0.0424
  C  C285  1  0.381600  0.838800  0.050900  1.0  -0.1652
  C  C286  1  0.345100  0.895300  0.039600  1.0  -0.0019
  C  C287  1  0.316700  0.905000  0.991000  1.0  -0.1325
  C  C288  1  0.326700  0.856100  0.954300  1.0  0.034
  C  C289  1  0.279300  0.967600  0.979700  1.0  0.7031
  C  C290  1  0.198700  0.207500  0.768100  1.0  0.6831
  C  C291  1  0.254400  0.200500  0.800900  1.0  -0.1568
  C  C292  1  0.307700  0.210600  0.782600  1.0  0.0373
  C  C293  1  0.396300  0.856700  0.782200  1.0  0.7147
  C  C294  1  0.437800  0.897600  0.752300  1.0  -0.1156
  C  C295  1  0.423100  0.967400  0.739900  1.0  0.049
  C  C296  1  0.463200  0.009400  0.717400  1.0  -0.1273
  C  C297  1  0.515300  0.981300  0.705300  1.0  0.0559
  C  C298  1  0.526500  0.909700  0.713700  1.0  -0.1108
  C  C299  1  0.488000  0.869500  0.737800  1.0  0.0186
  C  C300  1  0.580100  0.878000  0.695100  1.0  0.625
  C  C301  1  0.372000  0.506200  0.551600  1.0  0.6657
  C  C302  1  0.299300  0.157300  0.937100  1.0  0.7198
  C  C303  1  0.301800  0.178200  0.882600  1.0  -0.1354
  C  C304  1  0.252400  0.182400  0.851100  1.0  0.0321
  C  C305  1  0.684400  0.325600  0.576700  1.0  0.6861
  C  C306  1  0.353300  0.326900  0.412800  1.0  0.7238
  C  C307  1  0.739300  0.271500  0.710600  1.0  -0.097
  C  C308  1  0.686100  0.297800  0.630600  1.0  -0.0928
  O  O309  1  0.922200  0.224100  0.139000  1.0  -0.5711
  O  O310  1  0.922700  0.308800  0.079800  1.0  -0.3904
  O  O311  1  0.898500  0.393500  0.207900  1.0  -0.5242
  O  O312  1  0.988700  0.375200  0.193500  1.0  -0.5362
  O  O313  1  0.914600  0.249700  0.250400  1.0  -0.5847
  O  O314  1  0.958900  0.308700  0.315700  1.0  -0.5783
  O  O315  1  0.035800  0.231000  0.200600  1.0  -0.6007
  O  O316  1  0.083300  0.288100  0.265400  1.0  -0.5695
  O  O317  1  0.934800  0.724300  0.612100  1.0  -0.547
  O  O318  1  0.011300  0.162300  0.313100  1.0  -0.5519
  O  O319  1  0.905700  0.619000  0.635300  1.0  -0.469
  O  O320  1  0.104500  0.141900  0.306900  1.0  -0.4754
  O  O321  1  0.087600  0.841400  0.205800  1.0  -0.5621
  O  O322  1  0.161700  0.903500  0.241900  1.0  -0.4774
  O  O323  1  0.871400  0.951500  0.302100  1.0  -0.3918
  O  O324  1  0.922600  0.852500  0.314100  1.0  -0.5733
  O  O325  1  0.914700  0.794400  0.430700  1.0  -0.4543
  O  O326  1  0.840000  0.750400  0.383200  1.0  -0.5425
  O  O327  1  0.917900  0.698400  0.302100  1.0  -0.5562
  O  O328  1  0.845500  0.622300  0.285500  1.0  -0.4695
  O  O329  1  0.872900  0.231200  0.896400  1.0  -0.5861
  O  O330  1  0.829100  0.128600  0.885000  1.0  -0.4593
  O  O331  1  0.072000  0.688200  0.183200  1.0  -0.5775
  O  O332  1  0.125200  0.588000  0.192200  1.0  -0.4094
  O  O333  1  0.652900  0.288300  0.286700  1.0  -0.4399
  O  O334  1  0.704600  0.288900  0.219500  1.0  -0.5427
  O  O335  1  0.341100  0.225700  0.218700  1.0  -0.4286
  O  O336  1  0.294500  0.243800  0.287300  1.0  -0.5495
  O  O337  1  0.772900  0.489800  0.517600  1.0  -0.5587
  O  O338  1  0.757800  0.521200  0.436000  1.0  -0.5162
  O  O339  1  0.854100  0.947400  0.017400  1.0  -0.5901
  O  O340  1  0.892500  0.980500  0.093600  1.0  -0.4407
  O  O341  1  0.225500  0.134800  0.067700  1.0  -0.5578
  O  O342  1  0.142600  0.190500  0.046000  1.0  -0.4531
  O  O343  1  0.843700  0.352400  0.464100  1.0  -0.4438
  O  O344  1  0.748500  0.346700  0.451000  1.0  -0.5822
  O  O345  1  0.577800  0.724100  0.361000  1.0  -0.5703
  O  O346  1  0.577300  0.808800  0.420200  1.0  -0.3895
  O  O347  1  0.601500  0.893500  0.292100  1.0  -0.5241
  O  O348  1  0.511300  0.875200  0.306500  1.0  -0.5357
  O  O349  1  0.585400  0.749700  0.249600  1.0  -0.584
  O  O350  1  0.541100  0.808700  0.184300  1.0  -0.5769
  O  O351  1  0.464200  0.731000  0.299400  1.0  -0.6015
  O  O352  1  0.416700  0.788100  0.234600  1.0  -0.5697
  O  O353  1  0.565200  0.224300  0.887900  1.0  -0.5477
  O  O354  1  0.488700  0.662300  0.186900  1.0  -0.5525
  O  O355  1  0.594300  0.119000  0.864700  1.0  -0.469
  O  O356  1  0.395500  0.641900  0.193100  1.0  -0.4751
  O  O357  1  0.412400  0.341400  0.294200  1.0  -0.5633
  O  O358  1  0.338300  0.403500  0.258100  1.0  -0.4757
  O  O359  1  0.628600  0.451500  0.197900  1.0  -0.3921
  O  O360  1  0.577400  0.352500  0.185900  1.0  -0.5728
  O  O361  1  0.585300  0.294400  0.069300  1.0  -0.4529
  O  O362  1  0.660000  0.250400  0.116800  1.0  -0.5433
  O  O363  1  0.582100  0.198400  0.197900  1.0  -0.5568
  O  O364  1  0.654500  0.122300  0.214500  1.0  -0.4686
  O  O365  1  0.627100  0.731200  0.603600  1.0  -0.5874
  O  O366  1  0.670900  0.628600  0.615000  1.0  -0.4593
  O  O367  1  0.428000  0.188200  0.316800  1.0  -0.5773
  O  O368  1  0.374800  0.088000  0.307800  1.0  -0.4092
  O  O369  1  0.847100  0.788300  0.213300  1.0  -0.439
  O  O370  1  0.795400  0.788900  0.280500  1.0  -0.5442
  O  O371  1  0.158900  0.725700  0.281300  1.0  -0.4276
  O  O372  1  0.205500  0.743800  0.212700  1.0  -0.5493
  O  O373  1  0.727100  0.989800  0.982400  1.0  -0.5596
  O  O374  1  0.742200  0.021200  0.064000  1.0  -0.5188
  O  O375  1  0.645900  0.447400  0.482600  1.0  -0.5896
  O  O376  1  0.607500  0.480500  0.406400  1.0  -0.4433
  O  O377  1  0.274500  0.634800  0.432300  1.0  -0.5574
  O  O378  1  0.357400  0.690500  0.454000  1.0  -0.4563
  O  O379  1  0.656300  0.852400  0.035900  1.0  -0.4444
  O  O380  1  0.751500  0.846700  0.049000  1.0  -0.5823
  O  O381  1  0.077800  0.775900  0.861000  1.0  -0.5704
  O  O382  1  0.077300  0.691200  0.920200  1.0  -0.3908
  O  O383  1  0.101500  0.606500  0.792100  1.0  -0.5245
  O  O384  1  0.011300  0.624800  0.806500  1.0  -0.5354
  O  O385  1  0.085400  0.750300  0.749600  1.0  -0.5837
  O  O386  1  0.041100  0.691300  0.684300  1.0  -0.5771
  O  O387  1  0.964200  0.769000  0.799400  1.0  -0.6013
  O  O388  1  0.916700  0.711900  0.734600  1.0  -0.5698
  O  O389  1  0.065200  0.275700  0.387900  1.0  -0.5474
  O  O390  1  0.988700  0.837700  0.686900  1.0  -0.552
  O  O391  1  0.094300  0.381000  0.364700  1.0  -0.4686
  O  O392  1  0.895500  0.858100  0.693100  1.0  -0.4747
  O  O393  1  0.912400  0.158600  0.794200  1.0  -0.5633
  O  O394  1  0.838300  0.096500  0.758100  1.0  -0.4753
  O  O395  1  0.128600  0.048500  0.697900  1.0  -0.3931
  O  O396  1  0.077400  0.147500  0.685900  1.0  -0.5723
  O  O397  1  0.085300  0.205600  0.569300  1.0  -0.4542
  O  O398  1  0.160000  0.249600  0.616800  1.0  -0.5425
  O  O399  1  0.082100  0.301600  0.697900  1.0  -0.5568
  O  O400  1  0.154500  0.377700  0.714500  1.0  -0.4687
  O  O401  1  0.127100  0.768800  0.103600  1.0  -0.5865
  O  O402  1  0.170900  0.871400  0.115000  1.0  -0.4602
  O  O403  1  0.928000  0.311800  0.816800  1.0  -0.5787
  O  O404  1  0.874800  0.412000  0.807800  1.0  -0.4102
  O  O405  1  0.347100  0.711700  0.713300  1.0  -0.4391
  O  O406  1  0.295400  0.711100  0.780500  1.0  -0.5444
  O  O407  1  0.658900  0.774300  0.781300  1.0  -0.4281
  O  O408  1  0.705500  0.756200  0.712700  1.0  -0.5496
  O  O409  1  0.227100  0.510200  0.482400  1.0  -0.5613
  O  O410  1  0.242200  0.478800  0.564000  1.0  -0.5182
  O  O411  1  0.145900  0.052600  0.982600  1.0  -0.5915
  O  O412  1  0.107500  0.019500  0.906400  1.0  -0.4431
  O  O413  1  0.774500  0.865200  0.932300  1.0  -0.5574
  O  O414  1  0.857400  0.809500  0.954000  1.0  -0.4545
  O  O415  1  0.156300  0.647600  0.535900  1.0  -0.4446
  O  O416  1  0.251500  0.653300  0.549000  1.0  -0.5839
  O  O417  1  0.422200  0.275900  0.639000  1.0  -0.5711
  O  O418  1  0.422700  0.191200  0.579800  1.0  -0.3911
  O  O419  1  0.398500  0.106500  0.707900  1.0  -0.5239
  O  O420  1  0.488700  0.124800  0.693500  1.0  -0.5359
  O  O421  1  0.414600  0.250300  0.750400  1.0  -0.5841
  O  O422  1  0.458900  0.191300  0.815700  1.0  -0.5778
  O  O423  1  0.535800  0.269000  0.700600  1.0  -0.6015
  O  O424  1  0.583300  0.211900  0.765400  1.0  -0.5689
  O  O425  1  0.434800  0.775700  0.112100  1.0  -0.5463
  O  O426  1  0.511300  0.337700  0.813100  1.0  -0.552
  O  O427  1  0.405700  0.881000  0.135300  1.0  -0.4708
  O  O428  1  0.604500  0.358100  0.806900  1.0  -0.4741
  O  O429  1  0.587600  0.658600  0.705800  1.0  -0.562
  O  O430  1  0.661700  0.596500  0.741900  1.0  -0.4784
  O  O431  1  0.371400  0.548500  0.802100  1.0  -0.3913
  O  O432  1  0.422600  0.647500  0.814100  1.0  -0.5723
  O  O433  1  0.414700  0.705600  0.930700  1.0  -0.4549
  O  O434  1  0.340000  0.749600  0.883200  1.0  -0.5436
  O  O435  1  0.417900  0.801600  0.802100  1.0  -0.5561
  O  O436  1  0.345500  0.877700  0.785500  1.0  -0.4704
  O  O437  1  0.372900  0.268800  0.396400  1.0  -0.5857
  O  O438  1  0.329100  0.371400  0.385000  1.0  -0.4588
  O  O439  1  0.572000  0.811800  0.683200  1.0  -0.5782
  O  O440  1  0.625200  0.912000  0.692200  1.0  -0.4096
  O  O441  1  0.152900  0.211700  0.786700  1.0  -0.4401
  O  O442  1  0.204600  0.211100  0.719500  1.0  -0.5428
  O  O443  1  0.841100  0.274300  0.718700  1.0  -0.4286
  O  O444  1  0.794500  0.256200  0.787300  1.0  -0.5498
  O  O445  1  0.272900  0.010200  0.017600  1.0  -0.5588
  O  O446  1  0.257800  0.978800  0.936000  1.0  -0.5159
  O  O447  1  0.354100  0.552600  0.517400  1.0  -0.5907
  O  O448  1  0.392500  0.519500  0.593600  1.0  -0.4419
  O  O449  1  0.725500  0.365200  0.567700  1.0  -0.5586
  O  O450  1  0.642600  0.309500  0.546000  1.0  -0.4523
  O  O451  1  0.343700  0.147600  0.964100  1.0  -0.4443
  O  O452  1  0.248500  0.153300  0.951000  1.0  -0.5836
