# generated using pymatgen
data_ZnH3(C3O2)3
_symmetry_space_group_name_H-M   'P 1'
_cell_length_a   9.48800000
_cell_length_b   12.56200000
_cell_length_c   15.47700000
_cell_angle_alpha   90.00000000
_cell_angle_beta   106.09900000
_cell_angle_gamma   90.00000000
_symmetry_Int_Tables_number   1
_chemical_formula_structural   ZnH3(C3O2)3
_chemical_formula_sum   'Zn4 H12 C36 O24'
_cell_volume   1772.33578812
_cell_formula_units_Z   4
loop_
 _symmetry_equiv_pos_site_id
 _symmetry_equiv_pos_as_xyz
  1  'x, y, z'
loop_
 _atom_site_type_symbol
 _atom_site_label
 _atom_site_symmetry_multiplicity
 _atom_site_fract_x
 _atom_site_fract_y
 _atom_site_fract_z
 _atom_site_occupancy
 _atom_site_charge
  Zn  Zn1  1  0.683890  0.053010  0.085180  1.0  1.1221
  Zn  Zn2  1  0.316110  0.553010  0.414820  1.0  1.1123
  Zn  Zn3  1  0.316110  0.946990  0.914820  1.0  1.113
  Zn  Zn4  1  0.683890  0.446990  0.585180  1.0  1.1225
  H  H5  1  0.540700  0.699500  0.838800  1.0  0.1198
  H  H6  1  0.891500  0.876400  0.959100  1.0  0.1194
  H  H7  1  0.922300  0.651300  0.782300  1.0  0.1213
  H  H8  1  0.459300  0.199500  0.661200  1.0  0.1203
  H  H9  1  0.108500  0.376400  0.540900  1.0  0.1203
  H  H10  1  0.077700  0.151300  0.717700  1.0  0.1217
  H  H11  1  0.459300  0.300500  0.161200  1.0  0.121
  H  H12  1  0.108500  0.123600  0.040900  1.0  0.1201
  H  H13  1  0.077700  0.348700  0.217700  1.0  0.1216
  H  H14  1  0.540700  0.800500  0.338800  1.0  0.119
  H  H15  1  0.891500  0.623600  0.459100  1.0  0.1205
  H  H16  1  0.922300  0.848700  0.282300  1.0  0.1217
  C  C17  1  0.608200  0.869500  0.945900  1.0  0.734
  C  C18  1  0.638800  0.716800  0.846700  1.0  0.0483
  C  C19  1  0.701500  0.798200  0.904700  1.0  -0.1389
  C  C20  1  0.848600  0.823300  0.918500  1.0  0.0369
  C  C21  1  0.720500  0.660600  0.800200  1.0  -0.1571
  C  C22  1  0.651600  0.576400  0.731000  1.0  0.7107
  C  C23  1  0.866700  0.688100  0.813400  1.0  0.0534
  C  C24  1  0.931800  0.769100  0.871600  1.0  -0.1483
  C  C25  1  0.085900  0.805700  0.877200  1.0  0.6783
  C  C26  1  0.391800  0.369500  0.554100  1.0  0.735
  C  C27  1  0.361200  0.216800  0.653300  1.0  0.0503
  C  C28  1  0.298500  0.298200  0.595300  1.0  -0.1375
  C  C29  1  0.151400  0.323300  0.581500  1.0  0.0365
  C  C30  1  0.279500  0.160600  0.699800  1.0  -0.1568
  C  C31  1  0.348400  0.076400  0.769000  1.0  0.7103
  C  C32  1  0.133300  0.188100  0.686600  1.0  0.0537
  C  C33  1  0.068200  0.269100  0.628400  1.0  -0.1483
  C  C34  1  0.914100  0.305700  0.622800  1.0  0.678
  C  C35  1  0.391800  0.130500  0.054100  1.0  0.7346
  C  C36  1  0.361200  0.283200  0.153300  1.0  0.0494
  C  C37  1  0.298500  0.201800  0.095300  1.0  -0.1373
  C  C38  1  0.151400  0.176700  0.081500  1.0  0.0373
  C  C39  1  0.279500  0.339400  0.199800  1.0  -0.1569
  C  C40  1  0.348400  0.423600  0.269000  1.0  0.7099
  C  C41  1  0.133300  0.311900  0.186600  1.0  0.0536
  C  C42  1  0.068200  0.230900  0.128400  1.0  -0.1479
  C  C43  1  0.914100  0.194300  0.122800  1.0  0.676
  C  C44  1  0.608200  0.630500  0.445900  1.0  0.7339
  C  C45  1  0.638800  0.783200  0.346700  1.0  0.0486
  C  C46  1  0.701500  0.701800  0.404700  1.0  -0.1387
  C  C47  1  0.848600  0.676700  0.418500  1.0  0.0378
  C  C48  1  0.720500  0.839400  0.300200  1.0  -0.1569
  C  C49  1  0.651600  0.923600  0.231000  1.0  0.7105
  C  C50  1  0.866700  0.811900  0.313400  1.0  0.0536
  C  C51  1  0.931800  0.730900  0.371600  1.0  -0.148
  C  C52  1  0.085900  0.694300  0.377200  1.0  0.6757
  O  O53  1  0.670000  0.948200  0.988600  1.0  -0.6457
  O  O54  1  0.741100  0.531300  0.693600  1.0  -0.5837
  O  O55  1  0.518800  0.557200  0.714000  1.0  -0.4646
  O  O56  1  0.474000  0.844700  0.929800  1.0  -0.5947
  O  O57  1  0.133600  0.885400  0.927700  1.0  -0.5656
  O  O58  1  0.154500  0.760300  0.830800  1.0  -0.4481
  O  O59  1  0.330000  0.448200  0.511400  1.0  -0.6438
  O  O60  1  0.258900  0.031300  0.806400  1.0  -0.5827
  O  O61  1  0.481200  0.057200  0.786000  1.0  -0.4625
  O  O62  1  0.526000  0.344700  0.570200  1.0  -0.5933
  O  O63  1  0.866400  0.385400  0.572300  1.0  -0.565
  O  O64  1  0.845500  0.260300  0.669200  1.0  -0.4472
  O  O65  1  0.330000  0.051800  0.011400  1.0  -0.643
  O  O66  1  0.258900  0.468700  0.306400  1.0  -0.5837
  O  O67  1  0.481200  0.442800  0.286000  1.0  -0.4619
  O  O68  1  0.526000  0.155300  0.070200  1.0  -0.5942
  O  O69  1  0.866400  0.114600  0.072300  1.0  -0.5637
  O  O70  1  0.845500  0.239700  0.169200  1.0  -0.4476
  O  O71  1  0.670000  0.551800  0.488600  1.0  -0.6446
  O  O72  1  0.741100  0.968700  0.193600  1.0  -0.5839
  O  O73  1  0.518800  0.942800  0.214000  1.0  -0.4641
  O  O74  1  0.474000  0.655300  0.429800  1.0  -0.5961
  O  O75  1  0.133600  0.614600  0.427700  1.0  -0.5634
  O  O76  1  0.154500  0.739700  0.330800  1.0  -0.4472
