# generated using pymatgen
data_ZnH12C18(NO2)2
_symmetry_space_group_name_H-M   'P 1'
_cell_length_a   27.81140000
_cell_length_b   27.81140000
_cell_length_c   3.68990000
_cell_angle_alpha   90.00000000
_cell_angle_beta   90.00000000
_cell_angle_gamma   90.00000000
_symmetry_Int_Tables_number   1
_chemical_formula_structural   ZnH12C18(NO2)2
_chemical_formula_sum   'Zn8 H96 C144 N16 O32'
_cell_volume   2854.04160176
_cell_formula_units_Z   8
loop_
 _symmetry_equiv_pos_site_id
 _symmetry_equiv_pos_as_xyz
  1  'x, y, z'
loop_
 _atom_site_type_symbol
 _atom_site_label
 _atom_site_symmetry_multiplicity
 _atom_site_fract_x
 _atom_site_fract_y
 _atom_site_fract_z
 _atom_site_occupancy
 _atom_site_charge
  Zn  Zn1  1  0.283620  0.213990  0.864400  1.0  0.9406
  Zn  Zn2  1  0.716380  0.786010  0.864400  1.0  0.9412
  Zn  Zn3  1  0.713990  0.216380  0.635600  1.0  0.9392
  Zn  Zn4  1  0.286010  0.783620  0.635600  1.0  0.9422
  Zn  Zn5  1  0.783620  0.713990  0.364400  1.0  0.9406
  Zn  Zn6  1  0.216380  0.286010  0.364400  1.0  0.9412
  Zn  Zn7  1  0.213990  0.716380  0.135600  1.0  0.9389
  Zn  Zn8  1  0.786010  0.283620  0.135600  1.0  0.9418
  H  H9  1  0.310000  0.109400  0.071700  1.0  0.1215
  H  H10  1  0.181100  0.185200  0.420300  1.0  0.1408
  H  H11  1  0.104100  0.181400  0.125700  1.0  0.1332
  H  H12  1  0.035500  0.139600  0.950300  1.0  0.2221
  H  H13  1  0.030700  0.058200  0.103700  1.0  0.1233
  H  H14  1  0.091800  0.020900  0.414000  1.0  0.1584
  H  H15  1  0.168800  0.021900  0.704300  1.0  0.1654
  H  H16  1  0.221700  0.923300  0.387200  1.0  0.1295
  H  H17  1  0.360300  0.953900  0.184200  1.0  0.1449
  H  H18  1  0.338300  0.029700  0.979300  1.0  0.1435
  H  H19  1  0.199700  0.999100  0.182300  1.0  0.1994
  H  H20  1  0.308500  0.234500  0.258200  1.0  0.3548
  H  H21  1  0.690000  0.890600  0.071700  1.0  0.1205
  H  H22  1  0.818900  0.814800  0.420300  1.0  0.1416
  H  H23  1  0.895900  0.818600  0.125700  1.0  0.132
  H  H24  1  0.964500  0.860400  0.950300  1.0  0.2218
  H  H25  1  0.969300  0.941800  0.103700  1.0  0.1232
  H  H26  1  0.908200  0.979100  0.414000  1.0  0.1596
  H  H27  1  0.831200  0.978100  0.704300  1.0  0.1649
  H  H28  1  0.778300  0.076700  0.387200  1.0  0.1309
  H  H29  1  0.639700  0.046100  0.184200  1.0  0.1454
  H  H30  1  0.661700  0.970300  0.979300  1.0  0.1428
  H  H31  1  0.800300  0.000900  0.182300  1.0  0.1989
  H  H32  1  0.691500  0.765500  0.258200  1.0  0.354
  H  H33  1  0.609400  0.190000  0.428300  1.0  0.1223
  H  H34  1  0.685200  0.318900  0.079700  1.0  0.1408
  H  H35  1  0.681400  0.395900  0.374300  1.0  0.1343
  H  H36  1  0.639600  0.464500  0.549700  1.0  0.2214
  H  H37  1  0.558200  0.469300  0.396300  1.0  0.1232
  H  H38  1  0.520900  0.408200  0.086000  1.0  0.161
  H  H39  1  0.521900  0.331200  0.795700  1.0  0.1662
  H  H40  1  0.423300  0.278300  0.112800  1.0  0.1304
  H  H41  1  0.453900  0.139700  0.315800  1.0  0.1433
  H  H42  1  0.529700  0.161700  0.520700  1.0  0.146
  H  H43  1  0.499100  0.300300  0.317700  1.0  0.1973
  H  H44  1  0.734500  0.191500  0.241800  1.0  0.3544
  H  H45  1  0.390600  0.810000  0.428300  1.0  0.1217
  H  H46  1  0.314800  0.681100  0.079700  1.0  0.1399
  H  H47  1  0.318600  0.604100  0.374300  1.0  0.1338
  H  H48  1  0.360400  0.535500  0.549700  1.0  0.2226
  H  H49  1  0.441800  0.530700  0.396300  1.0  0.1235
  H  H50  1  0.479100  0.591800  0.086000  1.0  0.1601
  H  H51  1  0.478100  0.668800  0.795700  1.0  0.165
  H  H52  1  0.576700  0.721700  0.112800  1.0  0.1303
  H  H53  1  0.546100  0.860300  0.315800  1.0  0.1435
  H  H54  1  0.470300  0.838300  0.520700  1.0  0.1459
  H  H55  1  0.500900  0.699700  0.317700  1.0  0.1978
  H  H56  1  0.265500  0.808500  0.241800  1.0  0.3537
  H  H57  1  0.810000  0.609400  0.571700  1.0  0.1215
  H  H58  1  0.681100  0.685200  0.920300  1.0  0.1408
  H  H59  1  0.604100  0.681400  0.625700  1.0  0.1332
  H  H60  1  0.535500  0.639600  0.450300  1.0  0.2221
  H  H61  1  0.530700  0.558200  0.603700  1.0  0.1233
  H  H62  1  0.591800  0.520900  0.914000  1.0  0.1584
  H  H63  1  0.668800  0.521900  0.204300  1.0  0.1654
  H  H64  1  0.721700  0.423300  0.887200  1.0  0.1295
  H  H65  1  0.860300  0.453900  0.684200  1.0  0.1449
  H  H66  1  0.838300  0.529700  0.479300  1.0  0.1435
  H  H67  1  0.699700  0.499100  0.682300  1.0  0.1994
  H  H68  1  0.808500  0.734500  0.758200  1.0  0.3548
  H  H69  1  0.190000  0.390600  0.571700  1.0  0.1205
  H  H70  1  0.318900  0.314800  0.920300  1.0  0.1416
  H  H71  1  0.395900  0.318600  0.625700  1.0  0.132
  H  H72  1  0.464500  0.360400  0.450300  1.0  0.2218
  H  H73  1  0.469300  0.441800  0.603700  1.0  0.1232
  H  H74  1  0.408200  0.479100  0.914000  1.0  0.1596
  H  H75  1  0.331200  0.478100  0.204300  1.0  0.1649
  H  H76  1  0.278300  0.576700  0.887200  1.0  0.1309
  H  H77  1  0.139700  0.546100  0.684200  1.0  0.1454
  H  H78  1  0.161700  0.470300  0.479300  1.0  0.1428
  H  H79  1  0.300300  0.500900  0.682300  1.0  0.1989
  H  H80  1  0.191500  0.265500  0.758200  1.0  0.354
  H  H81  1  0.109400  0.690000  0.928300  1.0  0.1223
  H  H82  1  0.185200  0.818900  0.579700  1.0  0.1408
  H  H83  1  0.181400  0.895900  0.874300  1.0  0.1343
  H  H84  1  0.139600  0.964500  0.049700  1.0  0.2214
  H  H85  1  0.058200  0.969300  0.896300  1.0  0.1232
  H  H86  1  0.020900  0.908200  0.586000  1.0  0.161
  H  H87  1  0.021900  0.831200  0.295700  1.0  0.1662
  H  H88  1  0.923300  0.778300  0.612800  1.0  0.1304
  H  H89  1  0.953900  0.639700  0.815800  1.0  0.1433
  H  H90  1  0.029700  0.661700  0.020700  1.0  0.146
  H  H91  1  0.999100  0.800300  0.817700  1.0  0.1973
  H  H92  1  0.234500  0.691500  0.741800  1.0  0.3544
  H  H93  1  0.890600  0.310000  0.928300  1.0  0.1217
  H  H94  1  0.814800  0.181100  0.579700  1.0  0.1399
  H  H95  1  0.818600  0.104100  0.874300  1.0  0.1338
  H  H96  1  0.860400  0.035500  0.049700  1.0  0.2226
  H  H97  1  0.941800  0.030700  0.896300  1.0  0.1235
  H  H98  1  0.979100  0.091800  0.586000  1.0  0.1601
  H  H99  1  0.978100  0.168800  0.295700  1.0  0.165
  H  H100  1  0.076700  0.221700  0.612800  1.0  0.1303
  H  H101  1  0.046100  0.360300  0.815800  1.0  0.1435
  H  H102  1  0.970300  0.338300  0.020700  1.0  0.1459
  H  H103  1  0.000900  0.199700  0.817700  1.0  0.1978
  H  H104  1  0.765500  0.308500  0.741800  1.0  0.3537
  C  C105  1  0.280100  0.108000  0.958000  1.0  0.228
  C  C106  1  0.214500  0.129200  0.662100  1.0  0.0751
  C  C107  1  0.178300  0.152700  0.476000  1.0  -0.0952
  C  C108  1  0.137900  0.126900  0.374000  1.0  0.0487
  C  C109  1  0.101200  0.149000  0.184000  1.0  -0.0704
  C  C110  1  0.060100  0.124400  0.077000  1.0  -0.0956
  C  C111  1  0.057700  0.075900  0.170000  1.0  -0.0618
  C  C112  1  0.094500  0.053400  0.359000  1.0  -0.1331
  C  C113  1  0.135500  0.078600  0.466700  1.0  0.032
  C  C114  1  0.171400  0.054500  0.652000  1.0  -0.1135
  C  C115  1  0.211500  0.080700  0.758000  1.0  0.1688
  C  C116  1  0.245100  0.944600  0.305000  1.0  -0.0772
  C  C117  1  0.293200  0.931100  0.306000  1.0  -0.0688
  C  C118  1  0.328100  0.963000  0.184000  1.0  -0.0539
  C  C119  1  0.315000  0.008400  0.061000  1.0  -0.1129
  C  C120  1  0.266800  0.021900  0.060500  1.0  0.1606
  C  C121  1  0.231900  0.990000  0.183000  1.0  -0.1209
  C  C122  1  0.302600  0.880800  0.446000  1.0  -0.0155
  C  C123  1  0.719900  0.892000  0.958000  1.0  0.2264
  C  C124  1  0.785500  0.870800  0.662100  1.0  0.0764
  C  C125  1  0.821700  0.847300  0.476000  1.0  -0.0942
  C  C126  1  0.862100  0.873100  0.374000  1.0  0.0496
  C  C127  1  0.898800  0.851000  0.184000  1.0  -0.0699
  C  C128  1  0.939900  0.875600  0.077000  1.0  -0.0957
  C  C129  1  0.942300  0.924100  0.170000  1.0  -0.0614
  C  C130  1  0.905500  0.946600  0.359000  1.0  -0.1336
  C  C131  1  0.864500  0.921400  0.466700  1.0  0.0322
  C  C132  1  0.828600  0.945500  0.652000  1.0  -0.1114
  C  C133  1  0.788500  0.919300  0.758000  1.0  0.1691
  C  C134  1  0.754900  0.055400  0.305000  1.0  -0.077
  C  C135  1  0.706800  0.068900  0.306000  1.0  -0.0676
  C  C136  1  0.671900  0.037000  0.184000  1.0  -0.0585
  C  C137  1  0.685000  0.991600  0.061000  1.0  -0.1129
  C  C138  1  0.733200  0.978100  0.060500  1.0  0.1598
  C  C139  1  0.768100  0.010000  0.183000  1.0  -0.1204
  C  C140  1  0.697400  0.119200  0.446000  1.0  -0.0174
  C  C141  1  0.608000  0.219900  0.542000  1.0  0.2279
  C  C142  1  0.629200  0.285500  0.837900  1.0  0.0753
  C  C143  1  0.652700  0.321700  0.024000  1.0  -0.0962
  C  C144  1  0.626900  0.362100  0.126000  1.0  0.0484
  C  C145  1  0.649000  0.398800  0.316000  1.0  -0.0727
  C  C146  1  0.624400  0.439900  0.423000  1.0  -0.0953
  C  C147  1  0.575900  0.442300  0.330000  1.0  -0.0615
  C  C148  1  0.553400  0.405500  0.141000  1.0  -0.1339
  C  C149  1  0.578600  0.364500  0.033300  1.0  0.0327
  C  C150  1  0.554500  0.328600  0.848000  1.0  -0.1123
  C  C151  1  0.580700  0.288500  0.742000  1.0  0.1676
  C  C152  1  0.444600  0.254900  0.195000  1.0  -0.0774
  C  C153  1  0.431100  0.206800  0.194000  1.0  -0.0641
  C  C154  1  0.463000  0.171900  0.316000  1.0  -0.0603
  C  C155  1  0.508400  0.185000  0.439000  1.0  -0.1181
  C  C156  1  0.521900  0.233200  0.439500  1.0  0.158
  C  C157  1  0.490000  0.268100  0.317000  1.0  -0.1202
  C  C158  1  0.380800  0.197400  0.054000  1.0  -0.0184
  C  C159  1  0.392000  0.780100  0.542000  1.0  0.2269
  C  C160  1  0.370800  0.714500  0.837900  1.0  0.0752
  C  C161  1  0.347300  0.678300  0.024000  1.0  -0.0947
  C  C162  1  0.373100  0.637900  0.126000  1.0  0.0475
  C  C163  1  0.351000  0.601200  0.316000  1.0  -0.074
  C  C164  1  0.375600  0.560100  0.423000  1.0  -0.0952
  C  C165  1  0.424100  0.557700  0.330000  1.0  -0.0617
  C  C166  1  0.446600  0.594500  0.141000  1.0  -0.1337
  C  C167  1  0.421400  0.635500  0.033300  1.0  0.0328
  C  C168  1  0.445500  0.671400  0.848000  1.0  -0.1129
  C  C169  1  0.419300  0.711500  0.742000  1.0  0.1691
  C  C170  1  0.555400  0.745100  0.195000  1.0  -0.0775
  C  C171  1  0.568900  0.793200  0.194000  1.0  -0.0631
  C  C172  1  0.537000  0.828100  0.316000  1.0  -0.0586
  C  C173  1  0.491600  0.815000  0.439000  1.0  -0.1159
  C  C174  1  0.478100  0.766800  0.439500  1.0  0.1578
  C  C175  1  0.510000  0.731900  0.317000  1.0  -0.1211
  C  C176  1  0.619200  0.802600  0.054000  1.0  -0.0159
  C  C177  1  0.780100  0.608000  0.458000  1.0  0.228
  C  C178  1  0.714500  0.629200  0.162100  1.0  0.0751
  C  C179  1  0.678300  0.652700  0.976000  1.0  -0.0952
  C  C180  1  0.637900  0.626900  0.874000  1.0  0.0487
  C  C181  1  0.601200  0.649000  0.684000  1.0  -0.0704
  C  C182  1  0.560100  0.624400  0.577000  1.0  -0.0956
  C  C183  1  0.557700  0.575900  0.670000  1.0  -0.0618
  C  C184  1  0.594500  0.553400  0.859000  1.0  -0.1331
  C  C185  1  0.635500  0.578600  0.966700  1.0  0.032
  C  C186  1  0.671400  0.554500  0.152000  1.0  -0.1135
  C  C187  1  0.711500  0.580700  0.258000  1.0  0.1688
  C  C188  1  0.745100  0.444600  0.805000  1.0  -0.0772
  C  C189  1  0.793200  0.431100  0.806000  1.0  -0.0688
  C  C190  1  0.828100  0.463000  0.684000  1.0  -0.0539
  C  C191  1  0.815000  0.508400  0.561000  1.0  -0.1129
  C  C192  1  0.766800  0.521900  0.560500  1.0  0.1606
  C  C193  1  0.731900  0.490000  0.683000  1.0  -0.1209
  C  C194  1  0.802600  0.380800  0.946000  1.0  -0.0155
  C  C195  1  0.219900  0.392000  0.458000  1.0  0.2264
  C  C196  1  0.285500  0.370800  0.162100  1.0  0.0764
  C  C197  1  0.321700  0.347300  0.976000  1.0  -0.0942
  C  C198  1  0.362100  0.373100  0.874000  1.0  0.0496
  C  C199  1  0.398800  0.351000  0.684000  1.0  -0.0699
  C  C200  1  0.439900  0.375600  0.577000  1.0  -0.0957
  C  C201  1  0.442300  0.424100  0.670000  1.0  -0.0614
  C  C202  1  0.405500  0.446600  0.859000  1.0  -0.1336
  C  C203  1  0.364500  0.421400  0.966700  1.0  0.0322
  C  C204  1  0.328600  0.445500  0.152000  1.0  -0.1114
  C  C205  1  0.288500  0.419300  0.258000  1.0  0.1691
  C  C206  1  0.254900  0.555400  0.805000  1.0  -0.077
  C  C207  1  0.206800  0.568900  0.806000  1.0  -0.0676
  C  C208  1  0.171900  0.537000  0.684000  1.0  -0.0585
  C  C209  1  0.185000  0.491600  0.561000  1.0  -0.1129
  C  C210  1  0.233200  0.478100  0.560500  1.0  0.1598
  C  C211  1  0.268100  0.510000  0.683000  1.0  -0.1204
  C  C212  1  0.197400  0.619200  0.946000  1.0  -0.0174
  C  C213  1  0.108000  0.719900  0.042000  1.0  0.2279
  C  C214  1  0.129200  0.785500  0.337900  1.0  0.0753
  C  C215  1  0.152700  0.821700  0.524000  1.0  -0.0962
  C  C216  1  0.126900  0.862100  0.626000  1.0  0.0484
  C  C217  1  0.149000  0.898800  0.816000  1.0  -0.0727
  C  C218  1  0.124400  0.939900  0.923000  1.0  -0.0953
  C  C219  1  0.075900  0.942300  0.830000  1.0  -0.0615
  C  C220  1  0.053400  0.905500  0.641000  1.0  -0.1339
  C  C221  1  0.078600  0.864500  0.533300  1.0  0.0327
  C  C222  1  0.054500  0.828600  0.348000  1.0  -0.1123
  C  C223  1  0.080700  0.788500  0.242000  1.0  0.1676
  C  C224  1  0.944600  0.754900  0.695000  1.0  -0.0774
  C  C225  1  0.931100  0.706800  0.694000  1.0  -0.0641
  C  C226  1  0.963000  0.671900  0.816000  1.0  -0.0603
  C  C227  1  0.008400  0.685000  0.939000  1.0  -0.1181
  C  C228  1  0.021900  0.733200  0.939500  1.0  0.158
  C  C229  1  0.990000  0.768100  0.817000  1.0  -0.1202
  C  C230  1  0.880800  0.697400  0.554000  1.0  -0.0184
  C  C231  1  0.892000  0.280100  0.042000  1.0  0.2269
  C  C232  1  0.870800  0.214500  0.337900  1.0  0.0752
  C  C233  1  0.847300  0.178300  0.524000  1.0  -0.0947
  C  C234  1  0.873100  0.137900  0.626000  1.0  0.0475
  C  C235  1  0.851000  0.101200  0.816000  1.0  -0.074
  C  C236  1  0.875600  0.060100  0.923000  1.0  -0.0952
  C  C237  1  0.924100  0.057700  0.830000  1.0  -0.0617
  C  C238  1  0.946600  0.094500  0.641000  1.0  -0.1337
  C  C239  1  0.921400  0.135500  0.533300  1.0  0.0328
  C  C240  1  0.945500  0.171400  0.348000  1.0  -0.1129
  C  C241  1  0.919300  0.211500  0.242000  1.0  0.1691
  C  C242  1  0.055400  0.245100  0.695000  1.0  -0.0775
  C  C243  1  0.068900  0.293200  0.694000  1.0  -0.0631
  C  C244  1  0.037000  0.328100  0.816000  1.0  -0.0586
  C  C245  1  0.991600  0.315000  0.939000  1.0  -0.1159
  C  C246  1  0.978100  0.266800  0.939500  1.0  0.1578
  C  C247  1  0.010000  0.231900  0.817000  1.0  -0.1211
  C  C248  1  0.119200  0.302600  0.554000  1.0  -0.0159
  N  N249  1  0.259900  0.145000  0.804000  1.0  -0.3762
  N  N250  1  0.253300  0.067300  0.938000  1.0  0.0517
  N  N251  1  0.740100  0.855000  0.804000  1.0  -0.3772
  N  N252  1  0.746700  0.932700  0.938000  1.0  0.0502
  N  N253  1  0.645000  0.240100  0.696000  1.0  -0.377
  N  N254  1  0.567300  0.246700  0.562000  1.0  0.0516
  N  N255  1  0.355000  0.759900  0.696000  1.0  -0.3782
  N  N256  1  0.432700  0.753300  0.562000  1.0  0.0536
  N  N257  1  0.759900  0.645000  0.304000  1.0  -0.3762
  N  N258  1  0.753300  0.567300  0.438000  1.0  0.0517
  N  N259  1  0.240100  0.355000  0.304000  1.0  -0.3772
  N  N260  1  0.246700  0.432700  0.438000  1.0  0.0502
  N  N261  1  0.145000  0.740100  0.196000  1.0  -0.377
  N  N262  1  0.067300  0.746700  0.062000  1.0  0.0516
  N  N263  1  0.855000  0.259900  0.196000  1.0  -0.3782
  N  N264  1  0.932700  0.253300  0.062000  1.0  0.0536
  O  O265  1  0.276200  0.858700  0.600000  1.0  -0.5918
  O  O266  1  0.342000  0.866000  0.283000  1.0  -0.427
  O  O267  1  0.285700  0.246600  0.381000  1.0  -0.8367
  O  O268  1  0.344100  0.876500  0.612000  1.0  -0.4822
  O  O269  1  0.723800  0.141300  0.600000  1.0  -0.5921
  O  O270  1  0.658000  0.134000  0.283000  1.0  -0.4278
  O  O271  1  0.714300  0.753400  0.381000  1.0  -0.8372
  O  O272  1  0.655900  0.123500  0.612000  1.0  -0.4838
  O  O273  1  0.358700  0.223800  0.900000  1.0  -0.5928
  O  O274  1  0.366000  0.158000  0.217000  1.0  -0.4273
  O  O275  1  0.746600  0.214300  0.119000  1.0  -0.8391
  O  O276  1  0.376500  0.155900  0.888000  1.0  -0.4818
  O  O277  1  0.641300  0.776200  0.900000  1.0  -0.5919
  O  O278  1  0.634000  0.842000  0.217000  1.0  -0.4299
  O  O279  1  0.253400  0.785700  0.119000  1.0  -0.84
  O  O280  1  0.623500  0.844100  0.888000  1.0  -0.4825
  O  O281  1  0.776200  0.358700  0.100000  1.0  -0.5918
  O  O282  1  0.842000  0.366000  0.783000  1.0  -0.427
  O  O283  1  0.785700  0.746600  0.881000  1.0  -0.8371
  O  O284  1  0.844100  0.376500  0.112000  1.0  -0.4822
  O  O285  1  0.223800  0.641300  0.100000  1.0  -0.5921
  O  O286  1  0.158000  0.634000  0.783000  1.0  -0.4278
  O  O287  1  0.214300  0.253400  0.881000  1.0  -0.8376
  O  O288  1  0.155900  0.623500  0.112000  1.0  -0.4838
  O  O289  1  0.858700  0.723800  0.400000  1.0  -0.5928
  O  O290  1  0.866000  0.658000  0.717000  1.0  -0.4273
  O  O291  1  0.246600  0.714300  0.619000  1.0  -0.8392
  O  O292  1  0.876500  0.655900  0.388000  1.0  -0.4818
  O  O293  1  0.141300  0.276200  0.400000  1.0  -0.5919
  O  O294  1  0.134000  0.342000  0.717000  1.0  -0.4299
  O  O295  1  0.753400  0.285700  0.619000  1.0  -0.8402
  O  O296  1  0.123500  0.344100  0.388000  1.0  -0.4825
