# generated using pymatgen
data_ZnH12C18(NO2)2
_symmetry_space_group_name_H-M   'P 1'
_cell_length_a   27.74770000
_cell_length_b   27.74770000
_cell_length_c   3.76690000
_cell_angle_alpha   90.00000000
_cell_angle_beta   90.00000000
_cell_angle_gamma   90.00000000
_symmetry_Int_Tables_number   1
_chemical_formula_structural   ZnH12C18(NO2)2
_chemical_formula_sum   'Zn8 H96 C144 N16 O32'
_cell_volume   2900.26760639
_cell_formula_units_Z   8
loop_
 _symmetry_equiv_pos_site_id
 _symmetry_equiv_pos_as_xyz
  1  'x, y, z'
loop_
 _atom_site_type_symbol
 _atom_site_label
 _atom_site_symmetry_multiplicity
 _atom_site_fract_x
 _atom_site_fract_y
 _atom_site_fract_z
 _atom_site_occupancy
 _atom_site_charge
  Zn  Zn1  1  0.283080  0.214140  0.868900  1.0  0.9252
  Zn  Zn2  1  0.783080  0.714140  0.368900  1.0  0.9252
  Zn  Zn3  1  0.716920  0.785860  0.868900  1.0  0.9246
  Zn  Zn4  1  0.216920  0.285860  0.368900  1.0  0.9246
  Zn  Zn5  1  0.214140  0.716920  0.131100  1.0  0.9252
  Zn  Zn6  1  0.714140  0.216920  0.631100  1.0  0.9252
  Zn  Zn7  1  0.785860  0.283080  0.131100  1.0  0.9262
  Zn  Zn8  1  0.285860  0.783080  0.631100  1.0  0.9262
  H  H9  1  0.193800  0.266900  0.775000  1.0  0.3718
  H  H10  1  0.309000  0.109800  0.083800  1.0  0.1199
  H  H11  1  0.181300  0.184900  0.423300  1.0  0.1446
  H  H12  1  0.103900  0.179900  0.126700  1.0  0.1186
  H  H13  1  0.036400  0.137300  0.952000  1.0  0.1645
  H  H14  1  0.031800  0.056000  0.105800  1.0  0.1261
  H  H15  1  0.093200  0.020300  0.417600  1.0  0.1444
  H  H16  1  0.168500  0.021900  0.716300  1.0  0.1698
  H  H17  1  0.221800  0.923000  0.395400  1.0  0.1398
  H  H18  1  0.360100  0.953800  0.175300  1.0  0.1558
  H  H19  1  0.337400  0.029700  0.977200  1.0  0.1436
  H  H20  1  0.199100  0.998900  0.197300  1.0  0.1654
  H  H21  1  0.693800  0.766900  0.275000  1.0  0.3718
  H  H22  1  0.809000  0.609800  0.583800  1.0  0.1199
  H  H23  1  0.681300  0.684900  0.923300  1.0  0.1446
  H  H24  1  0.603900  0.679900  0.626700  1.0  0.1186
  H  H25  1  0.536400  0.637300  0.452000  1.0  0.1645
  H  H26  1  0.531800  0.556000  0.605800  1.0  0.1261
  H  H27  1  0.593200  0.520300  0.917600  1.0  0.1444
  H  H28  1  0.668500  0.521900  0.216300  1.0  0.1698
  H  H29  1  0.721800  0.423000  0.895400  1.0  0.1398
  H  H30  1  0.860100  0.453800  0.675300  1.0  0.1558
  H  H31  1  0.837400  0.529700  0.477200  1.0  0.1436
  H  H32  1  0.699100  0.498900  0.697300  1.0  0.1654
  H  H33  1  0.806200  0.733100  0.775000  1.0  0.3718
  H  H34  1  0.691000  0.890200  0.083800  1.0  0.1186
  H  H35  1  0.818700  0.815100  0.423300  1.0  0.1447
  H  H36  1  0.896100  0.820100  0.126700  1.0  0.1177
  H  H37  1  0.963600  0.862700  0.952000  1.0  0.1649
  H  H38  1  0.968200  0.944000  0.105800  1.0  0.1267
  H  H39  1  0.906800  0.979700  0.417600  1.0  0.1448
  H  H40  1  0.831500  0.978100  0.716300  1.0  0.169
  H  H41  1  0.778200  0.077000  0.395400  1.0  0.1417
  H  H42  1  0.639900  0.046200  0.175300  1.0  0.1557
  H  H43  1  0.662600  0.970300  0.977200  1.0  0.1435
  H  H44  1  0.800900  0.001100  0.197300  1.0  0.1641
  H  H45  1  0.306200  0.233100  0.275000  1.0  0.3718
  H  H46  1  0.191000  0.390200  0.583800  1.0  0.1186
  H  H47  1  0.318700  0.315100  0.923300  1.0  0.1447
  H  H48  1  0.396100  0.320100  0.626700  1.0  0.1177
  H  H49  1  0.463600  0.362700  0.452000  1.0  0.1649
  H  H50  1  0.468200  0.444000  0.605800  1.0  0.1267
  H  H51  1  0.406800  0.479700  0.917600  1.0  0.1448
  H  H52  1  0.331500  0.478100  0.216300  1.0  0.169
  H  H53  1  0.278200  0.577000  0.895400  1.0  0.1417
  H  H54  1  0.139900  0.546200  0.675300  1.0  0.1557
  H  H55  1  0.162600  0.470300  0.477200  1.0  0.1435
  H  H56  1  0.300900  0.501100  0.697300  1.0  0.1641
  H  H57  1  0.266900  0.806200  0.225000  1.0  0.3711
  H  H58  1  0.109800  0.691000  0.916200  1.0  0.1222
  H  H59  1  0.184900  0.818700  0.576700  1.0  0.1445
  H  H60  1  0.179900  0.896100  0.873300  1.0  0.1188
  H  H61  1  0.137300  0.963600  0.048000  1.0  0.1648
  H  H62  1  0.056000  0.968200  0.894200  1.0  0.1263
  H  H63  1  0.020300  0.906800  0.582400  1.0  0.1468
  H  H64  1  0.021900  0.831500  0.283700  1.0  0.1711
  H  H65  1  0.923000  0.778200  0.604600  1.0  0.141
  H  H66  1  0.953800  0.639900  0.824700  1.0  0.1537
  H  H67  1  0.029700  0.662600  0.022800  1.0  0.1439
  H  H68  1  0.998900  0.800900  0.802700  1.0  0.1644
  H  H69  1  0.766900  0.306200  0.725000  1.0  0.3711
  H  H70  1  0.609800  0.191000  0.416200  1.0  0.1222
  H  H71  1  0.684900  0.318700  0.076700  1.0  0.1445
  H  H72  1  0.679900  0.396100  0.373300  1.0  0.1188
  H  H73  1  0.637300  0.463600  0.548000  1.0  0.1648
  H  H74  1  0.556000  0.468200  0.394200  1.0  0.1263
  H  H75  1  0.520300  0.406800  0.082400  1.0  0.1468
  H  H76  1  0.521900  0.331500  0.783700  1.0  0.1711
  H  H77  1  0.423000  0.278200  0.104600  1.0  0.141
  H  H78  1  0.453800  0.139900  0.324700  1.0  0.1537
  H  H79  1  0.529700  0.162600  0.522800  1.0  0.1439
  H  H80  1  0.498900  0.300900  0.302700  1.0  0.1644
  H  H81  1  0.733100  0.193800  0.225000  1.0  0.3724
  H  H82  1  0.890200  0.309000  0.916200  1.0  0.1214
  H  H83  1  0.815100  0.181300  0.576700  1.0  0.1434
  H  H84  1  0.820100  0.103900  0.873300  1.0  0.1186
  H  H85  1  0.862700  0.036400  0.048000  1.0  0.1651
  H  H86  1  0.944000  0.031800  0.894200  1.0  0.1262
  H  H87  1  0.979700  0.093200  0.582400  1.0  0.1465
  H  H88  1  0.978100  0.168500  0.283700  1.0  0.17
  H  H89  1  0.077000  0.221800  0.604600  1.0  0.1408
  H  H90  1  0.046200  0.360100  0.824700  1.0  0.1543
  H  H91  1  0.970300  0.337400  0.022800  1.0  0.1441
  H  H92  1  0.001100  0.199100  0.802700  1.0  0.1641
  H  H93  1  0.233100  0.693800  0.725000  1.0  0.3724
  H  H94  1  0.390200  0.809000  0.416200  1.0  0.1214
  H  H95  1  0.315100  0.681300  0.076700  1.0  0.1434
  H  H96  1  0.320100  0.603900  0.373300  1.0  0.1186
  H  H97  1  0.362700  0.536400  0.548000  1.0  0.1651
  H  H98  1  0.444000  0.531800  0.394200  1.0  0.1262
  H  H99  1  0.479700  0.593200  0.082400  1.0  0.1465
  H  H100  1  0.478100  0.668500  0.783700  1.0  0.17
  H  H101  1  0.577000  0.721800  0.104600  1.0  0.1408
  H  H102  1  0.546200  0.860100  0.324700  1.0  0.1543
  H  H103  1  0.470300  0.837400  0.522800  1.0  0.1441
  H  H104  1  0.501100  0.699100  0.302700  1.0  0.1641
  C  C105  1  0.279400  0.108400  0.969000  1.0  0.2255
  C  C106  1  0.214300  0.129200  0.670000  1.0  0.0805
  C  C107  1  0.178500  0.152400  0.480000  1.0  -0.0997
  C  C108  1  0.138300  0.126500  0.378000  1.0  0.061
  C  C109  1  0.101400  0.147500  0.186000  1.0  -0.0468
  C  C110  1  0.060900  0.122500  0.080000  1.0  -0.1279
  C  C111  1  0.058500  0.074200  0.172000  1.0  -0.0464
  C  C112  1  0.095500  0.052800  0.361000  1.0  -0.1209
  C  C113  1  0.135900  0.078100  0.469000  1.0  0.0627
  C  C114  1  0.171500  0.054400  0.659000  1.0  -0.1123
  C  C115  1  0.211600  0.080700  0.762000  1.0  0.1939
  C  C116  1  0.245000  0.944400  0.312000  1.0  -0.0429
  C  C117  1  0.293200  0.930900  0.305000  1.0  -0.0864
  C  C118  1  0.327800  0.962900  0.180000  1.0  -0.0454
  C  C119  1  0.314200  0.008300  0.061000  1.0  -0.096
  C  C120  1  0.266000  0.021800  0.068000  1.0  0.166
  C  C121  1  0.231400  0.989900  0.193000  1.0  -0.138
  C  C122  1  0.307400  0.881200  0.435000  1.0  0.1307
  C  C123  1  0.779400  0.608400  0.469000  1.0  0.2255
  C  C124  1  0.714300  0.629200  0.170000  1.0  0.0805
  C  C125  1  0.678500  0.652400  0.980000  1.0  -0.0997
  C  C126  1  0.638300  0.626500  0.878000  1.0  0.061
  C  C127  1  0.601400  0.647500  0.686000  1.0  -0.0468
  C  C128  1  0.560900  0.622500  0.580000  1.0  -0.1279
  C  C129  1  0.558500  0.574200  0.672000  1.0  -0.0464
  C  C130  1  0.595500  0.552800  0.861000  1.0  -0.1209
  C  C131  1  0.635900  0.578100  0.969000  1.0  0.0627
  C  C132  1  0.671500  0.554400  0.159000  1.0  -0.1123
  C  C133  1  0.711600  0.580700  0.262000  1.0  0.1939
  C  C134  1  0.745000  0.444400  0.812000  1.0  -0.0429
  C  C135  1  0.793200  0.430900  0.805000  1.0  -0.0864
  C  C136  1  0.827800  0.462900  0.680000  1.0  -0.0454
  C  C137  1  0.814200  0.508300  0.561000  1.0  -0.096
  C  C138  1  0.766000  0.521800  0.568000  1.0  0.166
  C  C139  1  0.731400  0.489900  0.693000  1.0  -0.138
  C  C140  1  0.807400  0.381200  0.935000  1.0  0.1307
  C  C141  1  0.720600  0.891600  0.969000  1.0  0.2251
  C  C142  1  0.785700  0.870800  0.670000  1.0  0.0815
  C  C143  1  0.821500  0.847600  0.480000  1.0  -0.0976
  C  C144  1  0.861700  0.873500  0.378000  1.0  0.0611
  C  C145  1  0.898600  0.852500  0.186000  1.0  -0.0475
  C  C146  1  0.939100  0.877500  0.080000  1.0  -0.1284
  C  C147  1  0.941500  0.925800  0.172000  1.0  -0.0471
  C  C148  1  0.904500  0.947200  0.361000  1.0  -0.1225
  C  C149  1  0.864100  0.921900  0.469000  1.0  0.0634
  C  C150  1  0.828500  0.945600  0.659000  1.0  -0.1123
  C  C151  1  0.788400  0.919300  0.762000  1.0  0.1947
  C  C152  1  0.755000  0.055600  0.312000  1.0  -0.0443
  C  C153  1  0.706800  0.069100  0.305000  1.0  -0.0854
  C  C154  1  0.672200  0.037100  0.180000  1.0  -0.0471
  C  C155  1  0.685800  0.991700  0.061000  1.0  -0.095
  C  C156  1  0.734000  0.978200  0.068000  1.0  0.1669
  C  C157  1  0.768600  0.010100  0.193000  1.0  -0.1365
  C  C158  1  0.692600  0.118800  0.435000  1.0  0.1293
  C  C159  1  0.220600  0.391600  0.469000  1.0  0.2251
  C  C160  1  0.285700  0.370800  0.170000  1.0  0.0815
  C  C161  1  0.321500  0.347600  0.980000  1.0  -0.0976
  C  C162  1  0.361700  0.373500  0.878000  1.0  0.0611
  C  C163  1  0.398600  0.352500  0.686000  1.0  -0.0475
  C  C164  1  0.439100  0.377500  0.580000  1.0  -0.1284
  C  C165  1  0.441500  0.425800  0.672000  1.0  -0.0471
  C  C166  1  0.404500  0.447200  0.861000  1.0  -0.1225
  C  C167  1  0.364100  0.421900  0.969000  1.0  0.0634
  C  C168  1  0.328500  0.445600  0.159000  1.0  -0.1123
  C  C169  1  0.288400  0.419300  0.262000  1.0  0.1947
  C  C170  1  0.255000  0.555600  0.812000  1.0  -0.0443
  C  C171  1  0.206800  0.569100  0.805000  1.0  -0.0854
  C  C172  1  0.172200  0.537100  0.680000  1.0  -0.0471
  C  C173  1  0.185800  0.491700  0.561000  1.0  -0.095
  C  C174  1  0.234000  0.478200  0.568000  1.0  0.1669
  C  C175  1  0.268600  0.510100  0.693000  1.0  -0.1365
  C  C176  1  0.192600  0.618800  0.935000  1.0  0.1293
  C  C177  1  0.108400  0.720600  0.031000  1.0  0.226
  C  C178  1  0.129200  0.785700  0.330000  1.0  0.0804
  C  C179  1  0.152400  0.821500  0.520000  1.0  -0.0991
  C  C180  1  0.126500  0.861700  0.622000  1.0  0.061
  C  C181  1  0.147500  0.898600  0.814000  1.0  -0.051
  C  C182  1  0.122500  0.939100  0.920000  1.0  -0.1267
  C  C183  1  0.074200  0.941500  0.828000  1.0  -0.0459
  C  C184  1  0.052800  0.904500  0.639000  1.0  -0.1226
  C  C185  1  0.078100  0.864100  0.531000  1.0  0.0632
  C  C186  1  0.054400  0.828500  0.341000  1.0  -0.1124
  C  C187  1  0.080700  0.788400  0.238000  1.0  0.1934
  C  C188  1  0.944400  0.755000  0.688000  1.0  -0.0457
  C  C189  1  0.930900  0.706800  0.695000  1.0  -0.0836
  C  C190  1  0.962900  0.672200  0.820000  1.0  -0.0505
  C  C191  1  0.008300  0.685800  0.939000  1.0  -0.098
  C  C192  1  0.021800  0.734000  0.932000  1.0  0.1655
  C  C193  1  0.989900  0.768600  0.807000  1.0  -0.136
  C  C194  1  0.881200  0.692600  0.565000  1.0  0.1273
  C  C195  1  0.608400  0.220600  0.531000  1.0  0.226
  C  C196  1  0.629200  0.285700  0.830000  1.0  0.0804
  C  C197  1  0.652400  0.321500  0.020000  1.0  -0.0991
  C  C198  1  0.626500  0.361700  0.122000  1.0  0.061
  C  C199  1  0.647500  0.398600  0.314000  1.0  -0.051
  C  C200  1  0.622500  0.439100  0.420000  1.0  -0.1267
  C  C201  1  0.574200  0.441500  0.328000  1.0  -0.0459
  C  C202  1  0.552800  0.404500  0.139000  1.0  -0.1226
  C  C203  1  0.578100  0.364100  0.031000  1.0  0.0632
  C  C204  1  0.554400  0.328500  0.841000  1.0  -0.1124
  C  C205  1  0.580700  0.288400  0.738000  1.0  0.1934
  C  C206  1  0.444400  0.255000  0.188000  1.0  -0.0457
  C  C207  1  0.430900  0.206800  0.195000  1.0  -0.0836
  C  C208  1  0.462900  0.172200  0.320000  1.0  -0.0505
  C  C209  1  0.508300  0.185800  0.439000  1.0  -0.098
  C  C210  1  0.521800  0.234000  0.432000  1.0  0.1655
  C  C211  1  0.489900  0.268600  0.307000  1.0  -0.136
  C  C212  1  0.381200  0.192600  0.065000  1.0  0.1273
  C  C213  1  0.891600  0.279400  0.031000  1.0  0.225
  C  C214  1  0.870800  0.214300  0.330000  1.0  0.0813
  C  C215  1  0.847600  0.178500  0.520000  1.0  -0.0979
  C  C216  1  0.873500  0.138300  0.622000  1.0  0.06
  C  C217  1  0.852500  0.101400  0.814000  1.0  -0.0491
  C  C218  1  0.877500  0.060900  0.920000  1.0  -0.1268
  C  C219  1  0.925800  0.058500  0.828000  1.0  -0.0464
  C  C220  1  0.947200  0.095500  0.639000  1.0  -0.1225
  C  C221  1  0.921900  0.135900  0.531000  1.0  0.0631
  C  C222  1  0.945600  0.171500  0.341000  1.0  -0.1129
  C  C223  1  0.919300  0.211600  0.238000  1.0  0.1938
  C  C224  1  0.055600  0.245000  0.688000  1.0  -0.0452
  C  C225  1  0.069100  0.293200  0.695000  1.0  -0.0821
  C  C226  1  0.037100  0.327800  0.820000  1.0  -0.047
  C  C227  1  0.991700  0.314200  0.939000  1.0  -0.0959
  C  C228  1  0.978200  0.266000  0.932000  1.0  0.1644
  C  C229  1  0.010100  0.231400  0.807000  1.0  -0.1371
  C  C230  1  0.118800  0.307400  0.565000  1.0  0.1273
  C  C231  1  0.391600  0.779400  0.531000  1.0  0.225
  C  C232  1  0.370800  0.714300  0.830000  1.0  0.0813
  C  C233  1  0.347600  0.678500  0.020000  1.0  -0.0979
  C  C234  1  0.373500  0.638300  0.122000  1.0  0.06
  C  C235  1  0.352500  0.601400  0.314000  1.0  -0.0491
  C  C236  1  0.377500  0.560900  0.420000  1.0  -0.1268
  C  C237  1  0.425800  0.558500  0.328000  1.0  -0.0464
  C  C238  1  0.447200  0.595500  0.139000  1.0  -0.1225
  C  C239  1  0.421900  0.635900  0.031000  1.0  0.0631
  C  C240  1  0.445600  0.671500  0.841000  1.0  -0.1129
  C  C241  1  0.419300  0.711600  0.738000  1.0  0.1938
  C  C242  1  0.555600  0.745000  0.188000  1.0  -0.0452
  C  C243  1  0.569100  0.793200  0.195000  1.0  -0.0821
  C  C244  1  0.537100  0.827800  0.320000  1.0  -0.047
  C  C245  1  0.491700  0.814200  0.439000  1.0  -0.0959
  C  C246  1  0.478200  0.766000  0.432000  1.0  0.1644
  C  C247  1  0.510100  0.731400  0.307000  1.0  -0.1371
  C  C248  1  0.618800  0.807400  0.065000  1.0  0.1273
  N  N249  1  0.259700  0.145600  0.814000  1.0  -0.3825
  N  N250  1  0.252700  0.067400  0.948000  1.0  0.0432
  N  N251  1  0.759700  0.645600  0.314000  1.0  -0.3825
  N  N252  1  0.752700  0.567400  0.448000  1.0  0.0432
  N  N253  1  0.740300  0.854400  0.814000  1.0  -0.3826
  N  N254  1  0.747300  0.932600  0.948000  1.0  0.042
  N  N255  1  0.240300  0.354400  0.314000  1.0  -0.3826
  N  N256  1  0.247300  0.432600  0.448000  1.0  0.042
  N  N257  1  0.145600  0.740300  0.186000  1.0  -0.3822
  N  N258  1  0.067400  0.747300  0.052000  1.0  0.0447
  N  N259  1  0.645600  0.240300  0.686000  1.0  -0.3822
  N  N260  1  0.567400  0.247300  0.552000  1.0  0.0447
  N  N261  1  0.854400  0.259700  0.186000  1.0  -0.3833
  N  N262  1  0.932600  0.252700  0.052000  1.0  0.0452
  N  N263  1  0.354400  0.759700  0.686000  1.0  -0.3833
  N  N264  1  0.432600  0.752700  0.552000  1.0  0.0452
  O  O265  1  0.216500  0.254800  0.898000  1.0  -0.8214
  O  O266  1  0.277800  0.857900  0.573000  1.0  -0.5618
  O  O267  1  0.344800  0.876800  0.645000  1.0  -0.6025
  O  O268  1  0.341800  0.862600  0.239000  1.0  -0.5177
  O  O269  1  0.716500  0.754800  0.398000  1.0  -0.8214
  O  O270  1  0.777800  0.357900  0.073000  1.0  -0.5618
  O  O271  1  0.844800  0.376800  0.145000  1.0  -0.6025
  O  O272  1  0.841800  0.362600  0.739000  1.0  -0.5177
  O  O273  1  0.783500  0.745200  0.898000  1.0  -0.8206
  O  O274  1  0.722200  0.142100  0.573000  1.0  -0.5596
  O  O275  1  0.655200  0.123200  0.645000  1.0  -0.6048
  O  O276  1  0.658200  0.137400  0.239000  1.0  -0.5165
  O  O277  1  0.283500  0.245200  0.398000  1.0  -0.8206
  O  O278  1  0.222200  0.642100  0.073000  1.0  -0.5596
  O  O279  1  0.155200  0.623200  0.145000  1.0  -0.6048
  O  O280  1  0.158200  0.637400  0.739000  1.0  -0.5165
  O  O281  1  0.254800  0.783500  0.102000  1.0  -0.8237
  O  O282  1  0.857900  0.722200  0.427000  1.0  -0.5635
  O  O283  1  0.876800  0.655200  0.355000  1.0  -0.6065
  O  O284  1  0.862600  0.658200  0.761000  1.0  -0.5171
  O  O285  1  0.754800  0.283500  0.602000  1.0  -0.8237
  O  O286  1  0.357900  0.222200  0.927000  1.0  -0.5635
  O  O287  1  0.376800  0.155200  0.855000  1.0  -0.6065
  O  O288  1  0.362600  0.158200  0.261000  1.0  -0.5171
  O  O289  1  0.745200  0.216500  0.102000  1.0  -0.8228
  O  O290  1  0.142100  0.277800  0.427000  1.0  -0.5624
  O  O291  1  0.123200  0.344800  0.355000  1.0  -0.6057
  O  O292  1  0.137400  0.341800  0.761000  1.0  -0.5153
  O  O293  1  0.245200  0.716500  0.602000  1.0  -0.8228
  O  O294  1  0.642100  0.777800  0.927000  1.0  -0.5624
  O  O295  1  0.623200  0.844800  0.855000  1.0  -0.6057
  O  O296  1  0.637400  0.841800  0.261000  1.0  -0.5153
