# generated using pymatgen
data_ZnH12C18(NO2)2
_symmetry_space_group_name_H-M   'P 1'
_cell_length_a   27.74710000
_cell_length_b   27.74710000
_cell_length_c   3.63230000
_cell_angle_alpha   90.00000000
_cell_angle_beta   90.00000000
_cell_angle_gamma   90.00000000
_symmetry_Int_Tables_number   1
_chemical_formula_structural   ZnH12C18(NO2)2
_chemical_formula_sum   'Zn8 H96 C144 N16 O32'
_cell_volume   2796.51343061
_cell_formula_units_Z   8
loop_
 _symmetry_equiv_pos_site_id
 _symmetry_equiv_pos_as_xyz
  1  'x, y, z'
loop_
 _atom_site_type_symbol
 _atom_site_label
 _atom_site_symmetry_multiplicity
 _atom_site_fract_x
 _atom_site_fract_y
 _atom_site_fract_z
 _atom_site_occupancy
 _atom_site_charge
  Zn  Zn1  1  0.284040  0.213920  0.857300  1.0  0.8771
  Zn  Zn2  1  0.715960  0.786080  0.857300  1.0  0.8771
  Zn  Zn3  1  0.713920  0.215960  0.642700  1.0  0.8756
  Zn  Zn4  1  0.286080  0.784040  0.642700  1.0  0.8762
  Zn  Zn5  1  0.784040  0.713920  0.357300  1.0  0.8771
  Zn  Zn6  1  0.215960  0.286080  0.357300  1.0  0.8771
  Zn  Zn7  1  0.213920  0.715960  0.142700  1.0  0.8756
  Zn  Zn8  1  0.786080  0.284040  0.142700  1.0  0.8762
  H  H9  1  0.309900  0.110400  0.058600  1.0  0.1432
  H  H10  1  0.182000  0.185300  0.411800  1.0  0.1386
  H  H11  1  0.103400  0.181300  0.117900  1.0  0.1535
  H  H12  1  0.035200  0.139400  0.944800  1.0  0.1571
  H  H13  1  0.029300  0.058200  0.104000  1.0  0.1307
  H  H14  1  0.091100  0.021200  0.415900  1.0  0.1547
  H  H15  1  0.168100  0.022700  0.707300  1.0  0.1566
  H  H16  1  0.221100  0.924600  0.394400  1.0  0.1428
  H  H17  1  0.360600  0.952500  0.188200  1.0  0.1505
  H  H18  1  0.339900  0.028500  0.972400  1.0  0.1366
  H  H19  1  0.200400  0.000500  0.178600  1.0  0.1645
  H  H20  1  0.308300  0.234700  0.244000  1.0  0.3489
  H  H21  1  0.690100  0.889600  0.058600  1.0  0.142
  H  H22  1  0.818000  0.814700  0.411800  1.0  0.1389
  H  H23  1  0.896600  0.818700  0.117900  1.0  0.1518
  H  H24  1  0.964800  0.860600  0.944800  1.0  0.1574
  H  H25  1  0.970700  0.941800  0.104000  1.0  0.1298
  H  H26  1  0.908900  0.978800  0.415900  1.0  0.1562
  H  H27  1  0.831900  0.977300  0.707300  1.0  0.1555
  H  H28  1  0.778900  0.075400  0.394400  1.0  0.1443
  H  H29  1  0.639400  0.047500  0.188200  1.0  0.151
  H  H30  1  0.660100  0.971500  0.972400  1.0  0.1367
  H  H31  1  0.799600  0.999500  0.178600  1.0  0.1647
  H  H32  1  0.691700  0.765300  0.244000  1.0  0.3477
  H  H33  1  0.610400  0.190100  0.441400  1.0  0.1448
  H  H34  1  0.685300  0.318000  0.088200  1.0  0.1384
  H  H35  1  0.681300  0.396600  0.382100  1.0  0.1545
  H  H36  1  0.639400  0.464800  0.555200  1.0  0.1565
  H  H37  1  0.558200  0.470700  0.396000  1.0  0.1302
  H  H38  1  0.521200  0.408900  0.084100  1.0  0.1576
  H  H39  1  0.522700  0.331900  0.792700  1.0  0.1566
  H  H40  1  0.424600  0.278900  0.105600  1.0  0.1437
  H  H41  1  0.452500  0.139400  0.311800  1.0  0.1489
  H  H42  1  0.528500  0.160100  0.527600  1.0  0.1386
  H  H43  1  0.500500  0.299600  0.321400  1.0  0.1634
  H  H44  1  0.734700  0.191700  0.256000  1.0  0.3482
  H  H45  1  0.389600  0.809900  0.441400  1.0  0.1448
  H  H46  1  0.314700  0.682000  0.088200  1.0  0.1376
  H  H47  1  0.318700  0.603400  0.382100  1.0  0.1546
  H  H48  1  0.360600  0.535200  0.555200  1.0  0.1567
  H  H49  1  0.441800  0.529300  0.396000  1.0  0.1304
  H  H50  1  0.478800  0.591100  0.084100  1.0  0.1568
  H  H51  1  0.477300  0.668100  0.792700  1.0  0.1557
  H  H52  1  0.575400  0.721100  0.105600  1.0  0.1438
  H  H53  1  0.547500  0.860600  0.311800  1.0  0.148
  H  H54  1  0.471500  0.839900  0.527600  1.0  0.1392
  H  H55  1  0.499500  0.700400  0.321400  1.0  0.1641
  H  H56  1  0.265300  0.808300  0.256000  1.0  0.3472
  H  H57  1  0.809900  0.610400  0.558600  1.0  0.1432
  H  H58  1  0.682000  0.685300  0.911800  1.0  0.1386
  H  H59  1  0.603400  0.681300  0.617900  1.0  0.1535
  H  H60  1  0.535200  0.639400  0.444800  1.0  0.1571
  H  H61  1  0.529300  0.558200  0.604000  1.0  0.1307
  H  H62  1  0.591100  0.521200  0.915900  1.0  0.1547
  H  H63  1  0.668100  0.522700  0.207300  1.0  0.1566
  H  H64  1  0.721100  0.424600  0.894400  1.0  0.1428
  H  H65  1  0.860600  0.452500  0.688200  1.0  0.1505
  H  H66  1  0.839900  0.528500  0.472400  1.0  0.1366
  H  H67  1  0.700400  0.500500  0.678600  1.0  0.1645
  H  H68  1  0.808300  0.734700  0.744000  1.0  0.3489
  H  H69  1  0.190100  0.389600  0.558600  1.0  0.142
  H  H70  1  0.318000  0.314700  0.911800  1.0  0.1389
  H  H71  1  0.396600  0.318700  0.617900  1.0  0.1518
  H  H72  1  0.464800  0.360600  0.444800  1.0  0.1574
  H  H73  1  0.470700  0.441800  0.604000  1.0  0.1298
  H  H74  1  0.408900  0.478800  0.915900  1.0  0.1562
  H  H75  1  0.331900  0.477300  0.207300  1.0  0.1555
  H  H76  1  0.278900  0.575400  0.894400  1.0  0.1443
  H  H77  1  0.139400  0.547500  0.688200  1.0  0.151
  H  H78  1  0.160100  0.471500  0.472400  1.0  0.1367
  H  H79  1  0.299600  0.499500  0.678600  1.0  0.1647
  H  H80  1  0.191700  0.265300  0.744000  1.0  0.3477
  H  H81  1  0.110400  0.690100  0.941400  1.0  0.1448
  H  H82  1  0.185300  0.818000  0.588200  1.0  0.1384
  H  H83  1  0.181300  0.896600  0.882100  1.0  0.1545
  H  H84  1  0.139400  0.964800  0.055200  1.0  0.1565
  H  H85  1  0.058200  0.970700  0.896000  1.0  0.1302
  H  H86  1  0.021200  0.908900  0.584100  1.0  0.1576
  H  H87  1  0.022700  0.831900  0.292700  1.0  0.1566
  H  H88  1  0.924600  0.778900  0.605600  1.0  0.1437
  H  H89  1  0.952500  0.639400  0.811800  1.0  0.1489
  H  H90  1  0.028500  0.660100  0.027600  1.0  0.1386
  H  H91  1  0.000500  0.799600  0.821400  1.0  0.1634
  H  H92  1  0.234700  0.691700  0.756000  1.0  0.3482
  H  H93  1  0.889600  0.309900  0.941400  1.0  0.1448
  H  H94  1  0.814700  0.182000  0.588200  1.0  0.1376
  H  H95  1  0.818700  0.103400  0.882100  1.0  0.1546
  H  H96  1  0.860600  0.035200  0.055200  1.0  0.1567
  H  H97  1  0.941800  0.029300  0.896000  1.0  0.1304
  H  H98  1  0.978800  0.091100  0.584100  1.0  0.1568
  H  H99  1  0.977300  0.168100  0.292700  1.0  0.1557
  H  H100  1  0.075400  0.221100  0.605600  1.0  0.1438
  H  H101  1  0.047500  0.360600  0.811800  1.0  0.148
  H  H102  1  0.971500  0.339900  0.027600  1.0  0.1392
  H  H103  1  0.999500  0.200400  0.821400  1.0  0.1641
  H  H104  1  0.765300  0.308300  0.756000  1.0  0.3472
  C  C105  1  0.279900  0.108500  0.946000  1.0  0.2226
  C  C106  1  0.215300  0.129000  0.656700  1.0  0.1381
  C  C107  1  0.179000  0.152800  0.469000  1.0  -0.128
  C  C108  1  0.138200  0.127400  0.369100  1.0  0.0452
  C  C109  1  0.100800  0.148900  0.178000  1.0  -0.0706
  C  C110  1  0.059800  0.124100  0.074000  1.0  -0.0898
  C  C111  1  0.056500  0.075800  0.168000  1.0  -0.0627
  C  C112  1  0.093700  0.053700  0.357000  1.0  -0.1265
  C  C113  1  0.135000  0.078800  0.461800  1.0  0.0563
  C  C114  1  0.171100  0.055200  0.649000  1.0  -0.0996
  C  C115  1  0.211800  0.080500  0.748000  1.0  0.1728
  C  C116  1  0.244900  0.945400  0.310000  1.0  -0.0437
  C  C117  1  0.292900  0.931000  0.313000  1.0  -0.109
  C  C118  1  0.328500  0.962100  0.186000  1.0  -0.0483
  C  C119  1  0.316100  0.007600  0.057000  1.0  -0.1193
  C  C120  1  0.268100  0.022000  0.054000  1.0  0.1821
  C  C121  1  0.232500  0.990900  0.180000  1.0  -0.1403
  C  C122  1  0.303000  0.880400  0.449000  1.0  0.0008
  C  C123  1  0.720100  0.891500  0.946000  1.0  0.2232
  C  C124  1  0.784700  0.871000  0.656700  1.0  0.1362
  C  C125  1  0.821000  0.847200  0.469000  1.0  -0.128
  C  C126  1  0.861800  0.872600  0.369100  1.0  0.0449
  C  C127  1  0.899200  0.851100  0.178000  1.0  -0.0706
  C  C128  1  0.940200  0.875900  0.074000  1.0  -0.0904
  C  C129  1  0.943500  0.924200  0.168000  1.0  -0.0622
  C  C130  1  0.906300  0.946300  0.357000  1.0  -0.1278
  C  C131  1  0.865000  0.921200  0.461800  1.0  0.0569
  C  C132  1  0.828900  0.944800  0.649000  1.0  -0.0983
  C  C133  1  0.788200  0.919500  0.748000  1.0  0.1725
  C  C134  1  0.755100  0.054600  0.310000  1.0  -0.0437
  C  C135  1  0.707100  0.069000  0.313000  1.0  -0.1072
  C  C136  1  0.671500  0.037900  0.186000  1.0  -0.0489
  C  C137  1  0.683900  0.992400  0.057000  1.0  -0.1205
  C  C138  1  0.731900  0.978000  0.054000  1.0  0.1827
  C  C139  1  0.767500  0.009100  0.180000  1.0  -0.1398
  C  C140  1  0.697000  0.119600  0.449000  1.0  -0.0008
  C  C141  1  0.608500  0.220100  0.554000  1.0  0.2224
  C  C142  1  0.629000  0.284700  0.843300  1.0  0.1362
  C  C143  1  0.652800  0.321000  0.031000  1.0  -0.13
  C  C144  1  0.627400  0.361800  0.130900  1.0  0.043
  C  C145  1  0.648900  0.399200  0.322000  1.0  -0.0727
  C  C146  1  0.624100  0.440200  0.426000  1.0  -0.0896
  C  C147  1  0.575800  0.443500  0.332000  1.0  -0.0621
  C  C148  1  0.553700  0.406300  0.143000  1.0  -0.1278
  C  C149  1  0.578800  0.365000  0.038200  1.0  0.0567
  C  C150  1  0.555200  0.328900  0.851000  1.0  -0.0979
  C  C151  1  0.580500  0.288200  0.752000  1.0  0.172
  C  C152  1  0.445400  0.255100  0.190000  1.0  -0.0447
  C  C153  1  0.431000  0.207100  0.187000  1.0  -0.1045
  C  C154  1  0.462100  0.171500  0.314000  1.0  -0.0531
  C  C155  1  0.507600  0.183900  0.443000  1.0  -0.1261
  C  C156  1  0.522000  0.231900  0.446000  1.0  0.1819
  C  C157  1  0.490900  0.267500  0.320000  1.0  -0.1388
  C  C158  1  0.380400  0.197000  0.051000  1.0  -0.0012
  C  C159  1  0.391500  0.779900  0.554000  1.0  0.222
  C  C160  1  0.371000  0.715300  0.843300  1.0  0.1368
  C  C161  1  0.347200  0.679000  0.031000  1.0  -0.128
  C  C162  1  0.372600  0.638200  0.130900  1.0  0.0429
  C  C163  1  0.351100  0.600800  0.322000  1.0  -0.0731
  C  C164  1  0.375900  0.559800  0.426000  1.0  -0.0896
  C  C165  1  0.424200  0.556500  0.332000  1.0  -0.0625
  C  C166  1  0.446300  0.593700  0.143000  1.0  -0.1277
  C  C167  1  0.421200  0.635000  0.038200  1.0  0.0569
  C  C168  1  0.444800  0.671100  0.851000  1.0  -0.0991
  C  C169  1  0.419500  0.711800  0.752000  1.0  0.1717
  C  C170  1  0.554600  0.744900  0.190000  1.0  -0.0459
  C  C171  1  0.569000  0.792900  0.187000  1.0  -0.1065
  C  C172  1  0.537900  0.828500  0.314000  1.0  -0.0507
  C  C173  1  0.492400  0.816100  0.443000  1.0  -0.1263
  C  C174  1  0.478000  0.768100  0.446000  1.0  0.1806
  C  C175  1  0.509100  0.732500  0.320000  1.0  -0.1407
  C  C176  1  0.619600  0.803000  0.051000  1.0  0.0
  C  C177  1  0.779900  0.608500  0.446000  1.0  0.2226
  C  C178  1  0.715300  0.629000  0.156700  1.0  0.1381
  C  C179  1  0.679000  0.652800  0.969000  1.0  -0.128
  C  C180  1  0.638200  0.627400  0.869100  1.0  0.0452
  C  C181  1  0.600800  0.648900  0.678000  1.0  -0.0706
  C  C182  1  0.559800  0.624100  0.574000  1.0  -0.0898
  C  C183  1  0.556500  0.575800  0.668000  1.0  -0.0627
  C  C184  1  0.593700  0.553700  0.857000  1.0  -0.1265
  C  C185  1  0.635000  0.578800  0.961800  1.0  0.0563
  C  C186  1  0.671100  0.555200  0.149000  1.0  -0.0996
  C  C187  1  0.711800  0.580500  0.248000  1.0  0.1728
  C  C188  1  0.744900  0.445400  0.810000  1.0  -0.0437
  C  C189  1  0.792900  0.431000  0.813000  1.0  -0.109
  C  C190  1  0.828500  0.462100  0.686000  1.0  -0.0483
  C  C191  1  0.816100  0.507600  0.557000  1.0  -0.1193
  C  C192  1  0.768100  0.522000  0.554000  1.0  0.1821
  C  C193  1  0.732500  0.490900  0.680000  1.0  -0.1403
  C  C194  1  0.803000  0.380400  0.949000  1.0  0.0008
  C  C195  1  0.220100  0.391500  0.446000  1.0  0.2232
  C  C196  1  0.284700  0.371000  0.156700  1.0  0.1362
  C  C197  1  0.321000  0.347200  0.969000  1.0  -0.128
  C  C198  1  0.361800  0.372600  0.869100  1.0  0.0449
  C  C199  1  0.399200  0.351100  0.678000  1.0  -0.0706
  C  C200  1  0.440200  0.375900  0.574000  1.0  -0.0904
  C  C201  1  0.443500  0.424200  0.668000  1.0  -0.0622
  C  C202  1  0.406300  0.446300  0.857000  1.0  -0.1278
  C  C203  1  0.365000  0.421200  0.961800  1.0  0.0569
  C  C204  1  0.328900  0.444800  0.149000  1.0  -0.0983
  C  C205  1  0.288200  0.419500  0.248000  1.0  0.1725
  C  C206  1  0.255100  0.554600  0.810000  1.0  -0.0437
  C  C207  1  0.207100  0.569000  0.813000  1.0  -0.1072
  C  C208  1  0.171500  0.537900  0.686000  1.0  -0.0489
  C  C209  1  0.183900  0.492400  0.557000  1.0  -0.1205
  C  C210  1  0.231900  0.478000  0.554000  1.0  0.1827
  C  C211  1  0.267500  0.509100  0.680000  1.0  -0.1398
  C  C212  1  0.197000  0.619600  0.949000  1.0  -0.0008
  C  C213  1  0.108500  0.720100  0.054000  1.0  0.2224
  C  C214  1  0.129000  0.784700  0.343300  1.0  0.1362
  C  C215  1  0.152800  0.821000  0.531000  1.0  -0.13
  C  C216  1  0.127400  0.861800  0.630900  1.0  0.043
  C  C217  1  0.148900  0.899200  0.822000  1.0  -0.0727
  C  C218  1  0.124100  0.940200  0.926000  1.0  -0.0896
  C  C219  1  0.075800  0.943500  0.832000  1.0  -0.0621
  C  C220  1  0.053700  0.906300  0.643000  1.0  -0.1278
  C  C221  1  0.078800  0.865000  0.538200  1.0  0.0567
  C  C222  1  0.055200  0.828900  0.351000  1.0  -0.0979
  C  C223  1  0.080500  0.788200  0.252000  1.0  0.172
  C  C224  1  0.945400  0.755100  0.690000  1.0  -0.0447
  C  C225  1  0.931000  0.707100  0.687000  1.0  -0.1045
  C  C226  1  0.962100  0.671500  0.814000  1.0  -0.0531
  C  C227  1  0.007600  0.683900  0.943000  1.0  -0.1261
  C  C228  1  0.022000  0.731900  0.946000  1.0  0.1819
  C  C229  1  0.990900  0.767500  0.820000  1.0  -0.1388
  C  C230  1  0.880400  0.697000  0.551000  1.0  -0.0012
  C  C231  1  0.891500  0.279900  0.054000  1.0  0.222
  C  C232  1  0.871000  0.215300  0.343300  1.0  0.1368
  C  C233  1  0.847200  0.179000  0.531000  1.0  -0.128
  C  C234  1  0.872600  0.138200  0.630900  1.0  0.0429
  C  C235  1  0.851100  0.100800  0.822000  1.0  -0.0731
  C  C236  1  0.875900  0.059800  0.926000  1.0  -0.0896
  C  C237  1  0.924200  0.056500  0.832000  1.0  -0.0625
  C  C238  1  0.946300  0.093700  0.643000  1.0  -0.1277
  C  C239  1  0.921200  0.135000  0.538200  1.0  0.0569
  C  C240  1  0.944800  0.171100  0.351000  1.0  -0.0991
  C  C241  1  0.919500  0.211800  0.252000  1.0  0.1717
  C  C242  1  0.054600  0.244900  0.690000  1.0  -0.0459
  C  C243  1  0.069000  0.292900  0.687000  1.0  -0.1065
  C  C244  1  0.037900  0.328500  0.814000  1.0  -0.0507
  C  C245  1  0.992400  0.316100  0.943000  1.0  -0.1263
  C  C246  1  0.978000  0.268100  0.946000  1.0  0.1806
  C  C247  1  0.009100  0.232500  0.820000  1.0  -0.1407
  C  C248  1  0.119600  0.303000  0.551000  1.0  0.0
  N  N249  1  0.259300  0.145400  0.789000  1.0  -0.4012
  N  N250  1  0.253700  0.067200  0.931000  1.0  0.05
  N  N251  1  0.740700  0.854600  0.789000  1.0  -0.4025
  N  N252  1  0.746300  0.932800  0.931000  1.0  0.0505
  N  N253  1  0.645400  0.240700  0.711000  1.0  -0.4024
  N  N254  1  0.567200  0.246300  0.569000  1.0  0.0513
  N  N255  1  0.354600  0.759300  0.711000  1.0  -0.4043
  N  N256  1  0.432800  0.753700  0.569000  1.0  0.0515
  N  N257  1  0.759300  0.645400  0.289000  1.0  -0.4012
  N  N258  1  0.753700  0.567200  0.431000  1.0  0.05
  N  N259  1  0.240700  0.354600  0.289000  1.0  -0.4025
  N  N260  1  0.246300  0.432800  0.431000  1.0  0.0505
  N  N261  1  0.145400  0.740700  0.211000  1.0  -0.4024
  N  N262  1  0.067200  0.746300  0.069000  1.0  0.0513
  N  N263  1  0.854600  0.259300  0.211000  1.0  -0.4043
  N  N264  1  0.932800  0.253700  0.069000  1.0  0.0515
  O  O265  1  0.274500  0.858800  0.604000  1.0  -0.5714
  O  O266  1  0.340400  0.861900  0.277000  1.0  -0.3932
  O  O267  1  0.285300  0.246900  0.368000  1.0  -0.8484
  O  O268  1  0.343200  0.873000  0.632000  1.0  -0.4573
  O  O269  1  0.725500  0.141200  0.604000  1.0  -0.5702
  O  O270  1  0.659600  0.138100  0.277000  1.0  -0.3916
  O  O271  1  0.714700  0.753100  0.368000  1.0  -0.8479
  O  O272  1  0.656800  0.127000  0.632000  1.0  -0.4617
  O  O273  1  0.358800  0.225500  0.896000  1.0  -0.5708
  O  O274  1  0.361900  0.159600  0.223000  1.0  -0.3921
  O  O275  1  0.746900  0.214700  0.132000  1.0  -0.851
  O  O276  1  0.373000  0.156800  0.868000  1.0  -0.4614
  O  O277  1  0.641200  0.774500  0.896000  1.0  -0.5694
  O  O278  1  0.638100  0.840400  0.223000  1.0  -0.3931
  O  O279  1  0.253100  0.785300  0.132000  1.0  -0.8514
  O  O280  1  0.627000  0.843200  0.868000  1.0  -0.4643
  O  O281  1  0.774500  0.358800  0.104000  1.0  -0.5714
  O  O282  1  0.840400  0.361900  0.777000  1.0  -0.3932
  O  O283  1  0.785300  0.746900  0.868000  1.0  -0.8486
  O  O284  1  0.843200  0.373000  0.132000  1.0  -0.4573
  O  O285  1  0.225500  0.641200  0.104000  1.0  -0.5702
  O  O286  1  0.159600  0.638100  0.777000  1.0  -0.3916
  O  O287  1  0.214700  0.253100  0.868000  1.0  -0.848
  O  O288  1  0.156800  0.627000  0.132000  1.0  -0.4617
  O  O289  1  0.858800  0.725500  0.396000  1.0  -0.5708
  O  O290  1  0.861900  0.659600  0.723000  1.0  -0.3921
  O  O291  1  0.246900  0.714700  0.632000  1.0  -0.8506
  O  O292  1  0.873000  0.656800  0.368000  1.0  -0.4614
  O  O293  1  0.141200  0.274500  0.396000  1.0  -0.5694
  O  O294  1  0.138100  0.340400  0.723000  1.0  -0.3931
  O  O295  1  0.753100  0.285300  0.632000  1.0  -0.851
  O  O296  1  0.127000  0.343200  0.368000  1.0  -0.4643
