# generated using pymatgen
data_ZnH12C18(NO2)2
_symmetry_space_group_name_H-M   'P 1'
_cell_length_a   27.75290000
_cell_length_b   27.75290000
_cell_length_c   3.60220000
_cell_angle_alpha   90.00000000
_cell_angle_beta   90.00000000
_cell_angle_gamma   90.00000000
_symmetry_Int_Tables_number   1
_chemical_formula_structural   ZnH12C18(NO2)2
_chemical_formula_sum   'Zn8 H96 C144 N16 O32'
_cell_volume   2774.49894188
_cell_formula_units_Z   8
loop_
 _symmetry_equiv_pos_site_id
 _symmetry_equiv_pos_as_xyz
  1  'x, y, z'
loop_
 _atom_site_type_symbol
 _atom_site_label
 _atom_site_symmetry_multiplicity
 _atom_site_fract_x
 _atom_site_fract_y
 _atom_site_fract_z
 _atom_site_occupancy
 _atom_site_charge
  Zn  Zn1  1  0.284450  0.214070  0.851900  1.0  0.8653
  Zn  Zn2  1  0.715550  0.785930  0.851900  1.0  0.8648
  Zn  Zn3  1  0.714070  0.215550  0.648100  1.0  0.8636
  Zn  Zn4  1  0.285930  0.784450  0.648100  1.0  0.8633
  Zn  Zn5  1  0.784450  0.714070  0.351900  1.0  0.8653
  Zn  Zn6  1  0.215550  0.285930  0.351900  1.0  0.8648
  Zn  Zn7  1  0.214070  0.715550  0.148100  1.0  0.8636
  Zn  Zn8  1  0.785930  0.284450  0.148100  1.0  0.8633
  H  H9  1  0.311200  0.111100  0.056100  1.0  0.1386
  H  H10  1  0.180700  0.185700  0.410000  1.0  0.1487
  H  H11  1  0.102300  0.181300  0.125400  1.0  0.1482
  H  H12  1  0.033800  0.138900  0.954300  1.0  0.2341
  H  H13  1  0.028900  0.057500  0.110000  1.0  0.1435
  H  H14  1  0.090800  0.020000  0.422300  1.0  0.1548
  H  H15  1  0.168800  0.021900  0.716600  1.0  0.1664
  H  H16  1  0.221500  0.923800  0.394600  1.0  0.1542
  H  H17  1  0.360700  0.953400  0.187500  1.0  0.1595
  H  H18  1  0.339100  0.029100  0.969400  1.0  0.1483
  H  H19  1  0.199900  0.999400  0.176500  1.0  0.1773
  H  H20  1  0.307700  0.233900  0.237100  1.0  0.3282
  H  H21  1  0.688800  0.888900  0.056100  1.0  0.1376
  H  H22  1  0.819300  0.814300  0.410000  1.0  0.1493
  H  H23  1  0.897700  0.818700  0.125400  1.0  0.1468
  H  H24  1  0.966200  0.861100  0.954300  1.0  0.2337
  H  H25  1  0.971100  0.942500  0.110000  1.0  0.1429
  H  H26  1  0.909200  0.980000  0.422300  1.0  0.155
  H  H27  1  0.831200  0.978100  0.716600  1.0  0.1652
  H  H28  1  0.778500  0.076200  0.394600  1.0  0.1554
  H  H29  1  0.639300  0.046600  0.187500  1.0  0.1602
  H  H30  1  0.660900  0.970900  0.969400  1.0  0.1489
  H  H31  1  0.800100  0.000600  0.176500  1.0  0.1786
  H  H32  1  0.692300  0.766100  0.237100  1.0  0.3277
  H  H33  1  0.611100  0.188800  0.443900  1.0  0.1384
  H  H34  1  0.685700  0.319300  0.090000  1.0  0.1496
  H  H35  1  0.681300  0.397700  0.374600  1.0  0.1483
  H  H36  1  0.638900  0.466200  0.545700  1.0  0.235
  H  H37  1  0.557500  0.471100  0.390000  1.0  0.143
  H  H38  1  0.520000  0.409200  0.077700  1.0  0.1571
  H  H39  1  0.521900  0.331200  0.783400  1.0  0.1646
  H  H40  1  0.423800  0.278500  0.105400  1.0  0.1545
  H  H41  1  0.453400  0.139300  0.312500  1.0  0.1591
  H  H42  1  0.529100  0.160900  0.530600  1.0  0.151
  H  H43  1  0.499400  0.300100  0.323500  1.0  0.1775
  H  H44  1  0.733900  0.192300  0.262900  1.0  0.3273
  H  H45  1  0.388900  0.811200  0.443900  1.0  0.1387
  H  H46  1  0.314300  0.680700  0.090000  1.0  0.1475
  H  H47  1  0.318700  0.602300  0.374600  1.0  0.1475
  H  H48  1  0.361100  0.533800  0.545700  1.0  0.2351
  H  H49  1  0.442500  0.528900  0.390000  1.0  0.1438
  H  H50  1  0.480000  0.590800  0.077700  1.0  0.1551
  H  H51  1  0.478100  0.668800  0.783400  1.0  0.1642
  H  H52  1  0.576200  0.721500  0.105400  1.0  0.1552
  H  H53  1  0.546600  0.860700  0.312500  1.0  0.1592
  H  H54  1  0.470900  0.839100  0.530600  1.0  0.1517
  H  H55  1  0.500600  0.699900  0.323500  1.0  0.1776
  H  H56  1  0.266100  0.807700  0.262900  1.0  0.3277
  H  H57  1  0.811200  0.611100  0.556100  1.0  0.1386
  H  H58  1  0.680700  0.685700  0.910000  1.0  0.1487
  H  H59  1  0.602300  0.681300  0.625400  1.0  0.1482
  H  H60  1  0.533800  0.638900  0.454300  1.0  0.2341
  H  H61  1  0.528900  0.557500  0.610000  1.0  0.1435
  H  H62  1  0.590800  0.520000  0.922300  1.0  0.1548
  H  H63  1  0.668800  0.521900  0.216600  1.0  0.1664
  H  H64  1  0.721500  0.423800  0.894600  1.0  0.1542
  H  H65  1  0.860700  0.453400  0.687500  1.0  0.1595
  H  H66  1  0.839100  0.529100  0.469400  1.0  0.1483
  H  H67  1  0.699900  0.499400  0.676500  1.0  0.1773
  H  H68  1  0.807700  0.733900  0.737100  1.0  0.3282
  H  H69  1  0.188800  0.388900  0.556100  1.0  0.1376
  H  H70  1  0.319300  0.314300  0.910000  1.0  0.1493
  H  H71  1  0.397700  0.318700  0.625400  1.0  0.1468
  H  H72  1  0.466200  0.361100  0.454300  1.0  0.2337
  H  H73  1  0.471100  0.442500  0.610000  1.0  0.1429
  H  H74  1  0.409200  0.480000  0.922300  1.0  0.155
  H  H75  1  0.331200  0.478100  0.216600  1.0  0.1652
  H  H76  1  0.278500  0.576200  0.894600  1.0  0.1554
  H  H77  1  0.139300  0.546600  0.687500  1.0  0.1602
  H  H78  1  0.160900  0.470900  0.469400  1.0  0.1489
  H  H79  1  0.300100  0.500600  0.676500  1.0  0.1786
  H  H80  1  0.192300  0.266100  0.737100  1.0  0.3277
  H  H81  1  0.111100  0.688800  0.943900  1.0  0.1384
  H  H82  1  0.185700  0.819300  0.590000  1.0  0.1496
  H  H83  1  0.181300  0.897700  0.874600  1.0  0.1483
  H  H84  1  0.138900  0.966200  0.045700  1.0  0.235
  H  H85  1  0.057500  0.971100  0.890000  1.0  0.143
  H  H86  1  0.020000  0.909200  0.577700  1.0  0.1571
  H  H87  1  0.021900  0.831200  0.283400  1.0  0.1646
  H  H88  1  0.923800  0.778500  0.605400  1.0  0.1545
  H  H89  1  0.953400  0.639300  0.812500  1.0  0.1591
  H  H90  1  0.029100  0.660900  0.030600  1.0  0.151
  H  H91  1  0.999400  0.800100  0.823500  1.0  0.1775
  H  H92  1  0.233900  0.692300  0.762900  1.0  0.3273
  H  H93  1  0.888900  0.311200  0.943900  1.0  0.1387
  H  H94  1  0.814300  0.180700  0.590000  1.0  0.1475
  H  H95  1  0.818700  0.102300  0.874600  1.0  0.1475
  H  H96  1  0.861100  0.033800  0.045700  1.0  0.2351
  H  H97  1  0.942500  0.028900  0.890000  1.0  0.1438
  H  H98  1  0.980000  0.090800  0.577700  1.0  0.1551
  H  H99  1  0.978100  0.168800  0.283400  1.0  0.1642
  H  H100  1  0.076200  0.221500  0.605400  1.0  0.1552
  H  H101  1  0.046600  0.360700  0.812500  1.0  0.1592
  H  H102  1  0.970900  0.339100  0.030600  1.0  0.1517
  H  H103  1  0.000600  0.199900  0.823500  1.0  0.1776
  H  H104  1  0.766100  0.307700  0.762900  1.0  0.3277
  C  C105  1  0.281000  0.109000  0.946000  1.0  0.1802
  C  C106  1  0.214900  0.129800  0.655000  1.0  0.1338
  C  C107  1  0.178200  0.153200  0.469000  1.0  -0.134
  C  C108  1  0.137400  0.127000  0.373000  1.0  0.0191
  C  C109  1  0.099900  0.148800  0.185000  1.0  -0.0409
  C  C110  1  0.058700  0.123700  0.081000  1.0  -0.075
  C  C111  1  0.056100  0.075100  0.175000  1.0  -0.0555
  C  C112  1  0.093400  0.052600  0.363000  1.0  -0.1186
  C  C113  1  0.134800  0.078100  0.466000  1.0  0.046
  C  C114  1  0.171600  0.054200  0.652000  1.0  -0.1062
  C  C115  1  0.212700  0.080500  0.737000  1.0  0.1809
  C  C116  1  0.245100  0.944900  0.309000  1.0  -0.0882
  C  C117  1  0.293200  0.931100  0.313000  1.0  -0.0586
  C  C118  1  0.328500  0.962700  0.185000  1.0  -0.0654
  C  C119  1  0.315500  0.008000  0.055000  1.0  -0.0912
  C  C120  1  0.267400  0.021800  0.051000  1.0  0.156
  C  C121  1  0.232200  0.990200  0.179000  1.0  -0.123
  C  C122  1  0.301300  0.879700  0.440000  1.0  0.0005
  C  C123  1  0.719000  0.891000  0.946000  1.0  0.1793
  C  C124  1  0.785100  0.870200  0.655000  1.0  0.1347
  C  C125  1  0.821800  0.846800  0.469000  1.0  -0.1341
  C  C126  1  0.862600  0.873000  0.373000  1.0  0.0204
  C  C127  1  0.900100  0.851200  0.185000  1.0  -0.0408
  C  C128  1  0.941300  0.876300  0.081000  1.0  -0.0754
  C  C129  1  0.943900  0.924900  0.175000  1.0  -0.0562
  C  C130  1  0.906600  0.947400  0.363000  1.0  -0.1193
  C  C131  1  0.865200  0.921900  0.466000  1.0  0.0464
  C  C132  1  0.828400  0.945800  0.652000  1.0  -0.1051
  C  C133  1  0.787300  0.919500  0.737000  1.0  0.1799
  C  C134  1  0.754900  0.055100  0.309000  1.0  -0.0873
  C  C135  1  0.706800  0.068900  0.313000  1.0  -0.0582
  C  C136  1  0.671500  0.037300  0.185000  1.0  -0.0671
  C  C137  1  0.684500  0.992000  0.055000  1.0  -0.0913
  C  C138  1  0.732600  0.978200  0.051000  1.0  0.1579
  C  C139  1  0.767800  0.009800  0.179000  1.0  -0.1214
  C  C140  1  0.698700  0.120300  0.440000  1.0  -1e-04
  C  C141  1  0.609000  0.219000  0.554000  1.0  0.1818
  C  C142  1  0.629800  0.285100  0.845000  1.0  0.1334
  C  C143  1  0.653200  0.321800  0.031000  1.0  -0.137
  C  C144  1  0.627000  0.362600  0.127000  1.0  0.0188
  C  C145  1  0.648800  0.400100  0.315000  1.0  -0.0429
  C  C146  1  0.623700  0.441300  0.419000  1.0  -0.0745
  C  C147  1  0.575100  0.443900  0.325000  1.0  -0.0561
  C  C148  1  0.552600  0.406600  0.137000  1.0  -0.1205
  C  C149  1  0.578100  0.365200  0.034000  1.0  0.0465
  C  C150  1  0.554200  0.328400  0.848000  1.0  -0.106
  C  C151  1  0.580500  0.287300  0.763000  1.0  0.1802
  C  C152  1  0.444900  0.254900  0.191000  1.0  -0.0876
  C  C153  1  0.431100  0.206800  0.187000  1.0  -0.0554
  C  C154  1  0.462700  0.171500  0.315000  1.0  -0.0697
  C  C155  1  0.508000  0.184500  0.445000  1.0  -0.0966
  C  C156  1  0.521800  0.232600  0.449000  1.0  0.1547
  C  C157  1  0.490200  0.267800  0.321000  1.0  -0.122
  C  C158  1  0.379700  0.198700  0.060000  1.0  -0.0018
  C  C159  1  0.391000  0.781000  0.554000  1.0  0.1798
  C  C160  1  0.370200  0.714900  0.845000  1.0  0.1344
  C  C161  1  0.346800  0.678200  0.031000  1.0  -0.1356
  C  C162  1  0.373000  0.637400  0.127000  1.0  0.0191
  C  C163  1  0.351200  0.599900  0.315000  1.0  -0.0415
  C  C164  1  0.376300  0.558700  0.419000  1.0  -0.0742
  C  C165  1  0.424900  0.556100  0.325000  1.0  -0.0572
  C  C166  1  0.447400  0.593400  0.137000  1.0  -0.1183
  C  C167  1  0.421900  0.634800  0.034000  1.0  0.0465
  C  C168  1  0.445800  0.671600  0.848000  1.0  -0.1068
  C  C169  1  0.419500  0.712700  0.763000  1.0  0.1808
  C  C170  1  0.555100  0.745100  0.191000  1.0  -0.0885
  C  C171  1  0.568900  0.793200  0.187000  1.0  -0.0574
  C  C172  1  0.537300  0.828500  0.315000  1.0  -0.0672
  C  C173  1  0.492000  0.815500  0.445000  1.0  -0.0951
  C  C174  1  0.478200  0.767400  0.449000  1.0  0.153
  C  C175  1  0.509800  0.732200  0.321000  1.0  -0.1241
  C  C176  1  0.620300  0.801300  0.060000  1.0  0.0002
  C  C177  1  0.781000  0.609000  0.446000  1.0  0.1802
  C  C178  1  0.714900  0.629800  0.155000  1.0  0.1338
  C  C179  1  0.678200  0.653200  0.969000  1.0  -0.134
  C  C180  1  0.637400  0.627000  0.873000  1.0  0.0191
  C  C181  1  0.599900  0.648800  0.685000  1.0  -0.0409
  C  C182  1  0.558700  0.623700  0.581000  1.0  -0.075
  C  C183  1  0.556100  0.575100  0.675000  1.0  -0.0555
  C  C184  1  0.593400  0.552600  0.863000  1.0  -0.1186
  C  C185  1  0.634800  0.578100  0.966000  1.0  0.046
  C  C186  1  0.671600  0.554200  0.152000  1.0  -0.1062
  C  C187  1  0.712700  0.580500  0.237000  1.0  0.1809
  C  C188  1  0.745100  0.444900  0.809000  1.0  -0.0882
  C  C189  1  0.793200  0.431100  0.813000  1.0  -0.0586
  C  C190  1  0.828500  0.462700  0.685000  1.0  -0.0654
  C  C191  1  0.815500  0.508000  0.555000  1.0  -0.0912
  C  C192  1  0.767400  0.521800  0.551000  1.0  0.156
  C  C193  1  0.732200  0.490200  0.679000  1.0  -0.123
  C  C194  1  0.801300  0.379700  0.940000  1.0  0.0005
  C  C195  1  0.219000  0.391000  0.446000  1.0  0.1793
  C  C196  1  0.285100  0.370200  0.155000  1.0  0.1347
  C  C197  1  0.321800  0.346800  0.969000  1.0  -0.1341
  C  C198  1  0.362600  0.373000  0.873000  1.0  0.0204
  C  C199  1  0.400100  0.351200  0.685000  1.0  -0.0408
  C  C200  1  0.441300  0.376300  0.581000  1.0  -0.0754
  C  C201  1  0.443900  0.424900  0.675000  1.0  -0.0562
  C  C202  1  0.406600  0.447400  0.863000  1.0  -0.1193
  C  C203  1  0.365200  0.421900  0.966000  1.0  0.0464
  C  C204  1  0.328400  0.445800  0.152000  1.0  -0.1051
  C  C205  1  0.287300  0.419500  0.237000  1.0  0.1799
  C  C206  1  0.254900  0.555100  0.809000  1.0  -0.0873
  C  C207  1  0.206800  0.568900  0.813000  1.0  -0.0582
  C  C208  1  0.171500  0.537300  0.685000  1.0  -0.0671
  C  C209  1  0.184500  0.492000  0.555000  1.0  -0.0913
  C  C210  1  0.232600  0.478200  0.551000  1.0  0.1579
  C  C211  1  0.267800  0.509800  0.679000  1.0  -0.1214
  C  C212  1  0.198700  0.620300  0.940000  1.0  -1e-04
  C  C213  1  0.109000  0.719000  0.054000  1.0  0.1818
  C  C214  1  0.129800  0.785100  0.345000  1.0  0.1334
  C  C215  1  0.153200  0.821800  0.531000  1.0  -0.137
  C  C216  1  0.127000  0.862600  0.627000  1.0  0.0188
  C  C217  1  0.148800  0.900100  0.815000  1.0  -0.0429
  C  C218  1  0.123700  0.941300  0.919000  1.0  -0.0745
  C  C219  1  0.075100  0.943900  0.825000  1.0  -0.0561
  C  C220  1  0.052600  0.906600  0.637000  1.0  -0.1205
  C  C221  1  0.078100  0.865200  0.534000  1.0  0.0465
  C  C222  1  0.054200  0.828400  0.348000  1.0  -0.106
  C  C223  1  0.080500  0.787300  0.263000  1.0  0.1802
  C  C224  1  0.944900  0.754900  0.691000  1.0  -0.0876
  C  C225  1  0.931100  0.706800  0.687000  1.0  -0.0554
  C  C226  1  0.962700  0.671500  0.815000  1.0  -0.0697
  C  C227  1  0.008000  0.684500  0.945000  1.0  -0.0966
  C  C228  1  0.021800  0.732600  0.949000  1.0  0.1547
  C  C229  1  0.990200  0.767800  0.821000  1.0  -0.122
  C  C230  1  0.879700  0.698700  0.560000  1.0  -0.0018
  C  C231  1  0.891000  0.281000  0.054000  1.0  0.1798
  C  C232  1  0.870200  0.214900  0.345000  1.0  0.1344
  C  C233  1  0.846800  0.178200  0.531000  1.0  -0.1356
  C  C234  1  0.873000  0.137400  0.627000  1.0  0.0191
  C  C235  1  0.851200  0.099900  0.815000  1.0  -0.0415
  C  C236  1  0.876300  0.058700  0.919000  1.0  -0.0742
  C  C237  1  0.924900  0.056100  0.825000  1.0  -0.0572
  C  C238  1  0.947400  0.093400  0.637000  1.0  -0.1183
  C  C239  1  0.921900  0.134800  0.534000  1.0  0.0465
  C  C240  1  0.945800  0.171600  0.348000  1.0  -0.1068
  C  C241  1  0.919500  0.212700  0.263000  1.0  0.1808
  C  C242  1  0.055100  0.245100  0.691000  1.0  -0.0885
  C  C243  1  0.068900  0.293200  0.687000  1.0  -0.0574
  C  C244  1  0.037300  0.328500  0.815000  1.0  -0.0672
  C  C245  1  0.992000  0.315500  0.945000  1.0  -0.0951
  C  C246  1  0.978200  0.267400  0.949000  1.0  0.153
  C  C247  1  0.009800  0.232200  0.821000  1.0  -0.1241
  C  C248  1  0.120300  0.301300  0.560000  1.0  0.0002
  N  N249  1  0.258900  0.145100  0.788000  1.0  -0.3071
  N  N250  1  0.254300  0.068000  0.929000  1.0  0.0462
  N  N251  1  0.741100  0.854900  0.788000  1.0  -0.3066
  N  N252  1  0.745700  0.932000  0.929000  1.0  0.045
  N  N253  1  0.645100  0.241100  0.712000  1.0  -0.3066
  N  N254  1  0.568000  0.245700  0.571000  1.0  0.046
  N  N255  1  0.354900  0.758900  0.712000  1.0  -0.3077
  N  N256  1  0.432000  0.754300  0.571000  1.0  0.0478
  N  N257  1  0.758900  0.645100  0.288000  1.0  -0.3071
  N  N258  1  0.754300  0.568000  0.429000  1.0  0.0462
  N  N259  1  0.241100  0.354900  0.288000  1.0  -0.3066
  N  N260  1  0.245700  0.432000  0.429000  1.0  0.045
  N  N261  1  0.145100  0.741100  0.212000  1.0  -0.3066
  N  N262  1  0.068000  0.745700  0.071000  1.0  0.046
  N  N263  1  0.854900  0.258900  0.212000  1.0  -0.3077
  N  N264  1  0.932000  0.254300  0.071000  1.0  0.0478
  O  O265  1  0.273500  0.858500  0.601000  1.0  -0.5555
  O  O266  1  0.338300  0.861600  0.259000  1.0  -0.5063
  O  O267  1  0.284700  0.246100  0.361000  1.0  -0.8311
  O  O268  1  0.340700  0.879000  0.641000  1.0  -0.5676
  O  O269  1  0.726500  0.141500  0.601000  1.0  -0.555
  O  O270  1  0.661700  0.138400  0.259000  1.0  -0.5095
  O  O271  1  0.715300  0.753900  0.361000  1.0  -0.831
  O  O272  1  0.659300  0.121000  0.641000  1.0  -0.5664
  O  O273  1  0.358500  0.226500  0.899000  1.0  -0.5531
  O  O274  1  0.361600  0.161700  0.241000  1.0  -0.5102
  O  O275  1  0.746100  0.215300  0.139000  1.0  -0.8341
  O  O276  1  0.379000  0.159300  0.859000  1.0  -0.5617
  O  O277  1  0.641500  0.773500  0.899000  1.0  -0.5534
  O  O278  1  0.638400  0.838300  0.241000  1.0  -0.5096
  O  O279  1  0.253900  0.784700  0.139000  1.0  -0.834
  O  O280  1  0.621000  0.840700  0.859000  1.0  -0.5633
  O  O281  1  0.773500  0.358500  0.101000  1.0  -0.5555
  O  O282  1  0.838300  0.361600  0.759000  1.0  -0.5063
  O  O283  1  0.784700  0.746100  0.861000  1.0  -0.8313
  O  O284  1  0.840700  0.379000  0.141000  1.0  -0.5676
  O  O285  1  0.226500  0.641500  0.101000  1.0  -0.555
  O  O286  1  0.161700  0.638400  0.759000  1.0  -0.5095
  O  O287  1  0.215300  0.253900  0.861000  1.0  -0.8312
  O  O288  1  0.159300  0.621000  0.141000  1.0  -0.5664
  O  O289  1  0.858500  0.726500  0.399000  1.0  -0.5531
  O  O290  1  0.861600  0.661700  0.741000  1.0  -0.5102
  O  O291  1  0.246100  0.715300  0.639000  1.0  -0.8333
  O  O292  1  0.879000  0.659300  0.359000  1.0  -0.5617
  O  O293  1  0.141500  0.273500  0.399000  1.0  -0.5534
  O  O294  1  0.138400  0.338300  0.741000  1.0  -0.5096
  O  O295  1  0.753900  0.284700  0.639000  1.0  -0.8334
  O  O296  1  0.121000  0.340700  0.359000  1.0  -0.5633
