# generated using pymatgen
data_ZnH12C18(NO2)2
_symmetry_space_group_name_H-M   'P 1'
_cell_length_a   27.69220000
_cell_length_b   27.69220000
_cell_length_c   3.54920000
_cell_angle_alpha   90.00000000
_cell_angle_beta   90.00000000
_cell_angle_gamma   90.00000000
_symmetry_Int_Tables_number   1
_chemical_formula_structural   ZnH12C18(NO2)2
_chemical_formula_sum   'Zn8 H96 C144 N16 O32'
_cell_volume   2721.73220363
_cell_formula_units_Z   8
loop_
 _symmetry_equiv_pos_site_id
 _symmetry_equiv_pos_as_xyz
  1  'x, y, z'
loop_
 _atom_site_type_symbol
 _atom_site_label
 _atom_site_symmetry_multiplicity
 _atom_site_fract_x
 _atom_site_fract_y
 _atom_site_fract_z
 _atom_site_occupancy
 _atom_site_charge
  Zn  Zn1  1  0.284890  0.213880  0.842400  1.0  0.8111
  Zn  Zn2  1  0.715110  0.786120  0.842400  1.0  0.8118
  Zn  Zn3  1  0.713880  0.215110  0.657600  1.0  0.8095
  Zn  Zn4  1  0.286120  0.784890  0.657600  1.0  0.8096
  Zn  Zn5  1  0.784890  0.713880  0.342400  1.0  0.8111
  Zn  Zn6  1  0.215110  0.286120  0.342400  1.0  0.8118
  Zn  Zn7  1  0.213880  0.715110  0.157600  1.0  0.8095
  Zn  Zn8  1  0.786120  0.284890  0.157600  1.0  0.8096
  H  H9  1  0.310600  0.110300  0.041400  1.0  0.1453
  H  H10  1  0.181700  0.186000  0.399200  1.0  0.1342
  H  H11  1  0.101900  0.182200  0.107900  1.0  0.1454
  H  H12  1  0.033400  0.139800  0.940500  1.0  0.2171
  H  H13  1  0.027200  0.058600  0.099800  1.0  0.1363
  H  H14  1  0.090000  0.021000  0.411800  1.0  0.1664
  H  H15  1  0.167700  0.022100  0.698600  1.0  0.1539
  H  H16  1  0.221100  0.924700  0.395500  1.0  0.1531
  H  H17  1  0.360900  0.952600  0.181600  1.0  0.142
  H  H18  1  0.340100  0.028800  0.962000  1.0  0.1362
  H  H19  1  0.200400  0.000800  0.175900  1.0  0.1839
  H  H20  1  0.309200  0.235300  0.230400  1.0  0.329
  H  H21  1  0.689400  0.889700  0.041400  1.0  0.1459
  H  H22  1  0.818300  0.814000  0.399200  1.0  0.1342
  H  H23  1  0.898100  0.817800  0.107900  1.0  0.1442
  H  H24  1  0.966600  0.860200  0.940500  1.0  0.217
  H  H25  1  0.972800  0.941400  0.099800  1.0  0.1362
  H  H26  1  0.910000  0.979000  0.411800  1.0  0.1667
  H  H27  1  0.832300  0.977900  0.698600  1.0  0.1534
  H  H28  1  0.778900  0.075300  0.395500  1.0  0.155
  H  H29  1  0.639100  0.047400  0.181600  1.0  0.1427
  H  H30  1  0.659900  0.971200  0.962000  1.0  0.1363
  H  H31  1  0.799600  0.999200  0.175900  1.0  0.1853
  H  H32  1  0.690800  0.764700  0.230400  1.0  0.3285
  H  H33  1  0.610300  0.189400  0.458600  1.0  0.1466
  H  H34  1  0.686000  0.318300  0.100800  1.0  0.1342
  H  H35  1  0.682200  0.398100  0.392100  1.0  0.146
  H  H36  1  0.639800  0.466600  0.559500  1.0  0.2169
  H  H37  1  0.558600  0.472800  0.400200  1.0  0.1365
  H  H38  1  0.521000  0.410000  0.088200  1.0  0.1686
  H  H39  1  0.522100  0.332300  0.801400  1.0  0.1539
  H  H40  1  0.424700  0.278900  0.104500  1.0  0.1538
  H  H41  1  0.452600  0.139100  0.318400  1.0  0.1411
  H  H42  1  0.528800  0.159900  0.538000  1.0  0.1388
  H  H43  1  0.500800  0.299600  0.324100  1.0  0.1837
  H  H44  1  0.735300  0.190800  0.269600  1.0  0.3282
  H  H45  1  0.389700  0.810600  0.458600  1.0  0.1456
  H  H46  1  0.314000  0.681700  0.100800  1.0  0.133
  H  H47  1  0.317800  0.601900  0.392100  1.0  0.1462
  H  H48  1  0.360200  0.533400  0.559500  1.0  0.2174
  H  H49  1  0.441400  0.527200  0.400200  1.0  0.1371
  H  H50  1  0.479000  0.590000  0.088200  1.0  0.1681
  H  H51  1  0.477900  0.667700  0.801400  1.0  0.1527
  H  H52  1  0.575300  0.721100  0.104500  1.0  0.1541
  H  H53  1  0.547400  0.860900  0.318400  1.0  0.1414
  H  H54  1  0.471200  0.840100  0.538000  1.0  0.1391
  H  H55  1  0.499200  0.700400  0.324100  1.0  0.1836
  H  H56  1  0.264700  0.809200  0.269600  1.0  0.3293
  H  H57  1  0.810600  0.610300  0.541400  1.0  0.1453
  H  H58  1  0.681700  0.686000  0.899200  1.0  0.1342
  H  H59  1  0.601900  0.682200  0.607900  1.0  0.1454
  H  H60  1  0.533400  0.639800  0.440500  1.0  0.2171
  H  H61  1  0.527200  0.558600  0.599800  1.0  0.1363
  H  H62  1  0.590000  0.521000  0.911800  1.0  0.1664
  H  H63  1  0.667700  0.522100  0.198600  1.0  0.1539
  H  H64  1  0.721100  0.424700  0.895500  1.0  0.1531
  H  H65  1  0.860900  0.452600  0.681600  1.0  0.142
  H  H66  1  0.840100  0.528800  0.462000  1.0  0.1362
  H  H67  1  0.700400  0.500800  0.675900  1.0  0.1839
  H  H68  1  0.809200  0.735300  0.730400  1.0  0.3299
  H  H69  1  0.189400  0.389700  0.541400  1.0  0.1459
  H  H70  1  0.318300  0.314000  0.899200  1.0  0.1342
  H  H71  1  0.398100  0.317800  0.607900  1.0  0.1442
  H  H72  1  0.466600  0.360200  0.440500  1.0  0.217
  H  H73  1  0.472800  0.441400  0.599800  1.0  0.1362
  H  H74  1  0.410000  0.479000  0.911800  1.0  0.1667
  H  H75  1  0.332300  0.477900  0.198600  1.0  0.1534
  H  H76  1  0.278900  0.575300  0.895500  1.0  0.155
  H  H77  1  0.139100  0.547400  0.681600  1.0  0.1427
  H  H78  1  0.159900  0.471200  0.462000  1.0  0.1363
  H  H79  1  0.299600  0.499200  0.675900  1.0  0.1853
  H  H80  1  0.190800  0.264700  0.730400  1.0  0.3294
  H  H81  1  0.110300  0.689400  0.958600  1.0  0.1466
  H  H82  1  0.186000  0.818300  0.600800  1.0  0.1342
  H  H83  1  0.182200  0.898100  0.892100  1.0  0.146
  H  H84  1  0.139800  0.966600  0.059500  1.0  0.2169
  H  H85  1  0.058600  0.972800  0.900200  1.0  0.1365
  H  H86  1  0.021000  0.910000  0.588200  1.0  0.1686
  H  H87  1  0.022100  0.832300  0.301400  1.0  0.1539
  H  H88  1  0.924700  0.778900  0.604500  1.0  0.1538
  H  H89  1  0.952600  0.639100  0.818400  1.0  0.1411
  H  H90  1  0.028800  0.659900  0.038000  1.0  0.1388
  H  H91  1  0.000800  0.799600  0.824100  1.0  0.1837
  H  H92  1  0.235300  0.690800  0.769600  1.0  0.3282
  H  H93  1  0.889700  0.310600  0.958600  1.0  0.1456
  H  H94  1  0.814000  0.181700  0.600800  1.0  0.133
  H  H95  1  0.817800  0.101900  0.892100  1.0  0.1462
  H  H96  1  0.860200  0.033400  0.059500  1.0  0.2174
  H  H97  1  0.941400  0.027200  0.900200  1.0  0.1371
  H  H98  1  0.979000  0.090000  0.588200  1.0  0.1681
  H  H99  1  0.977900  0.167700  0.301400  1.0  0.1527
  H  H100  1  0.075300  0.221100  0.604500  1.0  0.1541
  H  H101  1  0.047400  0.360900  0.818400  1.0  0.1414
  H  H102  1  0.971200  0.340100  0.038000  1.0  0.1391
  H  H103  1  0.999200  0.200400  0.824100  1.0  0.1836
  H  H104  1  0.764700  0.309200  0.769600  1.0  0.3293
  C  C105  1  0.280300  0.108800  0.929500  1.0  0.2374
  C  C106  1  0.215300  0.129400  0.644500  1.0  0.1728
  C  C107  1  0.178700  0.153400  0.458000  1.0  -0.1489
  C  C108  1  0.137500  0.128100  0.361100  1.0  0.0249
  C  C109  1  0.099600  0.149700  0.170000  1.0  -0.0696
  C  C110  1  0.058300  0.124500  0.069000  1.0  -0.0351
  C  C111  1  0.054800  0.076000  0.163000  1.0  -0.0554
  C  C112  1  0.092400  0.053600  0.352000  1.0  -0.126
  C  C113  1  0.134000  0.079200  0.453400  1.0  0.0193
  C  C114  1  0.170600  0.054700  0.640000  1.0  -0.0944
  C  C115  1  0.211600  0.080500  0.736000  1.0  0.1236
  C  C116  1  0.245000  0.945500  0.309000  1.0  -0.1084
  C  C117  1  0.293100  0.931100  0.310000  1.0  -0.074
  C  C118  1  0.328700  0.962300  0.180000  1.0  -0.0671
  C  C119  1  0.316300  0.007900  0.049000  1.0  -0.124
  C  C120  1  0.268200  0.022300  0.047000  1.0  0.1797
  C  C121  1  0.232500  0.991200  0.177000  1.0  -0.1492
  C  C122  1  0.301200  0.880000  0.451000  1.0  0.1363
  C  C123  1  0.719700  0.891200  0.929500  1.0  0.2374
  C  C124  1  0.784700  0.870600  0.644500  1.0  0.1718
  C  C125  1  0.821300  0.846600  0.458000  1.0  -0.1489
  C  C126  1  0.862500  0.871900  0.361100  1.0  0.0261
  C  C127  1  0.900400  0.850300  0.170000  1.0  -0.0693
  C  C128  1  0.941700  0.875500  0.069000  1.0  -0.0414
  C  C129  1  0.945200  0.924000  0.163000  1.0  -0.062
  C  C130  1  0.907600  0.946400  0.352000  1.0  -0.1249
  C  C131  1  0.866000  0.920800  0.453400  1.0  0.0197
  C  C132  1  0.829400  0.945300  0.640000  1.0  -0.093
  C  C133  1  0.788400  0.919500  0.736000  1.0  0.1229
  C  C134  1  0.755000  0.054500  0.309000  1.0  -0.1074
  C  C135  1  0.706900  0.068900  0.310000  1.0  -0.071
  C  C136  1  0.671300  0.037700  0.180000  1.0  -0.0689
  C  C137  1  0.683700  0.992100  0.049000  1.0  -0.1277
  C  C138  1  0.731800  0.977700  0.047000  1.0  0.1816
  C  C139  1  0.767500  0.008800  0.177000  1.0  -0.1526
  C  C140  1  0.698800  0.120000  0.451000  1.0  0.1347
  C  C141  1  0.608800  0.219700  0.570500  1.0  0.2375
  C  C142  1  0.629400  0.284700  0.855500  1.0  0.1706
  C  C143  1  0.653400  0.321300  0.042000  1.0  -0.1508
  C  C144  1  0.628100  0.362500  0.138900  1.0  0.0247
  C  C145  1  0.649700  0.400400  0.330000  1.0  -0.0704
  C  C146  1  0.624500  0.441700  0.431000  1.0  -0.0338
  C  C147  1  0.576000  0.445200  0.337000  1.0  -0.0611
  C  C148  1  0.553600  0.407600  0.148000  1.0  -0.1254
  C  C149  1  0.579200  0.366000  0.046600  1.0  0.0196
  C  C150  1  0.554700  0.329400  0.860000  1.0  -0.094
  C  C151  1  0.580500  0.288400  0.764000  1.0  0.1227
  C  C152  1  0.445500  0.255000  0.191000  1.0  -0.1069
  C  C153  1  0.431100  0.206900  0.190000  1.0  -0.0678
  C  C154  1  0.462300  0.171300  0.320000  1.0  -0.0734
  C  C155  1  0.507900  0.183700  0.451000  1.0  -0.1315
  C  C156  1  0.522300  0.231800  0.453000  1.0  0.18
  C  C157  1  0.491200  0.267500  0.323000  1.0  -0.1547
  C  C158  1  0.380000  0.198800  0.049000  1.0  0.1337
  C  C159  1  0.391200  0.780300  0.570500  1.0  0.2361
  C  C160  1  0.370600  0.715300  0.855500  1.0  0.1716
  C  C161  1  0.346600  0.678700  0.042000  1.0  -0.1495
  C  C162  1  0.371900  0.637500  0.138900  1.0  0.0245
  C  C163  1  0.350300  0.599600  0.330000  1.0  -0.0699
  C  C164  1  0.375500  0.558300  0.431000  1.0  -0.0405
  C  C165  1  0.424000  0.554800  0.337000  1.0  -0.0619
  C  C166  1  0.446400  0.592400  0.148000  1.0  -0.1248
  C  C167  1  0.420800  0.634000  0.046600  1.0  0.0198
  C  C168  1  0.445300  0.670600  0.860000  1.0  -0.0943
  C  C169  1  0.419500  0.711600  0.764000  1.0  0.1232
  C  C170  1  0.554500  0.745000  0.191000  1.0  -0.1083
  C  C171  1  0.568900  0.793100  0.190000  1.0  -0.0687
  C  C172  1  0.537700  0.828700  0.320000  1.0  -0.0718
  C  C173  1  0.492100  0.816300  0.451000  1.0  -0.129
  C  C174  1  0.477700  0.768200  0.453000  1.0  0.1798
  C  C175  1  0.508800  0.732500  0.323000  1.0  -0.1524
  C  C176  1  0.620000  0.801200  0.049000  1.0  0.1346
  C  C177  1  0.780300  0.608800  0.429500  1.0  0.2374
  C  C178  1  0.715300  0.629400  0.144500  1.0  0.1728
  C  C179  1  0.678700  0.653400  0.958000  1.0  -0.1489
  C  C180  1  0.637500  0.628100  0.861100  1.0  0.0249
  C  C181  1  0.599600  0.649700  0.670000  1.0  -0.0696
  C  C182  1  0.558300  0.624500  0.569000  1.0  -0.0351
  C  C183  1  0.554800  0.576000  0.663000  1.0  -0.0554
  C  C184  1  0.592400  0.553600  0.852000  1.0  -0.126
  C  C185  1  0.634000  0.579200  0.953400  1.0  0.0193
  C  C186  1  0.670600  0.554700  0.140000  1.0  -0.0944
  C  C187  1  0.711600  0.580500  0.236000  1.0  0.1236
  C  C188  1  0.745000  0.445500  0.809000  1.0  -0.1077
  C  C189  1  0.793100  0.431100  0.810000  1.0  -0.074
  C  C190  1  0.828700  0.462300  0.680000  1.0  -0.0685
  C  C191  1  0.816300  0.507900  0.549000  1.0  -0.1248
  C  C192  1  0.768200  0.522300  0.547000  1.0  0.1797
  C  C193  1  0.732500  0.491200  0.677000  1.0  -0.1519
  C  C194  1  0.801200  0.380000  0.951000  1.0  0.1363
  C  C195  1  0.219700  0.391200  0.429500  1.0  0.2374
  C  C196  1  0.284700  0.370600  0.144500  1.0  0.1718
  C  C197  1  0.321300  0.346600  0.958000  1.0  -0.1489
  C  C198  1  0.362500  0.371900  0.861100  1.0  0.0261
  C  C199  1  0.400400  0.350300  0.670000  1.0  -0.0693
  C  C200  1  0.441700  0.375500  0.569000  1.0  -0.0414
  C  C201  1  0.445200  0.424000  0.663000  1.0  -0.062
  C  C202  1  0.407600  0.446400  0.852000  1.0  -0.1249
  C  C203  1  0.366000  0.420800  0.953400  1.0  0.0197
  C  C204  1  0.329400  0.445300  0.140000  1.0  -0.093
  C  C205  1  0.288400  0.419500  0.236000  1.0  0.1229
  C  C206  1  0.255000  0.554500  0.809000  1.0  -0.1074
  C  C207  1  0.206900  0.568900  0.810000  1.0  -0.071
  C  C208  1  0.171300  0.537700  0.680000  1.0  -0.0689
  C  C209  1  0.183700  0.492100  0.549000  1.0  -0.1226
  C  C210  1  0.231800  0.477700  0.547000  1.0  0.1816
  C  C211  1  0.267500  0.508800  0.677000  1.0  -0.153
  C  C212  1  0.198800  0.620000  0.951000  1.0  0.1347
  C  C213  1  0.108800  0.719700  0.070500  1.0  0.2375
  C  C214  1  0.129400  0.784700  0.355500  1.0  0.1705
  C  C215  1  0.153400  0.821300  0.542000  1.0  -0.1508
  C  C216  1  0.128100  0.862500  0.638900  1.0  0.0247
  C  C217  1  0.149700  0.900400  0.830000  1.0  -0.0704
  C  C218  1  0.124500  0.941700  0.931000  1.0  -0.0338
  C  C219  1  0.076000  0.945200  0.837000  1.0  -0.0611
  C  C220  1  0.053600  0.907600  0.648000  1.0  -0.1254
  C  C221  1  0.079200  0.866000  0.546600  1.0  0.0196
  C  C222  1  0.054700  0.829400  0.360000  1.0  -0.094
  C  C223  1  0.080500  0.788400  0.264000  1.0  0.1227
  C  C224  1  0.945500  0.755000  0.691000  1.0  -0.1069
  C  C225  1  0.931100  0.706900  0.690000  1.0  -0.0678
  C  C226  1  0.962300  0.671300  0.820000  1.0  -0.0734
  C  C227  1  0.007900  0.683700  0.951000  1.0  -0.1315
  C  C228  1  0.022300  0.731800  0.953000  1.0  0.18
  C  C229  1  0.991200  0.767500  0.823000  1.0  -0.1517
  C  C230  1  0.880000  0.698800  0.549000  1.0  0.1337
  C  C231  1  0.891200  0.280300  0.070500  1.0  0.2361
  C  C232  1  0.870600  0.215300  0.355500  1.0  0.1715
  C  C233  1  0.846600  0.178700  0.542000  1.0  -0.1495
  C  C234  1  0.871900  0.137500  0.638900  1.0  0.0245
  C  C235  1  0.850300  0.099600  0.830000  1.0  -0.0699
  C  C236  1  0.875500  0.058300  0.931000  1.0  -0.0405
  C  C237  1  0.924000  0.054800  0.837000  1.0  -0.0619
  C  C238  1  0.946400  0.092400  0.648000  1.0  -0.1248
  C  C239  1  0.920800  0.134000  0.546600  1.0  0.0198
  C  C240  1  0.945300  0.170600  0.360000  1.0  -0.0943
  C  C241  1  0.919500  0.211600  0.264000  1.0  0.1232
  C  C242  1  0.054500  0.245000  0.691000  1.0  -0.1083
  C  C243  1  0.068900  0.293100  0.690000  1.0  -0.0687
  C  C244  1  0.037700  0.328700  0.820000  1.0  -0.0718
  C  C245  1  0.992100  0.316300  0.951000  1.0  -0.129
  C  C246  1  0.977700  0.268200  0.953000  1.0  0.1798
  C  C247  1  0.008800  0.232500  0.823000  1.0  -0.1504
  C  C248  1  0.120000  0.301200  0.549000  1.0  0.1346
  N  N249  1  0.260000  0.146400  0.774000  1.0  -0.4131
  N  N250  1  0.254100  0.067300  0.917100  1.0  0.0475
  N  N251  1  0.740000  0.853600  0.774000  1.0  -0.4066
  N  N252  1  0.745900  0.932700  0.917100  1.0  0.0497
  N  N253  1  0.646400  0.240000  0.726000  1.0  -0.4068
  N  N254  1  0.567300  0.245900  0.582900  1.0  0.0489
  N  N255  1  0.353600  0.760000  0.726000  1.0  -0.4068
  N  N256  1  0.432700  0.754100  0.582900  1.0  0.0476
  N  N257  1  0.760000  0.646400  0.274000  1.0  -0.4131
  N  N258  1  0.754100  0.567300  0.417100  1.0  0.0487
  N  N259  1  0.240000  0.353600  0.274000  1.0  -0.4071
  N  N260  1  0.245900  0.432700  0.417100  1.0  0.0502
  N  N261  1  0.146400  0.740000  0.226000  1.0  -0.4068
  N  N262  1  0.067300  0.745900  0.082900  1.0  0.0489
  N  N263  1  0.853600  0.260000  0.226000  1.0  -0.4068
  N  N264  1  0.932700  0.254100  0.082900  1.0  0.0476
  O  O265  1  0.272100  0.858400  0.623000  1.0  -0.5497
  O  O266  1  0.338600  0.858900  0.294000  1.0  -0.425
  O  O267  1  0.286100  0.247600  0.355000  1.0  -0.8467
  O  O268  1  0.341100  0.872000  0.640000  1.0  -0.5025
  O  O269  1  0.727900  0.141600  0.623000  1.0  -0.5496
  O  O270  1  0.661400  0.141100  0.294000  1.0  -0.4237
  O  O271  1  0.713900  0.752400  0.355000  1.0  -0.8461
  O  O272  1  0.658900  0.128000  0.640000  1.0  -0.5059
  O  O273  1  0.358400  0.227900  0.877000  1.0  -0.5461
  O  O274  1  0.358900  0.161400  0.206000  1.0  -0.4265
  O  O275  1  0.747600  0.213900  0.145000  1.0  -0.8495
  O  O276  1  0.372000  0.158900  0.860000  1.0  -0.5026
  O  O277  1  0.641600  0.772100  0.877000  1.0  -0.5473
  O  O278  1  0.641100  0.838600  0.206000  1.0  -0.4256
  O  O279  1  0.252400  0.786100  0.145000  1.0  -0.8486
  O  O280  1  0.628000  0.841100  0.860000  1.0  -0.5019
  O  O281  1  0.772100  0.358400  0.123000  1.0  -0.5497
  O  O282  1  0.838600  0.358900  0.794000  1.0  -0.425
  O  O283  1  0.786100  0.747600  0.855000  1.0  -0.8468
  O  O284  1  0.841100  0.372000  0.140000  1.0  -0.5025
  O  O285  1  0.227900  0.641600  0.123000  1.0  -0.5496
  O  O286  1  0.161400  0.641100  0.794000  1.0  -0.4233
  O  O287  1  0.213900  0.252400  0.855000  1.0  -0.8466
  O  O288  1  0.158900  0.628000  0.140000  1.0  -0.5059
  O  O289  1  0.858400  0.727900  0.377000  1.0  -0.5461
  O  O290  1  0.858900  0.661400  0.706000  1.0  -0.4265
  O  O291  1  0.247600  0.713900  0.645000  1.0  -0.8495
  O  O292  1  0.872000  0.658900  0.360000  1.0  -0.5026
  O  O293  1  0.141600  0.272100  0.377000  1.0  -0.5473
  O  O294  1  0.141100  0.338600  0.706000  1.0  -0.4256
  O  O295  1  0.752400  0.286100  0.645000  1.0  -0.8486
  O  O296  1  0.128000  0.341100  0.360000  1.0  -0.5019
