# generated using pymatgen
data_ZnH12C18(NO2)2
_symmetry_space_group_name_H-M   'P 1'
_cell_length_a   27.70690000
_cell_length_b   27.70690000
_cell_length_c   3.57190000
_cell_angle_alpha   90.00000000
_cell_angle_beta   90.00000000
_cell_angle_gamma   90.00000000
_symmetry_Int_Tables_number   1
_chemical_formula_structural   ZnH12C18(NO2)2
_chemical_formula_sum   'Zn8 H96 C144 N16 O32'
_cell_volume   2742.04871555
_cell_formula_units_Z   8
loop_
 _symmetry_equiv_pos_site_id
 _symmetry_equiv_pos_as_xyz
  1  'x, y, z'
loop_
 _atom_site_type_symbol
 _atom_site_label
 _atom_site_symmetry_multiplicity
 _atom_site_fract_x
 _atom_site_fract_y
 _atom_site_fract_z
 _atom_site_occupancy
 _atom_site_charge
  Zn  Zn1  1  0.284700  0.214040  0.845600  1.0  0.8407
  Zn  Zn2  1  0.715300  0.785960  0.845600  1.0  0.8403
  Zn  Zn3  1  0.714040  0.215300  0.654400  1.0  0.8382
  Zn  Zn4  1  0.285960  0.784700  0.654400  1.0  0.8381
  Zn  Zn5  1  0.784700  0.714040  0.345600  1.0  0.8407
  Zn  Zn6  1  0.215300  0.285960  0.345600  1.0  0.8403
  Zn  Zn7  1  0.214040  0.715300  0.154400  1.0  0.8382
  Zn  Zn8  1  0.785960  0.284700  0.154400  1.0  0.8381
  H  H9  1  0.310900  0.110100  0.045300  1.0  0.1396
  H  H10  1  0.181700  0.186000  0.401900  1.0  0.1401
  H  H11  1  0.102600  0.182400  0.112400  1.0  0.1484
  H  H12  1  0.033700  0.140500  0.944600  1.0  0.223
  H  H13  1  0.027500  0.059100  0.099700  1.0  0.1323
  H  H14  1  0.089600  0.021300  0.413800  1.0  0.1549
  H  H15  1  0.168000  0.022300  0.698800  1.0  0.1523
  H  H16  1  0.220800  0.924700  0.395000  1.0  0.1501
  H  H17  1  0.360400  0.952700  0.180700  1.0  0.1448
  H  H18  1  0.339600  0.028800  0.963400  1.0  0.1378
  H  H19  1  0.200000  0.000800  0.177700  1.0  0.1805
  H  H20  1  0.308700  0.235600  0.229800  1.0  0.3197
  H  H21  1  0.689100  0.889900  0.045300  1.0  0.1383
  H  H22  1  0.818300  0.814000  0.401900  1.0  0.1404
  H  H23  1  0.897400  0.817600  0.112400  1.0  0.1467
  H  H24  1  0.966300  0.859500  0.944600  1.0  0.2237
  H  H25  1  0.972500  0.940900  0.099700  1.0  0.1314
  H  H26  1  0.910400  0.978700  0.413800  1.0  0.1551
  H  H27  1  0.832000  0.977700  0.698800  1.0  0.1513
  H  H28  1  0.779200  0.075300  0.395000  1.0  0.1521
  H  H29  1  0.639600  0.047300  0.180700  1.0  0.1458
  H  H30  1  0.660400  0.971200  0.963400  1.0  0.1383
  H  H31  1  0.800000  0.999200  0.177700  1.0  0.1815
  H  H32  1  0.691300  0.764400  0.229800  1.0  0.3191
  H  H33  1  0.610100  0.189100  0.454700  1.0  0.1404
  H  H34  1  0.686000  0.318300  0.098100  1.0  0.1406
  H  H35  1  0.682400  0.397400  0.387600  1.0  0.149
  H  H36  1  0.640500  0.466300  0.555400  1.0  0.2233
  H  H37  1  0.559100  0.472500  0.400300  1.0  0.1317
  H  H38  1  0.521300  0.410400  0.086200  1.0  0.1569
  H  H39  1  0.522300  0.332000  0.801200  1.0  0.1525
  H  H40  1  0.424700  0.279200  0.105000  1.0  0.1503
  H  H41  1  0.452700  0.139600  0.319300  1.0  0.1447
  H  H42  1  0.528800  0.160400  0.536600  1.0  0.1409
  H  H43  1  0.500800  0.300000  0.322300  1.0  0.1807
  H  H44  1  0.735600  0.191300  0.270200  1.0  0.3184
  H  H45  1  0.389900  0.810900  0.454700  1.0  0.1408
  H  H46  1  0.314000  0.681700  0.098100  1.0  0.1397
  H  H47  1  0.317600  0.602600  0.387600  1.0  0.1475
  H  H48  1  0.359500  0.533700  0.555400  1.0  0.2231
  H  H49  1  0.440900  0.527500  0.400300  1.0  0.1324
  H  H50  1  0.478700  0.589600  0.086200  1.0  0.1554
  H  H51  1  0.477700  0.668000  0.801200  1.0  0.1509
  H  H52  1  0.575300  0.720800  0.105000  1.0  0.1508
  H  H53  1  0.547300  0.860400  0.319300  1.0  0.144
  H  H54  1  0.471200  0.839600  0.536600  1.0  0.1416
  H  H55  1  0.499200  0.700000  0.322300  1.0  0.181
  H  H56  1  0.264400  0.808700  0.270200  1.0  0.3186
  H  H57  1  0.810900  0.610100  0.545300  1.0  0.1396
  H  H58  1  0.681700  0.686000  0.901900  1.0  0.1401
  H  H59  1  0.602600  0.682400  0.612400  1.0  0.1484
  H  H60  1  0.533700  0.640500  0.444600  1.0  0.223
  H  H61  1  0.527500  0.559100  0.599700  1.0  0.1323
  H  H62  1  0.589600  0.521300  0.913800  1.0  0.1549
  H  H63  1  0.668000  0.522300  0.198800  1.0  0.1523
  H  H64  1  0.720800  0.424700  0.895000  1.0  0.1501
  H  H65  1  0.860400  0.452700  0.680700  1.0  0.1448
  H  H66  1  0.839600  0.528800  0.463400  1.0  0.1378
  H  H67  1  0.700000  0.500800  0.677700  1.0  0.1805
  H  H68  1  0.808700  0.735600  0.729800  1.0  0.3197
  H  H69  1  0.189100  0.389900  0.545300  1.0  0.1383
  H  H70  1  0.318300  0.314000  0.901900  1.0  0.1404
  H  H71  1  0.397400  0.317600  0.612400  1.0  0.1467
  H  H72  1  0.466300  0.359500  0.444600  1.0  0.2237
  H  H73  1  0.472500  0.440900  0.599700  1.0  0.1314
  H  H74  1  0.410400  0.478700  0.913800  1.0  0.1551
  H  H75  1  0.332000  0.477700  0.198800  1.0  0.1513
  H  H76  1  0.279200  0.575300  0.895000  1.0  0.1521
  H  H77  1  0.139600  0.547300  0.680700  1.0  0.1458
  H  H78  1  0.160400  0.471200  0.463400  1.0  0.1383
  H  H79  1  0.300000  0.499200  0.677700  1.0  0.1815
  H  H80  1  0.191300  0.264400  0.729800  1.0  0.3191
  H  H81  1  0.110100  0.689100  0.954700  1.0  0.1404
  H  H82  1  0.186000  0.818300  0.598100  1.0  0.1406
  H  H83  1  0.182400  0.897400  0.887600  1.0  0.149
  H  H84  1  0.140500  0.966300  0.055400  1.0  0.2233
  H  H85  1  0.059100  0.972500  0.900300  1.0  0.1317
  H  H86  1  0.021300  0.910400  0.586200  1.0  0.1569
  H  H87  1  0.022300  0.832000  0.301200  1.0  0.1525
  H  H88  1  0.924700  0.779200  0.605000  1.0  0.1503
  H  H89  1  0.952700  0.639600  0.819300  1.0  0.1447
  H  H90  1  0.028800  0.660400  0.036600  1.0  0.1409
  H  H91  1  0.000800  0.800000  0.822300  1.0  0.1807
  H  H92  1  0.235600  0.691300  0.770200  1.0  0.3184
  H  H93  1  0.889900  0.310900  0.954700  1.0  0.1408
  H  H94  1  0.814000  0.181700  0.598100  1.0  0.1397
  H  H95  1  0.817600  0.102600  0.887600  1.0  0.1475
  H  H96  1  0.859500  0.033700  0.055400  1.0  0.2231
  H  H97  1  0.940900  0.027500  0.900300  1.0  0.1324
  H  H98  1  0.978700  0.089600  0.586200  1.0  0.1554
  H  H99  1  0.977700  0.168000  0.301200  1.0  0.1509
  H  H100  1  0.075300  0.220800  0.605000  1.0  0.1508
  H  H101  1  0.047300  0.360400  0.819300  1.0  0.144
  H  H102  1  0.971200  0.339600  0.036600  1.0  0.1416
  H  H103  1  0.999200  0.200000  0.822300  1.0  0.181
  H  H104  1  0.764400  0.308700  0.770200  1.0  0.3186
  C  C105  1  0.280600  0.108700  0.934000  1.0  0.2218
  C  C106  1  0.215300  0.129400  0.647000  1.0  0.1682
  C  C107  1  0.178700  0.153400  0.461000  1.0  -0.154
  C  C108  1  0.137500  0.128000  0.364000  1.0  0.0293
  C  C109  1  0.100000  0.149900  0.174000  1.0  -0.0655
  C  C110  1  0.058500  0.125000  0.072000  1.0  -0.0504
  C  C111  1  0.055000  0.076400  0.165000  1.0  -0.0655
  C  C112  1  0.092300  0.053800  0.353000  1.0  -0.1208
  C  C113  1  0.134100  0.079000  0.455000  1.0  0.0255
  C  C114  1  0.170700  0.055000  0.642000  1.0  -0.1506
  C  C115  1  0.211300  0.080700  0.742000  1.0  0.1637
  C  C116  1  0.244600  0.945600  0.308000  1.0  -0.1041
  C  C117  1  0.292700  0.931200  0.309000  1.0  -0.0678
  C  C118  1  0.328300  0.962400  0.180000  1.0  -0.0809
  C  C119  1  0.315800  0.008000  0.050000  1.0  -0.1264
  C  C120  1  0.267700  0.022400  0.049000  1.0  0.1618
  C  C121  1  0.232200  0.991100  0.178000  1.0  -0.1427
  C  C122  1  0.300900  0.880400  0.454000  1.0  0.1196
  C  C123  1  0.719400  0.891300  0.934000  1.0  0.2211
  C  C124  1  0.784700  0.870600  0.647000  1.0  0.1669
  C  C125  1  0.821300  0.846600  0.461000  1.0  -0.1538
  C  C126  1  0.862500  0.872000  0.364000  1.0  0.0299
  C  C127  1  0.900000  0.850100  0.174000  1.0  -0.066
  C  C128  1  0.941500  0.875000  0.072000  1.0  -0.0507
  C  C129  1  0.945000  0.923600  0.165000  1.0  -0.0672
  C  C130  1  0.907700  0.946200  0.353000  1.0  -0.1223
  C  C131  1  0.865900  0.921000  0.455000  1.0  0.0263
  C  C132  1  0.829300  0.945000  0.642000  1.0  -0.1494
  C  C133  1  0.788700  0.919300  0.742000  1.0  0.1629
  C  C134  1  0.755400  0.054400  0.308000  1.0  -0.1048
  C  C135  1  0.707300  0.068800  0.309000  1.0  -0.0664
  C  C136  1  0.671700  0.037600  0.180000  1.0  -0.0827
  C  C137  1  0.684200  0.992000  0.050000  1.0  -0.1259
  C  C138  1  0.732300  0.977600  0.049000  1.0  0.1627
  C  C139  1  0.767800  0.008900  0.178000  1.0  -0.1423
  C  C140  1  0.699100  0.119600  0.454000  1.0  0.1172
  C  C141  1  0.608700  0.219400  0.566000  1.0  0.2206
  C  C142  1  0.629400  0.284700  0.853000  1.0  0.1656
  C  C143  1  0.653400  0.321300  0.039000  1.0  -0.1553
  C  C144  1  0.628000  0.362500  0.136000  1.0  0.0287
  C  C145  1  0.649900  0.400000  0.326000  1.0  -0.0666
  C  C146  1  0.625000  0.441500  0.428000  1.0  -0.051
  C  C147  1  0.576400  0.445000  0.335000  1.0  -0.0663
  C  C148  1  0.553800  0.407700  0.147000  1.0  -0.1221
  C  C149  1  0.579000  0.365900  0.045000  1.0  0.0252
  C  C150  1  0.555000  0.329300  0.858000  1.0  -0.1506
  C  C151  1  0.580700  0.288700  0.758000  1.0  0.1625
  C  C152  1  0.445600  0.255400  0.192000  1.0  -0.1055
  C  C153  1  0.431200  0.207300  0.191000  1.0  -0.0618
  C  C154  1  0.462400  0.171700  0.320000  1.0  -0.0877
  C  C155  1  0.508000  0.184200  0.450000  1.0  -0.1317
  C  C156  1  0.522400  0.232300  0.451000  1.0  0.1604
  C  C157  1  0.491100  0.267800  0.322000  1.0  -0.1411
  C  C158  1  0.380400  0.199100  0.046000  1.0  0.1169
  C  C159  1  0.391300  0.780600  0.566000  1.0  0.2199
  C  C160  1  0.370600  0.715300  0.853000  1.0  0.1673
  C  C161  1  0.346600  0.678700  0.039000  1.0  -0.1549
  C  C162  1  0.372000  0.637500  0.136000  1.0  0.0286
  C  C163  1  0.350100  0.600000  0.326000  1.0  -0.0661
  C  C164  1  0.375000  0.558500  0.428000  1.0  -0.0503
  C  C165  1  0.423600  0.555000  0.335000  1.0  -0.0674
  C  C166  1  0.446200  0.592300  0.147000  1.0  -0.121
  C  C167  1  0.421000  0.634100  0.045000  1.0  0.0255
  C  C168  1  0.445000  0.670700  0.858000  1.0  -0.1505
  C  C169  1  0.419300  0.711300  0.758000  1.0  0.1629
  C  C170  1  0.554400  0.744600  0.192000  1.0  -0.1063
  C  C171  1  0.568800  0.792700  0.191000  1.0  -0.0633
  C  C172  1  0.537600  0.828300  0.320000  1.0  -0.0852
  C  C173  1  0.492000  0.815800  0.450000  1.0  -0.1301
  C  C174  1  0.477600  0.767700  0.451000  1.0  0.1601
  C  C175  1  0.508900  0.732200  0.322000  1.0  -0.1441
  C  C176  1  0.619600  0.800900  0.046000  1.0  0.1185
  C  C177  1  0.780600  0.608700  0.434000  1.0  0.2218
  C  C178  1  0.715300  0.629400  0.147000  1.0  0.1682
  C  C179  1  0.678700  0.653400  0.961000  1.0  -0.154
  C  C180  1  0.637500  0.628000  0.864000  1.0  0.0293
  C  C181  1  0.600000  0.649900  0.674000  1.0  -0.0655
  C  C182  1  0.558500  0.625000  0.572000  1.0  -0.0504
  C  C183  1  0.555000  0.576400  0.665000  1.0  -0.0655
  C  C184  1  0.592300  0.553800  0.853000  1.0  -0.1208
  C  C185  1  0.634100  0.579000  0.955000  1.0  0.0255
  C  C186  1  0.670700  0.555000  0.142000  1.0  -0.1506
  C  C187  1  0.711300  0.580700  0.242000  1.0  0.1637
  C  C188  1  0.744600  0.445600  0.808000  1.0  -0.1041
  C  C189  1  0.792700  0.431200  0.809000  1.0  -0.0678
  C  C190  1  0.828300  0.462400  0.680000  1.0  -0.0809
  C  C191  1  0.815800  0.508000  0.550000  1.0  -0.1264
  C  C192  1  0.767700  0.522400  0.549000  1.0  0.1618
  C  C193  1  0.732200  0.491100  0.678000  1.0  -0.1427
  C  C194  1  0.800900  0.380400  0.954000  1.0  0.1196
  C  C195  1  0.219400  0.391300  0.434000  1.0  0.2211
  C  C196  1  0.284700  0.370600  0.147000  1.0  0.1669
  C  C197  1  0.321300  0.346600  0.961000  1.0  -0.1538
  C  C198  1  0.362500  0.372000  0.864000  1.0  0.0299
  C  C199  1  0.400000  0.350100  0.674000  1.0  -0.066
  C  C200  1  0.441500  0.375000  0.572000  1.0  -0.0507
  C  C201  1  0.445000  0.423600  0.665000  1.0  -0.0672
  C  C202  1  0.407700  0.446200  0.853000  1.0  -0.1223
  C  C203  1  0.365900  0.421000  0.955000  1.0  0.0263
  C  C204  1  0.329300  0.445000  0.142000  1.0  -0.1494
  C  C205  1  0.288700  0.419300  0.242000  1.0  0.1629
  C  C206  1  0.255400  0.554400  0.808000  1.0  -0.1048
  C  C207  1  0.207300  0.568800  0.809000  1.0  -0.0664
  C  C208  1  0.171700  0.537600  0.680000  1.0  -0.0827
  C  C209  1  0.184200  0.492000  0.550000  1.0  -0.1259
  C  C210  1  0.232300  0.477600  0.549000  1.0  0.1627
  C  C211  1  0.267800  0.508900  0.678000  1.0  -0.1423
  C  C212  1  0.199100  0.619600  0.954000  1.0  0.1172
  C  C213  1  0.108700  0.719400  0.066000  1.0  0.2206
  C  C214  1  0.129400  0.784700  0.353000  1.0  0.1656
  C  C215  1  0.153400  0.821300  0.539000  1.0  -0.1553
  C  C216  1  0.128000  0.862500  0.636000  1.0  0.0287
  C  C217  1  0.149900  0.900000  0.826000  1.0  -0.0666
  C  C218  1  0.125000  0.941500  0.928000  1.0  -0.051
  C  C219  1  0.076400  0.945000  0.835000  1.0  -0.0663
  C  C220  1  0.053800  0.907700  0.647000  1.0  -0.1221
  C  C221  1  0.079000  0.865900  0.545000  1.0  0.0252
  C  C222  1  0.055000  0.829300  0.358000  1.0  -0.1506
  C  C223  1  0.080700  0.788700  0.258000  1.0  0.1625
  C  C224  1  0.945600  0.755400  0.692000  1.0  -0.1055
  C  C225  1  0.931200  0.707300  0.691000  1.0  -0.0618
  C  C226  1  0.962400  0.671700  0.820000  1.0  -0.0877
  C  C227  1  0.008000  0.684200  0.950000  1.0  -0.1317
  C  C228  1  0.022400  0.732300  0.951000  1.0  0.1604
  C  C229  1  0.991100  0.767800  0.822000  1.0  -0.1411
  C  C230  1  0.880400  0.699100  0.546000  1.0  0.1169
  C  C231  1  0.891300  0.280600  0.066000  1.0  0.2199
  C  C232  1  0.870600  0.215300  0.353000  1.0  0.1673
  C  C233  1  0.846600  0.178700  0.539000  1.0  -0.1549
  C  C234  1  0.872000  0.137500  0.636000  1.0  0.0286
  C  C235  1  0.850100  0.100000  0.826000  1.0  -0.0661
  C  C236  1  0.875000  0.058500  0.928000  1.0  -0.0503
  C  C237  1  0.923600  0.055000  0.835000  1.0  -0.0674
  C  C238  1  0.946200  0.092300  0.647000  1.0  -0.121
  C  C239  1  0.921000  0.134100  0.545000  1.0  0.0255
  C  C240  1  0.945000  0.170700  0.358000  1.0  -0.1505
  C  C241  1  0.919300  0.211300  0.258000  1.0  0.1629
  C  C242  1  0.054400  0.244600  0.692000  1.0  -0.1063
  C  C243  1  0.068800  0.292700  0.691000  1.0  -0.0633
  C  C244  1  0.037600  0.328300  0.820000  1.0  -0.0852
  C  C245  1  0.992000  0.315800  0.950000  1.0  -0.1301
  C  C246  1  0.977600  0.267700  0.951000  1.0  0.1601
  C  C247  1  0.008900  0.232200  0.822000  1.0  -0.1441
  C  C248  1  0.119600  0.300900  0.546000  1.0  0.1185
  N  N249  1  0.260200  0.146100  0.778000  1.0  -0.4063
  N  N250  1  0.254000  0.067600  0.919000  1.0  0.0531
  N  N251  1  0.739800  0.853900  0.778000  1.0  -0.4062
  N  N252  1  0.746000  0.932400  0.919000  1.0  0.0521
  N  N253  1  0.646100  0.239800  0.722000  1.0  -0.4057
  N  N254  1  0.567600  0.246000  0.581000  1.0  0.053
  N  N255  1  0.353900  0.760200  0.722000  1.0  -0.4078
  N  N256  1  0.432400  0.754000  0.581000  1.0  0.0543
  N  N257  1  0.760200  0.646100  0.278000  1.0  -0.4063
  N  N258  1  0.754000  0.567600  0.419000  1.0  0.0531
  N  N259  1  0.239800  0.353900  0.278000  1.0  -0.4062
  N  N260  1  0.246000  0.432400  0.419000  1.0  0.0521
  N  N261  1  0.146100  0.739800  0.222000  1.0  -0.4057
  N  N262  1  0.067600  0.746000  0.081000  1.0  0.053
  N  N263  1  0.853900  0.260200  0.222000  1.0  -0.4078
  N  N264  1  0.932400  0.254000  0.081000  1.0  0.0543
  O  O265  1  0.272200  0.858300  0.619000  1.0  -0.5418
  O  O266  1  0.338800  0.860600  0.294000  1.0  -0.3836
  O  O267  1  0.285700  0.247900  0.355000  1.0  -0.8517
  O  O268  1  0.340400  0.875000  0.652000  1.0  -0.482
  O  O269  1  0.727800  0.141700  0.619000  1.0  -0.5423
  O  O270  1  0.661200  0.139400  0.294000  1.0  -0.3849
  O  O271  1  0.714300  0.752100  0.355000  1.0  -0.8507
  O  O272  1  0.659600  0.125000  0.652000  1.0  -0.4835
  O  O273  1  0.358300  0.227800  0.881000  1.0  -0.5363
  O  O274  1  0.360600  0.161200  0.206000  1.0  -0.3883
  O  O275  1  0.747900  0.214300  0.145000  1.0  -0.8534
  O  O276  1  0.375000  0.159600  0.848000  1.0  -0.4844
  O  O277  1  0.641700  0.772200  0.881000  1.0  -0.5398
  O  O278  1  0.639400  0.838800  0.206000  1.0  -0.3851
  O  O279  1  0.252100  0.785700  0.145000  1.0  -0.8533
  O  O280  1  0.625000  0.840400  0.848000  1.0  -0.4848
  O  O281  1  0.772200  0.358300  0.119000  1.0  -0.5418
  O  O282  1  0.838800  0.360600  0.794000  1.0  -0.3836
  O  O283  1  0.785700  0.747900  0.855000  1.0  -0.8524
  O  O284  1  0.840400  0.375000  0.152000  1.0  -0.482
  O  O285  1  0.227800  0.641700  0.119000  1.0  -0.5423
  O  O286  1  0.161200  0.639400  0.794000  1.0  -0.3849
  O  O287  1  0.214300  0.252100  0.855000  1.0  -0.8513
  O  O288  1  0.159600  0.625000  0.152000  1.0  -0.4835
  O  O289  1  0.858300  0.727800  0.381000  1.0  -0.5363
  O  O290  1  0.860600  0.661200  0.706000  1.0  -0.3883
  O  O291  1  0.247900  0.714300  0.645000  1.0  -0.8535
  O  O292  1  0.875000  0.659600  0.348000  1.0  -0.4844
  O  O293  1  0.141700  0.272200  0.381000  1.0  -0.5398
  O  O294  1  0.139400  0.338800  0.706000  1.0  -0.3851
  O  O295  1  0.752100  0.285700  0.645000  1.0  -0.8533
  O  O296  1  0.125000  0.340400  0.348000  1.0  -0.4848
