# generated using pymatgen
data_Cd3H20C30N25O
_symmetry_space_group_name_H-M   'P 1'
_cell_length_a   14.04400000
_cell_length_b   20.29700000
_cell_length_c   23.63500000
_cell_angle_alpha   90.00000000
_cell_angle_beta   90.00000000
_cell_angle_gamma   90.00000000
_symmetry_Int_Tables_number   1
_chemical_formula_structural   Cd3H20C30N25O
_chemical_formula_sum   'Cd12 H80 C120 N100 O4'
_cell_volume   6737.18199218
_cell_formula_units_Z   4
loop_
 _symmetry_equiv_pos_site_id
 _symmetry_equiv_pos_as_xyz
  1  'x, y, z'
loop_
 _atom_site_type_symbol
 _atom_site_label
 _atom_site_symmetry_multiplicity
 _atom_site_fract_x
 _atom_site_fract_y
 _atom_site_fract_z
 _atom_site_occupancy
 _atom_site_charge
  Cd  Cd1  1  0.899990  0.730700  0.831360  1.0  0.8806
  Cd  Cd2  1  0.600010  0.269300  0.831360  1.0  0.8808
  Cd  Cd3  1  0.600010  0.230700  0.668640  1.0  0.88
  Cd  Cd4  1  0.899990  0.769300  0.668640  1.0  0.8803
  Cd  Cd5  1  0.100010  0.269300  0.168640  1.0  0.8799
  Cd  Cd6  1  0.399990  0.730700  0.168640  1.0  0.8805
  Cd  Cd7  1  0.399990  0.769300  0.331360  1.0  0.8809
  Cd  Cd8  1  0.100010  0.230700  0.331360  1.0  0.8801
  Cd  Cd9  1  0.655670  0.750000  0.750000  1.0  0.8801
  Cd  Cd10  1  0.844330  0.250000  0.750000  1.0  0.8813
  Cd  Cd11  1  0.344330  0.250000  0.250000  1.0  0.8813
  Cd  Cd12  1  0.155670  0.750000  0.250000  1.0  0.8801
  H  H13  1  0.592300  0.670800  0.114700  1.0  0.0731
  H  H14  1  0.379300  0.737200  0.032800  1.0  0.0845
  H  H15  1  0.865500  0.058100  0.904600  1.0  0.1285
  H  H16  1  0.873200  0.995400  0.742800  1.0  0.1336
  H  H17  1  0.850900  0.164200  0.869800  1.0  0.0767
  H  H18  1  0.868800  0.100400  0.716200  1.0  0.0688
  H  H19  1  0.456400  0.723400  0.949800  1.0  0.1122
  H  H20  1  0.684200  0.660900  0.033700  1.0  0.1271
  H  H21  1  0.470100  0.774700  0.829800  1.0  0.0851
  H  H22  1  0.310100  0.774300  0.831900  1.0  0.1127
  H  H23  1  0.907700  0.329200  0.114700  1.0  0.0732
  H  H24  1  0.120700  0.262800  0.032800  1.0  0.0851
  H  H25  1  0.634500  0.941900  0.904600  1.0  0.1297
  H  H26  1  0.626800  0.004600  0.742800  1.0  0.1331
  H  H27  1  0.649100  0.835800  0.869800  1.0  0.0769
  H  H28  1  0.631200  0.899600  0.716200  1.0  0.0685
  H  H29  1  0.043600  0.276600  0.949800  1.0  0.1125
  H  H30  1  0.815800  0.339100  0.033700  1.0  0.1276
  H  H31  1  0.029900  0.225300  0.829800  1.0  0.0845
  H  H32  1  0.189900  0.225700  0.831900  1.0  0.1123
  H  H33  1  0.907700  0.170800  0.385300  1.0  0.0729
  H  H34  1  0.120700  0.237200  0.467200  1.0  0.0855
  H  H35  1  0.634500  0.558100  0.595400  1.0  0.1293
  H  H36  1  0.626800  0.495400  0.757200  1.0  0.1348
  H  H37  1  0.649100  0.664200  0.630200  1.0  0.0771
  H  H38  1  0.631200  0.600400  0.783800  1.0  0.0677
  H  H39  1  0.043600  0.223400  0.550200  1.0  0.1119
  H  H40  1  0.815800  0.160900  0.466300  1.0  0.1283
  H  H41  1  0.029900  0.274700  0.670200  1.0  0.0844
  H  H42  1  0.189900  0.274300  0.668100  1.0  0.1124
  H  H43  1  0.592300  0.829200  0.385300  1.0  0.0729
  H  H44  1  0.379300  0.762800  0.467200  1.0  0.0851
  H  H45  1  0.865500  0.441900  0.595400  1.0  0.1293
  H  H46  1  0.873200  0.504600  0.757200  1.0  0.1339
  H  H47  1  0.850900  0.335800  0.630200  1.0  0.0769
  H  H48  1  0.868800  0.399600  0.783800  1.0  0.0679
  H  H49  1  0.456400  0.776600  0.550200  1.0  0.1121
  H  H50  1  0.684200  0.839100  0.466300  1.0  0.1268
  H  H51  1  0.470100  0.725300  0.670200  1.0  0.0847
  H  H52  1  0.310100  0.725700  0.668100  1.0  0.1125
  H  H53  1  0.407700  0.329200  0.885300  1.0  0.0727
  H  H54  1  0.620700  0.262800  0.967200  1.0  0.0855
  H  H55  1  0.134500  0.941900  0.095400  1.0  0.1296
  H  H56  1  0.126800  0.004600  0.257200  1.0  0.135
  H  H57  1  0.149100  0.835800  0.130200  1.0  0.0768
  H  H58  1  0.131200  0.899600  0.283800  1.0  0.0674
  H  H59  1  0.543600  0.276600  0.050200  1.0  0.1119
  H  H60  1  0.315800  0.339100  0.966300  1.0  0.1277
  H  H61  1  0.529900  0.225300  0.170200  1.0  0.0845
  H  H62  1  0.689900  0.225700  0.168100  1.0  0.1124
  H  H63  1  0.092300  0.670800  0.885300  1.0  0.073
  H  H64  1  0.879300  0.737200  0.967200  1.0  0.0849
  H  H65  1  0.365500  0.058100  0.095400  1.0  0.129
  H  H66  1  0.373200  0.995400  0.257200  1.0  0.1338
  H  H67  1  0.350900  0.164200  0.130200  1.0  0.0771
  H  H68  1  0.368800  0.100400  0.283800  1.0  0.0683
  H  H69  1  0.956400  0.723400  0.050200  1.0  0.1119
  H  H70  1  0.184200  0.660900  0.966300  1.0  0.1267
  H  H71  1  0.970100  0.774700  0.170200  1.0  0.0845
  H  H72  1  0.810100  0.774300  0.168100  1.0  0.1125
  H  H73  1  0.092300  0.829200  0.614700  1.0  0.0733
  H  H74  1  0.879300  0.762800  0.532800  1.0  0.0847
  H  H75  1  0.365500  0.441900  0.404600  1.0  0.1288
  H  H76  1  0.373200  0.504600  0.242800  1.0  0.1339
  H  H77  1  0.350900  0.335800  0.369800  1.0  0.0768
  H  H78  1  0.368800  0.399600  0.216200  1.0  0.0681
  H  H79  1  0.956400  0.776600  0.449800  1.0  0.1124
  H  H80  1  0.184200  0.839100  0.533700  1.0  0.1268
  H  H81  1  0.970100  0.725300  0.329800  1.0  0.0852
  H  H82  1  0.810100  0.725700  0.331900  1.0  0.1128
  H  H83  1  0.407700  0.170800  0.614700  1.0  0.0729
  H  H84  1  0.620700  0.237200  0.532800  1.0  0.085
  H  H85  1  0.134500  0.558100  0.404600  1.0  0.1297
  H  H86  1  0.126800  0.495400  0.242800  1.0  0.1329
  H  H87  1  0.149100  0.664200  0.369800  1.0  0.077
  H  H88  1  0.131200  0.600400  0.216200  1.0  0.0692
  H  H89  1  0.543600  0.223400  0.449800  1.0  0.1124
  H  H90  1  0.315800  0.160900  0.533700  1.0  0.1286
  H  H91  1  0.529900  0.274700  0.329800  1.0  0.0847
  H  H92  1  0.689900  0.274300  0.331900  1.0  0.1123
  C  C93  1  0.564600  0.683200  0.080500  1.0  0.1934
  C  C94  1  0.441000  0.720600  0.033300  1.0  0.1637
  C  C95  1  0.881100  0.944800  0.849900  1.0  0.3229
  C  C96  1  0.874200  0.012900  0.828700  1.0  -0.0143
  C  C97  1  0.865400  0.065300  0.865800  1.0  -0.1014
  C  C98  1  0.871200  0.028500  0.770000  1.0  -0.119
  C  C99  1  0.856400  0.129500  0.844300  1.0  0.1634
  C  C100  1  0.865400  0.091600  0.754700  1.0  0.198
  C  C101  1  0.634000  0.696400  0.930500  1.0  0.3426
  C  C102  1  0.580700  0.694700  0.982100  1.0  -0.0416
  C  C103  1  0.487900  0.714300  0.983500  1.0  -0.111
  C  C104  1  0.622100  0.676600  0.031900  1.0  -0.1711
  C  C105  1  0.437000  0.764400  0.796900  1.0  0.1744
  C  C106  1  0.340600  0.764400  0.798000  1.0  -0.0955
  C  C107  1  0.935400  0.316800  0.080500  1.0  0.1925
  C  C108  1  0.059000  0.279400  0.033300  1.0  0.1634
  C  C109  1  0.618900  0.055200  0.849900  1.0  0.3239
  C  C110  1  0.625800  0.987100  0.828700  1.0  -0.0136
  C  C111  1  0.634600  0.934700  0.865800  1.0  -0.1002
  C  C112  1  0.628800  0.971500  0.770000  1.0  -0.1184
  C  C113  1  0.643600  0.870500  0.844300  1.0  0.1633
  C  C114  1  0.634600  0.908400  0.754700  1.0  0.198
  C  C115  1  0.866000  0.303600  0.930500  1.0  0.3431
  C  C116  1  0.919300  0.305300  0.982100  1.0  -0.0426
  C  C117  1  0.012100  0.285700  0.983500  1.0  -0.1114
  C  C118  1  0.877900  0.323400  0.031900  1.0  -0.172
  C  C119  1  0.063000  0.235600  0.796900  1.0  0.1745
  C  C120  1  0.159400  0.235600  0.798000  1.0  -0.0938
  C  C121  1  0.935400  0.183200  0.419500  1.0  0.1934
  C  C122  1  0.059000  0.220600  0.466700  1.0  0.1633
  C  C123  1  0.618900  0.444800  0.650100  1.0  0.3241
  C  C124  1  0.625800  0.512900  0.671300  1.0  -0.0154
  C  C125  1  0.634600  0.565300  0.634200  1.0  -0.0973
  C  C126  1  0.628800  0.528500  0.730000  1.0  -0.1175
  C  C127  1  0.643600  0.629500  0.655700  1.0  0.163
  C  C128  1  0.634600  0.591600  0.745300  1.0  0.1983
  C  C129  1  0.866000  0.196400  0.569500  1.0  0.3425
  C  C130  1  0.919300  0.194700  0.517900  1.0  -0.042
  C  C131  1  0.012100  0.214300  0.516500  1.0  -0.1098
  C  C132  1  0.877900  0.176600  0.468100  1.0  -0.1714
  C  C133  1  0.063000  0.264400  0.703100  1.0  0.1743
  C  C134  1  0.159400  0.264400  0.702000  1.0  -0.0957
  C  C135  1  0.564600  0.816800  0.419500  1.0  0.1938
  C  C136  1  0.441000  0.779400  0.466700  1.0  0.1633
  C  C137  1  0.881100  0.555200  0.650100  1.0  0.3223
  C  C138  1  0.874200  0.487100  0.671300  1.0  -0.0145
  C  C139  1  0.865400  0.434700  0.634200  1.0  -0.1005
  C  C140  1  0.871200  0.471500  0.730000  1.0  -0.1194
  C  C141  1  0.856400  0.370500  0.655700  1.0  0.1634
  C  C142  1  0.865400  0.408400  0.745300  1.0  0.1991
  C  C143  1  0.634000  0.803600  0.569500  1.0  0.3427
  C  C144  1  0.580700  0.805300  0.517900  1.0  -0.0427
  C  C145  1  0.487900  0.785700  0.516500  1.0  -0.1099
  C  C146  1  0.622100  0.823400  0.468100  1.0  -0.1711
  C  C147  1  0.437000  0.735600  0.703100  1.0  0.1745
  C  C148  1  0.340600  0.735600  0.702000  1.0  -0.0945
  C  C149  1  0.435400  0.316800  0.919500  1.0  0.1933
  C  C150  1  0.559000  0.279400  0.966700  1.0  0.1631
  C  C151  1  0.118900  0.055200  0.150100  1.0  0.3237
  C  C152  1  0.125800  0.987100  0.171300  1.0  -0.0134
  C  C153  1  0.134600  0.934700  0.134200  1.0  -0.0986
  C  C154  1  0.128800  0.971500  0.230000  1.0  -0.1185
  C  C155  1  0.143600  0.870500  0.155700  1.0  0.1632
  C  C156  1  0.134600  0.908400  0.245300  1.0  0.1987
  C  C157  1  0.366000  0.303600  0.069500  1.0  0.343
  C  C158  1  0.419300  0.305300  0.017900  1.0  -0.0429
  C  C159  1  0.512100  0.285700  0.016500  1.0  -0.1101
  C  C160  1  0.377900  0.323400  0.968100  1.0  -0.1723
  C  C161  1  0.563000  0.235600  0.203100  1.0  0.1745
  C  C162  1  0.659400  0.235600  0.202000  1.0  -0.0953
  C  C163  1  0.064600  0.683200  0.919500  1.0  0.1936
  C  C164  1  0.941000  0.720600  0.966700  1.0  0.1634
  C  C165  1  0.381100  0.944800  0.150100  1.0  0.3223
  C  C166  1  0.374200  0.012900  0.171300  1.0  -0.0146
  C  C167  1  0.365400  0.065300  0.134200  1.0  -0.0996
  C  C168  1  0.371200  0.028500  0.230000  1.0  -0.1205
  C  C169  1  0.356400  0.129500  0.155700  1.0  0.1631
  C  C170  1  0.365400  0.091600  0.245300  1.0  0.1984
  C  C171  1  0.134000  0.696400  0.069500  1.0  0.3423
  C  C172  1  0.080700  0.694700  0.017900  1.0  -0.0418
  C  C173  1  0.987900  0.714300  0.016500  1.0  -0.1097
  C  C174  1  0.122100  0.676600  0.968100  1.0  -0.1711
  C  C175  1  0.937000  0.764400  0.203100  1.0  0.1743
  C  C176  1  0.840600  0.764400  0.202000  1.0  -0.096
  C  C177  1  0.064600  0.816800  0.580500  1.0  0.1934
  C  C178  1  0.941000  0.779400  0.533300  1.0  0.1635
  C  C179  1  0.381100  0.555200  0.349900  1.0  0.323
  C  C180  1  0.374200  0.487100  0.328700  1.0  -0.0146
  C  C181  1  0.365400  0.434700  0.365800  1.0  -0.1011
  C  C182  1  0.371200  0.471500  0.270000  1.0  -0.1184
  C  C183  1  0.356400  0.370500  0.344300  1.0  0.1637
  C  C184  1  0.365400  0.408400  0.254700  1.0  0.1977
  C  C185  1  0.134000  0.803600  0.430500  1.0  0.3428
  C  C186  1  0.080700  0.805300  0.482100  1.0  -0.0421
  C  C187  1  0.987900  0.785700  0.483500  1.0  -0.1113
  C  C188  1  0.122100  0.823400  0.531900  1.0  -0.1709
  C  C189  1  0.937000  0.735600  0.296900  1.0  0.1748
  C  C190  1  0.840600  0.735600  0.298000  1.0  -0.0943
  C  C191  1  0.435400  0.183200  0.580500  1.0  0.1929
  C  C192  1  0.559000  0.220600  0.533300  1.0  0.1636
  C  C193  1  0.118900  0.444800  0.349900  1.0  0.3245
  C  C194  1  0.125800  0.512900  0.328700  1.0  -0.0153
  C  C195  1  0.134600  0.565300  0.365800  1.0  -0.1006
  C  C196  1  0.128800  0.528500  0.270000  1.0  -0.1178
  C  C197  1  0.143600  0.629500  0.344300  1.0  0.1632
  C  C198  1  0.134600  0.591600  0.254700  1.0  0.1985
  C  C199  1  0.366000  0.196400  0.430500  1.0  0.3427
  C  C200  1  0.419300  0.194700  0.482100  1.0  -0.0421
  C  C201  1  0.512100  0.214300  0.483500  1.0  -0.1112
  C  C202  1  0.377900  0.176600  0.531900  1.0  -0.1713
  C  C203  1  0.563000  0.264400  0.296900  1.0  0.1743
  C  C204  1  0.659400  0.264400  0.298000  1.0  -0.0936
  C  C205  1  0.180400  0.750000  0.750000  1.0  0.3819
  C  C206  1  0.283900  0.750000  0.750000  1.0  -0.0819
  C  C207  1  0.319600  0.250000  0.750000  1.0  0.3816
  C  C208  1  0.216100  0.250000  0.750000  1.0  -0.0808
  C  C209  1  0.819600  0.250000  0.250000  1.0  0.3816
  C  C210  1  0.716100  0.250000  0.250000  1.0  -0.0808
  C  C211  1  0.680400  0.750000  0.250000  1.0  0.3819
  C  C212  1  0.783900  0.750000  0.250000  1.0  -0.0819
  N  N213  1  0.479600  0.704000  0.083200  1.0  -0.3477
  N  N214  1  0.887000  0.842700  0.856500  1.0  -0.0441
  N  N215  1  0.881400  0.863900  0.907100  1.0  -0.1885
  N  N216  1  0.874900  0.928700  0.904100  1.0  -0.2218
  N  N217  1  0.884600  0.891000  0.818100  1.0  -0.3399
  N  N218  1  0.855300  0.143300  0.788600  1.0  -0.3446
  N  N219  1  0.750400  0.702300  0.871900  1.0  -0.1729
  N  N220  1  0.667500  0.707200  0.843200  1.0  -0.181
  N  N221  1  0.593800  0.703900  0.878200  1.0  -0.3315
  N  N222  1  0.729400  0.693800  0.926300  1.0  -0.2729
  N  N223  1  0.039200  0.752500  0.779300  1.0  -0.0921
  N  N224  1  0.127500  0.749400  0.797300  1.0  -0.2847
  N  N225  1  0.020400  0.296000  0.083200  1.0  -0.3484
  N  N226  1  0.613000  0.157300  0.856500  1.0  -0.0421
  N  N227  1  0.618600  0.136100  0.907100  1.0  -0.1915
  N  N228  1  0.625100  0.071300  0.904100  1.0  -0.2229
  N  N229  1  0.615400  0.109000  0.818100  1.0  -0.3402
  N  N230  1  0.644700  0.856700  0.788600  1.0  -0.3438
  N  N231  1  0.749600  0.297700  0.871900  1.0  -0.1721
  N  N232  1  0.832500  0.292800  0.843200  1.0  -0.18
  N  N233  1  0.906200  0.296100  0.878200  1.0  -0.3324
  N  N234  1  0.770600  0.306200  0.926300  1.0  -0.2725
  N  N235  1  0.460800  0.247500  0.779300  1.0  -0.0928
  N  N236  1  0.372500  0.250600  0.797300  1.0  -0.2853
  N  N237  1  0.020400  0.204000  0.416800  1.0  -0.349
  N  N238  1  0.613000  0.342700  0.643500  1.0  -0.0427
  N  N239  1  0.618600  0.363900  0.592900  1.0  -0.1911
  N  N240  1  0.625100  0.428700  0.595900  1.0  -0.2221
  N  N241  1  0.615400  0.391000  0.681900  1.0  -0.3398
  N  N242  1  0.644700  0.643300  0.711400  1.0  -0.3453
  N  N243  1  0.749600  0.202300  0.628100  1.0  -0.1711
  N  N244  1  0.832500  0.207200  0.656800  1.0  -0.1803
  N  N245  1  0.906200  0.203900  0.621800  1.0  -0.3323
  N  N246  1  0.770600  0.193800  0.573700  1.0  -0.2723
  N  N247  1  0.460800  0.252500  0.720700  1.0  -0.0928
  N  N248  1  0.372500  0.249400  0.702700  1.0  -0.285
  N  N249  1  0.479600  0.796000  0.416800  1.0  -0.3482
  N  N250  1  0.887000  0.657300  0.643500  1.0  -0.0422
  N  N251  1  0.881400  0.636100  0.592900  1.0  -0.1905
  N  N252  1  0.874900  0.571300  0.595900  1.0  -0.2226
  N  N253  1  0.884600  0.609000  0.681900  1.0  -0.3411
  N  N254  1  0.855300  0.356700  0.711400  1.0  -0.3433
  N  N255  1  0.750400  0.797700  0.628100  1.0  -0.1735
  N  N256  1  0.667500  0.792800  0.656800  1.0  -0.1802
  N  N257  1  0.593800  0.796100  0.621800  1.0  -0.3304
  N  N258  1  0.729400  0.806200  0.573700  1.0  -0.2746
  N  N259  1  0.039200  0.747500  0.720700  1.0  -0.0917
  N  N260  1  0.127500  0.750600  0.702700  1.0  -0.2842
  N  N261  1  0.520400  0.296000  0.916800  1.0  -0.3493
  N  N262  1  0.113000  0.157300  0.143500  1.0  -0.0419
  N  N263  1  0.118600  0.136100  0.092900  1.0  -0.1909
  N  N264  1  0.125100  0.071300  0.095900  1.0  -0.2234
  N  N265  1  0.115400  0.109000  0.181900  1.0  -0.3407
  N  N266  1  0.144700  0.856700  0.211400  1.0  -0.3436
  N  N267  1  0.249600  0.297700  0.128100  1.0  -0.1724
  N  N268  1  0.332500  0.292800  0.156800  1.0  -0.1803
  N  N269  1  0.406200  0.296100  0.121800  1.0  -0.333
  N  N270  1  0.270600  0.306200  0.073700  1.0  -0.2727
  N  N271  1  0.960800  0.247500  0.220700  1.0  -0.0928
  N  N272  1  0.872500  0.250600  0.202700  1.0  -0.2849
  N  N273  1  0.979600  0.704000  0.916800  1.0  -0.3484
  N  N274  1  0.387000  0.842700  0.143500  1.0  -0.0443
  N  N275  1  0.381400  0.863900  0.092900  1.0  -0.1926
  N  N276  1  0.374900  0.928700  0.095900  1.0  -0.2212
  N  N277  1  0.384600  0.891000  0.181900  1.0  -0.3399
  N  N278  1  0.355300  0.143300  0.211400  1.0  -0.3448
  N  N279  1  0.250400  0.702300  0.128100  1.0  -0.1725
  N  N280  1  0.167500  0.707200  0.156800  1.0  -0.1801
  N  N281  1  0.093800  0.703900  0.121800  1.0  -0.3313
  N  N282  1  0.229400  0.693800  0.073700  1.0  -0.2746
  N  N283  1  0.539200  0.752500  0.220700  1.0  -0.0916
  N  N284  1  0.627500  0.749400  0.202700  1.0  -0.2843
  N  N285  1  0.979600  0.796000  0.583200  1.0  -0.3478
  N  N286  1  0.387000  0.657300  0.356500  1.0  -0.0422
  N  N287  1  0.381400  0.636100  0.407100  1.0  -0.1901
  N  N288  1  0.374900  0.571300  0.404100  1.0  -0.2223
  N  N289  1  0.384600  0.609000  0.318100  1.0  -0.3403
  N  N290  1  0.355300  0.356700  0.288600  1.0  -0.3435
  N  N291  1  0.250400  0.797700  0.371900  1.0  -0.1739
  N  N292  1  0.167500  0.792800  0.343200  1.0  -0.18
  N  N293  1  0.093800  0.796100  0.378200  1.0  -0.33
  N  N294  1  0.229400  0.806200  0.426300  1.0  -0.2733
  N  N295  1  0.539200  0.747500  0.279300  1.0  -0.0922
  N  N296  1  0.627500  0.750600  0.297300  1.0  -0.2848
  N  N297  1  0.520400  0.204000  0.583200  1.0  -0.348
  N  N298  1  0.113000  0.342700  0.356500  1.0  -0.0427
  N  N299  1  0.118600  0.363900  0.407100  1.0  -0.1918
  N  N300  1  0.125100  0.428700  0.404100  1.0  -0.2231
  N  N301  1  0.115400  0.391000  0.318100  1.0  -0.3403
  N  N302  1  0.144700  0.643300  0.288600  1.0  -0.3449
  N  N303  1  0.249600  0.202300  0.371900  1.0  -0.1708
  N  N304  1  0.332500  0.207200  0.343200  1.0  -0.1811
  N  N305  1  0.406200  0.203900  0.378200  1.0  -0.3325
  N  N306  1  0.270600  0.193800  0.426300  1.0  -0.2724
  N  N307  1  0.960800  0.252500  0.279300  1.0  -0.0929
  N  N308  1  0.872500  0.249400  0.297300  1.0  -0.2852
  N  N309  1  0.486100  0.750000  0.750000  1.0  -0.3336
  N  N310  1  0.013900  0.250000  0.750000  1.0  -0.3317
  N  N311  1  0.513900  0.250000  0.250000  1.0  -0.3317
  N  N312  1  0.986100  0.750000  0.250000  1.0  -0.3336
  O  O313  1  0.815500  0.750000  0.750000  1.0  -0.7825
  O  O314  1  0.684500  0.250000  0.750000  1.0  -0.7807
  O  O315  1  0.184500  0.250000  0.250000  1.0  -0.7807
  O  O316  1  0.315500  0.750000  0.250000  1.0  -0.7825
