# generated using pymatgen
data_Cd5H32C48(N20O)2
_symmetry_space_group_name_H-M   'P 1'
_cell_length_a   12.61770000
_cell_length_b   12.58690000
_cell_length_c   28.56100000
_cell_angle_alpha   90.00000000
_cell_angle_beta   96.84300000
_cell_angle_gamma   90.00000000
_symmetry_Int_Tables_number   1
_chemical_formula_structural   Cd5H32C48(N20O)2
_chemical_formula_sum   'Cd10 H64 C96 N80 O4'
_cell_volume   4503.68038409
_cell_formula_units_Z   2
loop_
 _symmetry_equiv_pos_site_id
 _symmetry_equiv_pos_as_xyz
  1  'x, y, z'
loop_
 _atom_site_type_symbol
 _atom_site_label
 _atom_site_symmetry_multiplicity
 _atom_site_fract_x
 _atom_site_fract_y
 _atom_site_fract_z
 _atom_site_occupancy
 _atom_site_charge
  Cd  Cd1  1  0.565150  0.331100  0.611160  1.0  0.91
  Cd  Cd2  1  0.355940  0.540120  0.608740  1.0  0.9672
  Cd  Cd3  1  0.934850  0.831100  0.888840  1.0  0.9091
  Cd  Cd4  1  0.144060  0.040120  0.891260  1.0  0.9667
  Cd  Cd5  1  0.434850  0.668900  0.388840  1.0  0.9093
  Cd  Cd6  1  0.644060  0.459880  0.391260  1.0  0.9667
  Cd  Cd7  1  0.065150  0.168900  0.111160  1.0  0.9101
  Cd  Cd8  1  0.855940  0.959880  0.108740  1.0  0.9671
  Cd  Cd9  1  0.500000  0.500000  0.500000  1.0  0.9659
  Cd  Cd10  1  0.000000  0.000000  0.000000  1.0  0.9659
  H  H11  1  0.891400  0.277500  0.743200  1.0  0.1091
  H  H12  1  0.662500  0.054300  0.745100  1.0  0.1215
  H  H13  1  0.996200  0.675100  0.416200  1.0  0.104
  H  H14  1  0.664500  0.131600  0.558400  1.0  0.0782
  H  H15  1  0.346100  0.982600  0.581900  1.0  0.1156
  H  H16  1  0.806100  0.338500  0.673400  1.0  0.0884
  H  H17  1  0.378200  0.159700  0.593600  1.0  0.083
  H  H18  1  0.641400  0.953300  0.542600  1.0  0.1295
  H  H19  1  0.108300  0.610300  0.737600  1.0  0.1085
  H  H20  1  0.859100  0.349100  0.444500  1.0  0.0767
  H  H21  1  0.329100  0.839500  0.736600  1.0  0.1064
  H  H22  1  0.580200  0.127700  0.677400  1.0  0.0606
  H  H23  1  0.165900  0.540400  0.672400  1.0  0.0823
  H  H24  1  0.817600  0.648300  0.408400  1.0  0.0943
  H  H25  1  0.386300  0.759800  0.671900  1.0  0.0757
  H  H26  1  0.038900  0.370600  0.454800  1.0  0.1191
  H  H27  1  0.608600  0.777500  0.756800  1.0  0.1094
  H  H28  1  0.837500  0.554300  0.754900  1.0  0.1216
  H  H29  1  0.503800  0.175100  0.083800  1.0  0.1039
  H  H30  1  0.835500  0.631600  0.941600  1.0  0.0783
  H  H31  1  0.153900  0.482600  0.918100  1.0  0.1141
  H  H32  1  0.693900  0.838500  0.826600  1.0  0.088
  H  H33  1  0.121800  0.659700  0.906400  1.0  0.0836
  H  H34  1  0.858600  0.453300  0.957400  1.0  0.1297
  H  H35  1  0.391700  0.110300  0.762400  1.0  0.108
  H  H36  1  0.640900  0.849100  0.055500  1.0  0.0763
  H  H37  1  0.170900  0.339500  0.763400  1.0  0.1072
  H  H38  1  0.919800  0.627700  0.822600  1.0  0.0605
  H  H39  1  0.334100  0.040400  0.827600  1.0  0.0819
  H  H40  1  0.682400  0.148300  0.091600  1.0  0.0947
  H  H41  1  0.113700  0.259800  0.828100  1.0  0.0755
  H  H42  1  0.461100  0.870600  0.045200  1.0  0.1182
  H  H43  1  0.108600  0.722500  0.256800  1.0  0.1092
  H  H44  1  0.337500  0.945700  0.254900  1.0  0.1222
  H  H45  1  0.003800  0.324900  0.583800  1.0  0.1034
  H  H46  1  0.335500  0.868400  0.441600  1.0  0.0784
  H  H47  1  0.653900  0.017400  0.418100  1.0  0.1141
  H  H48  1  0.193900  0.661500  0.326600  1.0  0.088
  H  H49  1  0.621800  0.840300  0.406400  1.0  0.0838
  H  H50  1  0.358600  0.046700  0.457400  1.0  0.1301
  H  H51  1  0.891700  0.389700  0.262400  1.0  0.1081
  H  H52  1  0.140900  0.650900  0.555500  1.0  0.0751
  H  H53  1  0.670900  0.160500  0.263400  1.0  0.1067
  H  H54  1  0.419800  0.872300  0.322600  1.0  0.0602
  H  H55  1  0.834100  0.459600  0.327600  1.0  0.082
  H  H56  1  0.182400  0.351700  0.591600  1.0  0.0945
  H  H57  1  0.613700  0.240200  0.328100  1.0  0.0757
  H  H58  1  0.961100  0.629400  0.545200  1.0  0.1202
  H  H59  1  0.391400  0.222500  0.243200  1.0  0.1091
  H  H60  1  0.162500  0.445700  0.245100  1.0  0.1221
  H  H61  1  0.496200  0.824900  0.916200  1.0  0.104
  H  H62  1  0.164500  0.368400  0.058400  1.0  0.0784
  H  H63  1  0.846100  0.517400  0.081900  1.0  0.1153
  H  H64  1  0.306100  0.161500  0.173400  1.0  0.0882
  H  H65  1  0.878200  0.340300  0.093600  1.0  0.0827
  H  H66  1  0.141400  0.546700  0.042600  1.0  0.1298
  H  H67  1  0.608300  0.889700  0.237600  1.0  0.1081
  H  H68  1  0.359100  0.150900  0.944500  1.0  0.0754
  H  H69  1  0.829100  0.660500  0.236600  1.0  0.1065
  H  H70  1  0.080200  0.372300  0.177400  1.0  0.0603
  H  H71  1  0.665900  0.959600  0.172400  1.0  0.0821
  H  H72  1  0.317600  0.851700  0.908400  1.0  0.0937
  H  H73  1  0.886300  0.740200  0.171900  1.0  0.0755
  H  H74  1  0.538900  0.129400  0.954800  1.0  0.119
  C  C75  1  0.852700  0.101100  0.791900  1.0  0.3438
  C  C76  1  0.158000  0.543700  0.443200  1.0  0.3049
  C  C77  1  0.174100  0.779400  0.787400  1.0  0.3564
  C  C78  1  0.830200  0.243400  0.729300  1.0  -0.1169
  C  C79  1  0.793000  0.150200  0.750300  1.0  0.0143
  C  C80  1  0.693900  0.111000  0.731100  1.0  -0.1385
  C  C81  1  0.969900  0.608200  0.422500  1.0  -0.1055
  C  C82  1  0.040000  0.529000  0.437400  1.0  -0.0727
  C  C83  1  0.600300  0.099700  0.563300  1.0  0.1586
  C  C84  1  0.412100  0.010800  0.577100  1.0  -0.1213
  C  C85  1  0.491600  0.944300  0.562200  1.0  -0.0414
  C  C86  1  0.776100  0.282900  0.688700  1.0  0.1634
  C  C87  1  0.432000  0.116700  0.584500  1.0  0.1422
  C  C88  1  0.587500  0.992500  0.554000  1.0  -0.1667
  C  C89  1  0.213900  0.732600  0.746700  1.0  -0.0171
  C  C90  1  0.470200  0.831700  0.556100  1.0  0.3466
  C  C91  1  0.165000  0.642200  0.725000  1.0  -0.1117
  C  C92  1  0.887400  0.415100  0.438300  1.0  0.1609
  C  C93  1  0.296100  0.777500  0.724600  1.0  -0.1209
  C  C94  1  0.643800  0.157800  0.691000  1.0  0.1787
  C  C95  1  0.199500  0.600900  0.685500  1.0  0.162
  C  C96  1  0.863200  0.591500  0.416800  1.0  0.1445
  C  C97  1  0.328900  0.730400  0.684900  1.0  0.1524
  C  C98  1  0.994900  0.427800  0.445100  1.0  -0.1336
  C  C99  1  0.647300  0.601100  0.708100  1.0  0.3443
  C  C100  1  0.342000  0.043700  0.056800  1.0  0.3051
  C  C101  1  0.325900  0.279400  0.712600  1.0  0.3562
  C  C102  1  0.669800  0.743400  0.770700  1.0  -0.1189
  C  C103  1  0.707000  0.650200  0.749700  1.0  0.0148
  C  C104  1  0.806100  0.611000  0.768900  1.0  -0.1376
  C  C105  1  0.530100  0.108200  0.077500  1.0  -0.1069
  C  C106  1  0.460000  0.029000  0.062600  1.0  -0.0717
  C  C107  1  0.899700  0.599700  0.936700  1.0  0.1578
  C  C108  1  0.087900  0.510800  0.922900  1.0  -0.1209
  C  C109  1  0.008400  0.444300  0.937800  1.0  -0.0422
  C  C110  1  0.723900  0.782900  0.811300  1.0  0.1641
  C  C111  1  0.068000  0.616700  0.915500  1.0  0.1425
  C  C112  1  0.912500  0.492500  0.946000  1.0  -0.1675
  C  C113  1  0.286100  0.232600  0.753300  1.0  -0.0165
  C  C114  1  0.029800  0.331700  0.943900  1.0  0.3469
  C  C115  1  0.335000  0.142200  0.775000  1.0  -0.1111
  C  C116  1  0.612600  0.915100  0.061700  1.0  0.162
  C  C117  1  0.203900  0.277500  0.775400  1.0  -0.1221
  C  C118  1  0.856200  0.657800  0.809000  1.0  0.1776
  C  C119  1  0.300500  0.100900  0.814500  1.0  0.1622
  C  C120  1  0.636800  0.091500  0.083200  1.0  0.1464
  C  C121  1  0.171100  0.230400  0.815100  1.0  0.1529
  C  C122  1  0.505100  0.927800  0.054900  1.0  -0.1314
  C  C123  1  0.147300  0.898900  0.208100  1.0  0.3447
  C  C124  1  0.842000  0.456300  0.556800  1.0  0.3051
  C  C125  1  0.825900  0.220600  0.212600  1.0  0.356
  C  C126  1  0.169800  0.756600  0.270700  1.0  -0.1192
  C  C127  1  0.207000  0.849800  0.249700  1.0  0.0149
  C  C128  1  0.306100  0.889000  0.268900  1.0  -0.1386
  C  C129  1  0.030100  0.391800  0.577500  1.0  -0.107
  C  C130  1  0.960000  0.471000  0.562600  1.0  -0.0717
  C  C131  1  0.399700  0.900300  0.436700  1.0  0.1573
  C  C132  1  0.587900  0.989200  0.422900  1.0  -0.1208
  C  C133  1  0.508400  0.055700  0.437800  1.0  -0.0399
  C  C134  1  0.223900  0.717100  0.311300  1.0  0.165
  C  C135  1  0.568000  0.883300  0.415500  1.0  0.1423
  C  C136  1  0.412500  0.007500  0.446000  1.0  -0.1675
  C  C137  1  0.786100  0.267400  0.253300  1.0  -0.017
  C  C138  1  0.529800  0.168300  0.443900  1.0  0.3471
  C  C139  1  0.835000  0.357800  0.275000  1.0  -0.111
  C  C140  1  0.112600  0.584900  0.561700  1.0  0.1619
  C  C141  1  0.703900  0.222500  0.275400  1.0  -0.1207
  C  C142  1  0.356200  0.842200  0.309000  1.0  0.1775
  C  C143  1  0.800500  0.399100  0.314500  1.0  0.1621
  C  C144  1  0.136800  0.408500  0.583200  1.0  0.1443
  C  C145  1  0.671100  0.269600  0.315100  1.0  0.1534
  C  C146  1  0.005100  0.572200  0.554900  1.0  -0.1327
  C  C147  1  0.352700  0.398900  0.291900  1.0  0.344
  C  C148  1  0.658000  0.956300  0.943200  1.0  0.3049
  C  C149  1  0.674100  0.720600  0.287400  1.0  0.3563
  C  C150  1  0.330200  0.256600  0.229300  1.0  -0.1173
  C  C151  1  0.293000  0.349800  0.250300  1.0  0.0143
  C  C152  1  0.193900  0.389000  0.231100  1.0  -0.1407
  C  C153  1  0.469900  0.891800  0.922500  1.0  -0.1076
  C  C154  1  0.540000  0.971000  0.937400  1.0  -0.0729
  C  C155  1  0.100300  0.400300  0.063300  1.0  0.1583
  C  C156  1  0.912100  0.489200  0.077100  1.0  -0.1223
  C  C157  1  0.991600  0.555700  0.062200  1.0  -0.0402
  C  C158  1  0.276100  0.217100  0.188700  1.0  0.1637
  C  C159  1  0.932000  0.383300  0.084500  1.0  0.1424
  C  C160  1  0.087500  0.507500  0.054000  1.0  -0.166
  C  C161  1  0.713900  0.767400  0.246700  1.0  -0.0172
  C  C162  1  0.970200  0.668300  0.056100  1.0  0.3468
  C  C163  1  0.665000  0.857800  0.225000  1.0  -0.1116
  C  C164  1  0.387400  0.084900  0.938300  1.0  0.1601
  C  C165  1  0.796100  0.722500  0.224600  1.0  -0.1206
  C  C166  1  0.143800  0.342200  0.191000  1.0  0.1789
  C  C167  1  0.699500  0.899100  0.185500  1.0  0.1619
  C  C168  1  0.363200  0.908500  0.916800  1.0  0.1415
  C  C169  1  0.828900  0.769600  0.184900  1.0  0.152
  C  C170  1  0.494900  0.072200  0.945100  1.0  -0.1336
  N  N171  1  0.975800  0.066000  0.846400  1.0  -0.131
  N  N172  1  0.527400  0.765800  0.533100  1.0  -0.2929
  N  N173  1  0.900000  0.991100  0.845200  1.0  -0.0124
  N  N174  1  0.945500  0.136800  0.812000  1.0  -0.3201
  N  N175  1  0.679400  0.243200  0.670000  1.0  -0.334
  N  N176  1  0.322900  0.528800  0.460900  1.0  -0.0578
  N  N177  1  0.524800  0.159600  0.579000  1.0  -0.3449
  N  N178  1  0.080000  0.812500  0.841400  1.0  -0.0762
  N  N179  1  0.213000  0.870300  0.807600  1.0  -0.3434
  N  N180  1  0.390200  0.783500  0.574200  1.0  -0.3572
  N  N181  1  0.482000  0.668700  0.536200  1.0  -0.2002
  N  N182  1  0.201400  0.629200  0.423600  1.0  -0.3428
  N  N183  1  0.151800  0.887900  0.842000  1.0  -0.0265
  N  N184  1  0.402000  0.680500  0.561300  1.0  -0.0631
  N  N185  1  0.821400  0.012400  0.812100  1.0  -0.3323
  N  N186  1  0.092300  0.742600  0.808700  1.0  -0.3154
  N  N187  1  0.280800  0.643500  0.664300  1.0  -0.3434
  N  N188  1  0.230300  0.481200  0.466300  1.0  -0.3299
  N  N189  1  0.304700  0.615300  0.436300  1.0  -0.0255
  N  N190  1  0.820600  0.493100  0.422900  1.0  -0.3523
  N  N191  1  0.524200  0.566000  0.653600  1.0  -0.1303
  N  N192  1  0.972600  0.265800  0.966900  1.0  -0.2932
  N  N193  1  0.600000  0.491100  0.654800  1.0  -0.0121
  N  N194  1  0.554500  0.636800  0.688000  1.0  -0.3203
  N  N195  1  0.820600  0.743200  0.830000  1.0  -0.3346
  N  N196  1  0.177100  0.028800  0.039100  1.0  -0.0582
  N  N197  1  0.975200  0.659600  0.921000  1.0  -0.3447
  N  N198  1  0.420000  0.312500  0.658600  1.0  -0.076
  N  N199  1  0.287000  0.370300  0.692400  1.0  -0.3433
  N  N200  1  0.109800  0.283500  0.925800  1.0  -0.3575
  N  N201  1  0.018000  0.168700  0.963800  1.0  -0.2015
  N  N202  1  0.298600  0.129200  0.076400  1.0  -0.3422
  N  N203  1  0.348200  0.387900  0.658000  1.0  -0.0267
  N  N204  1  0.098000  0.180500  0.938700  1.0  -0.0625
  N  N205  1  0.678600  0.512400  0.687900  1.0  -0.3307
  N  N206  1  0.407700  0.242600  0.691300  1.0  -0.314
  N  N207  1  0.219200  0.143500  0.835700  1.0  -0.3438
  N  N208  1  0.269700  0.981200  0.033700  1.0  -0.3304
  N  N209  1  0.195300  0.115300  0.063700  1.0  -0.0265
  N  N210  1  0.679400  0.993100  0.077100  1.0  -0.3542
  N  N211  1  0.024200  0.934000  0.153600  1.0  -0.1308
  N  N212  1  0.472600  0.234200  0.466900  1.0  -0.2933
  N  N213  1  0.100000  0.008900  0.154800  1.0  -0.0118
  N  N214  1  0.054500  0.863200  0.188000  1.0  -0.3202
  N  N215  1  0.320600  0.756800  0.330000  1.0  -0.3338
  N  N216  1  0.677100  0.471200  0.539100  1.0  -0.0582
  N  N217  1  0.475200  0.840400  0.421000  1.0  -0.3444
  N  N218  1  0.920000  0.187500  0.158600  1.0  -0.0758
  N  N219  1  0.787000  0.129700  0.192400  1.0  -0.3443
  N  N220  1  0.609800  0.216500  0.425800  1.0  -0.358
  N  N221  1  0.518000  0.331300  0.463800  1.0  -0.2022
  N  N222  1  0.798600  0.370800  0.576400  1.0  -0.3424
  N  N223  1  0.848200  0.112100  0.158000  1.0  -0.0271
  N  N224  1  0.598000  0.319500  0.438700  1.0  -0.0627
  N  N225  1  0.178600  0.987600  0.187900  1.0  -0.3309
  N  N226  1  0.907700  0.257400  0.191300  1.0  -0.3149
  N  N227  1  0.719200  0.356500  0.335700  1.0  -0.3439
  N  N228  1  0.769700  0.518800  0.533700  1.0  -0.332
  N  N229  1  0.695300  0.384700  0.563700  1.0  -0.0258
  N  N230  1  0.179400  0.506900  0.577100  1.0  -0.3545
  N  N231  1  0.475800  0.434000  0.346400  1.0  -0.1308
  N  N232  1  0.027400  0.734200  0.033100  1.0  -0.2932
  N  N233  1  0.400000  0.508900  0.345200  1.0  -0.0126
  N  N234  1  0.445500  0.363200  0.312000  1.0  -0.3192
  N  N235  1  0.179400  0.256800  0.170000  1.0  -0.3346
  N  N236  1  0.822900  0.971200  0.960900  1.0  -0.0586
  N  N237  1  0.024800  0.340400  0.079000  1.0  -0.3442
  N  N238  1  0.580000  0.687500  0.341400  1.0  -0.0765
  N  N239  1  0.713000  0.629700  0.307600  1.0  -0.3447
  N  N240  1  0.890200  0.716500  0.074200  1.0  -0.3569
  N  N241  1  0.982000  0.831300  0.036200  1.0  -0.2015
  N  N242  1  0.701400  0.870800  0.923600  1.0  -0.3439
  N  N243  1  0.651800  0.612100  0.342000  1.0  -0.0272
  N  N244  1  0.902000  0.819500  0.061300  1.0  -0.0628
  N  N245  1  0.321400  0.487600  0.312100  1.0  -0.3311
  N  N246  1  0.592300  0.757400  0.308700  1.0  -0.3152
  N  N247  1  0.780800  0.856500  0.164300  1.0  -0.3426
  N  N248  1  0.730300  0.018800  0.966300  1.0  -0.3312
  N  N249  1  0.804700  0.884700  0.936300  1.0  -0.0242
  N  N250  1  0.320600  0.006900  0.922900  1.0  -0.3522
  O  O251  1  0.442000  0.428100  0.563600  1.0  -0.7905
  O  O252  1  0.058000  0.928100  0.936400  1.0  -0.7893
  O  O253  1  0.558000  0.571900  0.436400  1.0  -0.7886
  O  O254  1  0.942000  0.071900  0.063600  1.0  -0.7897
