# generated using pymatgen
data_ZnH2(CN2)5
_symmetry_space_group_name_H-M   'P 1'
_cell_length_a   8.64290000
_cell_length_b   8.88480000
_cell_length_c   15.45040000
_cell_angle_alpha   90.00000000
_cell_angle_beta   90.00000000
_cell_angle_gamma   90.00000000
_symmetry_Int_Tables_number   1
_chemical_formula_structural   ZnH2(CN2)5
_chemical_formula_sum   'Zn4 H8 C20 N40'
_cell_volume   1186.44298204
_cell_formula_units_Z   4
loop_
 _symmetry_equiv_pos_site_id
 _symmetry_equiv_pos_as_xyz
  1  'x, y, z'
loop_
 _atom_site_type_symbol
 _atom_site_label
 _atom_site_symmetry_multiplicity
 _atom_site_fract_x
 _atom_site_fract_y
 _atom_site_fract_z
 _atom_site_occupancy
 _atom_site_charge
  Zn  Zn1  1  0.451480  0.255480  0.873540  1.0  0.6964
  Zn  Zn2  1  0.048520  0.744520  0.373540  1.0  0.6967
  Zn  Zn3  1  0.548520  0.755480  0.626460  1.0  0.6985
  Zn  Zn4  1  0.951480  0.244520  0.126460  1.0  0.697
  H  H5  1  0.056000  0.146000  0.833000  1.0  0.1422
  H  H6  1  0.459830  0.479050  0.296050  1.0  0.2431
  H  H7  1  0.444000  0.854000  0.333000  1.0  0.1421
  H  H8  1  0.040170  0.520950  0.796050  1.0  0.2424
  H  H9  1  0.944000  0.646000  0.667000  1.0  0.1416
  H  H10  1  0.540170  0.979050  0.203950  1.0  0.2429
  H  H11  1  0.556000  0.354000  0.167000  1.0  0.1415
  H  H12  1  0.959830  0.020950  0.703950  1.0  0.2444
  C  C13  1  0.120800  0.127300  0.789300  1.0  0.2544
  C  C14  1  0.218300  0.989800  0.683100  1.0  0.0352
  C  C15  1  0.218200  0.905200  0.602500  1.0  0.3274
  C  C16  1  0.335200  0.045600  0.733800  1.0  0.0853
  C  C17  1  0.501600  0.038100  0.732500  1.0  0.2766
  C  C18  1  0.379200  0.872700  0.289300  1.0  0.2542
  C  C19  1  0.281700  0.010200  0.183100  1.0  0.0346
  C  C20  1  0.281800  0.094800  0.102500  1.0  0.3268
  C  C21  1  0.164800  0.954400  0.233800  1.0  0.0845
  C  C22  1  0.998400  0.961900  0.232500  1.0  0.2778
  C  C23  1  0.879200  0.627300  0.710700  1.0  0.2542
  C  C24  1  0.781700  0.489800  0.816900  1.0  0.0364
  C  C25  1  0.781800  0.405200  0.897500  1.0  0.3276
  C  C26  1  0.664800  0.545600  0.766200  1.0  0.0847
  C  C27  1  0.498400  0.538100  0.767500  1.0  0.278
  C  C28  1  0.620800  0.372700  0.210700  1.0  0.2549
  C  C29  1  0.718300  0.510200  0.316900  1.0  0.0356
  C  C30  1  0.718200  0.594800  0.397500  1.0  0.3274
  C  C31  1  0.835200  0.454400  0.266200  1.0  0.0853
  C  C32  1  0.001600  0.461900  0.267500  1.0  0.2765
  N  N33  1  0.273200  0.132900  0.800200  1.0  -0.3886
  N  N34  1  0.083200  0.040100  0.720600  1.0  -0.0781
  N  N35  1  0.094800  0.892600  0.552500  1.0  -0.327
  N  N36  1  0.148000  0.810400  0.486500  1.0  0.0224
  N  N37  1  0.293500  0.775900  0.495400  1.0  -0.1159
  N  N38  1  0.341400  0.834500  0.570200  1.0  -0.2985
  N  N39  1  0.579000  0.128700  0.786000  1.0  -0.2473
  N  N40  1  0.730700  0.099600  0.773400  1.0  -0.1358
  N  N41  1  0.743000  0.993500  0.714200  1.0  -0.1906
  N  N42  1  0.598400  0.954000  0.686900  1.0  -0.3046
  N  N43  1  0.226800  0.867100  0.300200  1.0  -0.389
  N  N44  1  0.416800  0.959900  0.220600  1.0  -0.0762
  N  N45  1  0.405200  0.107400  0.052500  1.0  -0.3277
  N  N46  1  0.352000  0.189600  0.986500  1.0  0.0229
  N  N47  1  0.206500  0.224100  0.995400  1.0  -0.1138
  N  N48  1  0.158600  0.165500  0.070200  1.0  -0.2972
  N  N49  1  0.921000  0.871300  0.286000  1.0  -0.2473
  N  N50  1  0.769300  0.900400  0.273400  1.0  -0.1364
  N  N51  1  0.757000  0.006500  0.214200  1.0  -0.189
  N  N52  1  0.901600  0.046000  0.186900  1.0  -0.3042
  N  N53  1  0.726800  0.632900  0.699800  1.0  -0.3882
  N  N54  1  0.916800  0.540100  0.779400  1.0  -0.076
  N  N55  1  0.905200  0.392600  0.947500  1.0  -0.3286
  N  N56  1  0.852000  0.310400  0.013500  1.0  0.0226
  N  N57  1  0.706500  0.275900  0.004600  1.0  -0.1165
  N  N58  1  0.658600  0.334500  0.929800  1.0  -0.297
  N  N59  1  0.421000  0.628700  0.714000  1.0  -0.2468
  N  N60  1  0.269300  0.599600  0.726600  1.0  -0.1359
  N  N61  1  0.257000  0.493500  0.785800  1.0  -0.1941
  N  N62  1  0.401600  0.454000  0.813100  1.0  -0.3015
  N  N63  1  0.773200  0.367100  0.199800  1.0  -0.3884
  N  N64  1  0.583200  0.459900  0.279400  1.0  -0.0775
  N  N65  1  0.594800  0.607400  0.447500  1.0  -0.326
  N  N66  1  0.648000  0.689600  0.513500  1.0  0.0227
  N  N67  1  0.793500  0.724100  0.504600  1.0  -0.1144
  N  N68  1  0.841400  0.665500  0.429800  1.0  -0.2968
  N  N69  1  0.079000  0.371300  0.214000  1.0  -0.2476
  N  N70  1  0.230700  0.400400  0.226600  1.0  -0.1355
  N  N71  1  0.243000  0.506500  0.285800  1.0  -0.1941
  N  N72  1  0.098400  0.546000  0.313100  1.0  -0.3049
