# generated using pymatgen
data_Mn2H3CS(NO)5
_symmetry_space_group_name_H-M   'P 1'
_cell_length_a   6.91280000
_cell_length_b   9.24000000
_cell_length_c   16.09500000
_cell_angle_alpha   90.00000000
_cell_angle_beta   90.00000000
_cell_angle_gamma   90.00000000
_symmetry_Int_Tables_number   1
_chemical_formula_structural   Mn2H3CS(NO)5
_chemical_formula_sum   'Mn8 H12 C4 S4 N20 O20'
_cell_volume   1028.05640784
_cell_formula_units_Z   4
loop_
 _symmetry_equiv_pos_site_id
 _symmetry_equiv_pos_as_xyz
  1  'x, y, z'
loop_
 _atom_site_type_symbol
 _atom_site_label
 _atom_site_symmetry_multiplicity
 _atom_site_fract_x
 _atom_site_fract_y
 _atom_site_fract_z
 _atom_site_occupancy
 _atom_site_charge
  Mn  Mn1  1  0.750000  0.197790  0.165210  1.0  1.0943
  Mn  Mn2  1  0.250000  0.302210  0.665210  1.0  1.0953
  Mn  Mn3  1  0.250000  0.802210  0.834790  1.0  1.0942
  Mn  Mn4  1  0.750000  0.697790  0.334790  1.0  1.0934
  Mn  Mn5  1  0.500000  0.500000  0.500000  1.0  0.9733
  Mn  Mn6  1  0.500000  0.000000  0.000000  1.0  0.9733
  Mn  Mn7  1  0.000000  0.500000  0.500000  1.0  0.9733
  Mn  Mn8  1  0.000000  0.000000  0.000000  1.0  0.9733
  H  H9  1  0.142300  0.366700  0.287900  1.0  0.3516
  H  H10  1  0.857700  0.133300  0.787900  1.0  0.3534
  H  H11  1  0.642300  0.633300  0.712100  1.0  0.3517
  H  H12  1  0.357700  0.866700  0.212100  1.0  0.3529
  H  H13  1  0.857700  0.633300  0.712100  1.0  0.3531
  H  H14  1  0.142300  0.866700  0.212100  1.0  0.3515
  H  H15  1  0.357700  0.366700  0.287900  1.0  0.3531
  H  H16  1  0.642300  0.133300  0.787900  1.0  0.352
  H  H17  1  0.750000  0.205000  0.009000  1.0  0.4546
  H  H18  1  0.250000  0.295000  0.509000  1.0  0.4543
  H  H19  1  0.250000  0.795000  0.991000  1.0  0.4552
  H  H20  1  0.750000  0.705000  0.491000  1.0  0.4555
  C  C21  1  0.250000  0.247000  0.200400  1.0  0.6375
  C  C22  1  0.750000  0.253000  0.700400  1.0  0.6377
  C  C23  1  0.750000  0.753000  0.799600  1.0  0.6376
  C  C24  1  0.250000  0.747000  0.299600  1.0  0.6372
  S  S25  1  0.750000  0.336810  0.355260  1.0  1.635
  S  S26  1  0.250000  0.163190  0.855260  1.0  1.6345
  S  S27  1  0.250000  0.663190  0.644740  1.0  1.6344
  S  S28  1  0.750000  0.836810  0.144740  1.0  1.6351
  N  N29  1  0.343400  0.118700  0.100190  1.0  -0.0346
  N  N30  1  0.411000  0.198800  0.162980  1.0  -0.4178
  N  N31  1  0.656600  0.381300  0.600190  1.0  -0.0353
  N  N32  1  0.589000  0.301200  0.662980  1.0  -0.4171
  N  N33  1  0.843400  0.881300  0.899810  1.0  -0.0355
  N  N34  1  0.911000  0.801200  0.837020  1.0  -0.4182
  N  N35  1  0.156600  0.618700  0.399810  1.0  -0.0343
  N  N36  1  0.089000  0.698800  0.337020  1.0  -0.4167
  N  N37  1  0.656600  0.881300  0.899810  1.0  -0.0353
  N  N38  1  0.589000  0.801200  0.837020  1.0  -0.4166
  N  N39  1  0.343400  0.618700  0.399810  1.0  -0.0345
  N  N40  1  0.411000  0.698800  0.337020  1.0  -0.4177
  N  N41  1  0.156600  0.118700  0.100190  1.0  -0.0342
  N  N42  1  0.089000  0.198800  0.162980  1.0  -0.4168
  N  N43  1  0.843400  0.381300  0.600190  1.0  -0.0358
  N  N44  1  0.911000  0.301200  0.662980  1.0  -0.4185
  N  N45  1  0.250000  0.337200  0.267200  1.0  -0.7357
  N  N46  1  0.750000  0.162800  0.767200  1.0  -0.7363
  N  N47  1  0.750000  0.662800  0.732800  1.0  -0.7353
  N  N48  1  0.250000  0.837200  0.232800  1.0  -0.735
  O  O49  1  0.576600  0.332300  0.407920  1.0  -0.7304
  O  O50  1  0.423400  0.167700  0.907920  1.0  -0.7304
  O  O51  1  0.076600  0.667700  0.592080  1.0  -0.7315
  O  O52  1  0.923400  0.832300  0.092080  1.0  -0.7302
  O  O53  1  0.423400  0.667700  0.592080  1.0  -0.731
  O  O54  1  0.576600  0.832300  0.092080  1.0  -0.73
  O  O55  1  0.923400  0.332300  0.407920  1.0  -0.7307
  O  O56  1  0.076600  0.167700  0.907920  1.0  -0.7309
  O  O57  1  0.750000  0.469200  0.304600  1.0  -0.7483
  O  O58  1  0.750000  0.210700  0.299200  1.0  -0.7111
  O  O59  1  0.750000  0.126200  0.034980  1.0  -0.9382
  O  O60  1  0.250000  0.030800  0.804600  1.0  -0.7489
  O  O61  1  0.250000  0.289300  0.799200  1.0  -0.7131
  O  O62  1  0.250000  0.373800  0.534980  1.0  -0.9373
  O  O63  1  0.250000  0.530800  0.695400  1.0  -0.7493
  O  O64  1  0.250000  0.789300  0.700800  1.0  -0.7126
  O  O65  1  0.250000  0.873800  0.965020  1.0  -0.9355
  O  O66  1  0.750000  0.969200  0.195400  1.0  -0.7494
  O  O67  1  0.750000  0.710700  0.200800  1.0  -0.711
  O  O68  1  0.750000  0.626200  0.465020  1.0  -0.9374
