# generated using pymatgen
data_Ni3H29C35NO13
_symmetry_space_group_name_H-M   'P 1'
_cell_length_a   24.27400000
_cell_length_b   25.63400000
_cell_length_c   11.08980000
_cell_angle_alpha   90.00000000
_cell_angle_beta   114.92400000
_cell_angle_gamma   90.00000000
_symmetry_Int_Tables_number   1
_chemical_formula_structural   Ni3H29C35NO13
_chemical_formula_sum   'Ni12 H116 C140 N4 O52'
_cell_volume   6257.85237660
_cell_formula_units_Z   4
loop_
 _symmetry_equiv_pos_site_id
 _symmetry_equiv_pos_as_xyz
  1  'x, y, z'
loop_
 _atom_site_type_symbol
 _atom_site_label
 _atom_site_symmetry_multiplicity
 _atom_site_fract_x
 _atom_site_fract_y
 _atom_site_fract_z
 _atom_site_occupancy
 _atom_site_charge
  Ni  Ni1  1  0.743940  0.420560  0.020150  1.0  0.7306
  Ni  Ni2  1  0.755790  0.461720  0.482340  1.0  0.8751
  Ni  Ni3  1  0.749080  0.439080  0.749800  1.0  0.8596
  Ni  Ni4  1  0.243940  0.920560  0.020150  1.0  0.7306
  Ni  Ni5  1  0.255790  0.961720  0.482340  1.0  0.8751
  Ni  Ni6  1  0.249080  0.939080  0.749800  1.0  0.8596
  Ni  Ni7  1  0.256060  0.420560  0.979850  1.0  0.7375
  Ni  Ni8  1  0.244210  0.461720  0.517660  1.0  0.871
  Ni  Ni9  1  0.250920  0.439080  0.250200  1.0  0.8591
  Ni  Ni10  1  0.756060  0.920560  0.979850  1.0  0.7375
  Ni  Ni11  1  0.744210  0.961720  0.517660  1.0  0.871
  Ni  Ni12  1  0.750920  0.939080  0.250200  1.0  0.8591
  H  H13  1  0.486900  0.093600  0.635300  1.0  0.1199
  H  H14  1  0.551100  0.252900  0.439900  1.0  0.1109
  H  H15  1  0.942200  0.625700  0.060400  1.0  0.1104
  H  H16  1  0.019500  0.789100  0.851600  1.0  0.1729
  H  H17  1  0.914400  0.679700  0.691600  1.0  0.1453
  H  H18  1  0.577200  0.209300  0.797800  1.0  0.1188
  H  H19  1  0.647000  0.277600  0.895500  1.0  0.1329
  H  H20  1  0.869400  0.601200  0.609700  1.0  0.1298
  H  H21  1  0.884500  0.559400  0.975200  1.0  0.1223
  H  H22  1  0.619200  0.327100  0.535500  1.0  0.1385
  H  H23  1  0.723300  0.505500  0.898700  1.0  0.1806
  H  H24  1  0.666000  0.468800  0.828400  1.0  0.1786
  H  H25  1  0.959700  0.864600  0.741000  1.0  0.1228
  H  H26  1  0.524100  0.019500  0.758100  1.0  0.1565
  H  H27  1  0.814600  0.812700  0.752100  1.0  0.149
  H  H28  1  0.683200  0.506300  0.574500  1.0  0.1805
  H  H29  1  0.656800  0.449800  0.522700  1.0  0.3476
  H  H30  1  0.803700  0.361700  0.918900  1.0  0.1983
  H  H31  1  0.842800  0.413200  0.976300  1.0  0.3144
  H  H32  1  0.688700  0.056000  0.746500  1.0  0.1466
  H  H33  1  0.645100  0.138200  0.625000  1.0  0.2259
  H  H34  1  0.877200  0.483300  0.426500  1.0  0.1073
  H  H35  1  0.889400  0.467200  0.572400  1.0  0.1264
  H  H36  1  0.862500  0.743300  0.856200  1.0  0.0918
  H  H37  1  0.965300  0.425100  0.543900  1.0  0.1142
  H  H38  1  0.922100  0.409000  0.395800  1.0  0.1312
  H  H39  1  0.811800  0.350500  0.425700  1.0  0.1417
  H  H40  1  0.923500  0.365900  0.632000  1.0  0.1178
  H  H41  1  0.908900  0.336100  0.497700  1.0  0.1247
  H  H42  1  0.986900  0.593600  0.635300  1.0  0.1199
  H  H43  1  0.051100  0.752900  0.439900  1.0  0.1109
  H  H44  1  0.442200  0.125700  0.060400  1.0  0.1104
  H  H45  1  0.519500  0.289100  0.851600  1.0  0.1729
  H  H46  1  0.414400  0.179700  0.691600  1.0  0.1453
  H  H47  1  0.077200  0.709300  0.797800  1.0  0.1189
  H  H48  1  0.147000  0.777600  0.895500  1.0  0.1329
  H  H49  1  0.369400  0.101200  0.609700  1.0  0.1298
  H  H50  1  0.384500  0.059400  0.975200  1.0  0.1223
  H  H51  1  0.119200  0.827100  0.535500  1.0  0.1385
  H  H52  1  0.223300  0.005500  0.898700  1.0  0.1806
  H  H53  1  0.166000  0.968800  0.828400  1.0  0.1812
  H  H54  1  0.459700  0.364600  0.741000  1.0  0.1228
  H  H55  1  0.024100  0.519500  0.758100  1.0  0.1565
  H  H56  1  0.314600  0.312700  0.752100  1.0  0.149
  H  H57  1  0.183200  0.006300  0.574500  1.0  0.1805
  H  H58  1  0.156800  0.949800  0.522700  1.0  0.3476
  H  H59  1  0.303700  0.861700  0.918900  1.0  0.1983
  H  H60  1  0.342800  0.913200  0.976300  1.0  0.3144
  H  H61  1  0.188700  0.556000  0.746500  1.0  0.1466
  H  H62  1  0.145100  0.638200  0.625000  1.0  0.2259
  H  H63  1  0.377200  0.983300  0.426500  1.0  0.1073
  H  H64  1  0.389400  0.967200  0.572400  1.0  0.1264
  H  H65  1  0.362500  0.243300  0.856200  1.0  0.0918
  H  H66  1  0.465300  0.925100  0.543900  1.0  0.1142
  H  H67  1  0.422100  0.909000  0.395800  1.0  0.1312
  H  H68  1  0.311800  0.850500  0.425700  1.0  0.1417
  H  H69  1  0.423500  0.865900  0.632000  1.0  0.1178
  H  H70  1  0.408900  0.836100  0.497700  1.0  0.1247
  H  H71  1  0.513100  0.093600  0.364700  1.0  0.1209
  H  H72  1  0.448900  0.252900  0.560100  1.0  0.111
  H  H73  1  0.057800  0.625700  0.939600  1.0  0.1101
  H  H74  1  0.980500  0.789100  0.148400  1.0  0.1747
  H  H75  1  0.085600  0.679700  0.308400  1.0  0.1442
  H  H76  1  0.422800  0.209300  0.202200  1.0  0.1185
  H  H77  1  0.353000  0.277600  0.104500  1.0  0.1332
  H  H78  1  0.130600  0.601200  0.390300  1.0  0.1294
  H  H79  1  0.115500  0.559400  0.024800  1.0  0.122
  H  H80  1  0.380800  0.327100  0.464500  1.0  0.1385
  H  H81  1  0.276700  0.505500  0.101300  1.0  0.1804
  H  H82  1  0.334000  0.468800  0.171600  1.0  0.1772
  H  H83  1  0.040300  0.864600  0.259000  1.0  0.1216
  H  H84  1  0.475900  0.019500  0.241900  1.0  0.156
  H  H85  1  0.185400  0.812700  0.247900  1.0  0.1483
  H  H86  1  0.316800  0.506300  0.425500  1.0  0.1804
  H  H87  1  0.343200  0.449800  0.477300  1.0  0.3464
  H  H88  1  0.196300  0.361700  0.081100  1.0  0.1972
  H  H89  1  0.157200  0.413200  0.023700  1.0  0.3183
  H  H90  1  0.311300  0.056000  0.253500  1.0  0.1454
  H  H91  1  0.354900  0.138200  0.375000  1.0  0.2244
  H  H92  1  0.122800  0.483300  0.573500  1.0  0.1061
  H  H93  1  0.110600  0.467200  0.427600  1.0  0.1264
  H  H94  1  0.137500  0.743300  0.143800  1.0  0.0907
  H  H95  1  0.034700  0.425100  0.456100  1.0  0.1129
  H  H96  1  0.077900  0.409000  0.604200  1.0  0.1296
  H  H97  1  0.188200  0.350500  0.574300  1.0  0.1437
  H  H98  1  0.076500  0.365900  0.368000  1.0  0.1169
  H  H99  1  0.091100  0.336100  0.502300  1.0  0.1253
  H  H100  1  0.013100  0.593600  0.364700  1.0  0.1208
  H  H101  1  0.948900  0.752900  0.560100  1.0  0.111
  H  H102  1  0.557800  0.125700  0.939600  1.0  0.1101
  H  H103  1  0.480500  0.289100  0.148400  1.0  0.1747
  H  H104  1  0.585600  0.179700  0.308400  1.0  0.1442
  H  H105  1  0.922800  0.709300  0.202200  1.0  0.1187
  H  H106  1  0.853000  0.777600  0.104500  1.0  0.1332
  H  H107  1  0.630600  0.101200  0.390300  1.0  0.1294
  H  H108  1  0.615500  0.059400  0.024800  1.0  0.122
  H  H109  1  0.880800  0.827100  0.464500  1.0  0.1385
  H  H110  1  0.776700  0.005500  0.101300  1.0  0.1804
  H  H111  1  0.834000  0.968800  0.171600  1.0  0.1801
  H  H112  1  0.540300  0.364600  0.259000  1.0  0.1216
  H  H113  1  0.975900  0.519500  0.241900  1.0  0.156
  H  H114  1  0.685400  0.312700  0.247900  1.0  0.1483
  H  H115  1  0.816800  0.006300  0.425500  1.0  0.1804
  H  H116  1  0.843200  0.949800  0.477300  1.0  0.3464
  H  H117  1  0.696300  0.861700  0.081100  1.0  0.1972
  H  H118  1  0.657200  0.913200  0.023700  1.0  0.3183
  H  H119  1  0.811300  0.556000  0.253500  1.0  0.1454
  H  H120  1  0.854900  0.638200  0.375000  1.0  0.2244
  H  H121  1  0.622800  0.983300  0.573500  1.0  0.1061
  H  H122  1  0.610600  0.967200  0.427600  1.0  0.1264
  H  H123  1  0.637500  0.243300  0.143800  1.0  0.0907
  H  H124  1  0.534700  0.925100  0.456100  1.0  0.1129
  H  H125  1  0.577900  0.909000  0.604200  1.0  0.1296
  H  H126  1  0.688200  0.850500  0.574300  1.0  0.1437
  H  H127  1  0.576500  0.865900  0.368000  1.0  0.1169
  H  H128  1  0.591100  0.836100  0.502300  1.0  0.1253
  C  C129  1  0.527800  0.086900  0.658900  1.0  -0.0603
  C  C130  1  0.976900  0.712300  0.948900  1.0  0.2381
  C  C131  1  0.525100  0.174000  0.549800  1.0  0.1299
  C  C132  1  0.554300  0.122500  0.617300  1.0  0.0449
  C  C133  1  0.943300  0.757300  0.874100  1.0  0.1273
  C  C134  1  0.570900  0.257100  0.531600  1.0  -0.0609
  C  C135  1  0.925600  0.622100  0.968400  1.0  -0.0745
  C  C136  1  0.563100  0.222400  0.610500  1.0  0.1063
  C  C137  1  0.978900  0.793300  0.835000  1.0  -0.1191
  C  C138  1  0.911400  0.654100  0.748200  1.0  -0.1492
  C  C139  1  0.634600  0.305600  0.726800  1.0  0.1003
  C  C140  1  0.885000  0.845800  0.731300  1.0  0.1147
  C  C141  1  0.939600  0.661600  0.894400  1.0  0.0115
  C  C142  1  0.864500  0.570400  0.778700  1.0  -0.0588
  C  C143  1  0.587300  0.231500  0.743900  1.0  -0.0785
  C  C144  1  0.627300  0.273800  0.803600  1.0  -0.0454
  C  C145  1  0.880800  0.608600  0.699100  1.0  -0.0503
  C  C146  1  0.612000  0.029400  0.760700  1.0  0.0747
  C  C147  1  0.891700  0.582100  0.917900  1.0  -0.0654
  C  C148  1  0.610800  0.302700  0.587400  1.0  -0.0529
  C  C149  1  0.939800  0.838100  0.764300  1.0  -0.0694
  C  C150  1  0.548200  0.040600  0.731400  1.0  -0.0756
  C  C151  1  0.673500  0.351500  0.784500  1.0  0.5867
  C  C152  1  0.855500  0.808700  0.771000  1.0  -0.1124
  C  C153  1  0.648300  0.064300  0.724000  1.0  -0.0462
  C  C154  1  0.622400  0.114600  0.649200  1.0  -0.0367
  C  C155  1  0.817400  0.366600  0.611100  1.0  0.3062
  C  C156  1  0.878400  0.454100  0.483100  1.0  0.046
  C  C157  1  0.885100  0.768100  0.835000  1.0  -0.0316
  C  C158  1  0.924300  0.415100  0.484100  1.0  -0.0806
  C  C159  1  0.833600  0.376400  0.494300  1.0  0.0359
  C  C160  1  0.902100  0.368100  0.536000  1.0  -0.1361
  C  C161  1  0.824600  0.523900  0.723200  1.0  0.7292
  C  C162  1  0.646100  0.987000  0.840200  1.0  0.1792
  C  C163  1  0.864300  0.900900  0.650200  1.0  0.2941
  C  C164  1  0.027800  0.586900  0.658900  1.0  -0.0603
  C  C165  1  0.476900  0.212300  0.948900  1.0  0.2381
  C  C166  1  0.025100  0.674000  0.549800  1.0  0.1299
  C  C167  1  0.054300  0.622500  0.617300  1.0  0.0449
  C  C168  1  0.443300  0.257300  0.874100  1.0  0.1273
  C  C169  1  0.070900  0.757100  0.531600  1.0  -0.0609
  C  C170  1  0.425600  0.122100  0.968400  1.0  -0.0745
  C  C171  1  0.063100  0.722400  0.610500  1.0  0.1063
  C  C172  1  0.478900  0.293300  0.835000  1.0  -0.1191
  C  C173  1  0.411400  0.154100  0.748200  1.0  -0.1492
  C  C174  1  0.134600  0.805600  0.726800  1.0  0.1003
  C  C175  1  0.385000  0.345800  0.731300  1.0  0.1147
  C  C176  1  0.439600  0.161600  0.894400  1.0  0.0115
  C  C177  1  0.364500  0.070400  0.778700  1.0  -0.0588
  C  C178  1  0.087300  0.731500  0.743900  1.0  -0.0785
  C  C179  1  0.127300  0.773800  0.803600  1.0  -0.0454
  C  C180  1  0.380800  0.108600  0.699100  1.0  -0.0503
  C  C181  1  0.112000  0.529400  0.760700  1.0  0.0747
  C  C182  1  0.391700  0.082100  0.917900  1.0  -0.0654
  C  C183  1  0.110800  0.802700  0.587400  1.0  -0.0529
  C  C184  1  0.439800  0.338100  0.764300  1.0  -0.0694
  C  C185  1  0.048200  0.540600  0.731400  1.0  -0.0756
  C  C186  1  0.173500  0.851500  0.784500  1.0  0.5867
  C  C187  1  0.355500  0.308700  0.771000  1.0  -0.1124
  C  C188  1  0.148300  0.564300  0.724000  1.0  -0.0462
  C  C189  1  0.122400  0.614600  0.649200  1.0  -0.0367
  C  C190  1  0.317400  0.866600  0.611100  1.0  0.3062
  C  C191  1  0.378400  0.954100  0.483100  1.0  0.046
  C  C192  1  0.385100  0.268100  0.835000  1.0  -0.0316
  C  C193  1  0.424300  0.915100  0.484100  1.0  -0.0806
  C  C194  1  0.333600  0.876400  0.494300  1.0  0.0359
  C  C195  1  0.402100  0.868100  0.536000  1.0  -0.1361
  C  C196  1  0.324600  0.023900  0.723200  1.0  0.7292
  C  C197  1  0.146100  0.487000  0.840200  1.0  0.1792
  C  C198  1  0.364300  0.400900  0.650200  1.0  0.2941
  C  C199  1  0.472200  0.086900  0.341100  1.0  -0.0611
  C  C200  1  0.023100  0.712300  0.051100  1.0  0.2381
  C  C201  1  0.474900  0.174000  0.450200  1.0  0.1299
  C  C202  1  0.445700  0.122500  0.382700  1.0  0.046
  C  C203  1  0.056700  0.757300  0.125900  1.0  0.129
  C  C204  1  0.429100  0.257100  0.468400  1.0  -0.0613
  C  C205  1  0.074400  0.622100  0.031600  1.0  -0.075
  C  C206  1  0.436900  0.222400  0.389500  1.0  0.106
  C  C207  1  0.021100  0.793300  0.165000  1.0  -0.1215
  C  C208  1  0.088600  0.654100  0.251800  1.0  -0.1509
  C  C209  1  0.365400  0.305600  0.273200  1.0  0.102
  C  C210  1  0.115000  0.845800  0.268700  1.0  0.1198
  C  C211  1  0.060400  0.661600  0.105600  1.0  0.013
  C  C212  1  0.135500  0.570400  0.221300  1.0  -0.0596
  C  C213  1  0.412700  0.231500  0.256100  1.0  -0.0803
  C  C214  1  0.372700  0.273800  0.196400  1.0  -0.0486
  C  C215  1  0.119200  0.608600  0.300900  1.0  -0.0495
  C  C216  1  0.388000  0.029400  0.239300  1.0  0.075
  C  C217  1  0.108300  0.582100  0.082100  1.0  -0.0669
  C  C218  1  0.389200  0.302700  0.412600  1.0  -0.0546
  C  C219  1  0.060200  0.838100  0.235700  1.0  -0.0714
  C  C220  1  0.451800  0.040600  0.268600  1.0  -0.0758
  C  C221  1  0.326500  0.351500  0.215500  1.0  0.5876
  C  C222  1  0.144500  0.808700  0.229000  1.0  -0.1124
  C  C223  1  0.351700  0.064300  0.276000  1.0  -0.05
  C  C224  1  0.377600  0.114600  0.350800  1.0  -0.0355
  C  C225  1  0.182600  0.366600  0.388900  1.0  0.3093
  C  C226  1  0.121600  0.454100  0.516900  1.0  0.0458
  C  C227  1  0.114900  0.768100  0.165000  1.0  -0.0312
  C  C228  1  0.075700  0.415100  0.515900  1.0  -0.0786
  C  C229  1  0.166400  0.376400  0.505700  1.0  0.038
  C  C230  1  0.097900  0.368100  0.464000  1.0  -0.1359
  C  C231  1  0.175400  0.523900  0.276800  1.0  0.7287
  C  C232  1  0.353900  0.987000  0.159800  1.0  0.1771
  C  C233  1  0.135700  0.900900  0.349800  1.0  0.2937
  C  C234  1  0.972200  0.586900  0.341100  1.0  -0.0611
  C  C235  1  0.523100  0.212300  0.051100  1.0  0.2381
  C  C236  1  0.974900  0.674000  0.450200  1.0  0.1299
  C  C237  1  0.945700  0.622500  0.382700  1.0  0.046
  C  C238  1  0.556700  0.257300  0.125900  1.0  0.129
  C  C239  1  0.929100  0.757100  0.468400  1.0  -0.0613
  C  C240  1  0.574400  0.122100  0.031600  1.0  -0.075
  C  C241  1  0.936900  0.722400  0.389500  1.0  0.106
  C  C242  1  0.521100  0.293300  0.165000  1.0  -0.1215
  C  C243  1  0.588600  0.154100  0.251800  1.0  -0.1509
  C  C244  1  0.865400  0.805600  0.273200  1.0  0.102
  C  C245  1  0.615000  0.345800  0.268700  1.0  0.1198
  C  C246  1  0.560400  0.161600  0.105600  1.0  0.013
  C  C247  1  0.635500  0.070400  0.221300  1.0  -0.0596
  C  C248  1  0.912700  0.731500  0.256100  1.0  -0.0803
  C  C249  1  0.872700  0.773800  0.196400  1.0  -0.0486
  C  C250  1  0.619200  0.108600  0.300900  1.0  -0.0495
  C  C251  1  0.888000  0.529400  0.239300  1.0  0.075
  C  C252  1  0.608300  0.082100  0.082100  1.0  -0.0669
  C  C253  1  0.889200  0.802700  0.412600  1.0  -0.0546
  C  C254  1  0.560200  0.338100  0.235700  1.0  -0.0714
  C  C255  1  0.951800  0.540600  0.268600  1.0  -0.0758
  C  C256  1  0.826500  0.851500  0.215500  1.0  0.5876
  C  C257  1  0.644500  0.308700  0.229000  1.0  -0.1124
  C  C258  1  0.851700  0.564300  0.276000  1.0  -0.05
  C  C259  1  0.877600  0.614600  0.350800  1.0  -0.0355
  C  C260  1  0.682600  0.866600  0.388900  1.0  0.3093
  C  C261  1  0.621600  0.954100  0.516900  1.0  0.0458
  C  C262  1  0.614900  0.268100  0.165000  1.0  -0.0312
  C  C263  1  0.575700  0.915100  0.515900  1.0  -0.0786
  C  C264  1  0.666400  0.876400  0.505700  1.0  0.038
  C  C265  1  0.597900  0.868100  0.464000  1.0  -0.1359
  C  C266  1  0.675400  0.023900  0.276800  1.0  0.7287
  C  C267  1  0.853900  0.487000  0.159800  1.0  0.1771
  C  C268  1  0.635700  0.400900  0.349800  1.0  0.2937
  N  N269  1  0.817400  0.428600  0.432200  1.0  -0.4316
  N  N270  1  0.317400  0.928600  0.432200  1.0  -0.4316
  N  N271  1  0.182600  0.428600  0.567800  1.0  -0.4277
  N  N272  1  0.682600  0.928600  0.567800  1.0  -0.4277
  O  O273  1  0.699200  0.377300  0.713700  1.0  -0.5775
  O  O274  1  0.817600  0.496300  0.798300  1.0  -0.4988
  O  O275  1  0.688500  0.360600  0.910900  1.0  -0.572
  O  O276  1  0.809100  0.514800  0.597400  1.0  -0.588
  O  O277  1  0.710000  0.470100  0.871200  1.0  -0.843
  O  O278  1  0.693500  0.470100  0.568400  1.0  -0.834
  O  O279  1  0.802100  0.399100  0.930500  1.0  -0.7657
  O  O280  1  0.827500  0.331400  0.671300  1.0  -0.3785
  O  O281  1  0.784500  0.399800  0.638900  1.0  -0.6492
  O  O282  1  0.621400  0.960000  0.903700  1.0  -0.6058
  O  O283  1  0.685300  0.970500  0.848400  1.0  -0.6247
  O  O284  1  0.895800  0.925500  0.623800  1.0  -0.5057
  O  O285  1  0.794400  0.900700  0.635700  1.0  -0.7651
  O  O286  1  0.199200  0.877300  0.713700  1.0  -0.5775
  O  O287  1  0.317600  0.996300  0.798300  1.0  -0.4988
  O  O288  1  0.188500  0.860600  0.910900  1.0  -0.572
  O  O289  1  0.309100  0.014800  0.597400  1.0  -0.588
  O  O290  1  0.210000  0.970100  0.871200  1.0  -0.843
  O  O291  1  0.193500  0.970100  0.568400  1.0  -0.834
  O  O292  1  0.302100  0.899100  0.930500  1.0  -0.7657
  O  O293  1  0.327500  0.831400  0.671300  1.0  -0.3772
  O  O294  1  0.284500  0.899800  0.638900  1.0  -0.6492
  O  O295  1  0.121400  0.460000  0.903700  1.0  -0.6058
  O  O296  1  0.185300  0.470500  0.848400  1.0  -0.6247
  O  O297  1  0.395800  0.425500  0.623800  1.0  -0.507
  O  O298  1  0.294400  0.400700  0.635700  1.0  -0.7651
  O  O299  1  0.300800  0.377300  0.286300  1.0  -0.5784
  O  O300  1  0.182400  0.496300  0.201700  1.0  -0.4991
  O  O301  1  0.311500  0.360600  0.089100  1.0  -0.5705
  O  O302  1  0.190900  0.514800  0.402600  1.0  -0.5878
  O  O303  1  0.290000  0.470100  0.128800  1.0  -0.8457
  O  O304  1  0.306500  0.470100  0.431600  1.0  -0.8346
  O  O305  1  0.197900  0.399100  0.069500  1.0  -0.7662
  O  O306  1  0.172500  0.331400  0.328700  1.0  -0.3773
  O  O307  1  0.215500  0.399800  0.361100  1.0  -0.6493
  O  O308  1  0.378600  0.960000  0.096300  1.0  -0.607
  O  O309  1  0.314700  0.970500  0.151600  1.0  -0.6282
  O  O310  1  0.104200  0.925500  0.376200  1.0  -0.5052
  O  O311  1  0.205600  0.900700  0.364300  1.0  -0.766
  O  O312  1  0.800800  0.877300  0.286300  1.0  -0.5784
  O  O313  1  0.682400  0.996300  0.201700  1.0  -0.4991
  O  O314  1  0.811500  0.860600  0.089100  1.0  -0.5705
  O  O315  1  0.690900  0.014800  0.402600  1.0  -0.5878
  O  O316  1  0.790000  0.970100  0.128800  1.0  -0.8457
  O  O317  1  0.806500  0.970100  0.431600  1.0  -0.8346
  O  O318  1  0.697900  0.899100  0.069500  1.0  -0.7662
  O  O319  1  0.672500  0.831400  0.328700  1.0  -0.3766
  O  O320  1  0.715500  0.899800  0.361100  1.0  -0.6493
  O  O321  1  0.878600  0.460000  0.096300  1.0  -0.607
  O  O322  1  0.814700  0.470500  0.151600  1.0  -0.6282
  O  O323  1  0.604200  0.425500  0.376200  1.0  -0.5066
  O  O324  1  0.705600  0.400700  0.364300  1.0  -0.766
