# generated using pymatgen
data_VH6(C3O)6
_symmetry_space_group_name_H-M   'P 1'
_cell_length_a   17.76580000
_cell_length_b   17.76580000
_cell_length_c   17.76580000
_cell_angle_alpha   90.00000000
_cell_angle_beta   90.00000000
_cell_angle_gamma   90.00000000
_symmetry_Int_Tables_number   1
_chemical_formula_structural   VH6(C3O)6
_chemical_formula_sum   'V4 H24 C72 O24'
_cell_volume   5607.30663477
_cell_formula_units_Z   4
loop_
 _symmetry_equiv_pos_site_id
 _symmetry_equiv_pos_as_xyz
  1  'x, y, z'
loop_
 _atom_site_type_symbol
 _atom_site_label
 _atom_site_symmetry_multiplicity
 _atom_site_fract_x
 _atom_site_fract_y
 _atom_site_fract_z
 _atom_site_occupancy
 _atom_site_charge
  V  V1  1  0.875000  0.625000  0.375000  1.0  1.8685
  V  V2  1  0.625000  0.375000  0.875000  1.0  1.8685
  V  V3  1  0.125000  0.125000  0.125000  1.0  1.8685
  V  V4  1  0.375000  0.875000  0.625000  1.0  1.8685
  H  H5  1  0.468580  0.668920  0.743820  1.0  0.1013
  H  H6  1  0.031420  0.331080  0.243820  1.0  0.1035
  H  H7  1  0.531420  0.168920  0.756180  1.0  0.095
  H  H8  1  0.968580  0.831080  0.256180  1.0  0.1028
  H  H9  1  0.743820  0.468580  0.668920  1.0  0.0942
  H  H10  1  0.243820  0.031420  0.331080  1.0  0.0984
  H  H11  1  0.756180  0.531420  0.168920  1.0  0.0957
  H  H12  1  0.256180  0.968580  0.831080  1.0  0.0993
  H  H13  1  0.668920  0.743820  0.468580  1.0  0.0916
  H  H14  1  0.331080  0.243820  0.031420  1.0  0.1024
  H  H15  1  0.168920  0.756180  0.531420  1.0  0.0933
  H  H16  1  0.831080  0.256180  0.968580  1.0  0.0983
  H  H17  1  0.918920  0.218580  0.006180  1.0  0.0992
  H  H18  1  0.581080  0.781420  0.506180  1.0  0.0915
  H  H19  1  0.418920  0.281420  0.993820  1.0  0.1027
  H  H20  1  0.081080  0.718580  0.493820  1.0  0.0954
  H  H21  1  0.718580  0.493820  0.081080  1.0  0.0951
  H  H22  1  0.281420  0.993820  0.418920  1.0  0.1021
  H  H23  1  0.781420  0.506180  0.581080  1.0  0.0926
  H  H24  1  0.218580  0.006180  0.918920  1.0  0.101
  H  H25  1  0.993820  0.418920  0.281420  1.0  0.1038
  H  H26  1  0.493820  0.081080  0.718580  1.0  0.0924
  H  H27  1  0.006180  0.918920  0.218580  1.0  0.1025
  H  H28  1  0.506180  0.581080  0.781420  1.0  0.0981
  C  C29  1  0.464570  0.755770  0.657060  1.0  0.3028
  C  C30  1  0.557790  0.658800  0.659080  1.0  -0.0609
  C  C31  1  0.494990  0.692760  0.690600  1.0  -0.1049
  C  C32  1  0.035430  0.244230  0.157060  1.0  0.3019
  C  C33  1  0.942210  0.341200  0.159080  1.0  -0.0636
  C  C34  1  0.005010  0.307240  0.190600  1.0  -0.106
  C  C35  1  0.535430  0.255770  0.842940  1.0  0.3015
  C  C36  1  0.442210  0.158800  0.840920  1.0  -0.0637
  C  C37  1  0.505010  0.192760  0.809400  1.0  -0.1113
  C  C38  1  0.964570  0.744230  0.342940  1.0  0.3028
  C  C39  1  0.057790  0.841200  0.340920  1.0  -0.0642
  C  C40  1  0.994990  0.807240  0.309400  1.0  -0.1104
  C  C41  1  0.657060  0.464570  0.755770  1.0  0.2998
  C  C42  1  0.659080  0.557790  0.658800  1.0  -0.0597
  C  C43  1  0.690600  0.494990  0.692760  1.0  -0.1022
  C  C44  1  0.157060  0.035430  0.244230  1.0  0.2987
  C  C45  1  0.159080  0.942210  0.341200  1.0  -0.0628
  C  C46  1  0.190600  0.005010  0.307240  1.0  -0.1037
  C  C47  1  0.842940  0.535430  0.255770  1.0  0.3012
  C  C48  1  0.840920  0.442210  0.158800  1.0  -0.0638
  C  C49  1  0.809400  0.505010  0.192760  1.0  -0.1071
  C  C50  1  0.342940  0.964570  0.744230  1.0  0.2996
  C  C51  1  0.340920  0.057790  0.841200  1.0  -0.0639
  C  C52  1  0.309400  0.994990  0.807240  1.0  -0.1065
  C  C53  1  0.755770  0.657060  0.464570  1.0  0.3029
  C  C54  1  0.658800  0.659080  0.557790  1.0  -0.0607
  C  C55  1  0.692760  0.690600  0.494990  1.0  -0.1006
  C  C56  1  0.244230  0.157060  0.035430  1.0  0.3015
  C  C57  1  0.341200  0.159080  0.942210  1.0  -0.0634
  C  C58  1  0.307240  0.190600  0.005010  1.0  -0.1044
  C  C59  1  0.255770  0.842940  0.535430  1.0  0.3013
  C  C60  1  0.158800  0.840920  0.442210  1.0  -0.0636
  C  C61  1  0.192760  0.809400  0.505010  1.0  -0.1084
  C  C62  1  0.744230  0.342940  0.964570  1.0  0.3014
  C  C63  1  0.841200  0.340920  0.057790  1.0  -0.064
  C  C64  1  0.807240  0.309400  0.994990  1.0  -0.109
  C  C65  1  0.005770  0.214570  0.092940  1.0  0.3031
  C  C66  1  0.908800  0.307790  0.090920  1.0  -0.0628
  C  C67  1  0.942760  0.244990  0.059400  1.0  -0.1067
  C  C68  1  0.494230  0.785430  0.592940  1.0  0.3042
  C  C69  1  0.591200  0.692210  0.590920  1.0  -0.0633
  C  C70  1  0.557240  0.755010  0.559400  1.0  -0.1083
  C  C71  1  0.505770  0.285430  0.907060  1.0  0.304
  C  C72  1  0.408800  0.192210  0.909080  1.0  -0.0641
  C  C73  1  0.442760  0.255010  0.940600  1.0  -0.1081
  C  C74  1  0.994230  0.714570  0.407060  1.0  0.304
  C  C75  1  0.091200  0.807790  0.409080  1.0  -0.064
  C  C76  1  0.057240  0.744990  0.440600  1.0  -0.107
  C  C77  1  0.714570  0.407060  0.994230  1.0  0.3007
  C  C78  1  0.807790  0.409080  0.091200  1.0  -0.0637
  C  C79  1  0.744990  0.440600  0.057240  1.0  -0.1056
  C  C80  1  0.285430  0.907060  0.505770  1.0  0.3002
  C  C81  1  0.192210  0.909080  0.408800  1.0  -0.064
  C  C82  1  0.255010  0.940600  0.442760  1.0  -0.1072
  C  C83  1  0.785430  0.592940  0.494230  1.0  0.2983
  C  C84  1  0.692210  0.590920  0.591200  1.0  -0.0637
  C  C85  1  0.755010  0.559400  0.557240  1.0  -0.1068
  C  C86  1  0.214570  0.092940  0.005770  1.0  0.3008
  C  C87  1  0.307790  0.090920  0.908800  1.0  -0.064
  C  C88  1  0.244990  0.059400  0.942760  1.0  -0.1055
  C  C89  1  0.907060  0.505770  0.285430  1.0  0.2997
  C  C90  1  0.909080  0.408800  0.192210  1.0  -0.0636
  C  C91  1  0.940600  0.442760  0.255010  1.0  -0.1081
  C  C92  1  0.407060  0.994230  0.714570  1.0  0.3001
  C  C93  1  0.409080  0.091200  0.807790  1.0  -0.064
  C  C94  1  0.440600  0.057240  0.744990  1.0  -0.1066
  C  C95  1  0.092940  0.005770  0.214570  1.0  0.3011
  C  C96  1  0.090920  0.908800  0.307790  1.0  -0.0639
  C  C97  1  0.059400  0.942760  0.244990  1.0  -0.1047
  C  C98  1  0.592940  0.494230  0.785430  1.0  0.3002
  C  C99  1  0.590920  0.591200  0.692210  1.0  -0.0642
  C  C100  1  0.559400  0.557240  0.755010  1.0  -0.1061
  O  O101  1  0.407300  0.791130  0.681520  1.0  -0.5407
  O  O102  1  0.092700  0.208870  0.181520  1.0  -0.5416
  O  O103  1  0.592700  0.291130  0.818480  1.0  -0.5406
  O  O104  1  0.907300  0.708870  0.318480  1.0  -0.5406
  O  O105  1  0.681520  0.407300  0.791130  1.0  -0.5395
  O  O106  1  0.181520  0.092700  0.208870  1.0  -0.5388
  O  O107  1  0.818480  0.592700  0.291130  1.0  -0.5403
  O  O108  1  0.318480  0.907300  0.708870  1.0  -0.5404
  O  O109  1  0.791130  0.681520  0.407300  1.0  -0.5422
  O  O110  1  0.208870  0.181520  0.092700  1.0  -0.5406
  O  O111  1  0.291130  0.818480  0.592700  1.0  -0.543
  O  O112  1  0.708870  0.318480  0.907300  1.0  -0.542
  O  O113  1  0.041130  0.157300  0.068480  1.0  -0.5421
  O  O114  1  0.458870  0.842700  0.568480  1.0  -0.5421
  O  O115  1  0.541130  0.342700  0.931520  1.0  -0.5427
  O  O116  1  0.958870  0.657300  0.431520  1.0  -0.5415
  O  O117  1  0.657300  0.431520  0.958870  1.0  -0.5404
  O  O118  1  0.342700  0.931520  0.541130  1.0  -0.5406
  O  O119  1  0.842700  0.568480  0.458870  1.0  -0.5417
  O  O120  1  0.157300  0.068480  0.041130  1.0  -0.5415
  O  O121  1  0.931520  0.541130  0.342700  1.0  -0.5393
  O  O122  1  0.431520  0.958870  0.657300  1.0  -0.5401
  O  O123  1  0.068480  0.041130  0.157300  1.0  -0.5401
  O  O124  1  0.568480  0.458870  0.842700  1.0  -0.5409
