# generated using pymatgen
data_TiH6(C3O)6
_symmetry_space_group_name_H-M   'P 1'
_cell_length_a   17.99600000
_cell_length_b   17.99600000
_cell_length_c   17.99600000
_cell_angle_alpha   90.00000000
_cell_angle_beta   90.00000000
_cell_angle_gamma   90.00000000
_symmetry_Int_Tables_number   1
_chemical_formula_structural   TiH6(C3O)6
_chemical_formula_sum   'Ti8 H48 C144 O48'
_cell_volume   5828.11286394
_cell_formula_units_Z   8
loop_
 _symmetry_equiv_pos_site_id
 _symmetry_equiv_pos_as_xyz
  1  'x, y, z'
loop_
 _atom_site_type_symbol
 _atom_site_label
 _atom_site_symmetry_multiplicity
 _atom_site_fract_x
 _atom_site_fract_y
 _atom_site_fract_z
 _atom_site_occupancy
 _atom_site_charge
  Ti  Ti1  1  0.375250  0.624750  0.124750  1.0  1.8241
  Ti  Ti2  1  0.124750  0.375250  0.624750  1.0  1.8223
  Ti  Ti3  1  0.624750  0.124750  0.375250  1.0  1.8221
  Ti  Ti4  1  0.875250  0.875250  0.875250  1.0  1.8236
  Ti  Ti5  1  0.624770  0.375230  0.875230  1.0  1.8222
  Ti  Ti6  1  0.875230  0.624770  0.375230  1.0  1.8244
  Ti  Ti7  1  0.375230  0.875230  0.624770  1.0  1.8241
  Ti  Ti8  1  0.124770  0.124770  0.124770  1.0  1.8223
  H  H9  1  0.271860  0.502290  0.923320  1.0  0.1444
  H  H10  1  0.174240  0.747920  0.021470  1.0  0.1504
  H  H11  1  0.228140  0.497710  0.423320  1.0  0.1432
  H  H12  1  0.325760  0.252080  0.521470  1.0  0.1515
  H  H13  1  0.728140  0.002290  0.576680  1.0  0.144
  H  H14  1  0.825760  0.247920  0.478530  1.0  0.1501
  H  H15  1  0.771860  0.997710  0.076680  1.0  0.143
  H  H16  1  0.674240  0.752080  0.978530  1.0  0.1503
  H  H17  1  0.923320  0.271860  0.502290  1.0  0.1424
  H  H18  1  0.021470  0.174240  0.747920  1.0  0.153
  H  H19  1  0.423320  0.228140  0.497710  1.0  0.1445
  H  H20  1  0.521470  0.325760  0.252080  1.0  0.15
  H  H21  1  0.576680  0.728140  0.002290  1.0  0.1428
  H  H22  1  0.478530  0.825760  0.247920  1.0  0.1539
  H  H23  1  0.076680  0.771860  0.997710  1.0  0.1447
  H  H24  1  0.978530  0.674240  0.752080  1.0  0.1497
  H  H25  1  0.502290  0.923320  0.271860  1.0  0.1443
  H  H26  1  0.747920  0.021470  0.174240  1.0  0.149
  H  H27  1  0.497710  0.423320  0.228140  1.0  0.1435
  H  H28  1  0.252080  0.521470  0.325760  1.0  0.1508
  H  H29  1  0.002290  0.576680  0.728140  1.0  0.1438
  H  H30  1  0.247920  0.478530  0.825760  1.0  0.1495
  H  H31  1  0.997710  0.076680  0.771860  1.0  0.1443
  H  H32  1  0.752080  0.978530  0.674240  1.0  0.1509
  H  H33  1  0.728160  0.497730  0.076640  1.0  0.1432
  H  H34  1  0.825810  0.252100  0.978510  1.0  0.1509
  H  H35  1  0.771840  0.502270  0.576640  1.0  0.144
  H  H36  1  0.674190  0.747900  0.478510  1.0  0.1497
  H  H37  1  0.271840  0.997730  0.423360  1.0  0.1429
  H  H38  1  0.174190  0.752100  0.521490  1.0  0.151
  H  H39  1  0.228160  0.002270  0.923360  1.0  0.1442
  H  H40  1  0.325810  0.247900  0.021490  1.0  0.1513
  H  H41  1  0.076640  0.728160  0.497730  1.0  0.1446
  H  H42  1  0.978510  0.825810  0.252100  1.0  0.1502
  H  H43  1  0.576640  0.771840  0.502270  1.0  0.1424
  H  H44  1  0.478510  0.674190  0.747900  1.0  0.1532
  H  H45  1  0.423360  0.271840  0.997730  1.0  0.1445
  H  H46  1  0.521490  0.174190  0.752100  1.0  0.1497
  H  H47  1  0.923360  0.228160  0.002270  1.0  0.1424
  H  H48  1  0.021490  0.325810  0.247900  1.0  0.1535
  H  H49  1  0.497730  0.076640  0.728160  1.0  0.1438
  H  H50  1  0.252100  0.978510  0.825810  1.0  0.1511
  H  H51  1  0.502270  0.576640  0.771840  1.0  0.1446
  H  H52  1  0.747900  0.478510  0.674190  1.0  0.1494
  H  H53  1  0.997730  0.423360  0.271840  1.0  0.1437
  H  H54  1  0.752100  0.521490  0.174190  1.0  0.1504
  H  H55  1  0.002270  0.923360  0.228160  1.0  0.1435
  H  H56  1  0.247900  0.021490  0.325810  1.0  0.1493
  C  C57  1  0.249190  0.557490  0.944590  1.0  -0.0982
  C  C58  1  0.189150  0.592280  0.907490  1.0  -0.0484
  C  C59  1  0.281680  0.589960  0.007710  1.0  0.2501
  C  C60  1  0.195390  0.692720  0.998690  1.0  -0.1083
  C  C61  1  0.158180  0.658120  0.938600  1.0  -0.064
  C  C62  1  0.258450  0.660060  0.031090  1.0  0.2556
  C  C63  1  0.250810  0.442510  0.444590  1.0  -0.0987
  C  C64  1  0.310850  0.407720  0.407490  1.0  -0.0486
  C  C65  1  0.218320  0.410040  0.507710  1.0  0.2497
  C  C66  1  0.304610  0.307280  0.498690  1.0  -0.1063
  C  C67  1  0.341820  0.341880  0.438600  1.0  -0.063
  C  C68  1  0.241550  0.339940  0.531090  1.0  0.2555
  C  C69  1  0.750810  0.057490  0.555410  1.0  -0.096
  C  C70  1  0.810850  0.092280  0.592510  1.0  -0.0484
  C  C71  1  0.718320  0.089960  0.492290  1.0  0.2504
  C  C72  1  0.804610  0.192720  0.501310  1.0  -0.1084
  C  C73  1  0.841820  0.158120  0.561400  1.0  -0.0635
  C  C74  1  0.741550  0.160060  0.468910  1.0  0.2573
  C  C75  1  0.749190  0.942510  0.055410  1.0  -0.0983
  C  C76  1  0.689150  0.907720  0.092510  1.0  -0.0486
  C  C77  1  0.781680  0.910040  0.992290  1.0  0.2496
  C  C78  1  0.695390  0.807280  0.001310  1.0  -0.1071
  C  C79  1  0.658180  0.841880  0.061400  1.0  -0.0632
  C  C80  1  0.758450  0.839940  0.968910  1.0  0.2565
  C  C81  1  0.944590  0.249190  0.557490  1.0  -0.0986
  C  C82  1  0.907490  0.189150  0.592280  1.0  -0.0479
  C  C83  1  0.007710  0.281680  0.589960  1.0  0.2523
  C  C84  1  0.998690  0.195390  0.692720  1.0  -0.1067
  C  C85  1  0.938600  0.158180  0.658120  1.0  -0.0625
  C  C86  1  0.031090  0.258450  0.660060  1.0  0.2565
  C  C87  1  0.444590  0.250810  0.442510  1.0  -0.0969
  C  C88  1  0.407490  0.310850  0.407720  1.0  -0.0482
  C  C89  1  0.507710  0.218320  0.410040  1.0  0.2529
  C  C90  1  0.498690  0.304610  0.307280  1.0  -0.1082
  C  C91  1  0.438600  0.341820  0.341880  1.0  -0.0625
  C  C92  1  0.531090  0.241550  0.339940  1.0  0.255
  C  C93  1  0.555410  0.750810  0.057490  1.0  -0.0984
  C  C94  1  0.592510  0.810850  0.092280  1.0  -0.0483
  C  C95  1  0.492290  0.718320  0.089960  1.0  0.2518
  C  C96  1  0.501310  0.804610  0.192720  1.0  -0.108
  C  C97  1  0.561400  0.841820  0.158120  1.0  -0.0631
  C  C98  1  0.468910  0.741550  0.160060  1.0  0.2556
  C  C99  1  0.055410  0.749190  0.942510  1.0  -0.0971
  C  C100  1  0.092510  0.689150  0.907720  1.0  -0.0489
  C  C101  1  0.992290  0.781680  0.910040  1.0  0.2519
  C  C102  1  0.001310  0.695390  0.807280  1.0  -0.1077
  C  C103  1  0.061400  0.658180  0.841880  1.0  -0.0629
  C  C104  1  0.968910  0.758450  0.839940  1.0  0.255
  C  C105  1  0.557490  0.944590  0.249190  1.0  -0.0988
  C  C106  1  0.592280  0.907490  0.189150  1.0  -0.0489
  C  C107  1  0.589960  0.007710  0.281680  1.0  0.2511
  C  C108  1  0.692720  0.998690  0.195390  1.0  -0.1066
  C  C109  1  0.658120  0.938600  0.158180  1.0  -0.0632
  C  C110  1  0.660060  0.031090  0.258450  1.0  0.2554
  C  C111  1  0.442510  0.444590  0.250810  1.0  -0.1003
  C  C112  1  0.407720  0.407490  0.310850  1.0  -0.0481
  C  C113  1  0.410040  0.507710  0.218320  1.0  0.2522
  C  C114  1  0.307280  0.498690  0.304610  1.0  -0.1062
  C  C115  1  0.341880  0.438600  0.341820  1.0  -0.0639
  C  C116  1  0.339940  0.531090  0.241550  1.0  0.2558
  C  C117  1  0.057490  0.555410  0.750810  1.0  -0.1
  C  C118  1  0.092280  0.592510  0.810850  1.0  -0.0485
  C  C119  1  0.089960  0.492290  0.718320  1.0  0.2526
  C  C120  1  0.192720  0.501310  0.804610  1.0  -0.1055
  C  C121  1  0.158120  0.561400  0.841820  1.0  -0.0624
  C  C122  1  0.160060  0.468910  0.741550  1.0  0.2556
  C  C123  1  0.942510  0.055410  0.749190  1.0  -0.0985
  C  C124  1  0.907720  0.092510  0.689150  1.0  -0.0488
  C  C125  1  0.910040  0.992290  0.781680  1.0  0.2519
  C  C126  1  0.807280  0.001310  0.695390  1.0  -0.106
  C  C127  1  0.841880  0.061400  0.658180  1.0  -0.0636
  C  C128  1  0.839940  0.968910  0.758450  1.0  0.2552
  C  C129  1  0.750840  0.442530  0.055370  1.0  -0.0975
  C  C130  1  0.810880  0.407750  0.092470  1.0  -0.0485
  C  C131  1  0.718350  0.410050  0.992250  1.0  0.2496
  C  C132  1  0.804650  0.307290  0.001290  1.0  -0.1074
  C  C133  1  0.841850  0.341910  0.061360  1.0  -0.0631
  C  C134  1  0.741580  0.339940  0.968890  1.0  0.2558
  C  C135  1  0.749160  0.557470  0.555370  1.0  -0.0969
  C  C136  1  0.689120  0.592250  0.592470  1.0  -0.0481
  C  C137  1  0.781650  0.589950  0.492250  1.0  0.2501
  C  C138  1  0.695350  0.692710  0.501290  1.0  -0.1095
  C  C139  1  0.658150  0.658090  0.561360  1.0  -0.064
  C  C140  1  0.758420  0.660060  0.468890  1.0  0.2563
  C  C141  1  0.249160  0.942530  0.444630  1.0  -0.0991
  C  C142  1  0.189120  0.907750  0.407530  1.0  -0.0483
  C  C143  1  0.281650  0.910050  0.507750  1.0  0.2496
  C  C144  1  0.195350  0.807290  0.498710  1.0  -0.107
  C  C145  1  0.158150  0.841910  0.438640  1.0  -0.0634
  C  C146  1  0.258420  0.839940  0.531110  1.0  0.2551
  C  C147  1  0.250840  0.057470  0.944630  1.0  -0.0969
  C  C148  1  0.310880  0.092250  0.907530  1.0  -0.0483
  C  C149  1  0.218350  0.089950  0.007750  1.0  0.2505
  C  C150  1  0.304650  0.192710  0.998710  1.0  -0.1083
  C  C151  1  0.341850  0.158090  0.938640  1.0  -0.0638
  C  C152  1  0.241580  0.160060  0.031110  1.0  0.2549
  C  C153  1  0.055370  0.750840  0.442530  1.0  -0.0966
  C  C154  1  0.092470  0.810880  0.407750  1.0  -0.0485
  C  C155  1  0.992250  0.718350  0.410050  1.0  0.2525
  C  C156  1  0.001290  0.804650  0.307290  1.0  -0.1083
  C  C157  1  0.061360  0.841850  0.341910  1.0  -0.0632
  C  C158  1  0.968890  0.741580  0.339940  1.0  0.2538
  C  C159  1  0.555370  0.749160  0.557470  1.0  -0.098
  C  C160  1  0.592470  0.689120  0.592250  1.0  -0.0483
  C  C161  1  0.492250  0.781650  0.589950  1.0  0.2519
  C  C162  1  0.501290  0.695350  0.692710  1.0  -0.1084
  C  C163  1  0.561360  0.658150  0.658090  1.0  -0.0631
  C  C164  1  0.468890  0.758420  0.660060  1.0  0.2549
  C  C165  1  0.444630  0.249160  0.942530  1.0  -0.0973
  C  C166  1  0.407530  0.189120  0.907750  1.0  -0.0482
  C  C167  1  0.507750  0.281650  0.910050  1.0  0.2523
  C  C168  1  0.498710  0.195350  0.807290  1.0  -0.1086
  C  C169  1  0.438640  0.158150  0.841910  1.0  -0.0627
  C  C170  1  0.531110  0.258420  0.839940  1.0  0.2548
  C  C171  1  0.944630  0.250840  0.057470  1.0  -0.0981
  C  C172  1  0.907530  0.310880  0.092250  1.0  -0.0476
  C  C173  1  0.007750  0.218350  0.089950  1.0  0.2523
  C  C174  1  0.998710  0.304650  0.192710  1.0  -0.1072
  C  C175  1  0.938640  0.341850  0.158090  1.0  -0.0627
  C  C176  1  0.031110  0.241580  0.160060  1.0  0.256
  C  C177  1  0.442530  0.055370  0.750840  1.0  -0.1002
  C  C178  1  0.407750  0.092470  0.810880  1.0  -0.0482
  C  C179  1  0.410050  0.992250  0.718350  1.0  0.252
  C  C180  1  0.307290  0.001290  0.804650  1.0  -0.1064
  C  C181  1  0.341910  0.061360  0.841850  1.0  -0.0636
  C  C182  1  0.339940  0.968890  0.741580  1.0  0.2549
  C  C183  1  0.557470  0.555370  0.749160  1.0  -0.0987
  C  C184  1  0.592250  0.592470  0.689120  1.0  -0.0489
  C  C185  1  0.589950  0.492250  0.781650  1.0  0.2513
  C  C186  1  0.692710  0.501290  0.695350  1.0  -0.1068
  C  C187  1  0.658090  0.561360  0.658150  1.0  -0.0628
  C  C188  1  0.660060  0.468890  0.758420  1.0  0.2547
  C  C189  1  0.942530  0.444630  0.249160  1.0  -0.0986
  C  C190  1  0.907750  0.407530  0.189120  1.0  -0.0484
  C  C191  1  0.910050  0.507750  0.281650  1.0  0.2517
  C  C192  1  0.807290  0.498710  0.195350  1.0  -0.107
  C  C193  1  0.841910  0.438640  0.158150  1.0  -0.0642
  C  C194  1  0.839940  0.531110  0.258420  1.0  0.255
  C  C195  1  0.057470  0.944630  0.250840  1.0  -0.0993
  C  C196  1  0.092250  0.907530  0.310880  1.0  -0.0481
  C  C197  1  0.089950  0.007750  0.218350  1.0  0.2528
  C  C198  1  0.192710  0.998710  0.304650  1.0  -0.1065
  C  C199  1  0.158090  0.938640  0.341850  1.0  -0.0633
  C  C200  1  0.160060  0.031110  0.241580  1.0  0.2548
  O  O201  1  0.298910  0.695990  0.086870  1.0  -0.5463
  O  O202  1  0.337370  0.553820  0.048110  1.0  -0.5472
  O  O203  1  0.201090  0.304010  0.586870  1.0  -0.548
  O  O204  1  0.162630  0.446180  0.548110  1.0  -0.5464
  O  O205  1  0.701090  0.195990  0.413130  1.0  -0.5472
  O  O206  1  0.662630  0.053820  0.451890  1.0  -0.5473
  O  O207  1  0.798910  0.804010  0.913130  1.0  -0.5463
  O  O208  1  0.837370  0.946180  0.951890  1.0  -0.5471
  O  O209  1  0.086870  0.298910  0.695990  1.0  -0.5422
  O  O210  1  0.048110  0.337370  0.553820  1.0  -0.5475
  O  O211  1  0.586870  0.201090  0.304010  1.0  -0.5434
  O  O212  1  0.548110  0.162630  0.446180  1.0  -0.5474
  O  O213  1  0.413130  0.701090  0.195990  1.0  -0.5431
  O  O214  1  0.451890  0.662630  0.053820  1.0  -0.5484
  O  O215  1  0.913130  0.798910  0.804010  1.0  -0.5427
  O  O216  1  0.951890  0.837370  0.946180  1.0  -0.5471
  O  O217  1  0.695990  0.086870  0.298910  1.0  -0.545
  O  O218  1  0.553820  0.048110  0.337370  1.0  -0.5454
  O  O219  1  0.304010  0.586870  0.201090  1.0  -0.5448
  O  O220  1  0.446180  0.548110  0.162630  1.0  -0.5466
  O  O221  1  0.195990  0.413130  0.701090  1.0  -0.5457
  O  O222  1  0.053820  0.451890  0.662630  1.0  -0.5449
  O  O223  1  0.804010  0.913130  0.798910  1.0  -0.5445
  O  O224  1  0.946180  0.951890  0.837370  1.0  -0.5473
  O  O225  1  0.701120  0.304010  0.913110  1.0  -0.5475
  O  O226  1  0.662650  0.446180  0.951860  1.0  -0.5461
  O  O227  1  0.798880  0.695990  0.413110  1.0  -0.5465
  O  O228  1  0.837350  0.553820  0.451860  1.0  -0.5473
  O  O229  1  0.298880  0.804010  0.586890  1.0  -0.5466
  O  O230  1  0.337350  0.946180  0.548140  1.0  -0.5473
  O  O231  1  0.201120  0.195990  0.086890  1.0  -0.5472
  O  O232  1  0.162650  0.053820  0.048140  1.0  -0.5473
  O  O233  1  0.913110  0.701120  0.304010  1.0  -0.5429
  O  O234  1  0.951860  0.662650  0.446180  1.0  -0.5473
  O  O235  1  0.413110  0.798880  0.695990  1.0  -0.5431
  O  O236  1  0.451860  0.837350  0.553820  1.0  -0.5479
  O  O237  1  0.586890  0.298880  0.804010  1.0  -0.5429
  O  O238  1  0.548140  0.337350  0.946180  1.0  -0.5479
  O  O239  1  0.086890  0.201120  0.195990  1.0  -0.5426
  O  O240  1  0.048140  0.162650  0.053820  1.0  -0.5476
  O  O241  1  0.304010  0.913110  0.701120  1.0  -0.5445
  O  O242  1  0.446180  0.951860  0.662650  1.0  -0.5472
  O  O243  1  0.695990  0.413110  0.798880  1.0  -0.5455
  O  O244  1  0.553820  0.451860  0.837350  1.0  -0.5453
  O  O245  1  0.804010  0.586890  0.298880  1.0  -0.5443
  O  O246  1  0.946180  0.548140  0.337350  1.0  -0.547
  O  O247  1  0.195990  0.086890  0.201120  1.0  -0.5455
  O  O248  1  0.053820  0.048140  0.162650  1.0  -0.5448
