# generated using pymatgen
data_Mn2H16C26N10ClO4
_symmetry_space_group_name_H-M   'P 1'
_cell_length_a   31.60900000
_cell_length_b   9.87160000
_cell_length_c   24.73800000
_cell_angle_alpha   90.00000000
_cell_angle_beta   104.66900000
_cell_angle_gamma   90.00000000
_symmetry_Int_Tables_number   1
_chemical_formula_structural   Mn2H16C26N10ClO4
_chemical_formula_sum   'Mn16 H128 C208 N80 Cl8 O32'
_cell_volume   7467.43029088
_cell_formula_units_Z   8
loop_
 _symmetry_equiv_pos_site_id
 _symmetry_equiv_pos_as_xyz
  1  'x, y, z'
loop_
 _atom_site_type_symbol
 _atom_site_label
 _atom_site_symmetry_multiplicity
 _atom_site_fract_x
 _atom_site_fract_y
 _atom_site_fract_z
 _atom_site_occupancy
 _atom_site_charge
  Mn  Mn1  1  0.120030  0.608780  0.402900  1.0  1.12
  Mn  Mn2  1  0.211260  0.527080  0.340830  1.0  1.0341
  Mn  Mn3  1  0.620030  0.108780  0.402900  1.0  1.12
  Mn  Mn4  1  0.711260  0.027080  0.340830  1.0  1.0341
  Mn  Mn5  1  0.879970  0.608780  0.097100  1.0  1.1202
  Mn  Mn6  1  0.788740  0.527080  0.159170  1.0  1.0346
  Mn  Mn7  1  0.379970  0.108780  0.097100  1.0  1.1202
  Mn  Mn8  1  0.288740  0.027080  0.159170  1.0  1.0346
  Mn  Mn9  1  0.879970  0.391220  0.597100  1.0  1.1198
  Mn  Mn10  1  0.788740  0.472920  0.659170  1.0  1.0346
  Mn  Mn11  1  0.379970  0.891220  0.597100  1.0  1.1198
  Mn  Mn12  1  0.288740  0.972920  0.659170  1.0  1.0346
  Mn  Mn13  1  0.120030  0.391220  0.902900  1.0  1.1202
  Mn  Mn14  1  0.211260  0.472920  0.840830  1.0  1.0343
  Mn  Mn15  1  0.620030  0.891220  0.902900  1.0  1.1202
  Mn  Mn16  1  0.711260  0.972920  0.840830  1.0  1.0343
  H  H17  1  0.995100  0.337600  0.468100  1.0  0.3061
  H  H18  1  0.378600  0.646900  0.436000  1.0  0.2857
  H  H19  1  0.207700  0.659800  0.514400  1.0  0.0697
  H  H20  1  0.236000  0.567500  0.600400  1.0  0.0644
  H  H21  1  0.126500  0.379300  0.592200  1.0  0.0694
  H  H22  1  0.943500  0.359900  0.391900  1.0  0.0966
  H  H23  1  0.889000  0.403700  0.312300  1.0  0.0794
  H  H24  1  0.966600  0.669400  0.262700  1.0  0.0864
  H  H25  1  0.021300  0.627400  0.342200  1.0  0.0973
  H  H26  1  0.178800  0.679200  0.214100  1.0  0.0714
  H  H27  1  0.203900  0.833200  0.160100  1.0  0.0629
  H  H28  1  0.313200  0.866600  0.275100  1.0  0.0705
  H  H29  1  0.387200  0.438600  0.483200  1.0  0.1028
  H  H30  1  0.390600  0.278400  0.552000  1.0  0.0789
  H  H31  1  0.263900  0.340800  0.545000  1.0  0.0769
  H  H32  1  0.260300  0.498700  0.474400  1.0  0.0904
  H  H33  1  0.495100  0.837600  0.468100  1.0  0.3061
  H  H34  1  0.878600  0.146900  0.436000  1.0  0.2857
  H  H35  1  0.707700  0.159800  0.514400  1.0  0.0697
  H  H36  1  0.736000  0.067500  0.600400  1.0  0.0644
  H  H37  1  0.626500  0.879300  0.592200  1.0  0.0694
  H  H38  1  0.443500  0.859900  0.391900  1.0  0.0966
  H  H39  1  0.389000  0.903700  0.312300  1.0  0.0794
  H  H40  1  0.466600  0.169400  0.262700  1.0  0.0864
  H  H41  1  0.521300  0.127400  0.342200  1.0  0.0973
  H  H42  1  0.678800  0.179200  0.214100  1.0  0.0714
  H  H43  1  0.703900  0.333200  0.160100  1.0  0.0629
  H  H44  1  0.813200  0.366600  0.275100  1.0  0.0705
  H  H45  1  0.887200  0.938600  0.483200  1.0  0.1028
  H  H46  1  0.890600  0.778400  0.552000  1.0  0.0789
  H  H47  1  0.763900  0.840800  0.545000  1.0  0.0769
  H  H48  1  0.760300  0.998700  0.474400  1.0  0.0904
  H  H49  1  0.004900  0.337600  0.031900  1.0  0.3044
  H  H50  1  0.621400  0.646900  0.064000  1.0  0.2849
  H  H51  1  0.792300  0.659800  0.985600  1.0  0.0696
  H  H52  1  0.764000  0.567500  0.899600  1.0  0.0651
  H  H53  1  0.873500  0.379300  0.907800  1.0  0.0692
  H  H54  1  0.056500  0.359900  0.108100  1.0  0.0963
  H  H55  1  0.111000  0.403700  0.187700  1.0  0.0799
  H  H56  1  0.033400  0.669400  0.237300  1.0  0.0867
  H  H57  1  0.978700  0.627400  0.157800  1.0  0.0975
  H  H58  1  0.821200  0.679200  0.285900  1.0  0.0717
  H  H59  1  0.796100  0.833200  0.339900  1.0  0.0627
  H  H60  1  0.686800  0.866600  0.224900  1.0  0.0707
  H  H61  1  0.612800  0.438600  0.016800  1.0  0.1016
  H  H62  1  0.609400  0.278400  0.948000  1.0  0.0789
  H  H63  1  0.736100  0.340800  0.955000  1.0  0.0767
  H  H64  1  0.739700  0.498700  0.025600  1.0  0.0901
  H  H65  1  0.504900  0.837600  0.031900  1.0  0.3044
  H  H66  1  0.121400  0.146900  0.064000  1.0  0.2849
  H  H67  1  0.292300  0.159800  0.985600  1.0  0.0696
  H  H68  1  0.264000  0.067500  0.899600  1.0  0.0651
  H  H69  1  0.373500  0.879300  0.907800  1.0  0.0692
  H  H70  1  0.556500  0.859900  0.108100  1.0  0.0963
  H  H71  1  0.611000  0.903700  0.187700  1.0  0.0799
  H  H72  1  0.533400  0.169400  0.237300  1.0  0.0867
  H  H73  1  0.478700  0.127400  0.157800  1.0  0.0975
  H  H74  1  0.321200  0.179200  0.285900  1.0  0.0717
  H  H75  1  0.296100  0.333200  0.339900  1.0  0.0627
  H  H76  1  0.186800  0.366600  0.224900  1.0  0.0707
  H  H77  1  0.112800  0.938600  0.016800  1.0  0.1016
  H  H78  1  0.109400  0.778400  0.948000  1.0  0.0789
  H  H79  1  0.236100  0.840800  0.955000  1.0  0.0767
  H  H80  1  0.239700  0.998700  0.025600  1.0  0.0901
  H  H81  1  0.004900  0.662400  0.531900  1.0  0.3053
  H  H82  1  0.621400  0.353100  0.564000  1.0  0.285
  H  H83  1  0.792300  0.340200  0.485600  1.0  0.0697
  H  H84  1  0.764000  0.432500  0.399600  1.0  0.0653
  H  H85  1  0.873500  0.620700  0.407800  1.0  0.0694
  H  H86  1  0.056500  0.640100  0.608100  1.0  0.0965
  H  H87  1  0.111000  0.596300  0.687700  1.0  0.0797
  H  H88  1  0.033400  0.330600  0.737300  1.0  0.0872
  H  H89  1  0.978700  0.372600  0.657800  1.0  0.0975
  H  H90  1  0.821200  0.320800  0.785900  1.0  0.0695
  H  H91  1  0.796100  0.166800  0.839900  1.0  0.0629
  H  H92  1  0.686800  0.133400  0.724900  1.0  0.0709
  H  H93  1  0.612800  0.561400  0.516800  1.0  0.1016
  H  H94  1  0.609400  0.721600  0.448000  1.0  0.08
  H  H95  1  0.736100  0.659200  0.455000  1.0  0.0765
  H  H96  1  0.739700  0.501300  0.525600  1.0  0.0901
  H  H97  1  0.504900  0.162400  0.531900  1.0  0.3053
  H  H98  1  0.121400  0.853100  0.564000  1.0  0.285
  H  H99  1  0.292300  0.840200  0.485600  1.0  0.0697
  H  H100  1  0.264000  0.932500  0.399600  1.0  0.0653
  H  H101  1  0.373500  0.120700  0.407800  1.0  0.0694
  H  H102  1  0.556500  0.140100  0.608100  1.0  0.0965
  H  H103  1  0.611000  0.096300  0.687700  1.0  0.0797
  H  H104  1  0.533400  0.830600  0.737300  1.0  0.0872
  H  H105  1  0.478700  0.872600  0.657800  1.0  0.0975
  H  H106  1  0.321200  0.820800  0.785900  1.0  0.0695
  H  H107  1  0.296100  0.666800  0.839900  1.0  0.0629
  H  H108  1  0.186800  0.633400  0.724900  1.0  0.0709
  H  H109  1  0.112800  0.061400  0.516800  1.0  0.1016
  H  H110  1  0.109400  0.221600  0.448000  1.0  0.08
  H  H111  1  0.236100  0.159200  0.455000  1.0  0.0765
  H  H112  1  0.239700  0.001300  0.525600  1.0  0.0901
  H  H113  1  0.995100  0.662400  0.968100  1.0  0.3063
  H  H114  1  0.378600  0.353100  0.936000  1.0  0.2856
  H  H115  1  0.207700  0.340200  0.014400  1.0  0.0696
  H  H116  1  0.236000  0.432500  0.100400  1.0  0.0643
  H  H117  1  0.126500  0.620700  0.092200  1.0  0.0694
  H  H118  1  0.943500  0.640100  0.891900  1.0  0.097
  H  H119  1  0.889000  0.596300  0.812300  1.0  0.0796
  H  H120  1  0.966600  0.330600  0.762700  1.0  0.0862
  H  H121  1  0.021300  0.372600  0.842200  1.0  0.0973
  H  H122  1  0.178800  0.320800  0.714100  1.0  0.0695
  H  H123  1  0.203900  0.166800  0.660100  1.0  0.0629
  H  H124  1  0.313200  0.133400  0.775100  1.0  0.071
  H  H125  1  0.387200  0.561400  0.983200  1.0  0.1022
  H  H126  1  0.390600  0.721600  0.052000  1.0  0.0801
  H  H127  1  0.263900  0.659200  0.045000  1.0  0.0769
  H  H128  1  0.260300  0.501300  0.974400  1.0  0.0903
  H  H129  1  0.495100  0.162400  0.968100  1.0  0.3063
  H  H130  1  0.878600  0.853100  0.936000  1.0  0.2856
  H  H131  1  0.707700  0.840200  0.014400  1.0  0.0696
  H  H132  1  0.736000  0.932500  0.100400  1.0  0.0643
  H  H133  1  0.626500  0.120700  0.092200  1.0  0.0694
  H  H134  1  0.443500  0.140100  0.891900  1.0  0.097
  H  H135  1  0.389000  0.096300  0.812300  1.0  0.0796
  H  H136  1  0.466600  0.830600  0.762700  1.0  0.0862
  H  H137  1  0.521300  0.872600  0.842200  1.0  0.0973
  H  H138  1  0.678800  0.820800  0.714100  1.0  0.0695
  H  H139  1  0.703900  0.666800  0.660100  1.0  0.0629
  H  H140  1  0.813200  0.633400  0.775100  1.0  0.071
  H  H141  1  0.887200  0.061400  0.983200  1.0  0.1022
  H  H142  1  0.890600  0.221600  0.052000  1.0  0.0801
  H  H143  1  0.763900  0.159200  0.045000  1.0  0.0769
  H  H144  1  0.760300  0.001300  0.974400  1.0  0.0903
  C  C145  1  0.190450  0.601600  0.529240  1.0  0.1287
  C  C146  1  0.207380  0.546400  0.581480  1.0  0.141
  C  C147  1  0.143740  0.436400  0.576770  1.0  0.1594
  C  C148  1  0.126150  0.491200  0.523350  1.0  0.1582
  C  C149  1  0.081350  0.460700  0.491250  1.0  0.321
  C  C150  1  0.023600  0.460100  0.425480  1.0  0.2729
  C  C151  1  0.988810  0.486600  0.374860  1.0  -0.0426
  C  C152  1  0.948490  0.421300  0.365690  1.0  -0.1374
  C  C153  1  0.915770  0.447500  0.317700  1.0  -0.0462
  C  C154  1  0.922390  0.537900  0.277660  1.0  -0.1467
  C  C155  1  0.962000  0.605600  0.288290  1.0  -0.079
  C  C156  1  0.994990  0.580700  0.336160  1.0  -0.088
  C  C157  1  0.888590  0.559800  0.223520  1.0  0.7005
  C  C158  1  0.206540  0.716100  0.227340  1.0  0.1291
  C  C159  1  0.221720  0.809900  0.194840  1.0  0.137
  C  C160  1  0.285690  0.828500  0.261570  1.0  0.1404
  C  C161  1  0.271160  0.732000  0.293480  1.0  0.1397
  C  C162  1  0.299230  0.680900  0.346090  1.0  0.284
  C  C163  1  0.319390  0.569900  0.421660  1.0  0.2731
  C  C164  1  0.322820  0.478600  0.469690  1.0  -0.0274
  C  C165  1  0.362120  0.416200  0.494420  1.0  -0.1332
  C  C166  1  0.364160  0.320700  0.535860  1.0  -0.0415
  C  C167  1  0.326980  0.286800  0.553760  1.0  -0.1213
  C  C168  1  0.288420  0.357300  0.531640  1.0  -0.0764
  C  C169  1  0.286290  0.452500  0.489410  1.0  -0.0895
  C  C170  1  0.328340  0.164800  0.593470  1.0  0.6761
  C  C171  1  0.690450  0.101600  0.529240  1.0  0.1287
  C  C172  1  0.707380  0.046400  0.581480  1.0  0.141
  C  C173  1  0.643740  0.936400  0.576770  1.0  0.1594
  C  C174  1  0.626150  0.991200  0.523350  1.0  0.1582
  C  C175  1  0.581350  0.960700  0.491250  1.0  0.321
  C  C176  1  0.523600  0.960100  0.425480  1.0  0.2729
  C  C177  1  0.488810  0.986600  0.374860  1.0  -0.0426
  C  C178  1  0.448490  0.921300  0.365690  1.0  -0.1374
  C  C179  1  0.415770  0.947500  0.317700  1.0  -0.0462
  C  C180  1  0.422390  0.037900  0.277660  1.0  -0.1467
  C  C181  1  0.462000  0.105600  0.288290  1.0  -0.079
  C  C182  1  0.494990  0.080700  0.336160  1.0  -0.088
  C  C183  1  0.388590  0.059800  0.223520  1.0  0.7005
  C  C184  1  0.706540  0.216100  0.227340  1.0  0.1291
  C  C185  1  0.721720  0.309900  0.194840  1.0  0.137
  C  C186  1  0.785690  0.328500  0.261570  1.0  0.1404
  C  C187  1  0.771160  0.232000  0.293480  1.0  0.1397
  C  C188  1  0.799230  0.180900  0.346090  1.0  0.284
  C  C189  1  0.819390  0.069900  0.421660  1.0  0.2731
  C  C190  1  0.822820  0.978600  0.469690  1.0  -0.0274
  C  C191  1  0.862120  0.916200  0.494420  1.0  -0.1332
  C  C192  1  0.864160  0.820700  0.535860  1.0  -0.0415
  C  C193  1  0.826980  0.786800  0.553760  1.0  -0.1213
  C  C194  1  0.788420  0.857300  0.531640  1.0  -0.0764
  C  C195  1  0.786290  0.952500  0.489410  1.0  -0.0895
  C  C196  1  0.828340  0.664800  0.593470  1.0  0.6761
  C  C197  1  0.809550  0.601600  0.970760  1.0  0.1291
  C  C198  1  0.792620  0.546400  0.918520  1.0  0.1412
  C  C199  1  0.856260  0.436400  0.923230  1.0  0.1597
  C  C200  1  0.873850  0.491200  0.976650  1.0  0.1577
  C  C201  1  0.918650  0.460700  0.008750  1.0  0.3189
  C  C202  1  0.976400  0.460100  0.074520  1.0  0.2735
  C  C203  1  0.011190  0.486600  0.125140  1.0  -0.0437
  C  C204  1  0.051510  0.421300  0.134310  1.0  -0.1381
  C  C205  1  0.084230  0.447500  0.182300  1.0  -0.0467
  C  C206  1  0.077610  0.537900  0.222340  1.0  -0.1471
  C  C207  1  0.038000  0.605600  0.211710  1.0  -0.08
  C  C208  1  0.005010  0.580700  0.163840  1.0  -0.0876
  C  C209  1  0.111410  0.559800  0.276480  1.0  0.6997
  C  C210  1  0.793460  0.716100  0.272660  1.0  0.1292
  C  C211  1  0.778280  0.809900  0.305160  1.0  0.1382
  C  C212  1  0.714310  0.828500  0.238430  1.0  0.1417
  C  C213  1  0.728840  0.732000  0.206520  1.0  0.1409
  C  C214  1  0.700770  0.680900  0.153910  1.0  0.2831
  C  C215  1  0.680610  0.569900  0.078340  1.0  0.2745
  C  C216  1  0.677180  0.478600  0.030310  1.0  -0.0274
  C  C217  1  0.637880  0.416200  0.005580  1.0  -0.1324
  C  C218  1  0.635840  0.320700  0.964140  1.0  -0.0418
  C  C219  1  0.673020  0.286800  0.946240  1.0  -0.1226
  C  C220  1  0.711580  0.357300  0.968360  1.0  -0.0775
  C  C221  1  0.713710  0.452500  0.010590  1.0  -0.0919
  C  C222  1  0.671660  0.164800  0.906530  1.0  0.676
  C  C223  1  0.309550  0.101600  0.970760  1.0  0.1291
  C  C224  1  0.292620  0.046400  0.918520  1.0  0.1412
  C  C225  1  0.356260  0.936400  0.923230  1.0  0.1597
  C  C226  1  0.373850  0.991200  0.976650  1.0  0.1577
  C  C227  1  0.418650  0.960700  0.008750  1.0  0.3189
  C  C228  1  0.476400  0.960100  0.074520  1.0  0.2735
  C  C229  1  0.511190  0.986600  0.125140  1.0  -0.0437
  C  C230  1  0.551510  0.921300  0.134310  1.0  -0.1381
  C  C231  1  0.584230  0.947500  0.182300  1.0  -0.0467
  C  C232  1  0.577610  0.037900  0.222340  1.0  -0.1471
  C  C233  1  0.538000  0.105600  0.211710  1.0  -0.08
  C  C234  1  0.505010  0.080700  0.163840  1.0  -0.0876
  C  C235  1  0.611410  0.059800  0.276480  1.0  0.6997
  C  C236  1  0.293460  0.216100  0.272660  1.0  0.1292
  C  C237  1  0.278280  0.309900  0.305160  1.0  0.1382
  C  C238  1  0.214310  0.328500  0.238430  1.0  0.1417
  C  C239  1  0.228840  0.232000  0.206520  1.0  0.1409
  C  C240  1  0.200770  0.180900  0.153910  1.0  0.2831
  C  C241  1  0.180610  0.069900  0.078340  1.0  0.2745
  C  C242  1  0.177180  0.978600  0.030310  1.0  -0.0274
  C  C243  1  0.137880  0.916200  0.005580  1.0  -0.1324
  C  C244  1  0.135840  0.820700  0.964140  1.0  -0.0418
  C  C245  1  0.173020  0.786800  0.946240  1.0  -0.1226
  C  C246  1  0.211580  0.857300  0.968360  1.0  -0.0775
  C  C247  1  0.213710  0.952500  0.010590  1.0  -0.0919
  C  C248  1  0.171660  0.664800  0.906530  1.0  0.676
  C  C249  1  0.809550  0.398400  0.470760  1.0  0.1295
  C  C250  1  0.792620  0.453600  0.418520  1.0  0.1412
  C  C251  1  0.856260  0.563600  0.423230  1.0  0.159
  C  C252  1  0.873850  0.508800  0.476650  1.0  0.1579
  C  C253  1  0.918650  0.539300  0.508750  1.0  0.3188
  C  C254  1  0.976400  0.539900  0.574520  1.0  0.2738
  C  C255  1  0.011190  0.513400  0.625140  1.0  -0.0438
  C  C256  1  0.051510  0.578700  0.634310  1.0  -0.1389
  C  C257  1  0.084230  0.552500  0.682300  1.0  -0.0459
  C  C258  1  0.077610  0.462100  0.722340  1.0  -0.147
  C  C259  1  0.038000  0.394400  0.711710  1.0  -0.0788
  C  C260  1  0.005010  0.419300  0.663840  1.0  -0.087
  C  C261  1  0.111410  0.440200  0.776480  1.0  0.6997
  C  C262  1  0.793460  0.283900  0.772660  1.0  0.129
  C  C263  1  0.778280  0.190100  0.805160  1.0  0.1382
  C  C264  1  0.714310  0.171500  0.738430  1.0  0.1414
  C  C265  1  0.728840  0.268000  0.706520  1.0  0.141
  C  C266  1  0.700770  0.319100  0.653910  1.0  0.2827
  C  C267  1  0.680610  0.430100  0.578340  1.0  0.2745
  C  C268  1  0.677180  0.521400  0.530310  1.0  -0.0279
  C  C269  1  0.637880  0.583800  0.505580  1.0  -0.1317
  C  C270  1  0.635840  0.679300  0.464140  1.0  -0.0415
  C  C271  1  0.673020  0.713200  0.446240  1.0  -0.1205
  C  C272  1  0.711580  0.642700  0.468360  1.0  -0.0781
  C  C273  1  0.713710  0.547500  0.510590  1.0  -0.0923
  C  C274  1  0.671660  0.835200  0.406530  1.0  0.6756
  C  C275  1  0.309550  0.898400  0.470760  1.0  0.1295
  C  C276  1  0.292620  0.953600  0.418520  1.0  0.1412
  C  C277  1  0.356260  0.063600  0.423230  1.0  0.159
  C  C278  1  0.373850  0.008800  0.476650  1.0  0.1579
  C  C279  1  0.418650  0.039300  0.508750  1.0  0.3188
  C  C280  1  0.476400  0.039900  0.574520  1.0  0.2738
  C  C281  1  0.511190  0.013400  0.625140  1.0  -0.0438
  C  C282  1  0.551510  0.078700  0.634310  1.0  -0.1389
  C  C283  1  0.584230  0.052500  0.682300  1.0  -0.0459
  C  C284  1  0.577610  0.962100  0.722340  1.0  -0.147
  C  C285  1  0.538000  0.894400  0.711710  1.0  -0.0788
  C  C286  1  0.505010  0.919300  0.663840  1.0  -0.087
  C  C287  1  0.611410  0.940200  0.776480  1.0  0.6997
  C  C288  1  0.293460  0.783900  0.772660  1.0  0.129
  C  C289  1  0.278280  0.690100  0.805160  1.0  0.1382
  C  C290  1  0.214310  0.671500  0.738430  1.0  0.1414
  C  C291  1  0.228840  0.768000  0.706520  1.0  0.141
  C  C292  1  0.200770  0.819100  0.653910  1.0  0.2827
  C  C293  1  0.180610  0.930100  0.578340  1.0  0.2745
  C  C294  1  0.177180  0.021400  0.530310  1.0  -0.0279
  C  C295  1  0.137880  0.083800  0.505580  1.0  -0.1317
  C  C296  1  0.135840  0.179300  0.464140  1.0  -0.0415
  C  C297  1  0.173020  0.213200  0.446240  1.0  -0.1205
  C  C298  1  0.211580  0.142700  0.468360  1.0  -0.0781
  C  C299  1  0.213710  0.047500  0.510590  1.0  -0.0923
  C  C300  1  0.171660  0.335200  0.406530  1.0  0.6756
  C  C301  1  0.190450  0.398400  0.029240  1.0  0.1286
  C  C302  1  0.207380  0.453600  0.081480  1.0  0.1412
  C  C303  1  0.143740  0.563600  0.076770  1.0  0.1573
  C  C304  1  0.126150  0.508800  0.023350  1.0  0.1581
  C  C305  1  0.081350  0.539300  0.991250  1.0  0.3205
  C  C306  1  0.023600  0.539900  0.925480  1.0  0.273
  C  C307  1  0.988810  0.513400  0.874860  1.0  -0.0428
  C  C308  1  0.948490  0.578700  0.865690  1.0  -0.1382
  C  C309  1  0.915770  0.552500  0.817700  1.0  -0.0461
  C  C310  1  0.922390  0.462100  0.777660  1.0  -0.1469
  C  C311  1  0.962000  0.394400  0.788290  1.0  -0.0784
  C  C312  1  0.994990  0.419300  0.836160  1.0  -0.088
  C  C313  1  0.888590  0.440200  0.723520  1.0  0.6995
  C  C314  1  0.206540  0.283900  0.727340  1.0  0.1292
  C  C315  1  0.221720  0.190100  0.694840  1.0  0.1369
  C  C316  1  0.285690  0.171500  0.761570  1.0  0.1399
  C  C317  1  0.271160  0.268000  0.793480  1.0  0.1396
  C  C318  1  0.299230  0.319100  0.846090  1.0  0.284
  C  C319  1  0.319390  0.430100  0.921660  1.0  0.2732
  C  C320  1  0.322820  0.521400  0.969690  1.0  -0.0277
  C  C321  1  0.362120  0.583800  0.994420  1.0  -0.1327
  C  C322  1  0.364160  0.679300  0.035860  1.0  -0.0414
  C  C323  1  0.326980  0.713200  0.053760  1.0  -0.1234
  C  C324  1  0.288420  0.642700  0.031640  1.0  -0.0768
  C  C325  1  0.286290  0.547500  0.989410  1.0  -0.0893
  C  C326  1  0.328340  0.835200  0.093470  1.0  0.6762
  C  C327  1  0.690450  0.898400  0.029240  1.0  0.1286
  C  C328  1  0.707380  0.953600  0.081480  1.0  0.1412
  C  C329  1  0.643740  0.063600  0.076770  1.0  0.1573
  C  C330  1  0.626150  0.008800  0.023350  1.0  0.1581
  C  C331  1  0.581350  0.039300  0.991250  1.0  0.3205
  C  C332  1  0.523600  0.039900  0.925480  1.0  0.273
  C  C333  1  0.488810  0.013400  0.874860  1.0  -0.0428
  C  C334  1  0.448490  0.078700  0.865690  1.0  -0.1382
  C  C335  1  0.415770  0.052500  0.817700  1.0  -0.0461
  C  C336  1  0.422390  0.962100  0.777660  1.0  -0.1469
  C  C337  1  0.462000  0.894400  0.788290  1.0  -0.0784
  C  C338  1  0.494990  0.919300  0.836160  1.0  -0.088
  C  C339  1  0.388590  0.940200  0.723520  1.0  0.6995
  C  C340  1  0.706540  0.783900  0.727340  1.0  0.1292
  C  C341  1  0.721720  0.690100  0.694840  1.0  0.1369
  C  C342  1  0.785690  0.671500  0.761570  1.0  0.1399
  C  C343  1  0.771160  0.768000  0.793480  1.0  0.1396
  C  C344  1  0.799230  0.819100  0.846090  1.0  0.284
  C  C345  1  0.819390  0.930100  0.921660  1.0  0.2732
  C  C346  1  0.822820  0.021400  0.969690  1.0  -0.0277
  C  C347  1  0.862120  0.083800  0.994420  1.0  -0.1327
  C  C348  1  0.864160  0.179300  0.035860  1.0  -0.0414
  C  C349  1  0.826980  0.213200  0.053760  1.0  -0.1234
  C  C350  1  0.788420  0.142700  0.031640  1.0  -0.0768
  C  C351  1  0.786290  0.047500  0.989410  1.0  -0.0893
  C  C352  1  0.828340  0.335200  0.093470  1.0  0.6762
  N  N353  1  0.149640  0.573500  0.499170  1.0  -0.3881
  N  N354  1  0.184270  0.463800  0.605880  1.0  -0.4214
  N  N355  1  0.064070  0.510600  0.438940  1.0  -0.4853
  N  N356  1  0.055130  0.380900  0.510590  1.0  -0.3922
  N  N357  1  0.018570  0.381600  0.468060  1.0  -0.1167
  N  N358  1  0.231090  0.677900  0.277300  1.0  -0.3319
  N  N359  1  0.261080  0.868000  0.211800  1.0  -0.3406
  N  N360  1  0.284310  0.589400  0.378880  1.0  -0.5087
  N  N361  1  0.340590  0.716300  0.365390  1.0  -0.3999
  N  N362  1  0.352860  0.644800  0.413590  1.0  -0.1238
  N  N363  1  0.649640  0.073500  0.499170  1.0  -0.3881
  N  N364  1  0.684270  0.963800  0.605880  1.0  -0.4214
  N  N365  1  0.564070  0.010600  0.438940  1.0  -0.4853
  N  N366  1  0.555130  0.880900  0.510590  1.0  -0.3922
  N  N367  1  0.518570  0.881600  0.468060  1.0  -0.1167
  N  N368  1  0.731090  0.177900  0.277300  1.0  -0.3319
  N  N369  1  0.761080  0.368000  0.211800  1.0  -0.3406
  N  N370  1  0.784310  0.089400  0.378880  1.0  -0.5087
  N  N371  1  0.840590  0.216300  0.365390  1.0  -0.3999
  N  N372  1  0.852860  0.144800  0.413590  1.0  -0.1238
  N  N373  1  0.850360  0.573500  0.000830  1.0  -0.3843
  N  N374  1  0.815730  0.463800  0.894120  1.0  -0.4235
  N  N375  1  0.935930  0.510600  0.061060  1.0  -0.4846
  N  N376  1  0.944870  0.380900  0.989410  1.0  -0.3915
  N  N377  1  0.981430  0.381600  0.031940  1.0  -0.1194
  N  N378  1  0.768910  0.677900  0.222700  1.0  -0.3325
  N  N379  1  0.738920  0.868000  0.288200  1.0  -0.3412
  N  N380  1  0.715690  0.589400  0.121120  1.0  -0.5094
  N  N381  1  0.659410  0.716300  0.134610  1.0  -0.3994
  N  N382  1  0.647140  0.644800  0.086410  1.0  -0.1259
  N  N383  1  0.350360  0.073500  0.000830  1.0  -0.3843
  N  N384  1  0.315730  0.963800  0.894120  1.0  -0.4235
  N  N385  1  0.435930  0.010600  0.061060  1.0  -0.4846
  N  N386  1  0.444870  0.880900  0.989410  1.0  -0.3915
  N  N387  1  0.481430  0.881600  0.031940  1.0  -0.1194
  N  N388  1  0.268910  0.177900  0.222700  1.0  -0.3325
  N  N389  1  0.238920  0.368000  0.288200  1.0  -0.3412
  N  N390  1  0.215690  0.089400  0.121120  1.0  -0.5094
  N  N391  1  0.159410  0.216300  0.134610  1.0  -0.3994
  N  N392  1  0.147140  0.144800  0.086410  1.0  -0.1259
  N  N393  1  0.850360  0.426500  0.500830  1.0  -0.3829
  N  N394  1  0.815730  0.536200  0.394120  1.0  -0.4235
  N  N395  1  0.935930  0.489400  0.561060  1.0  -0.4844
  N  N396  1  0.944870  0.619100  0.489410  1.0  -0.3914
  N  N397  1  0.981430  0.618400  0.531940  1.0  -0.118
  N  N398  1  0.768910  0.322100  0.722700  1.0  -0.3314
  N  N399  1  0.738920  0.132000  0.788200  1.0  -0.3399
  N  N400  1  0.715690  0.410600  0.621120  1.0  -0.5097
  N  N401  1  0.659410  0.283700  0.634610  1.0  -0.3995
  N  N402  1  0.647140  0.355200  0.586410  1.0  -0.1263
  N  N403  1  0.350360  0.926500  0.500830  1.0  -0.3829
  N  N404  1  0.315730  0.036200  0.394120  1.0  -0.4235
  N  N405  1  0.435930  0.989400  0.561060  1.0  -0.4844
  N  N406  1  0.444870  0.119100  0.489410  1.0  -0.3914
  N  N407  1  0.481430  0.118400  0.531940  1.0  -0.118
  N  N408  1  0.268910  0.822100  0.722700  1.0  -0.3314
  N  N409  1  0.238920  0.632000  0.788200  1.0  -0.3399
  N  N410  1  0.215690  0.910600  0.621120  1.0  -0.5097
  N  N411  1  0.159410  0.783700  0.634610  1.0  -0.3995
  N  N412  1  0.147140  0.855200  0.586410  1.0  -0.1263
  N  N413  1  0.149640  0.426500  0.999170  1.0  -0.387
  N  N414  1  0.184270  0.536200  0.105880  1.0  -0.4237
  N  N415  1  0.064070  0.489400  0.938940  1.0  -0.4846
  N  N416  1  0.055130  0.619100  0.010590  1.0  -0.393
  N  N417  1  0.018570  0.618400  0.968060  1.0  -0.1181
  N  N418  1  0.231090  0.322100  0.777300  1.0  -0.3311
  N  N419  1  0.261080  0.132000  0.711800  1.0  -0.3408
  N  N420  1  0.284310  0.410600  0.878880  1.0  -0.508
  N  N421  1  0.340590  0.283700  0.865390  1.0  -0.4003
  N  N422  1  0.352860  0.355200  0.913590  1.0  -0.1245
  N  N423  1  0.649640  0.926500  0.999170  1.0  -0.387
  N  N424  1  0.684270  0.036200  0.105880  1.0  -0.4237
  N  N425  1  0.564070  0.989400  0.938940  1.0  -0.4846
  N  N426  1  0.555130  0.119100  0.010590  1.0  -0.393
  N  N427  1  0.518570  0.118400  0.968060  1.0  -0.1181
  N  N428  1  0.731090  0.822100  0.777300  1.0  -0.3311
  N  N429  1  0.761080  0.632000  0.711800  1.0  -0.3408
  N  N430  1  0.784310  0.910600  0.878880  1.0  -0.508
  N  N431  1  0.840590  0.783700  0.865390  1.0  -0.4003
  N  N432  1  0.852860  0.855200  0.913590  1.0  -0.1245
  Cl  Cl433  1  0.193510  0.713090  0.401110  1.0  -0.448
  Cl  Cl434  1  0.693510  0.213090  0.401110  1.0  -0.448
  Cl  Cl435  1  0.806490  0.713090  0.098890  1.0  -0.4477
  Cl  Cl436  1  0.306490  0.213090  0.098890  1.0  -0.4477
  Cl  Cl437  1  0.806490  0.286910  0.598890  1.0  -0.4487
  Cl  Cl438  1  0.306490  0.786910  0.598890  1.0  -0.4487
  Cl  Cl439  1  0.193510  0.286910  0.901110  1.0  -0.4485
  Cl  Cl440  1  0.693510  0.786910  0.901110  1.0  -0.4485
  O  O441  1  0.901540  0.615500  0.184920  1.0  -0.6601
  O  O442  1  0.850020  0.520200  0.220450  1.0  -0.6315
  O  O443  1  0.362160  0.098300  0.604210  1.0  -0.6254
  O  O444  1  0.294820  0.144800  0.609640  1.0  -0.6146
  O  O445  1  0.401540  0.115500  0.184920  1.0  -0.6601
  O  O446  1  0.350020  0.020200  0.220450  1.0  -0.6314
  O  O447  1  0.862160  0.598300  0.604210  1.0  -0.6254
  O  O448  1  0.794820  0.644800  0.609640  1.0  -0.6146
  O  O449  1  0.098460  0.615500  0.315080  1.0  -0.6585
  O  O450  1  0.149980  0.520200  0.279550  1.0  -0.6324
  O  O451  1  0.637840  0.098300  0.895790  1.0  -0.6245
  O  O452  1  0.705180  0.144800  0.890360  1.0  -0.6163
  O  O453  1  0.598460  0.115500  0.315080  1.0  -0.6585
  O  O454  1  0.649980  0.020200  0.279550  1.0  -0.6324
  O  O455  1  0.137840  0.598300  0.895790  1.0  -0.6245
  O  O456  1  0.205180  0.644800  0.890360  1.0  -0.6163
  O  O457  1  0.098460  0.384500  0.815080  1.0  -0.6601
  O  O458  1  0.149980  0.479800  0.779550  1.0  -0.6325
  O  O459  1  0.637840  0.901700  0.395790  1.0  -0.6246
  O  O460  1  0.705180  0.855200  0.390360  1.0  -0.6164
  O  O461  1  0.598460  0.884500  0.815080  1.0  -0.6601
  O  O462  1  0.649980  0.979800  0.779550  1.0  -0.6325
  O  O463  1  0.137840  0.401700  0.395790  1.0  -0.6246
  O  O464  1  0.205180  0.355200  0.390360  1.0  -0.6164
  O  O465  1  0.901540  0.384500  0.684920  1.0  -0.6612
  O  O466  1  0.850020  0.479800  0.720450  1.0  -0.632
  O  O467  1  0.362160  0.901700  0.104210  1.0  -0.6252
  O  O468  1  0.294820  0.855200  0.109640  1.0  -0.6144
  O  O469  1  0.401540  0.884500  0.684920  1.0  -0.6612
  O  O470  1  0.350020  0.979800  0.720450  1.0  -0.632
  O  O471  1  0.862160  0.401700  0.104210  1.0  -0.6252
  O  O472  1  0.794820  0.355200  0.109640  1.0  -0.6144
