# generated using pymatgen
data_NdCuH7C15(NO5)2
_symmetry_space_group_name_H-M   'P 1'
_cell_length_a   8.82300000
_cell_length_b   9.39600000
_cell_length_c   14.54600000
_cell_angle_alpha   81.85000000
_cell_angle_beta   72.79800000
_cell_angle_gamma   65.36800000
_symmetry_Int_Tables_number   1
_chemical_formula_structural   NdCuH7C15(NO5)2
_chemical_formula_sum   'Nd2 Cu2 H14 C30 N4 O20'
_cell_volume   1046.87550223
_cell_formula_units_Z   2
loop_
 _symmetry_equiv_pos_site_id
 _symmetry_equiv_pos_as_xyz
  1  'x, y, z'
loop_
 _atom_site_type_symbol
 _atom_site_label
 _atom_site_symmetry_multiplicity
 _atom_site_fract_x
 _atom_site_fract_y
 _atom_site_fract_z
 _atom_site_occupancy
 _atom_site_charge
  Nd  Nd1  1  0.076470  0.187950  0.634370  1.0  2.2284
  Nd  Nd2  1  0.923530  0.812050  0.365630  1.0  2.2277
  Cu  Cu3  1  0.427030  0.382740  0.934460  1.0  0.7851
  Cu  Cu4  1  0.572970  0.617260  0.065540  1.0  0.7867
  H  H5  1  0.723800  0.297100  0.147400  1.0  0.1021
  H  H6  1  0.978800  0.077700  0.111300  1.0  0.1164
  H  H7  1  0.511800  0.896900  0.928200  1.0  0.0892
  H  H8  1  0.041900  0.539100  0.774200  1.0  0.1265
  H  H9  1  0.657700  0.964500  0.782200  1.0  0.127
  H  H10  1  0.921000  0.782600  0.702500  1.0  0.1031
  H  H11  1  0.184400  0.077500  0.969900  1.0  0.0977
  H  H12  1  0.276200  0.702900  0.852600  1.0  0.1019
  H  H13  1  0.021200  0.922300  0.888700  1.0  0.1149
  H  H14  1  0.488200  0.103100  0.071800  1.0  0.0901
  H  H15  1  0.958100  0.460900  0.225800  1.0  0.126
  H  H16  1  0.342300  0.035500  0.217800  1.0  0.1274
  H  H17  1  0.079000  0.217400  0.297500  1.0  0.1025
  H  H18  1  0.815600  0.922500  0.030100  1.0  0.0979
  C  C19  1  0.959800  0.468500  0.471700  1.0  0.5738
  C  C20  1  0.898200  0.424700  0.949000  1.0  0.1538
  C  C21  1  0.840600  0.576700  0.893400  1.0  0.1458
  C  C22  1  0.691600  0.383700  0.783900  1.0  0.539
  C  C23  1  0.754000  0.220400  0.833300  1.0  0.565
  C  C24  1  0.807900  0.296200  0.090800  1.0  0.16
  C  C25  1  0.959600  0.164300  0.069600  1.0  -0.1226
  C  C26  1  0.619400  0.824800  0.896600  1.0  0.1616
  C  C27  1  0.933900  0.611800  0.804700  1.0  -0.1299
  C  C28  1  0.705000  0.865500  0.809400  1.0  -0.1307
  C  C29  1  0.862000  0.757900  0.762700  1.0  -0.0043
  C  C30  1  0.053400  0.294000  0.922800  1.0  -0.1522
  C  C31  1  0.198700  0.276300  0.831100  1.0  0.7451
  C  C32  1  0.081200  0.165200  0.985500  1.0  0.0029
  C  C33  1  0.908000  0.021200  0.533300  1.0  0.5753
  C  C34  1  0.040200  0.531500  0.528300  1.0  0.5741
  C  C35  1  0.101800  0.575300  0.051000  1.0  0.1533
  C  C36  1  0.159400  0.423300  0.106600  1.0  0.1498
  C  C37  1  0.308400  0.616300  0.216100  1.0  0.538
  C  C38  1  0.246000  0.779600  0.166700  1.0  0.5647
  C  C39  1  0.192100  0.703800  0.909200  1.0  0.1595
  C  C40  1  0.040400  0.835700  0.930400  1.0  -0.1224
  C  C41  1  0.380600  0.175200  0.103400  1.0  0.1616
  C  C42  1  0.066100  0.388200  0.195300  1.0  -0.1296
  C  C43  1  0.295000  0.134500  0.190600  1.0  -0.1302
  C  C44  1  0.138000  0.242100  0.237300  1.0  -0.0017
  C  C45  1  0.946600  0.706000  0.077200  1.0  -0.1523
  C  C46  1  0.801300  0.723700  0.168900  1.0  0.7563
  C  C47  1  0.918800  0.834800  0.014500  1.0  0.0045
  C  C48  1  0.092000  0.978800  0.466700  1.0  0.577
  N  N49  1  0.778700  0.422100  0.032200  1.0  -0.2897
  N  N50  1  0.686300  0.683700  0.937800  1.0  -0.3494
  N  N51  1  0.221300  0.577900  0.967800  1.0  -0.2892
  N  N52  1  0.313700  0.316300  0.062200  1.0  -0.3474
  O  O53  1  0.961200  0.334000  0.495800  1.0  -0.627
  O  O54  1  0.649800  0.201500  0.911200  1.0  -0.5537
  O  O55  1  0.543600  0.481500  0.825800  1.0  -0.5278
  O  O56  1  0.788100  0.407100  0.707300  1.0  -0.5999
  O  O57  1  0.178700  0.241000  0.757600  1.0  -0.776
  O  O58  1  0.898800  0.123800  0.795000  1.0  -0.6023
  O  O59  1  0.329600  0.290200  0.836600  1.0  -0.6221
  O  O60  1  0.898700  0.556300  0.407100  1.0  -0.63
  O  O61  1  0.873200  0.088400  0.610500  1.0  -0.6397
  O  O62  1  0.806400  0.986600  0.505300  1.0  -0.6496
  O  O63  1  0.038800  0.666000  0.504200  1.0  -0.6268
  O  O64  1  0.350200  0.798500  0.088800  1.0  -0.5495
  O  O65  1  0.456400  0.518500  0.174200  1.0  -0.5286
  O  O66  1  0.211900  0.592900  0.292700  1.0  -0.5993
  O  O67  1  0.821300  0.759000  0.242400  1.0  -0.7735
  O  O68  1  0.101200  0.876200  0.205000  1.0  -0.5982
  O  O69  1  0.670400  0.709800  0.163400  1.0  -0.6219
  O  O70  1  0.101300  0.443700  0.592900  1.0  -0.6254
  O  O71  1  0.126800  0.911600  0.389500  1.0  -0.6383
  O  O72  1  0.193600  0.013400  0.494700  1.0  -0.6707
