# generated using pymatgen
data_Mn3Mo12P8H32C8(N4O33)2
_symmetry_space_group_name_H-M   'P 1'
_cell_length_a   20.31900000
_cell_length_b   20.31900000
_cell_length_c   18.23390000
_cell_angle_alpha   90.00000000
_cell_angle_beta   90.00000000
_cell_angle_gamma   90.00000000
_symmetry_Int_Tables_number   1
_chemical_formula_structural   Mn3Mo12P8H32C8(N4O33)2
_chemical_formula_sum   'Mn12 Mo48 P32 H128 C32 N32 O264'
_cell_volume   7528.08006390
_cell_formula_units_Z   4
loop_
 _symmetry_equiv_pos_site_id
 _symmetry_equiv_pos_as_xyz
  1  'x, y, z'
loop_
 _atom_site_type_symbol
 _atom_site_label
 _atom_site_symmetry_multiplicity
 _atom_site_fract_x
 _atom_site_fract_y
 _atom_site_fract_z
 _atom_site_occupancy
 _atom_site_charge
  Mn  Mn1  1  0.505530  0.287860  0.843200  1.0  1.1598
  Mn  Mn2  1  0.994470  0.212140  0.843200  1.0  1.1601
  Mn  Mn3  1  0.712140  0.005530  0.343200  1.0  1.1595
  Mn  Mn4  1  0.787860  0.494470  0.343200  1.0  1.1596
  Mn  Mn5  1  0.494470  0.712140  0.156800  1.0  1.1608
  Mn  Mn6  1  0.005530  0.787860  0.156800  1.0  1.1605
  Mn  Mn7  1  0.287860  0.994470  0.656800  1.0  1.1595
  Mn  Mn8  1  0.212140  0.505530  0.656800  1.0  1.1597
  Mn  Mn9  1  0.500000  0.000000  0.000000  1.0  1.1297
  Mn  Mn10  1  0.000000  0.500000  0.000000  1.0  1.1297
  Mn  Mn11  1  0.000000  0.000000  0.500000  1.0  1.1297
  Mn  Mn12  1  0.500000  0.500000  0.500000  1.0  1.1297
  Mo  Mo13  1  0.513430  0.001610  0.790390  1.0  1.689
  Mo  Mo14  1  0.629810  0.986570  0.850070  1.0  1.7879
  Mo  Mo15  1  0.672630  0.073590  0.005590  1.0  1.7269
  Mo  Mo16  1  0.587780  0.154870  0.062540  1.0  1.7557
  Mo  Mo17  1  0.430350  0.176420  0.986910  1.0  1.816
  Mo  Mo18  1  0.402690  0.112290  0.867890  1.0  1.7846
  Mo  Mo19  1  0.986570  0.498390  0.790390  1.0  1.6902
  Mo  Mo20  1  0.870190  0.513430  0.850070  1.0  1.7917
  Mo  Mo21  1  0.827370  0.426410  0.005590  1.0  1.7274
  Mo  Mo22  1  0.912220  0.345130  0.062540  1.0  1.7546
  Mo  Mo23  1  0.069650  0.323580  0.986910  1.0  1.8157
  Mo  Mo24  1  0.097310  0.387710  0.867890  1.0  1.7847
  Mo  Mo25  1  0.998390  0.013430  0.290390  1.0  1.6879
  Mo  Mo26  1  0.013430  0.129810  0.350070  1.0  1.7876
  Mo  Mo27  1  0.926410  0.172630  0.505590  1.0  1.7267
  Mo  Mo28  1  0.845130  0.087780  0.562540  1.0  1.7548
  Mo  Mo29  1  0.823580  0.930350  0.486910  1.0  1.8191
  Mo  Mo30  1  0.887710  0.902690  0.367890  1.0  1.7839
  Mo  Mo31  1  0.501610  0.486570  0.290390  1.0  1.69
  Mo  Mo32  1  0.486570  0.370190  0.350070  1.0  1.7896
  Mo  Mo33  1  0.573590  0.327370  0.505590  1.0  1.7279
  Mo  Mo34  1  0.654870  0.412220  0.562540  1.0  1.7549
  Mo  Mo35  1  0.676420  0.569650  0.486910  1.0  1.8164
  Mo  Mo36  1  0.612290  0.597310  0.367890  1.0  1.7859
  Mo  Mo37  1  0.486570  0.998390  0.209610  1.0  1.6899
  Mo  Mo38  1  0.370190  0.013430  0.149930  1.0  1.792
  Mo  Mo39  1  0.327370  0.926410  0.994410  1.0  1.7245
  Mo  Mo40  1  0.412220  0.845130  0.937460  1.0  1.7508
  Mo  Mo41  1  0.569650  0.823580  0.013090  1.0  1.8154
  Mo  Mo42  1  0.597310  0.887710  0.132110  1.0  1.7845
  Mo  Mo43  1  0.013430  0.501610  0.209610  1.0  1.6891
  Mo  Mo44  1  0.129810  0.486570  0.149930  1.0  1.7887
  Mo  Mo45  1  0.172630  0.573590  0.994410  1.0  1.7235
  Mo  Mo46  1  0.087780  0.654870  0.937460  1.0  1.7518
  Mo  Mo47  1  0.930350  0.676420  0.013090  1.0  1.8157
  Mo  Mo48  1  0.902690  0.612290  0.132110  1.0  1.7848
  Mo  Mo49  1  0.001610  0.986570  0.709610  1.0  1.6899
  Mo  Mo50  1  0.986570  0.870190  0.649930  1.0  1.7906
  Mo  Mo51  1  0.073590  0.827370  0.494410  1.0  1.725
  Mo  Mo52  1  0.154870  0.912220  0.437460  1.0  1.7513
  Mo  Mo53  1  0.176420  0.069650  0.513090  1.0  1.8168
  Mo  Mo54  1  0.112290  0.097310  0.632110  1.0  1.7861
  Mo  Mo55  1  0.498390  0.513430  0.709610  1.0  1.6878
  Mo  Mo56  1  0.513430  0.629810  0.649930  1.0  1.7885
  Mo  Mo57  1  0.426410  0.672630  0.494410  1.0  1.7237
  Mo  Mo58  1  0.345130  0.587780  0.437460  1.0  1.7508
  Mo  Mo59  1  0.323580  0.430350  0.513090  1.0  1.8182
  Mo  Mo60  1  0.387710  0.402690  0.632110  1.0  1.784
  P  P61  1  0.564100  0.143730  0.877550  1.0  1.6583
  P  P62  1  0.419470  0.101670  0.684330  1.0  1.8452
  P  P63  1  0.779260  0.053770  0.869320  1.0  1.8754
  P  P64  1  0.527230  0.303410  0.019630  1.0  1.807
  P  P65  1  0.935900  0.356270  0.877550  1.0  1.6618
  P  P66  1  0.080530  0.398330  0.684330  1.0  1.8492
  P  P67  1  0.720740  0.446230  0.869320  1.0  1.872
  P  P68  1  0.972770  0.196590  0.019630  1.0  1.8123
  P  P69  1  0.856270  0.064100  0.377550  1.0  1.6594
  P  P70  1  0.898330  0.919470  0.184330  1.0  1.8484
  P  P71  1  0.946230  0.279260  0.369320  1.0  1.8694
  P  P72  1  0.696590  0.027230  0.519630  1.0  1.8177
  P  P73  1  0.643730  0.435900  0.377550  1.0  1.6634
  P  P74  1  0.601670  0.580530  0.184330  1.0  1.8523
  P  P75  1  0.553770  0.220740  0.369320  1.0  1.8654
  P  P76  1  0.803410  0.472770  0.519630  1.0  1.8163
  P  P77  1  0.435900  0.856270  0.122450  1.0  1.6584
  P  P78  1  0.580530  0.898330  0.315670  1.0  1.8493
  P  P79  1  0.220740  0.946230  0.130680  1.0  1.8715
  P  P80  1  0.472770  0.696590  0.980370  1.0  1.812
  P  P81  1  0.064100  0.643730  0.122450  1.0  1.6606
  P  P82  1  0.919470  0.601670  0.315670  1.0  1.8452
  P  P83  1  0.279260  0.553770  0.130680  1.0  1.8756
  P  P84  1  0.027230  0.803410  0.980370  1.0  1.8068
  P  P85  1  0.143730  0.935900  0.622450  1.0  1.6601
  P  P86  1  0.101670  0.080530  0.815670  1.0  1.8522
  P  P87  1  0.053770  0.720740  0.630680  1.0  1.8654
  P  P88  1  0.303410  0.972770  0.480370  1.0  1.8159
  P  P89  1  0.356270  0.564100  0.622450  1.0  1.6619
  P  P90  1  0.398330  0.419470  0.815670  1.0  1.8487
  P  P91  1  0.446230  0.779260  0.630680  1.0  1.8691
  P  P92  1  0.196590  0.527230  0.480370  1.0  1.817
  H  H93  1  0.357200  0.842900  0.400600  1.0  0.134
  H  H94  1  0.370100  0.774500  0.363500  1.0  0.1395
  H  H95  1  0.311200  0.809000  0.260500  1.0  0.1319
  H  H96  1  0.267200  0.807500  0.331000  1.0  0.1352
  H  H97  1  0.197900  0.704100  0.128000  1.0  0.1311
  H  H98  1  0.196900  0.769900  0.173100  1.0  0.135
  H  H99  1  0.936000  0.013800  0.026500  1.0  0.1486
  H  H100  1  0.952900  0.953400  0.976200  1.0  0.1416
  H  H101  1  0.418400  0.864200  0.278700  1.0  0.29
  H  H102  1  0.457700  0.843300  0.343600  1.0  0.3644
  H  H103  1  0.308000  0.929400  0.313500  1.0  0.3012
  H  H104  1  0.250900  0.906900  0.268700  1.0  0.3397
  H  H105  1  0.211500  0.802400  0.032600  1.0  0.2744
  H  H106  1  0.143600  0.787100  0.058300  1.0  0.3323
  H  H107  1  0.986900  0.061500  0.902900  1.0  0.3287
  H  H108  1  0.916100  0.042600  0.901600  1.0  0.4414
  H  H109  1  0.142800  0.657100  0.400600  1.0  0.1339
  H  H110  1  0.129900  0.725500  0.363500  1.0  0.137
  H  H111  1  0.188800  0.691000  0.260500  1.0  0.1322
  H  H112  1  0.232800  0.692500  0.331000  1.0  0.1342
  H  H113  1  0.302100  0.795900  0.128000  1.0  0.1305
  H  H114  1  0.303100  0.730100  0.173100  1.0  0.1355
  H  H115  1  0.564000  0.486200  0.026500  1.0  0.1489
  H  H116  1  0.547100  0.546600  0.976200  1.0  0.1413
  H  H117  1  0.081600  0.635800  0.278700  1.0  0.2913
  H  H118  1  0.042300  0.656700  0.343600  1.0  0.3621
  H  H119  1  0.192000  0.570600  0.313500  1.0  0.3019
  H  H120  1  0.249100  0.593100  0.268700  1.0  0.3424
  H  H121  1  0.288500  0.697600  0.032600  1.0  0.2731
  H  H122  1  0.356400  0.712900  0.058300  1.0  0.3342
  H  H123  1  0.513100  0.438500  0.902900  1.0  0.3276
  H  H124  1  0.583900  0.457400  0.901600  1.0  0.4427
  H  H125  1  0.157100  0.857200  0.900600  1.0  0.1342
  H  H126  1  0.225500  0.870100  0.863500  1.0  0.1329
  H  H127  1  0.191000  0.811200  0.760500  1.0  0.1324
  H  H128  1  0.192500  0.767200  0.831000  1.0  0.1369
  H  H129  1  0.295900  0.697900  0.628000  1.0  0.131
  H  H130  1  0.230100  0.696900  0.673100  1.0  0.1351
  H  H131  1  0.986200  0.436000  0.526500  1.0  0.1494
  H  H132  1  0.046600  0.452900  0.476200  1.0  0.1437
  H  H133  1  0.135800  0.918400  0.778700  1.0  0.2902
  H  H134  1  0.156700  0.957700  0.843600  1.0  0.3632
  H  H135  1  0.070600  0.808000  0.813500  1.0  0.3006
  H  H136  1  0.093100  0.750900  0.768700  1.0  0.3408
  H  H137  1  0.197600  0.711500  0.532600  1.0  0.2744
  H  H138  1  0.212900  0.643600  0.558300  1.0  0.331
  H  H139  1  0.938500  0.486900  0.402900  1.0  0.3276
  H  H140  1  0.957400  0.416100  0.401600  1.0  0.4394
  H  H141  1  0.342900  0.642800  0.900600  1.0  0.1353
  H  H142  1  0.274500  0.629900  0.863500  1.0  0.1332
  H  H143  1  0.309000  0.688800  0.760500  1.0  0.1328
  H  H144  1  0.307500  0.732800  0.831000  1.0  0.1363
  H  H145  1  0.204100  0.802100  0.628000  1.0  0.1285
  H  H146  1  0.269900  0.803100  0.673100  1.0  0.1346
  H  H147  1  0.513800  0.064000  0.526500  1.0  0.149
  H  H148  1  0.453400  0.047100  0.476200  1.0  0.1435
  H  H149  1  0.364200  0.581600  0.778700  1.0  0.2898
  H  H150  1  0.343300  0.542300  0.843600  1.0  0.3621
  H  H151  1  0.429400  0.692000  0.813500  1.0  0.2994
  H  H152  1  0.406900  0.749100  0.768700  1.0  0.3432
  H  H153  1  0.302400  0.788500  0.532600  1.0  0.2736
  H  H154  1  0.287100  0.856400  0.558300  1.0  0.3315
  H  H155  1  0.561500  0.013100  0.402900  1.0  0.3263
  H  H156  1  0.542600  0.083900  0.401600  1.0  0.4407
  H  H157  1  0.642800  0.157100  0.599400  1.0  0.1349
  H  H158  1  0.629900  0.225500  0.636500  1.0  0.1373
  H  H159  1  0.688800  0.191000  0.739500  1.0  0.1314
  H  H160  1  0.732800  0.192500  0.669000  1.0  0.1342
  H  H161  1  0.802100  0.295900  0.872000  1.0  0.1306
  H  H162  1  0.803100  0.230100  0.826900  1.0  0.135
  H  H163  1  0.064000  0.986200  0.973500  1.0  0.1488
  H  H164  1  0.047100  0.046600  0.023800  1.0  0.1413
  H  H165  1  0.581600  0.135800  0.721300  1.0  0.2887
  H  H166  1  0.542300  0.156700  0.656400  1.0  0.3613
  H  H167  1  0.692000  0.070600  0.686500  1.0  0.3014
  H  H168  1  0.749100  0.093100  0.731300  1.0  0.343
  H  H169  1  0.788500  0.197600  0.967400  1.0  0.2724
  H  H170  1  0.856400  0.212900  0.941700  1.0  0.3346
  H  H171  1  0.013100  0.938500  0.097100  1.0  0.3275
  H  H172  1  0.083900  0.957400  0.098400  1.0  0.442
  H  H173  1  0.857200  0.342900  0.599400  1.0  0.1353
  H  H174  1  0.870100  0.274500  0.636500  1.0  0.1388
  H  H175  1  0.811200  0.309000  0.739500  1.0  0.1314
  H  H176  1  0.767200  0.307500  0.669000  1.0  0.1347
  H  H177  1  0.697900  0.204100  0.872000  1.0  0.1313
  H  H178  1  0.696900  0.269900  0.826900  1.0  0.1352
  H  H179  1  0.436000  0.513800  0.973500  1.0  0.1479
  H  H180  1  0.452900  0.453400  0.023800  1.0  0.1426
  H  H181  1  0.918400  0.364200  0.721300  1.0  0.2882
  H  H182  1  0.957700  0.343300  0.656400  1.0  0.3642
  H  H183  1  0.808000  0.429400  0.686500  1.0  0.3012
  H  H184  1  0.750900  0.406900  0.731300  1.0  0.341
  H  H185  1  0.711500  0.302400  0.967400  1.0  0.2738
  H  H186  1  0.643600  0.287100  0.941700  1.0  0.3325
  H  H187  1  0.486900  0.561500  0.097100  1.0  0.3287
  H  H188  1  0.416100  0.542600  0.098400  1.0  0.4411
  H  H189  1  0.842900  0.142800  0.099400  1.0  0.1356
  H  H190  1  0.774500  0.129900  0.136500  1.0  0.1331
  H  H191  1  0.809000  0.188800  0.239500  1.0  0.1318
  H  H192  1  0.807500  0.232800  0.169000  1.0  0.1367
  H  H193  1  0.704100  0.302100  0.372000  1.0  0.1287
  H  H194  1  0.769900  0.303100  0.326900  1.0  0.1346
  H  H195  1  0.013800  0.564000  0.473500  1.0  0.1485
  H  H196  1  0.953400  0.547100  0.523800  1.0  0.1441
  H  H197  1  0.864200  0.081600  0.221300  1.0  0.2882
  H  H198  1  0.843300  0.042300  0.156400  1.0  0.3617
  H  H199  1  0.929400  0.192000  0.186500  1.0  0.2989
  H  H200  1  0.906900  0.249100  0.231300  1.0  0.3438
  H  H201  1  0.802400  0.288500  0.467400  1.0  0.2732
  H  H202  1  0.787100  0.356400  0.441700  1.0  0.3316
  H  H203  1  0.061500  0.513100  0.597100  1.0  0.3266
  H  H204  1  0.042600  0.583900  0.598400  1.0  0.4399
  H  H205  1  0.657100  0.357200  0.099400  1.0  0.1354
  H  H206  1  0.725500  0.370100  0.136500  1.0  0.1331
  H  H207  1  0.691000  0.311200  0.239500  1.0  0.1319
  H  H208  1  0.692500  0.267200  0.169000  1.0  0.1362
  H  H209  1  0.795900  0.197900  0.372000  1.0  0.1311
  H  H210  1  0.730100  0.196900  0.326900  1.0  0.1344
  H  H211  1  0.486200  0.936000  0.473500  1.0  0.1479
  H  H212  1  0.546600  0.952900  0.523800  1.0  0.1437
  H  H213  1  0.635800  0.418400  0.221300  1.0  0.2875
  H  H214  1  0.656700  0.457700  0.156400  1.0  0.364
  H  H215  1  0.570600  0.308000  0.186500  1.0  0.3006
  H  H216  1  0.593100  0.250900  0.231300  1.0  0.3416
  H  H217  1  0.697600  0.211500  0.467400  1.0  0.2735
  H  H218  1  0.712900  0.143600  0.441700  1.0  0.3318
  H  H219  1  0.438500  0.986900  0.597100  1.0  0.327
  H  H220  1  0.457400  0.916100  0.598400  1.0  0.4395
  C  C221  1  0.363900  0.821100  0.353900  1.0  0.0752
  C  C222  1  0.303700  0.830000  0.307500  1.0  0.0472
  C  C223  1  0.213000  0.749400  0.128500  1.0  0.0308
  C  C224  1  0.964500  0.998600  0.987400  1.0  0.0443
  C  C225  1  0.136100  0.678900  0.353900  1.0  0.0752
  C  C226  1  0.196300  0.670000  0.307500  1.0  0.0475
  C  C227  1  0.287000  0.750600  0.128500  1.0  0.0304
  C  C228  1  0.535500  0.501400  0.987400  1.0  0.043
  C  C229  1  0.178900  0.863900  0.853900  1.0  0.0748
  C  C230  1  0.170000  0.803700  0.807500  1.0  0.042
  C  C231  1  0.250600  0.713000  0.628500  1.0  0.0301
  C  C232  1  0.001400  0.464500  0.487400  1.0  0.0426
  C  C233  1  0.321100  0.636100  0.853900  1.0  0.0764
  C  C234  1  0.330000  0.696300  0.807500  1.0  0.0447
  C  C235  1  0.249400  0.787000  0.628500  1.0  0.0293
  C  C236  1  0.498600  0.035500  0.487400  1.0  0.0425
  C  C237  1  0.636100  0.178900  0.646100  1.0  0.0753
  C  C238  1  0.696300  0.170000  0.692500  1.0  0.0479
  C  C239  1  0.787000  0.250600  0.871500  1.0  0.0307
  C  C240  1  0.035500  0.001400  0.012600  1.0  0.0406
  C  C241  1  0.863900  0.321100  0.646100  1.0  0.0759
  C  C242  1  0.803700  0.330000  0.692500  1.0  0.0477
  C  C243  1  0.713000  0.249400  0.871500  1.0  0.0309
  C  C244  1  0.464500  0.498600  0.012600  1.0  0.0422
  C  C245  1  0.821100  0.136100  0.146100  1.0  0.0784
  C  C246  1  0.830000  0.196300  0.192500  1.0  0.0446
  C  C247  1  0.749400  0.287000  0.371500  1.0  0.0293
  C  C248  1  0.998600  0.535500  0.512600  1.0  0.0404
  C  C249  1  0.678900  0.363900  0.146100  1.0  0.0748
  C  C250  1  0.670000  0.303700  0.192500  1.0  0.0424
  C  C251  1  0.750600  0.213000  0.371500  1.0  0.0304
  C  C252  1  0.501400  0.964500  0.512600  1.0  0.0402
  N  N253  1  0.420600  0.846000  0.321200  1.0  -0.5328
  N  N254  1  0.285000  0.898000  0.294800  1.0  -0.5368
  N  N255  1  0.185600  0.784600  0.064100  1.0  -0.5292
  N  N256  1  0.954400  0.040000  0.921400  1.0  -0.5407
  N  N257  1  0.079400  0.654000  0.321200  1.0  -0.5326
  N  N258  1  0.215000  0.602000  0.294800  1.0  -0.5352
  N  N259  1  0.314400  0.715400  0.064100  1.0  -0.5297
  N  N260  1  0.545600  0.460000  0.921400  1.0  -0.5415
  N  N261  1  0.154000  0.920600  0.821200  1.0  -0.5326
  N  N262  1  0.102000  0.785000  0.794800  1.0  -0.5351
  N  N263  1  0.215400  0.685600  0.564100  1.0  -0.5291
  N  N264  1  0.960000  0.454400  0.421400  1.0  -0.5403
  N  N265  1  0.346000  0.579400  0.821200  1.0  -0.533
  N  N266  1  0.398000  0.715000  0.794800  1.0  -0.5378
  N  N267  1  0.284600  0.814400  0.564100  1.0  -0.5303
  N  N268  1  0.540000  0.045600  0.421400  1.0  -0.5406
  N  N269  1  0.579400  0.154000  0.678800  1.0  -0.5309
  N  N270  1  0.715000  0.102000  0.705200  1.0  -0.5354
  N  N271  1  0.814400  0.215400  0.935900  1.0  -0.5325
  N  N272  1  0.045600  0.960000  0.078600  1.0  -0.5397
  N  N273  1  0.920600  0.346000  0.678800  1.0  -0.5313
  N  N274  1  0.785000  0.398000  0.705200  1.0  -0.537
  N  N275  1  0.685600  0.284600  0.935900  1.0  -0.5325
  N  N276  1  0.454400  0.540000  0.078600  1.0  -0.5394
  N  N277  1  0.846000  0.079400  0.178800  1.0  -0.5315
  N  N278  1  0.898000  0.215000  0.205200  1.0  -0.5378
  N  N279  1  0.784600  0.314400  0.435900  1.0  -0.5323
  N  N280  1  0.040000  0.545600  0.578600  1.0  -0.5379
  N  N281  1  0.654000  0.420600  0.178800  1.0  -0.531
  N  N282  1  0.602000  0.285000  0.205200  1.0  -0.5355
  N  N283  1  0.715400  0.185600  0.435900  1.0  -0.5326
  N  N284  1  0.460000  0.954400  0.578600  1.0  -0.5389
  O  O285  1  0.540690  0.980090  0.891740  1.0  -0.71
  O  O286  1  0.434590  0.081470  0.964290  1.0  -0.7144
  O  O287  1  0.643280  0.908670  0.825200  1.0  -0.5369
  O  O288  1  0.808020  0.105410  0.819140  1.0  -0.6169
  O  O289  1  0.621980  0.097140  0.889790  1.0  -0.7831
  O  O290  1  0.580600  0.061130  0.035060  1.0  -0.7152
  O  O291  1  0.601190  0.030120  0.758570  1.0  -0.5984
  O  O292  1  0.663470  0.985510  0.953810  1.0  -0.6206
  O  O293  1  0.426000  0.204680  0.884220  1.0  -0.7563
  O  O294  1  0.353800  0.185360  0.020840  1.0  -0.5229
  O  O295  1  0.503800  0.926480  0.753760  1.0  -0.54
  O  O296  1  0.475530  0.051360  0.700490  1.0  -0.7524
  O  O297  1  0.712890  0.046930  0.080230  1.0  -0.5204
  O  O298  1  0.608000  0.150410  0.151510  1.0  -0.5748
  O  O299  1  0.671520  0.169080  0.014040  1.0  -0.6541
  O  O300  1  0.751600  0.089280  0.939430  1.0  -0.7636
  O  O301  1  0.553300  0.320160  0.942720  1.0  -0.7567
  O  O302  1  0.508760  0.103100  0.839760  1.0  -0.7697
  O  O303  1  0.417300  0.013690  0.833580  1.0  -0.6159
  O  O304  1  0.398650  0.134570  0.757570  1.0  -0.7127
  O  O305  1  0.578310  0.203730  0.831300  1.0  -0.7642
  O  O306  1  0.447800  0.155370  0.635490  1.0  -0.6129
  O  O307  1  0.360940  0.068500  0.649210  1.0  -0.7537
  O  O308  1  0.460590  0.268650  0.011520  1.0  -0.7223
  O  O309  1  0.829230  0.001950  0.894600  1.0  -0.5873
  O  O310  1  0.538840  0.166420  0.953900  1.0  -0.8054
  O  O311  1  0.483510  0.152920  0.080610  1.0  -0.5793
  O  O312  1  0.577200  0.255410  0.057810  1.0  -0.7152
  O  O313  1  0.520600  0.363890  0.066300  1.0  -0.6724
  O  O314  1  0.722440  0.019530  0.827500  1.0  -0.7729
  O  O315  1  0.320830  0.109030  0.879000  1.0  -0.5787
  O  O316  1  0.573540  0.352410  0.784350  1.0  -0.29
  O  O317  1  0.472600  0.260590  0.732810  1.0  -0.2078
  O  O318  1  0.959310  0.519910  0.891740  1.0  -0.7098
  O  O319  1  0.065410  0.418530  0.964290  1.0  -0.7154
  O  O320  1  0.856720  0.591330  0.825200  1.0  -0.5383
  O  O321  1  0.691980  0.394590  0.819140  1.0  -0.6177
  O  O322  1  0.878020  0.402860  0.889790  1.0  -0.7818
  O  O323  1  0.919400  0.438870  0.035060  1.0  -0.7148
  O  O324  1  0.898810  0.469880  0.758570  1.0  -0.5981
  O  O325  1  0.836530  0.514490  0.953810  1.0  -0.6209
  O  O326  1  0.074000  0.295320  0.884220  1.0  -0.7553
  O  O327  1  0.146200  0.314640  0.020840  1.0  -0.5244
  O  O328  1  0.996200  0.573520  0.753760  1.0  -0.5414
  O  O329  1  0.024470  0.448640  0.700490  1.0  -0.753
  O  O330  1  0.787110  0.453070  0.080230  1.0  -0.5213
  O  O331  1  0.892000  0.349590  0.151510  1.0  -0.5741
  O  O332  1  0.828480  0.330920  0.014040  1.0  -0.6556
  O  O333  1  0.748400  0.410720  0.939430  1.0  -0.7644
  O  O334  1  0.946700  0.179840  0.942720  1.0  -0.7572
  O  O335  1  0.991240  0.396900  0.839760  1.0  -0.7687
  O  O336  1  0.082700  0.486310  0.833580  1.0  -0.6154
  O  O337  1  0.101350  0.365430  0.757570  1.0  -0.7123
  O  O338  1  0.921690  0.296270  0.831300  1.0  -0.7646
  O  O339  1  0.052200  0.344630  0.635490  1.0  -0.6097
  O  O340  1  0.139060  0.431500  0.649210  1.0  -0.7531
  O  O341  1  0.039410  0.231350  0.011520  1.0  -0.7224
  O  O342  1  0.670770  0.498050  0.894600  1.0  -0.5922
  O  O343  1  0.961160  0.333580  0.953900  1.0  -0.8048
  O  O344  1  0.016490  0.347080  0.080610  1.0  -0.5824
  O  O345  1  0.922800  0.244590  0.057810  1.0  -0.7139
  O  O346  1  0.979400  0.136110  0.066300  1.0  -0.6732
  O  O347  1  0.777560  0.480470  0.827500  1.0  -0.7744
  O  O348  1  0.179170  0.390970  0.879000  1.0  -0.5784
  O  O349  1  0.926460  0.147590  0.784350  1.0  -0.2913
  O  O350  1  0.027400  0.239410  0.732810  1.0  -0.2075
  O  O351  1  0.019910  0.040690  0.391740  1.0  -0.7093
  O  O352  1  0.918530  0.934590  0.464290  1.0  -0.7167
  O  O353  1  0.091330  0.143280  0.325200  1.0  -0.5329
  O  O354  1  0.894590  0.308020  0.319140  1.0  -0.6175
  O  O355  1  0.902860  0.121980  0.389790  1.0  -0.7799
  O  O356  1  0.938870  0.080600  0.535060  1.0  -0.7146
  O  O357  1  0.969880  0.101190  0.258570  1.0  -0.5913
  O  O358  1  0.014490  0.163470  0.453810  1.0  -0.6169
  O  O359  1  0.795320  0.926000  0.384220  1.0  -0.7554
  O  O360  1  0.814640  0.853800  0.520840  1.0  -0.5275
  O  O361  1  0.073520  0.003800  0.253760  1.0  -0.5411
  O  O362  1  0.948640  0.975530  0.200490  1.0  -0.7499
  O  O363  1  0.953070  0.212890  0.580230  1.0  -0.5202
  O  O364  1  0.849590  0.108000  0.651510  1.0  -0.5732
  O  O365  1  0.830920  0.171520  0.514040  1.0  -0.6532
  O  O366  1  0.910720  0.251600  0.439430  1.0  -0.762
  O  O367  1  0.679840  0.053300  0.442720  1.0  -0.7561
  O  O368  1  0.896900  0.008760  0.339760  1.0  -0.7703
  O  O369  1  0.986310  0.917300  0.333580  1.0  -0.616
  O  O370  1  0.865430  0.898650  0.257570  1.0  -0.7166
  O  O371  1  0.796270  0.078310  0.331300  1.0  -0.762
  O  O372  1  0.844630  0.947800  0.135490  1.0  -0.6115
  O  O373  1  0.931500  0.860940  0.149210  1.0  -0.7518
  O  O374  1  0.731350  0.960590  0.511520  1.0  -0.7259
  O  O375  1  0.998050  0.329230  0.394600  1.0  -0.5866
  O  O376  1  0.833580  0.038840  0.453900  1.0  -0.8055
  O  O377  1  0.847080  0.983510  0.580610  1.0  -0.584
  O  O378  1  0.744590  0.077200  0.557810  1.0  -0.7132
  O  O379  1  0.636110  0.020600  0.566300  1.0  -0.6777
  O  O380  1  0.980470  0.222440  0.327500  1.0  -0.7617
  O  O381  1  0.890970  0.820830  0.379000  1.0  -0.5846
  O  O382  1  0.647590  0.073540  0.284350  1.0  -0.2905
  O  O383  1  0.739410  0.972600  0.232810  1.0  -0.2069
  O  O384  1  0.480090  0.459310  0.391740  1.0  -0.7071
  O  O385  1  0.581470  0.565410  0.464290  1.0  -0.7155
  O  O386  1  0.408670  0.356720  0.325200  1.0  -0.5351
  O  O387  1  0.605410  0.191980  0.319140  1.0  -0.6178
  O  O388  1  0.597140  0.378020  0.389790  1.0  -0.7803
  O  O389  1  0.561130  0.419400  0.535060  1.0  -0.7146
  O  O390  1  0.530120  0.398810  0.258570  1.0  -0.593
  O  O391  1  0.485510  0.336530  0.453810  1.0  -0.6152
  O  O392  1  0.704680  0.574000  0.384220  1.0  -0.7565
  O  O393  1  0.685360  0.646200  0.520840  1.0  -0.5265
  O  O394  1  0.426480  0.496200  0.253760  1.0  -0.5404
  O  O395  1  0.551360  0.524470  0.200490  1.0  -0.7496
  O  O396  1  0.546930  0.287110  0.580230  1.0  -0.5207
  O  O397  1  0.650410  0.392000  0.651510  1.0  -0.5739
  O  O398  1  0.669080  0.328480  0.514040  1.0  -0.656
  O  O399  1  0.589280  0.248400  0.439430  1.0  -0.7639
  O  O400  1  0.820160  0.446700  0.442720  1.0  -0.7559
  O  O401  1  0.603100  0.491240  0.339760  1.0  -0.7707
  O  O402  1  0.513690  0.582700  0.333580  1.0  -0.6159
  O  O403  1  0.634570  0.601350  0.257570  1.0  -0.7182
  O  O404  1  0.703730  0.421690  0.331300  1.0  -0.7646
  O  O405  1  0.655370  0.552200  0.135490  1.0  -0.6148
  O  O406  1  0.568500  0.639060  0.149210  1.0  -0.7542
  O  O407  1  0.768650  0.539410  0.511520  1.0  -0.7255
  O  O408  1  0.501950  0.170770  0.394600  1.0  -0.5822
  O  O409  1  0.666420  0.461160  0.453900  1.0  -0.8051
  O  O410  1  0.652920  0.516490  0.580610  1.0  -0.5819
  O  O411  1  0.755410  0.422800  0.557810  1.0  -0.714
  O  O412  1  0.863890  0.479400  0.566300  1.0  -0.6777
  O  O413  1  0.519530  0.277560  0.327500  1.0  -0.7655
  O  O414  1  0.609030  0.679170  0.379000  1.0  -0.5819
  O  O415  1  0.852410  0.426460  0.284350  1.0  -0.2909
  O  O416  1  0.760590  0.527400  0.232810  1.0  -0.2081
  O  O417  1  0.459310  0.019910  0.108260  1.0  -0.7097
  O  O418  1  0.565410  0.918530  0.035710  1.0  -0.7154
  O  O419  1  0.356720  0.091330  0.174800  1.0  -0.5362
  O  O420  1  0.191980  0.894590  0.180860  1.0  -0.6174
  O  O421  1  0.378020  0.902860  0.110210  1.0  -0.7815
  O  O422  1  0.419400  0.938870  0.964940  1.0  -0.7141
  O  O423  1  0.398810  0.969880  0.241430  1.0  -0.5976
  O  O424  1  0.336530  0.014490  0.046190  1.0  -0.6215
  O  O425  1  0.574000  0.795320  0.115780  1.0  -0.7555
  O  O426  1  0.646200  0.814640  0.979160  1.0  -0.524
  O  O427  1  0.496200  0.073520  0.246240  1.0  -0.5416
  O  O428  1  0.524470  0.948640  0.299510  1.0  -0.7526
  O  O429  1  0.287110  0.953070  0.919770  1.0  -0.5222
  O  O430  1  0.392000  0.849590  0.848490  1.0  -0.575
  O  O431  1  0.328480  0.830920  0.985960  1.0  -0.6539
  O  O432  1  0.248400  0.910720  0.060570  1.0  -0.7653
  O  O433  1  0.446700  0.679840  0.057280  1.0  -0.7567
  O  O434  1  0.491240  0.896900  0.160240  1.0  -0.7691
  O  O435  1  0.582700  0.986310  0.166420  1.0  -0.6151
  O  O436  1  0.601350  0.865430  0.242430  1.0  -0.7121
  O  O437  1  0.421690  0.796270  0.168700  1.0  -0.7618
  O  O438  1  0.552200  0.844630  0.364510  1.0  -0.6114
  O  O439  1  0.639060  0.931500  0.350790  1.0  -0.7545
  O  O440  1  0.539410  0.731350  0.988480  1.0  -0.7223
  O  O441  1  0.170770  0.998050  0.105400  1.0  -0.5921
  O  O442  1  0.461160  0.833580  0.046100  1.0  -0.8032
  O  O443  1  0.516490  0.847080  0.919390  1.0  -0.5811
  O  O444  1  0.422800  0.744590  0.942190  1.0  -0.7129
  O  O445  1  0.479400  0.636110  0.933700  1.0  -0.6729
  O  O446  1  0.277560  0.980470  0.172500  1.0  -0.7743
  O  O447  1  0.679170  0.890970  0.121000  1.0  -0.5789
  O  O448  1  0.426460  0.647590  0.215650  1.0  -0.2929
  O  O449  1  0.527400  0.739410  0.267190  1.0  -0.2074
  O  O450  1  0.040690  0.480090  0.108260  1.0  -0.7101
  O  O451  1  0.934590  0.581470  0.035710  1.0  -0.7147
  O  O452  1  0.143280  0.408670  0.174800  1.0  -0.5366
  O  O453  1  0.308020  0.605410  0.180860  1.0  -0.6167
  O  O454  1  0.121980  0.597140  0.110210  1.0  -0.7828
  O  O455  1  0.080600  0.561130  0.964940  1.0  -0.7144
  O  O456  1  0.101190  0.530120  0.241430  1.0  -0.5985
  O  O457  1  0.163470  0.485510  0.046190  1.0  -0.6193
  O  O458  1  0.926000  0.704680  0.115780  1.0  -0.7567
  O  O459  1  0.853800  0.685360  0.979160  1.0  -0.5233
  O  O460  1  0.003800  0.426480  0.246240  1.0  -0.5411
  O  O461  1  0.975530  0.551360  0.299510  1.0  -0.7522
  O  O462  1  0.212890  0.546930  0.919770  1.0  -0.5215
  O  O463  1  0.108000  0.650410  0.848490  1.0  -0.5758
  O  O464  1  0.171520  0.669080  0.985960  1.0  -0.6523
  O  O465  1  0.251600  0.589280  0.060570  1.0  -0.7645
  O  O466  1  0.053300  0.820160  0.057280  1.0  -0.7561
  O  O467  1  0.008760  0.603100  0.160240  1.0  -0.77
  O  O468  1  0.917300  0.513690  0.166420  1.0  -0.6158
  O  O469  1  0.898650  0.634570  0.242430  1.0  -0.7131
  O  O470  1  0.078310  0.703730  0.168700  1.0  -0.7644
  O  O471  1  0.947800  0.655370  0.364510  1.0  -0.6134
  O  O472  1  0.860940  0.568500  0.350790  1.0  -0.7546
  O  O473  1  0.960590  0.768650  0.988480  1.0  -0.7219
  O  O474  1  0.329230  0.501950  0.105400  1.0  -0.5873
  O  O475  1  0.038840  0.666420  0.046100  1.0  -0.8041
  O  O476  1  0.983510  0.652920  0.919390  1.0  -0.5806
  O  O477  1  0.077200  0.755410  0.942190  1.0  -0.714
  O  O478  1  0.020600  0.863890  0.933700  1.0  -0.673
  O  O479  1  0.222440  0.519530  0.172500  1.0  -0.7733
  O  O480  1  0.820830  0.609030  0.121000  1.0  -0.5788
  O  O481  1  0.073540  0.852410  0.215650  1.0  -0.2918
  O  O482  1  0.972600  0.760590  0.267190  1.0  -0.2071
  O  O483  1  0.980090  0.959310  0.608260  1.0  -0.7075
  O  O484  1  0.081470  0.065410  0.535710  1.0  -0.7158
  O  O485  1  0.908670  0.856720  0.674800  1.0  -0.5338
  O  O486  1  0.105410  0.691980  0.680860  1.0  -0.6169
  O  O487  1  0.097140  0.878020  0.610210  1.0  -0.7803
  O  O488  1  0.061130  0.919400  0.464940  1.0  -0.7138
  O  O489  1  0.030120  0.898810  0.741430  1.0  -0.5911
  O  O490  1  0.985510  0.836530  0.546190  1.0  -0.6157
  O  O491  1  0.204680  0.074000  0.615780  1.0  -0.7554
  O  O492  1  0.185360  0.146200  0.479160  1.0  -0.5272
  O  O493  1  0.926480  0.996200  0.746240  1.0  -0.5408
  O  O494  1  0.051360  0.024470  0.799510  1.0  -0.7493
  O  O495  1  0.046930  0.787110  0.419770  1.0  -0.5217
  O  O496  1  0.150410  0.892000  0.348490  1.0  -0.5752
  O  O497  1  0.169080  0.828480  0.485960  1.0  -0.6542
  O  O498  1  0.089280  0.748400  0.560570  1.0  -0.7652
  O  O499  1  0.320160  0.946700  0.557280  1.0  -0.7555
  O  O500  1  0.103100  0.991240  0.660240  1.0  -0.7712
  O  O501  1  0.013690  0.082700  0.666420  1.0  -0.6155
  O  O502  1  0.134570  0.101350  0.742430  1.0  -0.7186
  O  O503  1  0.203730  0.921690  0.668700  1.0  -0.762
  O  O504  1  0.155370  0.052200  0.864510  1.0  -0.6163
  O  O505  1  0.068500  0.139060  0.850790  1.0  -0.7555
  O  O506  1  0.268650  0.039410  0.488480  1.0  -0.725
  O  O507  1  0.001950  0.670770  0.605400  1.0  -0.5827
  O  O508  1  0.166420  0.961160  0.546100  1.0  -0.8035
  O  O509  1  0.152920  0.016490  0.419390  1.0  -0.5839
  O  O510  1  0.255410  0.922800  0.442190  1.0  -0.7132
  O  O511  1  0.363890  0.979400  0.433700  1.0  -0.6783
  O  O512  1  0.019530  0.777560  0.672500  1.0  -0.7657
  O  O513  1  0.109030  0.179170  0.621000  1.0  -0.5815
  O  O514  1  0.352410  0.926460  0.715650  1.0  -0.2921
  O  O515  1  0.260590  0.027400  0.767190  1.0  -0.2072
  O  O516  1  0.519910  0.540690  0.608260  1.0  -0.7096
  O  O517  1  0.418530  0.434590  0.535710  1.0  -0.7166
  O  O518  1  0.591330  0.643280  0.674800  1.0  -0.533
  O  O519  1  0.394590  0.808020  0.680860  1.0  -0.6182
  O  O520  1  0.402860  0.621980  0.610210  1.0  -0.7796
  O  O521  1  0.438870  0.580600  0.464940  1.0  -0.714
  O  O522  1  0.469880  0.601190  0.741430  1.0  -0.5916
  O  O523  1  0.514490  0.663470  0.546190  1.0  -0.6164
  O  O524  1  0.295320  0.426000  0.615780  1.0  -0.757
  O  O525  1  0.314640  0.353800  0.479160  1.0  -0.5267
  O  O526  1  0.573520  0.503800  0.746240  1.0  -0.5417
  O  O527  1  0.448640  0.475530  0.799510  1.0  -0.7497
  O  O528  1  0.453070  0.712890  0.419770  1.0  -0.521
  O  O529  1  0.349590  0.608000  0.348490  1.0  -0.5739
  O  O530  1  0.330920  0.671520  0.485960  1.0  -0.6523
  O  O531  1  0.410720  0.751600  0.560570  1.0  -0.7624
  O  O532  1  0.179840  0.553300  0.557280  1.0  -0.7558
  O  O533  1  0.396900  0.508760  0.660240  1.0  -0.7706
  O  O534  1  0.486310  0.417300  0.666420  1.0  -0.6159
  O  O535  1  0.365430  0.398650  0.742430  1.0  -0.7167
  O  O536  1  0.296270  0.578310  0.668700  1.0  -0.7615
  O  O537  1  0.344630  0.447800  0.864510  1.0  -0.6117
  O  O538  1  0.431500  0.360940  0.850790  1.0  -0.7533
  O  O539  1  0.231350  0.460590  0.488480  1.0  -0.7257
  O  O540  1  0.498050  0.829230  0.605400  1.0  -0.5871
  O  O541  1  0.333580  0.538840  0.546100  1.0  -0.8043
  O  O542  1  0.347080  0.483510  0.419390  1.0  -0.5821
  O  O543  1  0.244590  0.577200  0.442190  1.0  -0.7123
  O  O544  1  0.136110  0.520600  0.433700  1.0  -0.6779
  O  O545  1  0.480470  0.722440  0.672500  1.0  -0.762
  O  O546  1  0.390970  0.320830  0.621000  1.0  -0.585
  O  O547  1  0.147590  0.573540  0.715650  1.0  -0.2923
  O  O548  1  0.239410  0.472600  0.767190  1.0  -0.2063
