# generated using pymatgen
data_Ni2H30C34N4O13
_symmetry_space_group_name_H-M   'P 1'
_cell_length_a   10.48740000
_cell_length_b   15.90360000
_cell_length_c   26.13600000
_cell_angle_alpha   90.00000000
_cell_angle_beta   90.00000000
_cell_angle_gamma   90.00000000
_symmetry_Int_Tables_number   1
_chemical_formula_structural   Ni2H30C34N4O13
_chemical_formula_sum   'Ni8 H120 C136 N16 O52'
_cell_volume   4359.15586903
_cell_formula_units_Z   4
loop_
 _symmetry_equiv_pos_site_id
 _symmetry_equiv_pos_as_xyz
  1  'x, y, z'
loop_
 _atom_site_type_symbol
 _atom_site_label
 _atom_site_symmetry_multiplicity
 _atom_site_fract_x
 _atom_site_fract_y
 _atom_site_fract_z
 _atom_site_occupancy
 _atom_site_charge
  Ni  Ni1  1  0.338220  0.356220  0.618810  1.0  0.9194
  Ni  Ni2  1  0.103260  0.217150  0.648700  1.0  0.9572
  Ni  Ni3  1  0.161780  0.643780  0.118810  1.0  0.9202
  Ni  Ni4  1  0.396740  0.782850  0.148700  1.0  0.9568
  Ni  Ni5  1  0.661780  0.856220  0.881190  1.0  0.9206
  Ni  Ni6  1  0.896740  0.717150  0.851300  1.0  0.9575
  Ni  Ni7  1  0.838220  0.143780  0.381190  1.0  0.9199
  Ni  Ni8  1  0.603260  0.282850  0.351300  1.0  0.9571
  H  H9  1  0.584500  0.983000  0.461300  1.0  0.0904
  H  H10  1  0.438700  0.208900  0.494600  1.0  0.0963
  H  H11  1  0.357000  0.010200  0.583900  1.0  0.1151
  H  H12  1  0.941600  0.505800  0.754700  1.0  0.0943
  H  H13  1  0.576400  0.548900  0.719200  1.0  0.1038
  H  H14  1  0.748800  0.335000  0.674800  1.0  0.0976
  H  H15  1  0.524900  0.334800  0.531900  1.0  0.0932
  H  H16  1  0.630100  0.415300  0.470700  1.0  0.1154
  H  H17  1  0.596900  0.561400  0.470500  1.0  0.1113
  H  H18  1  0.330900  0.530200  0.576000  1.0  0.095
  H  H19  1  0.345500  0.663000  0.524100  1.0  0.1201
  H  H20  1  0.475100  0.680100  0.496100  1.0  0.0956
  H  H21  1  0.643100  0.621700  0.583800  1.0  0.0848
  H  H22  1  0.666667  0.698600  0.547400  1.0  0.0906
  H  H23  1  0.632900  0.714000  0.654500  1.0  0.0977
  H  H24  1  0.658100  0.790400  0.618100  1.0  0.0799
  H  H25  1  0.835500  0.662200  0.637500  1.0  0.1126
  H  H26  1  0.860800  0.737100  0.600000  1.0  0.0751
  H  H27  1  0.834600  0.752900  0.706900  1.0  0.1094
  H  H28  1  0.963100  0.762800  0.676800  1.0  0.1009
  H  H29  1  0.994400  0.892500  0.623400  1.0  0.1072
  H  H30  1  0.868700  0.872800  0.593300  1.0  0.0924
  H  H31  1  0.702000  0.990600  0.587200  1.0  0.1074
  H  H32  1  0.681300  0.135900  0.573000  1.0  0.1315
  H  H33  1  0.839600  0.222100  0.603800  1.0  0.0853
  H  H34  1  0.045700  0.030900  0.646300  1.0  0.1022
  H  H35  1  0.470000  0.744700  0.574000  1.0  0.2663
  H  H36  1  0.432000  0.668000  0.594000  1.0  0.3034
  H  H37  1  0.887000  0.889000  0.694400  1.0  0.2682
  H  H38  1  0.769000  0.881000  0.671000  1.0  0.3168
  H  H39  1  0.915500  0.017000  0.961300  1.0  0.0909
  H  H40  1  0.061300  0.791100  0.994600  1.0  0.0955
  H  H41  1  0.143000  0.989800  0.083900  1.0  0.1153
  H  H42  1  0.558400  0.494200  0.254700  1.0  0.0939
  H  H43  1  0.923600  0.451100  0.219200  1.0  0.1035
  H  H44  1  0.751200  0.665000  0.174800  1.0  0.0977
  H  H45  1  0.975100  0.665200  0.031900  1.0  0.0931
  H  H46  1  0.869900  0.584700  0.970700  1.0  0.1156
  H  H47  1  0.903100  0.438600  0.970500  1.0  0.1111
  H  H48  1  0.169100  0.469800  0.076000  1.0  0.0952
  H  H49  1  0.154500  0.337000  0.024100  1.0  0.1174
  H  H50  1  0.024900  0.319900  0.996100  1.0  0.0958
  H  H51  1  0.856900  0.378300  0.083800  1.0  0.0815
  H  H52  1  0.833400  0.301400  0.047400  1.0  0.0919
  H  H53  1  0.867100  0.286000  0.154500  1.0  0.0968
  H  H54  1  0.841900  0.209600  0.118100  1.0  0.0785
  H  H55  1  0.664500  0.337800  0.137500  1.0  0.1111
  H  H56  1  0.639200  0.262900  0.100000  1.0  0.0755
  H  H57  1  0.665400  0.247100  0.206900  1.0  0.1094
  H  H58  1  0.536900  0.237200  0.176800  1.0  0.0891
  H  H59  1  0.505600  0.107500  0.123400  1.0  0.1055
  H  H60  1  0.631300  0.127200  0.093300  1.0  0.0927
  H  H61  1  0.798000  0.009400  0.087200  1.0  0.1069
  H  H62  1  0.818700  0.864100  0.073000  1.0  0.1313
  H  H63  1  0.660400  0.777900  0.103800  1.0  0.0841
  H  H64  1  0.454300  0.969100  0.146300  1.0  0.1016
  H  H65  1  0.030000  0.255300  0.074000  1.0  0.2668
  H  H66  1  0.068000  0.332000  0.094000  1.0  0.3047
  H  H67  1  0.613000  0.111000  0.194400  1.0  0.2623
  H  H68  1  0.731000  0.119000  0.171000  1.0  0.3197
  H  H69  1  0.415500  0.483000  0.038700  1.0  0.0909
  H  H70  1  0.561300  0.708900  0.005400  1.0  0.0962
  H  H71  1  0.643000  0.510200  0.916100  1.0  0.1157
  H  H72  1  0.058400  0.005800  0.745300  1.0  0.0941
  H  H73  1  0.423600  0.048900  0.780800  1.0  0.1036
  H  H74  1  0.251200  0.835000  0.825200  1.0  0.0973
  H  H75  1  0.475100  0.834800  0.968100  1.0  0.0931
  H  H76  1  0.369900  0.915300  0.029300  1.0  0.116
  H  H77  1  0.403100  0.061400  0.029500  1.0  0.1112
  H  H78  1  0.669100  0.030200  0.924000  1.0  0.095
  H  H79  1  0.654500  0.163000  0.975900  1.0  0.1163
  H  H80  1  0.524900  0.180100  0.003900  1.0  0.0936
  H  H81  1  0.356900  0.121700  0.916200  1.0  0.0825
  H  H82  1  0.333400  0.198600  0.952600  1.0  0.0912
  H  H83  1  0.367100  0.214000  0.845500  1.0  0.0978
  H  H84  1  0.341900  0.290400  0.881900  1.0  0.0789
  H  H85  1  0.164500  0.162200  0.862500  1.0  0.1106
  H  H86  1  0.139200  0.237100  0.900000  1.0  0.0754
  H  H87  1  0.165400  0.252900  0.793100  1.0  0.1124
  H  H88  1  0.036900  0.262800  0.823200  1.0  0.0877
  H  H89  1  0.005600  0.392500  0.876600  1.0  0.1052
  H  H90  1  0.131300  0.372800  0.906700  1.0  0.0916
  H  H91  1  0.298000  0.490600  0.912800  1.0  0.1068
  H  H92  1  0.318700  0.635900  0.927000  1.0  0.1308
  H  H93  1  0.160400  0.722100  0.896200  1.0  0.0859
  H  H94  1  0.954300  0.530900  0.853700  1.0  0.1017
  H  H95  1  0.530000  0.244700  0.926000  1.0  0.2657
  H  H96  1  0.568000  0.168000  0.906000  1.0  0.3035
  H  H97  1  0.113000  0.389000  0.805600  1.0  0.2715
  H  H98  1  0.231000  0.381000  0.829000  1.0  0.3182
  H  H99  1  0.084500  0.517000  0.538700  1.0  0.09
  H  H100  1  0.938700  0.291100  0.505400  1.0  0.0956
  H  H101  1  0.857000  0.489800  0.416100  1.0  0.1158
  H  H102  1  0.441600  0.994200  0.245300  1.0  0.094
  H  H103  1  0.076400  0.951100  0.280800  1.0  0.1037
  H  H104  1  0.248800  0.165000  0.325200  1.0  0.0977
  H  H105  1  0.024900  0.165200  0.468100  1.0  0.0929
  H  H106  1  0.130100  0.084700  0.529300  1.0  0.1158
  H  H107  1  0.096900  0.938600  0.529500  1.0  0.1112
  H  H108  1  0.830900  0.969800  0.424000  1.0  0.0944
  H  H109  1  0.845500  0.837000  0.475900  1.0  0.1198
  H  H110  1  0.975100  0.819900  0.503900  1.0  0.0947
  H  H111  1  0.143100  0.878300  0.416200  1.0  0.0822
  H  H112  1  0.166600  0.801400  0.452600  1.0  0.0912
  H  H113  1  0.132900  0.786000  0.345500  1.0  0.0979
  H  H114  1  0.158100  0.709600  0.381900  1.0  0.0785
  H  H115  1  0.335500  0.837800  0.362500  1.0  0.1094
  H  H116  1  0.360800  0.762900  0.400000  1.0  0.0758
  H  H117  1  0.334600  0.747100  0.293100  1.0  0.1134
  H  H118  1  0.463100  0.737200  0.323200  1.0  0.1008
  H  H119  1  0.494400  0.607500  0.376600  1.0  0.1074
  H  H120  1  0.368700  0.627200  0.406700  1.0  0.0914
  H  H121  1  0.202000  0.509400  0.412800  1.0  0.1069
  H  H122  1  0.181300  0.364100  0.427000  1.0  0.1312
  H  H123  1  0.339600  0.277900  0.396200  1.0  0.0836
  H  H124  1  0.545700  0.469100  0.353700  1.0  0.1022
  H  H125  1  0.970000  0.755300  0.426000  1.0  0.2674
  H  H126  1  0.932000  0.832000  0.406000  1.0  0.3028
  H  H127  1  0.387000  0.611000  0.305600  1.0  0.2711
  H  H128  1  0.269000  0.619000  0.329000  1.0  0.3164
  C  C129  1  0.491900  0.889700  0.536100  1.0  0.6919
  C  C130  1  0.473200  0.982100  0.523700  1.0  -0.1754
  C  C131  1  0.533600  0.017100  0.481800  1.0  0.0086
  C  C132  1  0.520600  0.100300  0.469400  1.0  -0.1608
  C  C133  1  0.586800  0.139700  0.424400  1.0  0.6841
  C  C134  1  0.447600  0.152000  0.502000  1.0  -0.0005
  C  C135  1  0.399100  0.032800  0.555700  1.0  -0.0078
  C  C136  1  0.389800  0.119200  0.544200  1.0  -0.1644
  C  C137  1  0.316300  0.178400  0.579400  1.0  0.6879
  C  C138  1  0.979900  0.358100  0.709000  1.0  0.6748
  C  C139  1  0.862300  0.411500  0.713400  1.0  -0.1649
  C  C140  1  0.866500  0.488300  0.739100  1.0  -0.0069
  C  C141  1  0.758500  0.538700  0.741300  1.0  -0.1504
  C  C142  1  0.647300  0.513800  0.718600  1.0  0.0036
  C  C143  1  0.640500  0.434900  0.694400  1.0  -0.1696
  C  C144  1  0.751400  0.386300  0.691900  1.0  0.0233
  C  C145  1  0.766800  0.624200  0.768700  1.0  0.6454
  C  C146  1  0.522200  0.405200  0.670300  1.0  0.6262
  C  C147  1  0.507400  0.391900  0.529400  1.0  0.1677
  C  C148  1  0.573100  0.440100  0.493400  1.0  -0.1288
  C  C149  1  0.550500  0.527100  0.492500  1.0  -0.0455
  C  C150  1  0.462000  0.560800  0.523500  1.0  -0.0709
  C  C151  1  0.395800  0.507700  0.556000  1.0  0.1222
  C  C152  1  0.436700  0.653300  0.525600  1.0  -0.0577
  C  C153  1  0.624400  0.680800  0.578600  1.0  -0.0116
  C  C154  1  0.676700  0.731300  0.623600  1.0  -0.1675
  C  C155  1  0.817500  0.721100  0.631300  1.0  -0.1481
  C  C156  1  0.871800  0.772200  0.675000  1.0  -0.042
  C  C157  1  0.903000  0.901900  0.622900  1.0  -0.0486
  C  C158  1  0.877600  0.996300  0.617100  1.0  -0.1146
  C  C159  1  0.767400  0.027200  0.596400  1.0  -0.0242
  C  C160  1  0.753100  0.113600  0.588900  1.0  -0.1413
  C  C161  1  0.850400  0.164200  0.606100  1.0  0.1829
  C  C162  1  0.971200  0.051800  0.631800  1.0  0.1312
  C  C163  1  0.008100  0.110300  0.036100  1.0  0.6925
  C  C164  1  0.026800  0.017900  0.023700  1.0  -0.1748
  C  C165  1  0.966400  0.982900  0.981800  1.0  0.0082
  C  C166  1  0.979400  0.899700  0.969400  1.0  -0.1608
  C  C167  1  0.913200  0.860300  0.924400  1.0  0.6848
  C  C168  1  0.052400  0.848000  0.002000  1.0  0.0005
  C  C169  1  0.100900  0.967200  0.055700  1.0  -0.0065
  C  C170  1  0.110200  0.880800  0.044200  1.0  -0.1642
  C  C171  1  0.183700  0.821600  0.079400  1.0  0.6874
  C  C172  1  0.520100  0.641900  0.209000  1.0  0.6746
  C  C173  1  0.637700  0.588500  0.213400  1.0  -0.1655
  C  C174  1  0.633500  0.511700  0.239100  1.0  -0.0063
  C  C175  1  0.741500  0.461300  0.241300  1.0  -0.1516
  C  C176  1  0.852700  0.486200  0.218600  1.0  0.0035
  C  C177  1  0.859500  0.565100  0.194400  1.0  -0.1697
  C  C178  1  0.748600  0.613700  0.191900  1.0  0.0228
  C  C179  1  0.733200  0.375800  0.268700  1.0  0.6462
  C  C180  1  0.977800  0.594800  0.170300  1.0  0.6244
  C  C181  1  0.992600  0.608100  0.029400  1.0  0.168
  C  C182  1  0.926900  0.559900  0.993400  1.0  -0.1289
  C  C183  1  0.949500  0.472900  0.992500  1.0  -0.0467
  C  C184  1  0.038000  0.439200  0.023500  1.0  -0.0756
  C  C185  1  0.104200  0.492300  0.056000  1.0  0.1216
  C  C186  1  0.063300  0.346700  0.025600  1.0  -0.0575
  C  C187  1  0.875600  0.319200  0.078600  1.0  -0.0122
  C  C188  1  0.823300  0.268700  0.123600  1.0  -0.17
  C  C189  1  0.682500  0.278900  0.131300  1.0  -0.1483
  C  C190  1  0.628200  0.227800  0.175000  1.0  -0.0421
  C  C191  1  0.597000  0.098100  0.122900  1.0  -0.0474
  C  C192  1  0.622400  0.003700  0.117100  1.0  -0.1124
  C  C193  1  0.732600  0.972800  0.096400  1.0  -0.0243
  C  C194  1  0.746900  0.886400  0.088900  1.0  -0.1418
  C  C195  1  0.649600  0.835800  0.106100  1.0  0.183
  C  C196  1  0.528800  0.948200  0.131800  1.0  0.1318
  C  C197  1  0.508100  0.389700  0.963900  1.0  0.6919
  C  C198  1  0.526800  0.482100  0.976300  1.0  -0.1758
  C  C199  1  0.466400  0.517100  0.018200  1.0  0.0065
  C  C200  1  0.479400  0.600300  0.030600  1.0  -0.1619
  C  C201  1  0.413200  0.639700  0.075600  1.0  0.6844
  C  C202  1  0.552400  0.652000  0.998000  1.0  0.0007
  C  C203  1  0.600900  0.532800  0.944300  1.0  -0.0081
  C  C204  1  0.610200  0.619200  0.955800  1.0  -0.1643
  C  C205  1  0.683700  0.678400  0.920600  1.0  0.6872
  C  C206  1  0.020100  0.858100  0.791000  1.0  0.6634
  C  C207  1  0.137700  0.911500  0.786600  1.0  -0.1657
  C  C208  1  0.133500  0.988300  0.760900  1.0  -0.007
  C  C209  1  0.241500  0.038700  0.758700  1.0  -0.1508
  C  C210  1  0.352700  0.013800  0.781400  1.0  0.0033
  C  C211  1  0.359500  0.934900  0.805600  1.0  -0.1695
  C  C212  1  0.248600  0.886300  0.808100  1.0  0.0234
  C  C213  1  0.233200  0.124200  0.731300  1.0  0.6457
  C  C214  1  0.477800  0.905200  0.829700  1.0  0.625
  C  C215  1  0.492600  0.891900  0.970600  1.0  0.1681
  C  C216  1  0.426900  0.940100  0.006600  1.0  -0.1285
  C  C217  1  0.449500  0.027100  0.007500  1.0  -0.0469
  C  C218  1  0.538000  0.060800  0.976500  1.0  -0.0743
  C  C219  1  0.604200  0.007700  0.944000  1.0  0.1215
  C  C220  1  0.563300  0.153300  0.974400  1.0  -0.0584
  C  C221  1  0.375600  0.180800  0.921400  1.0  -0.0124
  C  C222  1  0.323300  0.231300  0.876400  1.0  -0.1683
  C  C223  1  0.182500  0.221100  0.868700  1.0  -0.1493
  C  C224  1  0.128200  0.272200  0.825000  1.0  -0.0413
  C  C225  1  0.097000  0.401900  0.877100  1.0  -0.0503
  C  C226  1  0.122400  0.496300  0.882900  1.0  -0.1137
  C  C227  1  0.232600  0.527200  0.903600  1.0  -0.0235
  C  C228  1  0.246900  0.613600  0.911100  1.0  -0.1421
  C  C229  1  0.149600  0.664200  0.893900  1.0  0.1826
  C  C230  1  0.028800  0.551800  0.868200  1.0  0.1325
  C  C231  1  0.991900  0.610300  0.463900  1.0  0.6919
  C  C232  1  0.973200  0.517900  0.476300  1.0  -0.1738
  C  C233  1  0.033600  0.482900  0.518200  1.0  0.0072
  C  C234  1  0.020600  0.399700  0.530600  1.0  -0.1618
  C  C235  1  0.086800  0.360300  0.575600  1.0  0.684
  C  C236  1  0.947600  0.348000  0.498000  1.0  0.0002
  C  C237  1  0.899100  0.467200  0.444300  1.0  -0.0091
  C  C238  1  0.889800  0.380800  0.455800  1.0  -0.1643
  C  C239  1  0.816300  0.321600  0.420600  1.0  0.6876
  C  C240  1  0.479900  0.141900  0.291000  1.0  0.6638
  C  C241  1  0.362300  0.088500  0.286600  1.0  -0.165
  C  C242  1  0.366500  0.011700  0.260900  1.0  -0.0073
  C  C243  1  0.258500  0.961300  0.258700  1.0  -0.1511
  C  C244  1  0.147300  0.986200  0.281400  1.0  0.0034
  C  C245  1  0.140500  0.065100  0.305600  1.0  -0.169
  C  C246  1  0.251400  0.113700  0.308100  1.0  0.0225
  C  C247  1  0.266800  0.875800  0.231300  1.0  0.6457
  C  C248  1  0.022200  0.094800  0.329700  1.0  0.6259
  C  C249  1  0.007400  0.108100  0.470600  1.0  0.1677
  C  C250  1  0.073100  0.059900  0.506600  1.0  -0.128
  C  C251  1  0.050500  0.972900  0.507500  1.0  -0.047
  C  C252  1  0.962000  0.939200  0.476500  1.0  -0.0771
  C  C253  1  0.895800  0.992300  0.444000  1.0  0.1209
  C  C254  1  0.936700  0.846700  0.474400  1.0  -0.058
  C  C255  1  0.124400  0.819200  0.421400  1.0  -0.0109
  C  C256  1  0.176700  0.768700  0.376400  1.0  -0.1662
  C  C257  1  0.317500  0.778900  0.368700  1.0  -0.1496
  C  C258  1  0.371800  0.727800  0.325000  1.0  -0.0421
  C  C259  1  0.403000  0.598100  0.377100  1.0  -0.0501
  C  C260  1  0.377600  0.503700  0.382900  1.0  -0.1133
  C  C261  1  0.267400  0.472800  0.403600  1.0  -0.0243
  C  C262  1  0.253100  0.386400  0.411100  1.0  -0.1424
  C  C263  1  0.350400  0.335800  0.393900  1.0  0.1831
  C  C264  1  0.471200  0.448200  0.368200  1.0  0.1317
  N  N265  1  0.420800  0.425300  0.560000  1.0  -0.272
  N  N266  1  0.958500  0.135800  0.625830  1.0  -0.2833
  N  N267  1  0.488800  0.691600  0.573000  1.0  -0.1165
  N  N268  1  0.846900  0.865800  0.669300  1.0  -0.1427
  N  N269  1  0.079200  0.574700  0.060000  1.0  -0.2723
  N  N270  1  0.541500  0.864200  0.125830  1.0  -0.2818
  N  N271  1  0.011200  0.308400  0.073000  1.0  -0.1169
  N  N272  1  0.653100  0.134200  0.169300  1.0  -0.1421
  N  N273  1  0.579200  0.925300  0.940000  1.0  -0.2718
  N  N274  1  0.041500  0.635800  0.874170  1.0  -0.2816
  N  N275  1  0.511200  0.191600  0.927000  1.0  -0.1173
  N  N276  1  0.153100  0.365800  0.830700  1.0  -0.1428
  N  N277  1  0.920800  0.074700  0.440000  1.0  -0.2733
  N  N278  1  0.458500  0.364200  0.374170  1.0  -0.2829
  N  N279  1  0.988800  0.808400  0.427000  1.0  -0.1185
  N  N280  1  0.346900  0.634200  0.330700  1.0  -0.1418
  O  O281  1  0.236100  0.146700  0.610140  1.0  -0.571
  O  O282  1  0.342100  0.254500  0.574320  1.0  -0.5809
  O  O283  1  0.667000  0.094100  0.400620  1.0  -0.5668
  O  O284  1  0.562400  0.214000  0.414940  1.0  -0.5697
  O  O285  1  0.426600  0.858500  0.569500  1.0  -0.6595
  O  O286  1  0.579500  0.851200  0.513900  1.0  -0.7035
  O  O287  1  0.969000  0.290100  0.685420  1.0  -0.5844
  O  O288  1  0.082500  0.385100  0.728380  1.0  -0.5828
  O  O289  1  0.669900  0.669000  0.768810  1.0  -0.528
  O  O290  1  0.871500  0.641100  0.788760  1.0  -0.5869
  O  O291  1  0.519700  0.334300  0.649250  1.0  -0.5281
  O  O292  1  0.419900  0.449900  0.670570  1.0  -0.5802
  O  O293  1  0.249400  0.294800  0.678490  1.0  -0.4044
  O  O294  1  0.263900  0.853300  0.110140  1.0  -0.5712
  O  O295  1  0.157900  0.745500  0.074320  1.0  -0.5805
  O  O296  1  0.833000  0.905900  0.900620  1.0  -0.5666
  O  O297  1  0.937600  0.786000  0.914940  1.0  -0.5701
  O  O298  1  0.073400  0.141500  0.069500  1.0  -0.6669
  O  O299  1  0.920500  0.148800  0.013900  1.0  -0.7049
  O  O300  1  0.531000  0.709900  0.185420  1.0  -0.584
  O  O301  1  0.417500  0.614900  0.228380  1.0  -0.5829
  O  O302  1  0.830100  0.331000  0.268810  1.0  -0.5224
  O  O303  1  0.628500  0.358900  0.288760  1.0  -0.5875
  O  O304  1  0.980300  0.665700  0.149250  1.0  -0.528
  O  O305  1  0.080100  0.550100  0.170570  1.0  -0.5816
  O  O306  1  0.250600  0.705200  0.178490  1.0  -0.4091
  O  O307  1  0.763900  0.646700  0.889860  1.0  -0.5716
  O  O308  1  0.657900  0.754500  0.925680  1.0  -0.5812
  O  O309  1  0.333000  0.594100  0.099380  1.0  -0.567
  O  O310  1  0.437600  0.714000  0.085060  1.0  -0.5699
  O  O311  1  0.573400  0.358500  0.930500  1.0  -0.6636
  O  O312  1  0.420500  0.351200  0.986100  1.0  -0.703
  O  O313  1  0.031000  0.790100  0.814580  1.0  -0.5843
  O  O314  1  0.917500  0.885100  0.771620  1.0  -0.5818
  O  O315  1  0.330100  0.169000  0.731190  1.0  -0.5233
  O  O316  1  0.128500  0.141100  0.711240  1.0  -0.5874
  O  O317  1  0.480300  0.834300  0.850750  1.0  -0.5264
  O  O318  1  0.580100  0.949900  0.829430  1.0  -0.5819
  O  O319  1  0.750600  0.794800  0.821510  1.0  -0.4075
  O  O320  1  0.736100  0.353300  0.389860  1.0  -0.5708
  O  O321  1  0.842100  0.245500  0.425680  1.0  -0.5813
  O  O322  1  0.167000  0.405900  0.599380  1.0  -0.566
  O  O323  1  0.062400  0.286000  0.585060  1.0  -0.5697
  O  O324  1  0.926600  0.641500  0.430500  1.0  -0.651
  O  O325  1  0.079500  0.648800  0.486100  1.0  -0.7023
  O  O326  1  0.469000  0.209900  0.314580  1.0  -0.5836
  O  O327  1  0.582500  0.114900  0.271620  1.0  -0.5831
  O  O328  1  0.169900  0.831000  0.231190  1.0  -0.5266
  O  O329  1  0.371500  0.858900  0.211240  1.0  -0.5871
  O  O330  1  0.019700  0.165700  0.350750  1.0  -0.5277
  O  O331  1  0.919900  0.050100  0.329430  1.0  -0.5782
  O  O332  1  0.749400  0.205200  0.321510  1.0  -0.4038
