# generated using pymatgen
data_NiH14C12(N3O)2
_symmetry_space_group_name_H-M   'P 1'
_cell_length_a   21.96900000
_cell_length_b   22.46300000
_cell_length_c   8.78660000
_cell_angle_alpha   90.00000000
_cell_angle_beta   90.00000000
_cell_angle_gamma   90.00000000
_symmetry_Int_Tables_number   1
_chemical_formula_structural   NiH14C12(N3O)2
_chemical_formula_sum   'Ni8 H112 C96 N48 O16'
_cell_volume   4336.09613233
_cell_formula_units_Z   8
loop_
 _symmetry_equiv_pos_site_id
 _symmetry_equiv_pos_as_xyz
  1  'x, y, z'
loop_
 _atom_site_type_symbol
 _atom_site_label
 _atom_site_symmetry_multiplicity
 _atom_site_fract_x
 _atom_site_fract_y
 _atom_site_fract_z
 _atom_site_occupancy
 _atom_site_charge
  Ni  Ni1  1  0.250000  0.250000  0.627030  1.0  0.6686
  Ni  Ni2  1  0.250000  0.750000  0.127030  1.0  0.6686
  Ni  Ni3  1  0.750000  0.750000  0.627030  1.0  0.6686
  Ni  Ni4  1  0.750000  0.250000  0.127030  1.0  0.6686
  Ni  Ni5  1  0.500000  0.000000  0.877030  1.0  0.6686
  Ni  Ni6  1  0.500000  0.500000  0.377030  1.0  0.6686
  Ni  Ni7  1  0.000000  0.500000  0.877030  1.0  0.6686
  Ni  Ni8  1  0.000000  0.000000  0.377030  1.0  0.6686
  H  H9  1  0.394200  0.077600  0.819700  1.0  0.0722
  H  H10  1  0.542800  0.059500  0.580800  1.0  0.0543
  H  H11  1  0.513100  0.132300  0.413900  1.0  0.1055
  H  H12  1  0.421700  0.181000  0.454900  1.0  0.0905
  H  H13  1  0.300900  0.107600  0.790600  1.0  0.2265
  H  H14  1  0.249800  0.194400  0.888700  1.0  0.2784
  H  H15  1  0.212400  0.158600  0.785700  1.0  0.281
  H  H16  1  0.394200  0.577600  0.319700  1.0  0.0722
  H  H17  1  0.542800  0.559500  0.080800  1.0  0.0543
  H  H18  1  0.513100  0.632300  0.913900  1.0  0.1055
  H  H19  1  0.421700  0.681000  0.954900  1.0  0.0905
  H  H20  1  0.300900  0.607600  0.290600  1.0  0.2265
  H  H21  1  0.249800  0.694400  0.388700  1.0  0.2784
  H  H22  1  0.212400  0.658600  0.285700  1.0  0.281
  H  H23  1  0.894200  0.077600  0.319700  1.0  0.0722
  H  H24  1  0.042800  0.059500  0.080800  1.0  0.0543
  H  H25  1  0.013100  0.132300  0.913900  1.0  0.1055
  H  H26  1  0.921700  0.181000  0.954900  1.0  0.0905
  H  H27  1  0.800900  0.107600  0.290600  1.0  0.2265
  H  H28  1  0.749800  0.194400  0.388700  1.0  0.2784
  H  H29  1  0.712400  0.158600  0.285700  1.0  0.281
  H  H30  1  0.894200  0.577600  0.819700  1.0  0.0722
  H  H31  1  0.042800  0.559500  0.580800  1.0  0.0543
  H  H32  1  0.013100  0.632300  0.413900  1.0  0.1055
  H  H33  1  0.921700  0.681000  0.454900  1.0  0.0905
  H  H34  1  0.800900  0.607600  0.790600  1.0  0.2265
  H  H35  1  0.749800  0.694400  0.888700  1.0  0.2784
  H  H36  1  0.712400  0.658600  0.785700  1.0  0.281
  H  H37  1  0.605800  0.922400  0.819700  1.0  0.0722
  H  H38  1  0.457200  0.940500  0.580800  1.0  0.0542
  H  H39  1  0.486900  0.867700  0.413900  1.0  0.1054
  H  H40  1  0.578300  0.819000  0.454900  1.0  0.09
  H  H41  1  0.699100  0.892400  0.790600  1.0  0.2257
  H  H42  1  0.750200  0.805600  0.888700  1.0  0.279
  H  H43  1  0.787600  0.841400  0.785700  1.0  0.2813
  H  H44  1  0.605800  0.422400  0.319700  1.0  0.0722
  H  H45  1  0.457200  0.440500  0.080800  1.0  0.0542
  H  H46  1  0.486900  0.367700  0.913900  1.0  0.1054
  H  H47  1  0.578300  0.319000  0.954900  1.0  0.09
  H  H48  1  0.699100  0.392400  0.290600  1.0  0.2257
  H  H49  1  0.750200  0.305600  0.388700  1.0  0.279
  H  H50  1  0.787600  0.341400  0.285700  1.0  0.2813
  H  H51  1  0.105800  0.922400  0.319700  1.0  0.0722
  H  H52  1  0.957200  0.940500  0.080800  1.0  0.0542
  H  H53  1  0.986900  0.867700  0.913900  1.0  0.1054
  H  H54  1  0.078300  0.819000  0.954900  1.0  0.09
  H  H55  1  0.199100  0.892400  0.290600  1.0  0.2257
  H  H56  1  0.250200  0.805600  0.388700  1.0  0.279
  H  H57  1  0.287600  0.841400  0.285700  1.0  0.2813
  H  H58  1  0.105800  0.422400  0.819700  1.0  0.0722
  H  H59  1  0.957200  0.440500  0.580800  1.0  0.0542
  H  H60  1  0.986900  0.367700  0.413900  1.0  0.1054
  H  H61  1  0.078300  0.319000  0.454900  1.0  0.09
  H  H62  1  0.199100  0.392400  0.790600  1.0  0.2257
  H  H63  1  0.250200  0.305600  0.888700  1.0  0.279
  H  H64  1  0.287600  0.341400  0.785700  1.0  0.2813
  H  H65  1  0.644200  0.172400  0.069700  1.0  0.0726
  H  H66  1  0.792800  0.190500  0.830800  1.0  0.0541
  H  H67  1  0.763100  0.117700  0.663900  1.0  0.1053
  H  H68  1  0.671700  0.069000  0.704900  1.0  0.0901
  H  H69  1  0.550900  0.142400  0.040600  1.0  0.2264
  H  H70  1  0.499800  0.055600  0.138700  1.0  0.2788
  H  H71  1  0.462400  0.091400  0.035700  1.0  0.282
  H  H72  1  0.644200  0.672400  0.569700  1.0  0.0726
  H  H73  1  0.792800  0.690500  0.330800  1.0  0.0541
  H  H74  1  0.763100  0.617700  0.163900  1.0  0.1053
  H  H75  1  0.671700  0.569000  0.204900  1.0  0.0901
  H  H76  1  0.550900  0.642400  0.540600  1.0  0.2264
  H  H77  1  0.499800  0.555600  0.638700  1.0  0.2788
  H  H78  1  0.462400  0.591400  0.535700  1.0  0.282
  H  H79  1  0.144200  0.172400  0.569700  1.0  0.0726
  H  H80  1  0.292800  0.190500  0.330800  1.0  0.0541
  H  H81  1  0.263100  0.117700  0.163900  1.0  0.1053
  H  H82  1  0.171700  0.069000  0.204900  1.0  0.0901
  H  H83  1  0.050900  0.142400  0.540600  1.0  0.2264
  H  H84  1  0.999800  0.055600  0.638700  1.0  0.2788
  H  H85  1  0.962400  0.091400  0.535700  1.0  0.282
  H  H86  1  0.144200  0.672400  0.069700  1.0  0.0726
  H  H87  1  0.292800  0.690500  0.830800  1.0  0.0541
  H  H88  1  0.263100  0.617700  0.663900  1.0  0.1053
  H  H89  1  0.171700  0.569000  0.704900  1.0  0.0901
  H  H90  1  0.050900  0.642400  0.040600  1.0  0.2264
  H  H91  1  0.999800  0.555600  0.138700  1.0  0.2788
  H  H92  1  0.962400  0.591400  0.035700  1.0  0.282
  H  H93  1  0.855800  0.327600  0.069700  1.0  0.0719
  H  H94  1  0.707200  0.309500  0.830800  1.0  0.0543
  H  H95  1  0.736900  0.382300  0.663900  1.0  0.1056
  H  H96  1  0.828300  0.431000  0.704900  1.0  0.0902
  H  H97  1  0.949100  0.357600  0.040600  1.0  0.2265
  H  H98  1  0.000200  0.444400  0.138700  1.0  0.2784
  H  H99  1  0.037600  0.408600  0.035700  1.0  0.281
  H  H100  1  0.855800  0.827600  0.569700  1.0  0.0719
  H  H101  1  0.707200  0.809500  0.330800  1.0  0.0543
  H  H102  1  0.736900  0.882300  0.163900  1.0  0.1056
  H  H103  1  0.828300  0.931000  0.204900  1.0  0.0902
  H  H104  1  0.949100  0.857600  0.540600  1.0  0.2265
  H  H105  1  0.000200  0.944400  0.638700  1.0  0.2784
  H  H106  1  0.037600  0.908600  0.535700  1.0  0.281
  H  H107  1  0.355800  0.327600  0.569700  1.0  0.0719
  H  H108  1  0.207200  0.309500  0.330800  1.0  0.0543
  H  H109  1  0.236900  0.382300  0.163900  1.0  0.1056
  H  H110  1  0.328300  0.431000  0.204900  1.0  0.0902
  H  H111  1  0.449100  0.357600  0.540600  1.0  0.2265
  H  H112  1  0.500200  0.444400  0.638700  1.0  0.2784
  H  H113  1  0.537600  0.408600  0.535700  1.0  0.281
  H  H114  1  0.355800  0.827600  0.069700  1.0  0.0719
  H  H115  1  0.207200  0.809500  0.830800  1.0  0.0543
  H  H116  1  0.236900  0.882300  0.663900  1.0  0.1056
  H  H117  1  0.328300  0.931000  0.704900  1.0  0.0902
  H  H118  1  0.449100  0.857600  0.040600  1.0  0.2265
  H  H119  1  0.500200  0.944400  0.138700  1.0  0.2784
  H  H120  1  0.537600  0.908600  0.035700  1.0  0.281
  C  C121  1  0.341900  0.168500  0.676000  1.0  0.5653
  C  C122  1  0.398100  0.134900  0.645500  1.0  -0.1211
  C  C123  1  0.418400  0.089500  0.738400  1.0  0.1159
  C  C124  1  0.505700  0.078500  0.596600  1.0  0.1322
  C  C125  1  0.488600  0.122300  0.496300  1.0  -0.2127
  C  C126  1  0.434300  0.151000  0.520700  1.0  -0.0538
  C  C127  1  0.341900  0.668500  0.176000  1.0  0.5653
  C  C128  1  0.398100  0.634900  0.145500  1.0  -0.1211
  C  C129  1  0.418400  0.589500  0.238400  1.0  0.1159
  C  C130  1  0.505700  0.578500  0.096600  1.0  0.1322
  C  C131  1  0.488600  0.622300  0.996300  1.0  -0.2127
  C  C132  1  0.434300  0.651000  0.020700  1.0  -0.0538
  C  C133  1  0.841900  0.168500  0.176000  1.0  0.5653
  C  C134  1  0.898100  0.134900  0.145500  1.0  -0.1211
  C  C135  1  0.918400  0.089500  0.238400  1.0  0.1159
  C  C136  1  0.005700  0.078500  0.096600  1.0  0.1322
  C  C137  1  0.988600  0.122300  0.996300  1.0  -0.2127
  C  C138  1  0.934300  0.151000  0.020700  1.0  -0.0538
  C  C139  1  0.841900  0.668500  0.676000  1.0  0.5653
  C  C140  1  0.898100  0.634900  0.645500  1.0  -0.1211
  C  C141  1  0.918400  0.589500  0.738400  1.0  0.1159
  C  C142  1  0.005700  0.578500  0.596600  1.0  0.1322
  C  C143  1  0.988600  0.622300  0.496300  1.0  -0.2127
  C  C144  1  0.934300  0.651000  0.520700  1.0  -0.0538
  C  C145  1  0.658100  0.831500  0.676000  1.0  0.5658
  C  C146  1  0.601900  0.865100  0.645500  1.0  -0.1223
  C  C147  1  0.581600  0.910500  0.738400  1.0  0.115
  C  C148  1  0.494300  0.921500  0.596600  1.0  0.1332
  C  C149  1  0.511400  0.877700  0.496300  1.0  -0.2137
  C  C150  1  0.565700  0.849000  0.520700  1.0  -0.0516
  C  C151  1  0.658100  0.331500  0.176000  1.0  0.5658
  C  C152  1  0.601900  0.365100  0.145500  1.0  -0.1223
  C  C153  1  0.581600  0.410500  0.238400  1.0  0.115
  C  C154  1  0.494300  0.421500  0.096600  1.0  0.1332
  C  C155  1  0.511400  0.377700  0.996300  1.0  -0.2137
  C  C156  1  0.565700  0.349000  0.020700  1.0  -0.0516
  C  C157  1  0.158100  0.831500  0.176000  1.0  0.5658
  C  C158  1  0.101900  0.865100  0.145500  1.0  -0.1223
  C  C159  1  0.081600  0.910500  0.238400  1.0  0.115
  C  C160  1  0.994300  0.921500  0.096600  1.0  0.1332
  C  C161  1  0.011400  0.877700  0.996300  1.0  -0.2137
  C  C162  1  0.065700  0.849000  0.020700  1.0  -0.0516
  C  C163  1  0.158100  0.331500  0.676000  1.0  0.5658
  C  C164  1  0.101900  0.365100  0.645500  1.0  -0.1223
  C  C165  1  0.081600  0.410500  0.738400  1.0  0.115
  C  C166  1  0.994300  0.421500  0.596600  1.0  0.1332
  C  C167  1  0.011400  0.377700  0.496300  1.0  -0.2137
  C  C168  1  0.065700  0.349000  0.520700  1.0  -0.0516
  C  C169  1  0.591900  0.081500  0.926000  1.0  0.5655
  C  C170  1  0.648100  0.115100  0.895500  1.0  -0.1219
  C  C171  1  0.668400  0.160500  0.988400  1.0  0.1158
  C  C172  1  0.755700  0.171500  0.846600  1.0  0.1327
  C  C173  1  0.738600  0.127700  0.746300  1.0  -0.2131
  C  C174  1  0.684300  0.099000  0.770700  1.0  -0.0528
  C  C175  1  0.591900  0.581500  0.426000  1.0  0.5655
  C  C176  1  0.648100  0.615100  0.395500  1.0  -0.1219
  C  C177  1  0.668400  0.660500  0.488400  1.0  0.1158
  C  C178  1  0.755700  0.671500  0.346600  1.0  0.1327
  C  C179  1  0.738600  0.627700  0.246300  1.0  -0.2131
  C  C180  1  0.684300  0.599000  0.270700  1.0  -0.0528
  C  C181  1  0.091900  0.081500  0.426000  1.0  0.5655
  C  C182  1  0.148100  0.115100  0.395500  1.0  -0.1219
  C  C183  1  0.168400  0.160500  0.488400  1.0  0.1158
  C  C184  1  0.255700  0.171500  0.346600  1.0  0.1327
  C  C185  1  0.238600  0.127700  0.246300  1.0  -0.2131
  C  C186  1  0.184300  0.099000  0.270700  1.0  -0.0528
  C  C187  1  0.091900  0.581500  0.926000  1.0  0.5655
  C  C188  1  0.148100  0.615100  0.895500  1.0  -0.1219
  C  C189  1  0.168400  0.660500  0.988400  1.0  0.1158
  C  C190  1  0.255700  0.671500  0.846600  1.0  0.1327
  C  C191  1  0.238600  0.627700  0.746300  1.0  -0.2131
  C  C192  1  0.184300  0.599000  0.770700  1.0  -0.0528
  C  C193  1  0.908100  0.418500  0.926000  1.0  0.5661
  C  C194  1  0.851900  0.384900  0.895500  1.0  -0.1216
  C  C195  1  0.831600  0.339500  0.988400  1.0  0.1152
  C  C196  1  0.744300  0.328500  0.846600  1.0  0.1329
  C  C197  1  0.761400  0.372300  0.746300  1.0  -0.2138
  C  C198  1  0.815700  0.401000  0.770700  1.0  -0.0535
  C  C199  1  0.908100  0.918500  0.426000  1.0  0.5661
  C  C200  1  0.851900  0.884900  0.395500  1.0  -0.1216
  C  C201  1  0.831600  0.839500  0.488400  1.0  0.1152
  C  C202  1  0.744300  0.828500  0.346600  1.0  0.1329
  C  C203  1  0.761400  0.872300  0.246300  1.0  -0.2138
  C  C204  1  0.815700  0.901000  0.270700  1.0  -0.0535
  C  C205  1  0.408100  0.418500  0.426000  1.0  0.5661
  C  C206  1  0.351900  0.384900  0.395500  1.0  -0.1216
  C  C207  1  0.331600  0.339500  0.488400  1.0  0.1152
  C  C208  1  0.244300  0.328500  0.346600  1.0  0.1329
  C  C209  1  0.261400  0.372300  0.246300  1.0  -0.2138
  C  C210  1  0.315700  0.401000  0.270700  1.0  -0.0535
  C  C211  1  0.408100  0.918500  0.926000  1.0  0.5661
  C  C212  1  0.351900  0.884900  0.895500  1.0  -0.1216
  C  C213  1  0.331600  0.839500  0.988400  1.0  0.1152
  C  C214  1  0.244300  0.828500  0.846600  1.0  0.1329
  C  C215  1  0.261400  0.872300  0.746300  1.0  -0.2138
  C  C216  1  0.315700  0.901000  0.770700  1.0  -0.0535
  N  N217  1  0.471890  0.061650  0.716000  1.0  -0.3333
  N  N218  1  0.298200  0.143800  0.759100  1.0  -0.323
  N  N219  1  0.247050  0.179600  0.793800  1.0  -0.6239
  N  N220  1  0.471890  0.561650  0.216000  1.0  -0.3333
  N  N221  1  0.298200  0.643800  0.259100  1.0  -0.323
  N  N222  1  0.247050  0.679600  0.293800  1.0  -0.6239
  N  N223  1  0.971890  0.061650  0.216000  1.0  -0.3333
  N  N224  1  0.798200  0.143800  0.259100  1.0  -0.323
  N  N225  1  0.747050  0.179600  0.293800  1.0  -0.6239
  N  N226  1  0.971890  0.561650  0.716000  1.0  -0.3333
  N  N227  1  0.798200  0.643800  0.759100  1.0  -0.323
  N  N228  1  0.747050  0.679600  0.793800  1.0  -0.6239
  N  N229  1  0.528110  0.938350  0.716000  1.0  -0.3327
  N  N230  1  0.701800  0.856200  0.759100  1.0  -0.3228
  N  N231  1  0.752950  0.820400  0.793800  1.0  -0.6239
  N  N232  1  0.528110  0.438350  0.216000  1.0  -0.3327
  N  N233  1  0.701800  0.356200  0.259100  1.0  -0.3228
  N  N234  1  0.752950  0.320400  0.293800  1.0  -0.6239
  N  N235  1  0.028110  0.938350  0.216000  1.0  -0.3327
  N  N236  1  0.201800  0.856200  0.259100  1.0  -0.3228
  N  N237  1  0.252950  0.820400  0.293800  1.0  -0.6239
  N  N238  1  0.028110  0.438350  0.716000  1.0  -0.3327
  N  N239  1  0.201800  0.356200  0.759100  1.0  -0.3228
  N  N240  1  0.252950  0.320400  0.793800  1.0  -0.6239
  N  N241  1  0.721890  0.188350  0.966000  1.0  -0.333
  N  N242  1  0.548200  0.106200  0.009100  1.0  -0.3227
  N  N243  1  0.497050  0.070400  0.043800  1.0  -0.6238
  N  N244  1  0.721890  0.688350  0.466000  1.0  -0.333
  N  N245  1  0.548200  0.606200  0.509100  1.0  -0.3227
  N  N246  1  0.497050  0.570400  0.543800  1.0  -0.6238
  N  N247  1  0.221890  0.188350  0.466000  1.0  -0.333
  N  N248  1  0.048200  0.106200  0.509100  1.0  -0.3227
  N  N249  1  0.997050  0.070400  0.543800  1.0  -0.6238
  N  N250  1  0.221890  0.688350  0.966000  1.0  -0.333
  N  N251  1  0.048200  0.606200  0.009100  1.0  -0.3227
  N  N252  1  0.997050  0.570400  0.043800  1.0  -0.6238
  N  N253  1  0.778110  0.311650  0.966000  1.0  -0.3328
  N  N254  1  0.951800  0.393800  0.009100  1.0  -0.3232
  N  N255  1  0.002950  0.429600  0.043800  1.0  -0.6237
  N  N256  1  0.778110  0.811650  0.466000  1.0  -0.3328
  N  N257  1  0.951800  0.893800  0.509100  1.0  -0.3232
  N  N258  1  0.002950  0.929600  0.543800  1.0  -0.6237
  N  N259  1  0.278110  0.311650  0.466000  1.0  -0.3328
  N  N260  1  0.451800  0.393800  0.509100  1.0  -0.3232
  N  N261  1  0.502950  0.429600  0.543800  1.0  -0.6237
  N  N262  1  0.278110  0.811650  0.966000  1.0  -0.3328
  N  N263  1  0.451800  0.893800  0.009100  1.0  -0.3232
  N  N264  1  0.502950  0.929600  0.043800  1.0  -0.6237
  O  O265  1  0.336370  0.218830  0.622000  1.0  -0.588
  O  O266  1  0.336370  0.718830  0.122000  1.0  -0.588
  O  O267  1  0.836370  0.218830  0.122000  1.0  -0.588
  O  O268  1  0.836370  0.718830  0.622000  1.0  -0.588
  O  O269  1  0.663630  0.781170  0.622000  1.0  -0.5887
  O  O270  1  0.663630  0.281170  0.122000  1.0  -0.5887
  O  O271  1  0.163630  0.781170  0.122000  1.0  -0.5887
  O  O272  1  0.163630  0.281170  0.622000  1.0  -0.5887
  O  O273  1  0.586370  0.031170  0.872000  1.0  -0.5895
  O  O274  1  0.586370  0.531170  0.372000  1.0  -0.5895
  O  O275  1  0.086370  0.031170  0.372000  1.0  -0.5895
  O  O276  1  0.086370  0.531170  0.872000  1.0  -0.5895
  O  O277  1  0.913630  0.468830  0.872000  1.0  -0.5895
  O  O278  1  0.913630  0.968830  0.372000  1.0  -0.5895
  O  O279  1  0.413630  0.468830  0.372000  1.0  -0.5895
  O  O280  1  0.413630  0.968830  0.872000  1.0  -0.5895
