# generated using pymatgen
data_Cd2H9C23O10
_symmetry_space_group_name_H-M   'P 1'
_cell_length_a   31.84000000
_cell_length_b   13.47800000
_cell_length_c   19.85400000
_cell_angle_alpha   90.00000000
_cell_angle_beta   91.36500000
_cell_angle_gamma   90.00000000
_symmetry_Int_Tables_number   1
_chemical_formula_structural   Cd2H9C23O10
_chemical_formula_sum   'Cd16 H72 C184 O80'
_cell_volume   8517.71825426
_cell_formula_units_Z   8
loop_
 _symmetry_equiv_pos_site_id
 _symmetry_equiv_pos_as_xyz
  1  'x, y, z'
loop_
 _atom_site_type_symbol
 _atom_site_label
 _atom_site_symmetry_multiplicity
 _atom_site_fract_x
 _atom_site_fract_y
 _atom_site_fract_z
 _atom_site_occupancy
 _atom_site_charge
  Cd  Cd1  1  0.174820  0.619900  0.359950  1.0  1.0878
  Cd  Cd2  1  0.103600  0.664350  0.490030  1.0  1.0809
  Cd  Cd3  1  0.674820  0.119900  0.359950  1.0  1.0878
  Cd  Cd4  1  0.603600  0.164350  0.490030  1.0  1.0809
  Cd  Cd5  1  0.825180  0.619900  0.140050  1.0  1.0878
  Cd  Cd6  1  0.896400  0.664350  0.009970  1.0  1.0801
  Cd  Cd7  1  0.325180  0.119900  0.140050  1.0  1.0878
  Cd  Cd8  1  0.396400  0.164350  0.009970  1.0  1.0801
  Cd  Cd9  1  0.825180  0.380100  0.640050  1.0  1.0867
  Cd  Cd10  1  0.896400  0.335650  0.509970  1.0  1.0798
  Cd  Cd11  1  0.325180  0.880100  0.640050  1.0  1.0867
  Cd  Cd12  1  0.396400  0.835650  0.509970  1.0  1.0798
  Cd  Cd13  1  0.174820  0.380100  0.859950  1.0  1.0869
  Cd  Cd14  1  0.103600  0.335650  0.990030  1.0  1.0809
  Cd  Cd15  1  0.674820  0.880100  0.859950  1.0  1.0869
  Cd  Cd16  1  0.603600  0.835650  0.990030  1.0  1.0809
  H  H17  1  0.126300  0.292300  0.378300  1.0  0.1132
  H  H18  1  0.047100  0.026500  0.406100  1.0  0.1263
  H  H19  1  0.158900  0.157500  0.399300  1.0  0.1252
  H  H20  1  0.024200  0.161300  0.449600  1.0  0.1285
  H  H21  1  0.028800  0.458200  0.429300  1.0  0.1266
  H  H22  1  0.079200  0.871900  0.407100  1.0  0.1225
  H  H23  1  0.325600  0.026300  0.374900  1.0  0.1274
  H  H24  1  0.223300  0.953700  0.478500  1.0  0.1286
  H  H25  1  0.210600  0.066100  0.294000  1.0  0.1365
  H  H26  1  0.626300  0.792300  0.378300  1.0  0.1132
  H  H27  1  0.547100  0.526500  0.406100  1.0  0.1263
  H  H28  1  0.658900  0.657500  0.399300  1.0  0.1252
  H  H29  1  0.524200  0.661300  0.449600  1.0  0.1285
  H  H30  1  0.528800  0.958200  0.429300  1.0  0.1266
  H  H31  1  0.579200  0.371900  0.407100  1.0  0.1225
  H  H32  1  0.825600  0.526300  0.374900  1.0  0.1274
  H  H33  1  0.723300  0.453700  0.478500  1.0  0.1286
  H  H34  1  0.710600  0.566100  0.294000  1.0  0.1365
  H  H35  1  0.873700  0.292300  0.121700  1.0  0.1136
  H  H36  1  0.952900  0.026500  0.093900  1.0  0.1248
  H  H37  1  0.841100  0.157500  0.100700  1.0  0.1256
  H  H38  1  0.975800  0.161300  0.050400  1.0  0.129
  H  H39  1  0.971200  0.458200  0.070700  1.0  0.1266
  H  H40  1  0.920800  0.871900  0.092900  1.0  0.1228
  H  H41  1  0.674400  0.026300  0.125100  1.0  0.1268
  H  H42  1  0.776700  0.953700  0.021500  1.0  0.1292
  H  H43  1  0.789400  0.066100  0.206000  1.0  0.1372
  H  H44  1  0.373700  0.792300  0.121700  1.0  0.1136
  H  H45  1  0.452900  0.526500  0.093900  1.0  0.1248
  H  H46  1  0.341100  0.657500  0.100700  1.0  0.1256
  H  H47  1  0.475800  0.661300  0.050400  1.0  0.129
  H  H48  1  0.471200  0.958200  0.070700  1.0  0.1266
  H  H49  1  0.420800  0.371900  0.092900  1.0  0.1228
  H  H50  1  0.174400  0.526300  0.125100  1.0  0.1268
  H  H51  1  0.276700  0.453700  0.021500  1.0  0.1292
  H  H52  1  0.289400  0.566100  0.206000  1.0  0.1372
  H  H53  1  0.873700  0.707700  0.621700  1.0  0.1133
  H  H54  1  0.952900  0.973500  0.593900  1.0  0.1252
  H  H55  1  0.841100  0.842500  0.600700  1.0  0.1254
  H  H56  1  0.975800  0.838700  0.550400  1.0  0.1283
  H  H57  1  0.971200  0.541800  0.570700  1.0  0.1269
  H  H58  1  0.920800  0.128100  0.592900  1.0  0.1227
  H  H59  1  0.674400  0.973700  0.625100  1.0  0.1269
  H  H60  1  0.776700  0.046300  0.521500  1.0  0.1288
  H  H61  1  0.789400  0.933900  0.706000  1.0  0.137
  H  H62  1  0.373700  0.207700  0.621700  1.0  0.1133
  H  H63  1  0.452900  0.473500  0.593900  1.0  0.1252
  H  H64  1  0.341100  0.342500  0.600700  1.0  0.1254
  H  H65  1  0.475800  0.338700  0.550400  1.0  0.1283
  H  H66  1  0.471200  0.041800  0.570700  1.0  0.1269
  H  H67  1  0.420800  0.628100  0.592900  1.0  0.1227
  H  H68  1  0.174400  0.473700  0.625100  1.0  0.1269
  H  H69  1  0.276700  0.546300  0.521500  1.0  0.1288
  H  H70  1  0.289400  0.433900  0.706000  1.0  0.137
  H  H71  1  0.126300  0.707700  0.878300  1.0  0.1131
  H  H72  1  0.047100  0.973500  0.906100  1.0  0.1263
  H  H73  1  0.158900  0.842500  0.899300  1.0  0.1254
  H  H74  1  0.024200  0.838700  0.949600  1.0  0.1284
  H  H75  1  0.028800  0.541800  0.929300  1.0  0.1264
  H  H76  1  0.079200  0.128100  0.907100  1.0  0.123
  H  H77  1  0.325600  0.973700  0.874900  1.0  0.1274
  H  H78  1  0.223300  0.046300  0.978500  1.0  0.1284
  H  H79  1  0.210600  0.933900  0.794000  1.0  0.1364
  H  H80  1  0.626300  0.207700  0.878300  1.0  0.1131
  H  H81  1  0.547100  0.473500  0.906100  1.0  0.1263
  H  H82  1  0.658900  0.342500  0.899300  1.0  0.1254
  H  H83  1  0.524200  0.338700  0.949600  1.0  0.1284
  H  H84  1  0.528800  0.041800  0.929300  1.0  0.1264
  H  H85  1  0.579200  0.628100  0.907100  1.0  0.123
  H  H86  1  0.825600  0.473700  0.874900  1.0  0.1274
  H  H87  1  0.723300  0.546300  0.978500  1.0  0.1284
  H  H88  1  0.710600  0.433900  0.794000  1.0  0.1364
  C  C89  1  0.098900  0.296100  0.393300  1.0  -0.0282
  C  C90  1  0.138400  0.920600  0.393400  1.0  -0.0489
  C  C91  1  0.080600  0.389100  0.399100  1.0  -0.1483
  C  C92  1  0.098700  0.107900  0.404200  1.0  0.0371
  C  C93  1  0.156400  0.820800  0.383700  1.0  0.6897
  C  C94  1  0.078400  0.208900  0.408800  1.0  0.094
  C  C95  1  0.076200  0.022800  0.404500  1.0  -0.0884
  C  C96  1  0.142700  0.100200  0.398300  1.0  -0.0847
  C  C97  1  0.038000  0.217900  0.435000  1.0  -0.0414
  C  C98  1  0.162100  0.009300  0.391100  1.0  0.0172
  C  C99  1  0.040800  0.396000  0.423400  1.0  0.03
  C  C100  1  0.017900  0.310200  0.439800  1.0  -0.161
  C  C101  1  0.095400  0.928800  0.402400  1.0  -0.0768
  C  C102  1  0.278900  0.984200  0.437600  1.0  -0.1478
  C  C103  1  0.296500  0.021800  0.378100  1.0  0.0322
  C  C104  1  0.270700  0.052400  0.323700  1.0  -0.1432
  C  C105  1  0.209100  0.009800  0.387800  1.0  0.0393
  C  C106  1  0.235400  0.979100  0.439900  1.0  -0.0621
  C  C107  1  0.227800  0.045800  0.329900  1.0  -0.0686
  C  C108  1  0.306800  0.944400  0.491700  1.0  0.7287
  C  C109  1  0.290500  0.082900  0.258900  1.0  0.7123
  C  C110  1  0.974500  0.318100  0.465200  1.0  0.6768
  C  C111  1  0.105400  0.480400  0.384500  1.0  0.7454
  C  C112  1  0.598900  0.796100  0.393300  1.0  -0.0282
  C  C113  1  0.638400  0.420600  0.393400  1.0  -0.0489
  C  C114  1  0.580600  0.889100  0.399100  1.0  -0.1483
  C  C115  1  0.598700  0.607900  0.404200  1.0  0.0371
  C  C116  1  0.656400  0.320800  0.383700  1.0  0.6897
  C  C117  1  0.578400  0.708900  0.408800  1.0  0.094
  C  C118  1  0.576200  0.522800  0.404500  1.0  -0.0884
  C  C119  1  0.642700  0.600200  0.398300  1.0  -0.0847
  C  C120  1  0.538000  0.717900  0.435000  1.0  -0.0414
  C  C121  1  0.662100  0.509300  0.391100  1.0  0.0172
  C  C122  1  0.540800  0.896000  0.423400  1.0  0.03
  C  C123  1  0.517900  0.810200  0.439800  1.0  -0.161
  C  C124  1  0.595400  0.428800  0.402400  1.0  -0.0768
  C  C125  1  0.778900  0.484200  0.437600  1.0  -0.1478
  C  C126  1  0.796500  0.521800  0.378100  1.0  0.0322
  C  C127  1  0.770700  0.552400  0.323700  1.0  -0.1432
  C  C128  1  0.709100  0.509800  0.387800  1.0  0.0393
  C  C129  1  0.735400  0.479100  0.439900  1.0  -0.0621
  C  C130  1  0.727800  0.545800  0.329900  1.0  -0.0686
  C  C131  1  0.806800  0.444400  0.491700  1.0  0.7287
  C  C132  1  0.790500  0.582900  0.258900  1.0  0.7123
  C  C133  1  0.474500  0.818100  0.465200  1.0  0.6768
  C  C134  1  0.605400  0.980400  0.384500  1.0  0.7454
  C  C135  1  0.901100  0.296100  0.106700  1.0  -0.0299
  C  C136  1  0.861600  0.920600  0.106600  1.0  -0.0495
  C  C137  1  0.919400  0.389100  0.100900  1.0  -0.1485
  C  C138  1  0.901300  0.107900  0.095800  1.0  0.0374
  C  C139  1  0.843600  0.820800  0.116300  1.0  0.6909
  C  C140  1  0.921600  0.208900  0.091200  1.0  0.0935
  C  C141  1  0.923800  0.022800  0.095500  1.0  -0.0878
  C  C142  1  0.857300  0.100200  0.101700  1.0  -0.0846
  C  C143  1  0.962000  0.217900  0.065000  1.0  -0.0407
  C  C144  1  0.837900  0.009300  0.108900  1.0  0.0172
  C  C145  1  0.959200  0.396000  0.076600  1.0  0.0292
  C  C146  1  0.982100  0.310200  0.060200  1.0  -0.1612
  C  C147  1  0.904600  0.928800  0.097600  1.0  -0.0767
  C  C148  1  0.721100  0.984200  0.062400  1.0  -0.1443
  C  C149  1  0.703500  0.021800  0.121900  1.0  0.0297
  C  C150  1  0.729300  0.052400  0.176300  1.0  -0.1411
  C  C151  1  0.790900  0.009800  0.112200  1.0  0.0391
  C  C152  1  0.764600  0.979100  0.060100  1.0  -0.0602
  C  C153  1  0.772200  0.045800  0.170100  1.0  -0.0688
  C  C154  1  0.693200  0.944400  0.008300  1.0  0.7292
  C  C155  1  0.709500  0.082900  0.241100  1.0  0.711
  C  C156  1  0.025500  0.318100  0.034800  1.0  0.6772
  C  C157  1  0.894600  0.480400  0.115500  1.0  0.7458
  C  C158  1  0.401100  0.796100  0.106700  1.0  -0.0299
  C  C159  1  0.361600  0.420600  0.106600  1.0  -0.0495
  C  C160  1  0.419400  0.889100  0.100900  1.0  -0.1485
  C  C161  1  0.401300  0.607900  0.095800  1.0  0.0374
  C  C162  1  0.343600  0.320800  0.116300  1.0  0.6909
  C  C163  1  0.421600  0.708900  0.091200  1.0  0.0935
  C  C164  1  0.423800  0.522800  0.095500  1.0  -0.0878
  C  C165  1  0.357300  0.600200  0.101700  1.0  -0.0846
  C  C166  1  0.462000  0.717900  0.065000  1.0  -0.0407
  C  C167  1  0.337900  0.509300  0.108900  1.0  0.0172
  C  C168  1  0.459200  0.896000  0.076600  1.0  0.0292
  C  C169  1  0.482100  0.810200  0.060200  1.0  -0.1612
  C  C170  1  0.404600  0.428800  0.097600  1.0  -0.0767
  C  C171  1  0.221100  0.484200  0.062400  1.0  -0.1443
  C  C172  1  0.203500  0.521800  0.121900  1.0  0.0297
  C  C173  1  0.229300  0.552400  0.176300  1.0  -0.1411
  C  C174  1  0.290900  0.509800  0.112200  1.0  0.0391
  C  C175  1  0.264600  0.479100  0.060100  1.0  -0.0602
  C  C176  1  0.272200  0.545800  0.170100  1.0  -0.0688
  C  C177  1  0.193200  0.444400  0.008300  1.0  0.7292
  C  C178  1  0.209500  0.582900  0.241100  1.0  0.711
  C  C179  1  0.525500  0.818100  0.034800  1.0  0.6772
  C  C180  1  0.394600  0.980400  0.115500  1.0  0.7458
  C  C181  1  0.901100  0.703900  0.606700  1.0  -0.0296
  C  C182  1  0.861600  0.079400  0.606600  1.0  -0.0484
  C  C183  1  0.919400  0.610900  0.600900  1.0  -0.1481
  C  C184  1  0.901300  0.892100  0.595800  1.0  0.0375
  C  C185  1  0.843600  0.179200  0.616300  1.0  0.6892
  C  C186  1  0.921600  0.791100  0.591200  1.0  0.0939
  C  C187  1  0.923800  0.977200  0.595500  1.0  -0.0883
  C  C188  1  0.857300  0.899800  0.601700  1.0  -0.0832
  C  C189  1  0.962000  0.782100  0.565000  1.0  -0.0422
  C  C190  1  0.837900  0.990700  0.608900  1.0  0.0173
  C  C191  1  0.959200  0.604000  0.576600  1.0  0.0297
  C  C192  1  0.982100  0.689800  0.560200  1.0  -0.1611
  C  C193  1  0.904600  0.071200  0.597600  1.0  -0.0767
  C  C194  1  0.721100  0.015800  0.562400  1.0  -0.1444
  C  C195  1  0.703500  0.978200  0.621900  1.0  0.0296
  C  C196  1  0.729300  0.947600  0.676300  1.0  -0.1411
  C  C197  1  0.790900  0.990200  0.612200  1.0  0.0393
  C  C198  1  0.764600  0.020900  0.560100  1.0  -0.0604
  C  C199  1  0.772200  0.954200  0.670100  1.0  -0.068
  C  C200  1  0.693200  0.055600  0.508300  1.0  0.7294
  C  C201  1  0.709500  0.917100  0.741100  1.0  0.7118
  C  C202  1  0.025500  0.681900  0.534800  1.0  0.6771
  C  C203  1  0.894600  0.519600  0.615500  1.0  0.7467
  C  C204  1  0.401100  0.203900  0.606700  1.0  -0.0296
  C  C205  1  0.361600  0.579400  0.606600  1.0  -0.0484
  C  C206  1  0.419400  0.110900  0.600900  1.0  -0.1481
  C  C207  1  0.401300  0.392100  0.595800  1.0  0.0375
  C  C208  1  0.343600  0.679200  0.616300  1.0  0.6892
  C  C209  1  0.421600  0.291100  0.591200  1.0  0.0939
  C  C210  1  0.423800  0.477200  0.595500  1.0  -0.0883
  C  C211  1  0.357300  0.399800  0.601700  1.0  -0.0832
  C  C212  1  0.462000  0.282100  0.565000  1.0  -0.0422
  C  C213  1  0.337900  0.490700  0.608900  1.0  0.0173
  C  C214  1  0.459200  0.104000  0.576600  1.0  0.0297
  C  C215  1  0.482100  0.189800  0.560200  1.0  -0.1611
  C  C216  1  0.404600  0.571200  0.597600  1.0  -0.0767
  C  C217  1  0.221100  0.515800  0.562400  1.0  -0.1444
  C  C218  1  0.203500  0.478200  0.621900  1.0  0.0296
  C  C219  1  0.229300  0.447600  0.676300  1.0  -0.1411
  C  C220  1  0.290900  0.490200  0.612200  1.0  0.0393
  C  C221  1  0.264600  0.520900  0.560100  1.0  -0.0604
  C  C222  1  0.272200  0.454200  0.670100  1.0  -0.068
  C  C223  1  0.193200  0.555600  0.508300  1.0  0.7294
  C  C224  1  0.209500  0.417100  0.741100  1.0  0.7118
  C  C225  1  0.525500  0.181900  0.534800  1.0  0.6771
  C  C226  1  0.394600  0.019600  0.615500  1.0  0.7467
  C  C227  1  0.098900  0.703900  0.893300  1.0  -0.0281
  C  C228  1  0.138400  0.079400  0.893400  1.0  -0.0484
  C  C229  1  0.080600  0.610900  0.899100  1.0  -0.1485
  C  C230  1  0.098700  0.892100  0.904200  1.0  0.0373
  C  C231  1  0.156400  0.179200  0.883700  1.0  0.6886
  C  C232  1  0.078400  0.791100  0.908800  1.0  0.0945
  C  C233  1  0.076200  0.977200  0.904500  1.0  -0.0894
  C  C234  1  0.142700  0.899800  0.898300  1.0  -0.0832
  C  C235  1  0.038000  0.782100  0.935000  1.0  -0.0428
  C  C236  1  0.162100  0.990700  0.891100  1.0  0.0171
  C  C237  1  0.040800  0.604000  0.923400  1.0  0.0305
  C  C238  1  0.017900  0.689800  0.939800  1.0  -0.1608
  C  C239  1  0.095400  0.071200  0.902400  1.0  -0.0766
  C  C240  1  0.278900  0.015800  0.937600  1.0  -0.1476
  C  C241  1  0.296500  0.978200  0.878100  1.0  0.0322
  C  C242  1  0.270700  0.947600  0.823700  1.0  -0.1436
  C  C243  1  0.209100  0.990200  0.887800  1.0  0.0397
  C  C244  1  0.235400  0.020900  0.939900  1.0  -0.0626
  C  C245  1  0.227800  0.954200  0.829900  1.0  -0.0684
  C  C246  1  0.306800  0.055600  0.991700  1.0  0.7288
  C  C247  1  0.290500  0.917100  0.758900  1.0  0.7125
  C  C248  1  0.974500  0.681900  0.965200  1.0  0.677
  C  C249  1  0.105400  0.519600  0.884500  1.0  0.7459
  C  C250  1  0.598900  0.203900  0.893300  1.0  -0.0281
  C  C251  1  0.638400  0.579400  0.893400  1.0  -0.0484
  C  C252  1  0.580600  0.110900  0.899100  1.0  -0.1485
  C  C253  1  0.598700  0.392100  0.904200  1.0  0.0373
  C  C254  1  0.656400  0.679200  0.883700  1.0  0.6886
  C  C255  1  0.578400  0.291100  0.908800  1.0  0.0945
  C  C256  1  0.576200  0.477200  0.904500  1.0  -0.0894
  C  C257  1  0.642700  0.399800  0.898300  1.0  -0.0832
  C  C258  1  0.538000  0.282100  0.935000  1.0  -0.0428
  C  C259  1  0.662100  0.490700  0.891100  1.0  0.0171
  C  C260  1  0.540800  0.104000  0.923400  1.0  0.0305
  C  C261  1  0.517900  0.189800  0.939800  1.0  -0.1608
  C  C262  1  0.595400  0.571200  0.902400  1.0  -0.0766
  C  C263  1  0.778900  0.515800  0.937600  1.0  -0.1476
  C  C264  1  0.796500  0.478200  0.878100  1.0  0.0322
  C  C265  1  0.770700  0.447600  0.823700  1.0  -0.1436
  C  C266  1  0.709100  0.490200  0.887800  1.0  0.0397
  C  C267  1  0.735400  0.520900  0.939900  1.0  -0.0626
  C  C268  1  0.727800  0.454200  0.829900  1.0  -0.0684
  C  C269  1  0.806800  0.555600  0.991700  1.0  0.7288
  C  C270  1  0.790500  0.417100  0.758900  1.0  0.7125
  C  C271  1  0.474500  0.181900  0.965200  1.0  0.677
  C  C272  1  0.605400  0.019600  0.884500  1.0  0.7459
  O  O273  1  0.141110  0.471300  0.361600  1.0  -0.5446
  O  O274  1  0.268430  0.081200  0.206400  1.0  -0.5874
  O  O275  1  0.952610  0.394500  0.451100  1.0  -0.583
  O  O276  1  0.328650  0.109000  0.260400  1.0  -0.5714
  O  O277  1  0.289100  0.916900  0.545800  1.0  -0.5976
  O  O278  1  0.345560  0.944900  0.483500  1.0  -0.6272
  O  O279  1  0.960280  0.250400  0.500700  1.0  -0.5865
  O  O280  1  0.088050  0.563400  0.396900  1.0  -0.6753
  O  O281  1  0.189200  0.806200  0.353700  1.0  -0.5855
  O  O282  1  0.135610  0.744100  0.405300  1.0  -0.6521
  O  O283  1  0.641110  0.971300  0.361600  1.0  -0.5446
  O  O284  1  0.768430  0.581200  0.206400  1.0  -0.5874
  O  O285  1  0.452610  0.894500  0.451100  1.0  -0.583
  O  O286  1  0.828650  0.609000  0.260400  1.0  -0.5714
  O  O287  1  0.789100  0.416900  0.545800  1.0  -0.5976
  O  O288  1  0.845560  0.444900  0.483500  1.0  -0.6272
  O  O289  1  0.460280  0.750400  0.500700  1.0  -0.5865
  O  O290  1  0.588050  0.063400  0.396900  1.0  -0.6753
  O  O291  1  0.689200  0.306200  0.353700  1.0  -0.5855
  O  O292  1  0.635610  0.244100  0.405300  1.0  -0.6521
  O  O293  1  0.858890  0.471300  0.138400  1.0  -0.5436
  O  O294  1  0.731570  0.081200  0.293600  1.0  -0.5877
  O  O295  1  0.047390  0.394500  0.048900  1.0  -0.5816
  O  O296  1  0.671350  0.109000  0.239600  1.0  -0.5717
  O  O297  1  0.710900  0.916900  0.954200  1.0  -0.5988
  O  O298  1  0.654440  0.944900  0.016500  1.0  -0.6265
  O  O299  1  0.039720  0.250400  0.999300  1.0  -0.587
  O  O300  1  0.911950  0.563400  0.103100  1.0  -0.6756
  O  O301  1  0.810800  0.806200  0.146300  1.0  -0.5833
  O  O302  1  0.864390  0.744100  0.094700  1.0  -0.65
  O  O303  1  0.358890  0.971300  0.138400  1.0  -0.5436
  O  O304  1  0.231570  0.581200  0.293600  1.0  -0.5877
  O  O305  1  0.547390  0.894500  0.048900  1.0  -0.5816
  O  O306  1  0.171350  0.609000  0.239600  1.0  -0.5717
  O  O307  1  0.210900  0.416900  0.954200  1.0  -0.5988
  O  O308  1  0.154440  0.444900  0.016500  1.0  -0.6265
  O  O309  1  0.539720  0.750400  0.999300  1.0  -0.587
  O  O310  1  0.411950  0.063400  0.103100  1.0  -0.6756
  O  O311  1  0.310800  0.306200  0.146300  1.0  -0.5833
  O  O312  1  0.364390  0.244100  0.094700  1.0  -0.65
  O  O313  1  0.858890  0.528700  0.638400  1.0  -0.5442
  O  O314  1  0.731570  0.918800  0.793600  1.0  -0.5875
  O  O315  1  0.047390  0.605500  0.548900  1.0  -0.5813
  O  O316  1  0.671350  0.891000  0.739600  1.0  -0.5717
  O  O317  1  0.710900  0.083100  0.454200  1.0  -0.5987
  O  O318  1  0.654440  0.055100  0.516500  1.0  -0.6274
  O  O319  1  0.039720  0.749600  0.499300  1.0  -0.588
  O  O320  1  0.911950  0.436600  0.603100  1.0  -0.6755
  O  O321  1  0.810800  0.193800  0.646300  1.0  -0.5835
  O  O322  1  0.864390  0.255900  0.594700  1.0  -0.6503
  O  O323  1  0.358890  0.028700  0.638400  1.0  -0.5442
  O  O324  1  0.231570  0.418800  0.793600  1.0  -0.5875
  O  O325  1  0.547390  0.105500  0.548900  1.0  -0.5813
  O  O326  1  0.171350  0.391000  0.739600  1.0  -0.5717
  O  O327  1  0.210900  0.583100  0.454200  1.0  -0.5987
  O  O328  1  0.154440  0.555100  0.516500  1.0  -0.6274
  O  O329  1  0.539720  0.249600  0.499300  1.0  -0.588
  O  O330  1  0.411950  0.936600  0.603100  1.0  -0.6755
  O  O331  1  0.310800  0.693800  0.646300  1.0  -0.5835
  O  O332  1  0.364390  0.755900  0.594700  1.0  -0.6503
  O  O333  1  0.141110  0.528700  0.861600  1.0  -0.5447
  O  O334  1  0.268430  0.918800  0.706400  1.0  -0.5873
  O  O335  1  0.952610  0.605500  0.951100  1.0  -0.5805
  O  O336  1  0.328650  0.891000  0.760400  1.0  -0.5727
  O  O337  1  0.289100  0.083100  0.045800  1.0  -0.5984
  O  O338  1  0.345560  0.055100  0.983500  1.0  -0.628
  O  O339  1  0.960280  0.749600  0.000700  1.0  -0.5876
  O  O340  1  0.088050  0.436600  0.896900  1.0  -0.6738
  O  O341  1  0.189200  0.193800  0.853700  1.0  -0.5851
  O  O342  1  0.135610  0.255900  0.905300  1.0  -0.6523
  O  O343  1  0.641110  0.028700  0.861600  1.0  -0.5447
  O  O344  1  0.768430  0.418800  0.706400  1.0  -0.5873
  O  O345  1  0.452610  0.105500  0.951100  1.0  -0.5805
  O  O346  1  0.828650  0.391000  0.760400  1.0  -0.5727
  O  O347  1  0.789100  0.583100  0.045800  1.0  -0.5984
  O  O348  1  0.845560  0.555100  0.983500  1.0  -0.628
  O  O349  1  0.460280  0.249600  0.000700  1.0  -0.5876
  O  O350  1  0.588050  0.936600  0.896900  1.0  -0.6738
  O  O351  1  0.689200  0.693800  0.853700  1.0  -0.5851
  O  O352  1  0.635610  0.755900  0.905300  1.0  -0.6523
