# generated using pymatgen
data_Zn2H14C22O7
_symmetry_space_group_name_H-M   'P 1'
_cell_length_a   10.13650000
_cell_length_b   11.41340000
_cell_length_c   29.27940000
_cell_angle_alpha   90.00000000
_cell_angle_beta   90.00000000
_cell_angle_gamma   90.00000000
_symmetry_Int_Tables_number   1
_chemical_formula_structural   Zn2H14C22O7
_chemical_formula_sum   'Zn8 H56 C88 O28'
_cell_volume   3387.39026889
_cell_formula_units_Z   4
loop_
 _symmetry_equiv_pos_site_id
 _symmetry_equiv_pos_as_xyz
  1  'x, y, z'
loop_
 _atom_site_type_symbol
 _atom_site_label
 _atom_site_symmetry_multiplicity
 _atom_site_fract_x
 _atom_site_fract_y
 _atom_site_fract_z
 _atom_site_occupancy
 _atom_site_charge
  Zn  Zn1  1  0.341390  0.315380  0.006980  1.0  1.0668
  Zn  Zn2  1  0.034690  0.430190  0.006230  1.0  1.0969
  Zn  Zn3  1  0.158610  0.684620  0.506980  1.0  1.0664
  Zn  Zn4  1  0.465310  0.569810  0.506230  1.0  1.0964
  Zn  Zn5  1  0.658610  0.815380  0.493020  1.0  1.0668
  Zn  Zn6  1  0.965310  0.930190  0.493770  1.0  1.09
  Zn  Zn7  1  0.841390  0.184620  0.993020  1.0  1.0659
  Zn  Zn8  1  0.534690  0.069810  0.993770  1.0  1.0957
  H  H9  1  0.249200  0.018700  0.977900  1.0  0.0976
  H  H10  1  0.133900  0.871700  0.020000  1.0  0.1133
  H  H11  1  0.090200  0.773500  0.088800  1.0  0.1014
  H  H12  1  0.164500  0.852500  0.157800  1.0  0.0982
  H  H13  1  0.274100  0.032600  0.158800  1.0  0.1093
  H  H14  1  0.314400  0.131800  0.089800  1.0  0.0942
  H  H15  1  0.035300  0.487600  0.866300  1.0  0.0952
  H  H16  1  0.050000  0.517200  0.787700  1.0  0.112
  H  H17  1  0.446900  0.475200  0.793700  1.0  0.1151
  H  H18  1  0.432000  0.440900  0.872300  1.0  0.0993
  H  H19  1  0.121200  0.646600  0.728400  1.0  0.1103
  H  H20  1  0.135100  0.676300  0.649900  1.0  0.1096
  H  H21  1  0.417000  0.425100  0.641800  1.0  0.1074
  H  H22  1  0.397600  0.391900  0.720300  1.0  0.1131
  H  H23  1  0.250800  0.981300  0.477900  1.0  0.0977
  H  H24  1  0.366100  0.128300  0.520000  1.0  0.1138
  H  H25  1  0.409800  0.226500  0.588800  1.0  0.1017
  H  H26  1  0.335500  0.147500  0.657800  1.0  0.0983
  H  H27  1  0.225900  0.967400  0.658800  1.0  0.1101
  H  H28  1  0.185600  0.868200  0.589800  1.0  0.0943
  H  H29  1  0.464700  0.512400  0.366300  1.0  0.095
  H  H30  1  0.450000  0.482800  0.287700  1.0  0.1118
  H  H31  1  0.053100  0.524800  0.293700  1.0  0.1156
  H  H32  1  0.068000  0.559100  0.372300  1.0  0.0994
  H  H33  1  0.378800  0.353400  0.228400  1.0  0.1102
  H  H34  1  0.364900  0.323700  0.149900  1.0  0.11
  H  H35  1  0.083000  0.574900  0.141800  1.0  0.1078
  H  H36  1  0.102400  0.608100  0.220300  1.0  0.1134
  H  H37  1  0.750800  0.518700  0.522100  1.0  0.0969
  H  H38  1  0.866100  0.371700  0.480000  1.0  0.1132
  H  H39  1  0.909800  0.273500  0.411200  1.0  0.1016
  H  H40  1  0.835500  0.352500  0.342200  1.0  0.0998
  H  H41  1  0.725900  0.532600  0.341200  1.0  0.1087
  H  H42  1  0.685600  0.631800  0.410200  1.0  0.0941
  H  H43  1  0.964700  0.987600  0.633700  1.0  0.0943
  H  H44  1  0.950000  0.017200  0.712300  1.0  0.1119
  H  H45  1  0.553100  0.975200  0.706300  1.0  0.1155
  H  H46  1  0.568000  0.940900  0.627700  1.0  0.0988
  H  H47  1  0.878800  0.146600  0.771600  1.0  0.1106
  H  H48  1  0.864900  0.176300  0.850100  1.0  0.1094
  H  H49  1  0.583000  0.925100  0.858200  1.0  0.1079
  H  H50  1  0.602400  0.891900  0.779700  1.0  0.1129
  H  H51  1  0.749200  0.481300  0.022100  1.0  0.0968
  H  H52  1  0.633900  0.628300  0.980000  1.0  0.1135
  H  H53  1  0.590200  0.726500  0.911200  1.0  0.1011
  H  H54  1  0.664500  0.647500  0.842200  1.0  0.0994
  H  H55  1  0.774100  0.467400  0.841200  1.0  0.1092
  H  H56  1  0.814400  0.368200  0.910200  1.0  0.0938
  H  H57  1  0.535300  0.012400  0.133700  1.0  0.0952
  H  H58  1  0.550000  0.982800  0.212300  1.0  0.1121
  H  H59  1  0.946900  0.024800  0.206300  1.0  0.1157
  H  H60  1  0.932000  0.059100  0.127700  1.0  0.0991
  H  H61  1  0.621200  0.853400  0.271600  1.0  0.1098
  H  H62  1  0.635100  0.823700  0.350100  1.0  0.1096
  H  H63  1  0.917000  0.074900  0.358200  1.0  0.1077
  H  H64  1  0.897600  0.108100  0.279700  1.0  0.1135
  C  C65  1  0.125500  0.155700  0.997600  1.0  0.675
  C  C66  1  0.247200  0.077200  0.003350  1.0  0.0889
  C  C67  1  0.228500  0.012500  0.048600  1.0  0.0017
  C  C68  1  0.161900  0.904700  0.048130  1.0  -0.1094
  C  C69  1  0.136700  0.845700  0.089050  1.0  -0.0923
  C  C70  1  0.179900  0.893300  0.130060  1.0  -0.0991
  C  C71  1  0.245500  0.999800  0.130710  1.0  -0.1001
  C  C72  1  0.269400  0.058800  0.089440  1.0  -0.0921
  C  C73  1  0.223300  0.436800  0.926840  1.0  0.7281
  C  C74  1  0.232800  0.461000  0.876850  1.0  -0.1492
  C  C75  1  0.118600  0.484200  0.851550  1.0  -0.0315
  C  C76  1  0.127700  0.502200  0.804880  1.0  -0.149
  C  C77  1  0.249100  0.498700  0.782810  1.0  0.0559
  C  C78  1  0.363300  0.476700  0.808390  1.0  -0.1528
  C  C79  1  0.354500  0.457000  0.855190  1.0  -0.0341
  C  C80  1  0.257100  0.516800  0.732480  1.0  0.0496
  C  C81  1  0.180900  0.600800  0.710840  1.0  -0.1479
  C  C82  1  0.189900  0.619600  0.664180  1.0  -0.036
  C  C83  1  0.279300  0.555300  0.638360  1.0  -0.1397
  C  C84  1  0.356600  0.470000  0.659340  1.0  -0.0527
  C  C85  1  0.345200  0.450500  0.706130  1.0  -0.1492
  C  C86  1  0.290900  0.577000  0.588100  1.0  0.7159
  C  C87  1  0.374500  0.844300  0.497600  1.0  0.6744
  C  C88  1  0.252800  0.922800  0.503350  1.0  0.0878
  C  C89  1  0.271500  0.987500  0.548600  1.0  0.0016
  C  C90  1  0.338100  0.095300  0.548130  1.0  -0.1108
  C  C91  1  0.363300  0.154300  0.589050  1.0  -0.0915
  C  C92  1  0.320100  0.106700  0.630060  1.0  -0.0992
  C  C93  1  0.254500  0.000200  0.630710  1.0  -0.1014
  C  C94  1  0.230600  0.941200  0.589440  1.0  -0.0919
  C  C95  1  0.276700  0.563200  0.426840  1.0  0.7283
  C  C96  1  0.267200  0.539000  0.376850  1.0  -0.1487
  C  C97  1  0.381400  0.515800  0.351550  1.0  -0.0307
  C  C98  1  0.372300  0.497800  0.304880  1.0  -0.1494
  C  C99  1  0.250900  0.501300  0.282810  1.0  0.0561
  C  C100  1  0.136700  0.523300  0.308390  1.0  -0.1538
  C  C101  1  0.145500  0.543000  0.355190  1.0  -0.0348
  C  C102  1  0.242900  0.483200  0.232480  1.0  0.0503
  C  C103  1  0.319100  0.399200  0.210840  1.0  -0.1476
  C  C104  1  0.310100  0.380400  0.164180  1.0  -0.0362
  C  C105  1  0.220700  0.444700  0.138360  1.0  -0.1395
  C  C106  1  0.143400  0.530000  0.159340  1.0  -0.0523
  C  C107  1  0.154800  0.549500  0.206130  1.0  -0.1508
  C  C108  1  0.209100  0.423000  0.088100  1.0  0.7163
  C  C109  1  0.874500  0.655700  0.502400  1.0  0.6752
  C  C110  1  0.752800  0.577200  0.496650  1.0  0.0872
  C  C111  1  0.771500  0.512500  0.451400  1.0  0.0033
  C  C112  1  0.838100  0.404700  0.451870  1.0  -0.111
  C  C113  1  0.863300  0.345700  0.410950  1.0  -0.0934
  C  C114  1  0.820100  0.393300  0.369940  1.0  -0.0995
  C  C115  1  0.754500  0.499800  0.369290  1.0  -0.1021
  C  C116  1  0.730600  0.558800  0.410560  1.0  -0.0904
  C  C117  1  0.776700  0.936800  0.573160  1.0  0.7292
  C  C118  1  0.767200  0.961000  0.623150  1.0  -0.1494
  C  C119  1  0.881400  0.984200  0.648450  1.0  -0.0309
  C  C120  1  0.872300  0.002200  0.695120  1.0  -0.1493
  C  C121  1  0.750900  0.998700  0.717190  1.0  0.0558
  C  C122  1  0.636700  0.976700  0.691610  1.0  -0.1539
  C  C123  1  0.645500  0.957000  0.644810  1.0  -0.035
  C  C124  1  0.742900  0.016800  0.767520  1.0  0.0505
  C  C125  1  0.819100  0.100800  0.789160  1.0  -0.1473
  C  C126  1  0.810100  0.119600  0.835820  1.0  -0.0361
  C  C127  1  0.720700  0.055300  0.861640  1.0  -0.1395
  C  C128  1  0.643400  0.970000  0.840660  1.0  -0.0521
  C  C129  1  0.654800  0.950500  0.793870  1.0  -0.149
  C  C130  1  0.709100  0.077000  0.911900  1.0  0.7165
  C  C131  1  0.625500  0.344300  0.002400  1.0  0.6749
  C  C132  1  0.747200  0.422800  0.996650  1.0  0.0867
  C  C133  1  0.728500  0.487500  0.951400  1.0  0.0029
  C  C134  1  0.661900  0.595300  0.951870  1.0  -0.1127
  C  C135  1  0.636700  0.654300  0.910950  1.0  -0.0908
  C  C136  1  0.679900  0.606700  0.869940  1.0  -0.0989
  C  C137  1  0.745500  0.500200  0.869290  1.0  -0.1015
  C  C138  1  0.769400  0.441200  0.910560  1.0  -0.092
  C  C139  1  0.723300  0.063200  0.073160  1.0  0.7289
  C  C140  1  0.732800  0.039000  0.123150  1.0  -0.1497
  C  C141  1  0.618600  0.015800  0.148450  1.0  -0.0316
  C  C142  1  0.627700  0.997800  0.195120  1.0  -0.1494
  C  C143  1  0.749100  0.001300  0.217190  1.0  0.0554
  C  C144  1  0.863300  0.023300  0.191610  1.0  -0.1526
  C  C145  1  0.854500  0.043000  0.144810  1.0  -0.035
  C  C146  1  0.757100  0.983200  0.267520  1.0  0.0499
  C  C147  1  0.680900  0.899200  0.289160  1.0  -0.148
  C  C148  1  0.689900  0.880400  0.335820  1.0  -0.0351
  C  C149  1  0.779300  0.944700  0.361640  1.0  -0.1395
  C  C150  1  0.856600  0.030000  0.340660  1.0  -0.0526
  C  C151  1  0.845200  0.049500  0.293870  1.0  -0.1499
  C  C152  1  0.790900  0.923000  0.411900  1.0  0.7158
  O  O153  1  0.139200  0.264600  0.003910  1.0  -0.6398
  O  O154  1  0.019100  0.105700  0.987640  1.0  -0.5705
  O  O155  1  0.364100  0.145000  0.001870  1.0  -0.7086
  O  O156  1  0.320100  0.391300  0.945840  1.0  -0.5996
  O  O157  1  0.117300  0.468700  0.946620  1.0  -0.6512
  O  O158  1  0.193900  0.629100  0.569780  1.0  -0.6051
  O  O159  1  0.393700  0.542500  0.568100  1.0  -0.6394
  O  O160  1  0.360800  0.735400  0.503910  1.0  -0.639
  O  O161  1  0.480900  0.894300  0.487640  1.0  -0.5695
  O  O162  1  0.135900  0.855000  0.501870  1.0  -0.7096
  O  O163  1  0.179900  0.608700  0.445840  1.0  -0.599
  O  O164  1  0.382700  0.531300  0.446620  1.0  -0.6527
  O  O165  1  0.306100  0.370900  0.069780  1.0  -0.6048
  O  O166  1  0.106300  0.457500  0.068100  1.0  -0.6408
  O  O167  1  0.860800  0.764600  0.496090  1.0  -0.6388
  O  O168  1  0.980900  0.605700  0.512360  1.0  -0.5698
  O  O169  1  0.635900  0.645000  0.498130  1.0  -0.7104
  O  O170  1  0.679900  0.891300  0.554160  1.0  -0.5988
  O  O171  1  0.882700  0.968700  0.553380  1.0  -0.6521
  O  O172  1  0.806100  0.129100  0.930220  1.0  -0.605
  O  O173  1  0.606300  0.042500  0.931900  1.0  -0.6388
  O  O174  1  0.639200  0.235400  0.996090  1.0  -0.6395
  O  O175  1  0.519100  0.394300  0.012360  1.0  -0.5706
  O  O176  1  0.864100  0.355000  0.998130  1.0  -0.7104
  O  O177  1  0.820100  0.108700  0.054160  1.0  -0.5995
  O  O178  1  0.617300  0.031300  0.053380  1.0  -0.6534
  O  O179  1  0.693900  0.870900  0.430220  1.0  -0.6047
  O  O180  1  0.893700  0.957500  0.431900  1.0  -0.6405
