# generated using pymatgen
data_Zn2H12C20O7
_symmetry_space_group_name_H-M   'P 1'
_cell_length_a   10.23980000
_cell_length_b   15.48920000
_cell_length_c   23.71280000
_cell_angle_alpha   90.00000000
_cell_angle_beta   90.00000000
_cell_angle_gamma   90.00000000
_symmetry_Int_Tables_number   1
_chemical_formula_structural   Zn2H12C20O7
_chemical_formula_sum   'Zn8 H48 C80 O28'
_cell_volume   3760.99971156
_cell_formula_units_Z   4
loop_
 _symmetry_equiv_pos_site_id
 _symmetry_equiv_pos_as_xyz
  1  'x, y, z'
loop_
 _atom_site_type_symbol
 _atom_site_label
 _atom_site_symmetry_multiplicity
 _atom_site_fract_x
 _atom_site_fract_y
 _atom_site_fract_z
 _atom_site_occupancy
 _atom_site_charge
  Zn  Zn1  1  0.614420  0.308860  0.012100  1.0  1.0759
  Zn  Zn2  1  0.431270  0.120320  0.992150  1.0  1.1105
  Zn  Zn3  1  0.885580  0.691140  0.512100  1.0  1.0757
  Zn  Zn4  1  0.068730  0.879680  0.492150  1.0  1.1085
  Zn  Zn5  1  0.385580  0.808860  0.487900  1.0  1.0761
  Zn  Zn6  1  0.568730  0.620320  0.507850  1.0  1.1102
  Zn  Zn7  1  0.114420  0.191140  0.987900  1.0  1.076
  Zn  Zn8  1  0.931270  0.379680  0.007850  1.0  1.1116
  H  H9  1  0.050600  0.102400  0.826700  1.0  0.1066
  H  H10  1  0.023100  0.051700  0.735900  1.0  0.1034
  H  H11  1  0.433900  0.043800  0.820600  1.0  0.0985
  H  H12  1  0.116400  0.993600  0.647900  1.0  0.1026
  H  H13  1  0.498100  0.933900  0.641500  1.0  0.1013
  H  H14  1  0.528200  0.985900  0.730200  1.0  0.1053
  H  H15  1  0.705700  0.087800  0.972200  1.0  0.0974
  H  H16  1  0.569900  0.255500  0.888200  1.0  0.0933
  H  H17  1  0.555000  0.257500  0.789900  1.0  0.1197
  H  H18  1  0.678900  0.155400  0.738300  1.0  0.089
  H  H19  1  0.782600  0.047600  0.781300  1.0  0.1118
  H  H20  1  0.798000  0.047200  0.881000  1.0  0.1063
  H  H21  1  0.449400  0.897600  0.326700  1.0  0.1067
  H  H22  1  0.476900  0.948300  0.235900  1.0  0.1032
  H  H23  1  0.066100  0.956200  0.320600  1.0  0.0986
  H  H24  1  0.383600  0.006400  0.147900  1.0  0.1031
  H  H25  1  0.001900  0.066100  0.141500  1.0  0.1003
  H  H26  1  0.971800  0.014100  0.230200  1.0  0.1047
  H  H27  1  0.794300  0.912200  0.472200  1.0  0.0976
  H  H28  1  0.930100  0.744500  0.388200  1.0  0.0932
  H  H29  1  0.945000  0.742500  0.289900  1.0  0.1187
  H  H30  1  0.821100  0.844600  0.238300  1.0  0.0899
  H  H31  1  0.717400  0.952400  0.281300  1.0  0.1127
  H  H32  1  0.702000  0.952800  0.381000  1.0  0.1064
  H  H33  1  0.949400  0.602400  0.673300  1.0  0.1068
  H  H34  1  0.976900  0.551700  0.764100  1.0  0.1032
  H  H35  1  0.566100  0.543800  0.679400  1.0  0.0986
  H  H36  1  0.883600  0.493600  0.852100  1.0  0.104
  H  H37  1  0.501900  0.433900  0.858500  1.0  0.1011
  H  H38  1  0.471800  0.485900  0.769800  1.0  0.1046
  H  H39  1  0.294300  0.587800  0.527800  1.0  0.0941
  H  H40  1  0.430100  0.755500  0.611800  1.0  0.0928
  H  H41  1  0.445000  0.757500  0.710100  1.0  0.118
  H  H42  1  0.321100  0.655400  0.761700  1.0  0.0908
  H  H43  1  0.217400  0.547600  0.718700  1.0  0.1113
  H  H44  1  0.202000  0.547200  0.619000  1.0  0.106
  H  H45  1  0.550600  0.397600  0.173300  1.0  0.1068
  H  H46  1  0.523100  0.448300  0.264100  1.0  0.1034
  H  H47  1  0.933900  0.456200  0.179400  1.0  0.0982
  H  H48  1  0.616400  0.506400  0.352100  1.0  0.1023
  H  H49  1  0.998100  0.566100  0.358500  1.0  0.101
  H  H50  1  0.028200  0.514100  0.269800  1.0  0.1051
  H  H51  1  0.205700  0.412200  0.027800  1.0  0.0943
  H  H52  1  0.069900  0.244500  0.111800  1.0  0.0932
  H  H53  1  0.055000  0.242500  0.210100  1.0  0.1188
  H  H54  1  0.178900  0.344600  0.261700  1.0  0.0896
  H  H55  1  0.282600  0.452400  0.218700  1.0  0.1115
  H  H56  1  0.298000  0.452800  0.119000  1.0  0.106
  C  C57  1  0.258900  0.104800  0.893130  1.0  0.7318
  C  C58  1  0.245400  0.074900  0.832500  1.0  -0.1313
  C  C59  1  0.123000  0.079400  0.806700  1.0  -0.0531
  C  C60  1  0.107500  0.050400  0.752500  1.0  -0.1308
  C  C61  1  0.211200  0.019400  0.721400  1.0  0.053
  C  C62  1  0.338300  0.016500  0.746500  1.0  0.045
  C  C63  1  0.350700  0.045200  0.802900  1.0  -0.087
  C  C64  1  0.199300  0.989700  0.665800  1.0  -0.0712
  C  C65  1  0.301000  0.955300  0.636020  1.0  -0.1538
  C  C66  1  0.425200  0.955500  0.661800  1.0  -0.0456
  C  C67  1  0.442900  0.985600  0.714500  1.0  -0.1344
  C  C68  1  0.277400  0.918500  0.577570  1.0  0.7284
  C  C69  1  0.824000  0.196800  0.977010  1.0  0.6898
  C  C70  1  0.699700  0.149300  0.959690  1.0  0.0759
  C  C71  1  0.690000  0.152500  0.894000  1.0  0.0182
  C  C72  1  0.615900  0.213600  0.866600  1.0  -0.0958
  C  C73  1  0.606900  0.215600  0.808700  1.0  -0.1015
  C  C74  1  0.678000  0.152600  0.778300  1.0  -0.0863
  C  C75  1  0.741600  0.091700  0.802800  1.0  -0.088
  C  C76  1  0.749600  0.091400  0.862700  1.0  -0.1293
  C  C77  1  0.241100  0.895200  0.393130  1.0  0.7315
  C  C78  1  0.254600  0.925100  0.332500  1.0  -0.1323
  C  C79  1  0.377000  0.920600  0.306700  1.0  -0.0524
  C  C80  1  0.392500  0.949600  0.252500  1.0  -0.1303
  C  C81  1  0.288800  0.980600  0.221400  1.0  0.053
  C  C82  1  0.161700  0.983500  0.246500  1.0  0.0446
  C  C83  1  0.149300  0.954800  0.302900  1.0  -0.0881
  C  C84  1  0.300700  0.010300  0.165800  1.0  -0.0711
  C  C85  1  0.199000  0.044700  0.136020  1.0  -0.1511
  C  C86  1  0.074800  0.044500  0.161800  1.0  -0.0466
  C  C87  1  0.057100  0.014400  0.214500  1.0  -0.1334
  C  C88  1  0.222600  0.081500  0.077570  1.0  0.7242
  C  C89  1  0.676000  0.803200  0.477010  1.0  0.6882
  C  C90  1  0.800300  0.850700  0.459690  1.0  0.0741
  C  C91  1  0.810000  0.847500  0.394000  1.0  0.0184
  C  C92  1  0.884100  0.786400  0.366600  1.0  -0.0968
  C  C93  1  0.893100  0.784400  0.308700  1.0  -0.1029
  C  C94  1  0.822000  0.847400  0.278300  1.0  -0.0849
  C  C95  1  0.758400  0.908300  0.302800  1.0  -0.0854
  C  C96  1  0.750400  0.908600  0.362700  1.0  -0.1274
  C  C97  1  0.741100  0.604800  0.606870  1.0  0.7317
  C  C98  1  0.754600  0.574900  0.667500  1.0  -0.1314
  C  C99  1  0.877000  0.579400  0.693300  1.0  -0.0529
  C  C100  1  0.892500  0.550400  0.747500  1.0  -0.1312
  C  C101  1  0.788800  0.519400  0.778600  1.0  0.0532
  C  C102  1  0.661700  0.516500  0.753500  1.0  0.0446
  C  C103  1  0.649300  0.545200  0.697100  1.0  -0.088
  C  C104  1  0.800700  0.489700  0.834200  1.0  -0.0712
  C  C105  1  0.699000  0.455300  0.863980  1.0  -0.1524
  C  C106  1  0.574800  0.455500  0.838200  1.0  -0.047
  C  C107  1  0.557100  0.485600  0.785500  1.0  -0.1335
  C  C108  1  0.722600  0.418500  0.922430  1.0  0.7249
  C  C109  1  0.176000  0.696800  0.522990  1.0  0.6878
  C  C110  1  0.300300  0.649300  0.540310  1.0  0.0768
  C  C111  1  0.310000  0.652500  0.606000  1.0  0.018
  C  C112  1  0.384100  0.713600  0.633400  1.0  -0.0959
  C  C113  1  0.393100  0.715600  0.691300  1.0  -0.1015
  C  C114  1  0.322000  0.652600  0.721700  1.0  -0.0859
  C  C115  1  0.258400  0.591700  0.697200  1.0  -0.086
  C  C116  1  0.250400  0.591400  0.637300  1.0  -0.1276
  C  C117  1  0.758900  0.395200  0.106870  1.0  0.7315
  C  C118  1  0.745400  0.425100  0.167500  1.0  -0.1315
  C  C119  1  0.623000  0.420600  0.193300  1.0  -0.0523
  C  C120  1  0.607500  0.449600  0.247500  1.0  -0.1317
  C  C121  1  0.711200  0.480600  0.278600  1.0  0.0521
  C  C122  1  0.838300  0.483500  0.253500  1.0  0.0447
  C  C123  1  0.850700  0.454800  0.197100  1.0  -0.087
  C  C124  1  0.699300  0.510300  0.334200  1.0  -0.071
  C  C125  1  0.801000  0.544700  0.363980  1.0  -0.1532
  C  C126  1  0.925200  0.544500  0.338200  1.0  -0.0466
  C  C127  1  0.942900  0.514400  0.285500  1.0  -0.1342
  C  C128  1  0.777400  0.581500  0.422430  1.0  0.7296
  C  C129  1  0.324000  0.303200  0.022990  1.0  0.6896
  C  C130  1  0.199700  0.350700  0.040310  1.0  0.0737
  C  C131  1  0.190000  0.347500  0.106000  1.0  0.018
  C  C132  1  0.115900  0.286400  0.133400  1.0  -0.0963
  C  C133  1  0.106900  0.284400  0.191300  1.0  -0.1016
  C  C134  1  0.178000  0.347400  0.221700  1.0  -0.0853
  C  C135  1  0.241600  0.408300  0.197200  1.0  -0.087
  C  C136  1  0.249600  0.408600  0.137300  1.0  -0.1276
  O  O137  1  0.362600  0.085400  0.918170  1.0  -0.6472
  O  O138  1  0.162500  0.142500  0.913260  1.0  -0.6003
  O  O139  1  0.161100  0.918500  0.560580  1.0  -0.6519
  O  O140  1  0.376200  0.893100  0.551390  1.0  -0.6121
  O  O141  1  0.589300  0.189000  0.985900  1.0  -0.7189
  O  O142  1  0.811500  0.267220  0.001830  1.0  -0.6445
  O  O143  1  0.928800  0.160600  0.966840  1.0  -0.5778
  O  O144  1  0.137400  0.914600  0.418170  1.0  -0.6455
  O  O145  1  0.337500  0.857500  0.413260  1.0  -0.5995
  O  O146  1  0.338900  0.081500  0.060580  1.0  -0.6525
  O  O147  1  0.123800  0.106900  0.051390  1.0  -0.6091
  O  O148  1  0.910700  0.811000  0.485900  1.0  -0.7188
  O  O149  1  0.688500  0.732780  0.501830  1.0  -0.6454
  O  O150  1  0.571200  0.839400  0.466840  1.0  -0.5778
  O  O151  1  0.637400  0.585400  0.581830  1.0  -0.6488
  O  O152  1  0.837500  0.642500  0.586740  1.0  -0.5995
  O  O153  1  0.838900  0.418500  0.939420  1.0  -0.6528
  O  O154  1  0.623800  0.393100  0.948610  1.0  -0.6149
  O  O155  1  0.410700  0.689000  0.514100  1.0  -0.7152
  O  O156  1  0.188500  0.767220  0.498170  1.0  -0.6444
  O  O157  1  0.071200  0.660600  0.533160  1.0  -0.578
  O  O158  1  0.862600  0.414600  0.081830  1.0  -0.6483
  O  O159  1  0.662500  0.357500  0.086740  1.0  -0.6002
  O  O160  1  0.661100  0.581500  0.439420  1.0  -0.6525
  O  O161  1  0.876200  0.606900  0.448610  1.0  -0.6114
  O  O162  1  0.089300  0.311000  0.014100  1.0  -0.7177
  O  O163  1  0.311500  0.232780  0.998170  1.0  -0.6447
  O  O164  1  0.428800  0.339400  0.033160  1.0  -0.5779
