# generated using pymatgen
data_Ni3H6C18O13
_symmetry_space_group_name_H-M   'P 1'
_cell_length_a   9.78700000
_cell_length_b   12.15700000
_cell_length_c   15.18200000
_cell_angle_alpha   90.00000000
_cell_angle_beta   90.00000000
_cell_angle_gamma   90.00000000
_symmetry_Int_Tables_number   1
_chemical_formula_structural   Ni3H6C18O13
_chemical_formula_sum   'Ni6 H12 C36 O26'
_cell_volume   1806.36284674
_cell_formula_units_Z   2
loop_
 _symmetry_equiv_pos_site_id
 _symmetry_equiv_pos_as_xyz
  1  'x, y, z'
loop_
 _atom_site_type_symbol
 _atom_site_label
 _atom_site_symmetry_multiplicity
 _atom_site_fract_x
 _atom_site_fract_y
 _atom_site_fract_z
 _atom_site_occupancy
 _atom_site_charge
  Ni  Ni1  1  0.000000  0.000000  0.863220  1.0  0.9036
  Ni  Ni2  1  0.500000  0.500000  0.363220  1.0  0.9036
  Ni  Ni3  1  0.831380  0.000000  0.060200  1.0  0.9484
  Ni  Ni4  1  0.331380  0.500000  0.560200  1.0  0.9484
  Ni  Ni5  1  0.168620  0.000000  0.060200  1.0  0.9477
  Ni  Ni6  1  0.668620  0.500000  0.560200  1.0  0.9477
  H  H7  1  0.294500  0.737700  0.760100  1.0  0.157
  H  H8  1  0.794500  0.237700  0.260100  1.0  0.157
  H  H9  1  0.705500  0.262300  0.760100  1.0  0.1569
  H  H10  1  0.205500  0.762300  0.260100  1.0  0.1569
  H  H11  1  0.294500  0.262300  0.760100  1.0  0.1566
  H  H12  1  0.794500  0.762300  0.260100  1.0  0.1566
  H  H13  1  0.705500  0.737700  0.760100  1.0  0.1571
  H  H14  1  0.205500  0.237700  0.260100  1.0  0.1571
  H  H15  1  0.500000  0.897800  0.950800  1.0  0.1531
  H  H16  1  0.000000  0.397800  0.450800  1.0  0.1531
  H  H17  1  0.500000  0.102200  0.950800  1.0  0.1529
  H  H18  1  0.000000  0.602200  0.450800  1.0  0.1529
  C  C19  1  0.378500  0.820600  0.862300  1.0  -0.0871
  C  C20  1  0.378300  0.756800  0.787700  1.0  0.0363
  C  C21  1  0.248500  0.865500  0.902500  1.0  0.7662
  C  C22  1  0.878500  0.320600  0.362300  1.0  -0.0871
  C  C23  1  0.878300  0.256800  0.287700  1.0  0.0363
  C  C24  1  0.748500  0.365500  0.402500  1.0  0.7662
  C  C25  1  0.621500  0.179400  0.862300  1.0  -0.0866
  C  C26  1  0.621700  0.243200  0.787700  1.0  0.036
  C  C27  1  0.751500  0.134500  0.902500  1.0  0.7652
  C  C28  1  0.121500  0.679400  0.362300  1.0  -0.0866
  C  C29  1  0.121700  0.743200  0.287700  1.0  0.036
  C  C30  1  0.251500  0.634500  0.402500  1.0  0.7652
  C  C31  1  0.378500  0.179400  0.862300  1.0  -0.0865
  C  C32  1  0.378300  0.243200  0.787700  1.0  0.0359
  C  C33  1  0.248500  0.134500  0.902500  1.0  0.7646
  C  C34  1  0.878500  0.679400  0.362300  1.0  -0.0865
  C  C35  1  0.878300  0.743200  0.287700  1.0  0.0359
  C  C36  1  0.748500  0.634500  0.402500  1.0  0.7646
  C  C37  1  0.621500  0.820600  0.862300  1.0  -0.0867
  C  C38  1  0.621700  0.756800  0.787700  1.0  0.0365
  C  C39  1  0.751500  0.865500  0.902500  1.0  0.7664
  C  C40  1  0.121500  0.320600  0.362300  1.0  -0.0867
  C  C41  1  0.121700  0.256800  0.287700  1.0  0.0365
  C  C42  1  0.251500  0.365500  0.402500  1.0  0.7664
  C  C43  1  0.500000  0.853000  0.899500  1.0  -0.0329
  C  C44  1  0.500000  0.721000  0.753300  1.0  -0.1238
  C  C45  1  0.500000  0.647800  0.673800  1.0  0.7896
  C  C46  1  0.000000  0.353000  0.399500  1.0  -0.0329
  C  C47  1  0.000000  0.221000  0.253300  1.0  -0.1238
  C  C48  1  0.000000  0.147800  0.173800  1.0  0.7896
  C  C49  1  0.500000  0.147000  0.899500  1.0  -0.0332
  C  C50  1  0.500000  0.279000  0.753300  1.0  -0.1229
  C  C51  1  0.500000  0.352200  0.673800  1.0  0.7893
  C  C52  1  0.000000  0.647000  0.399500  1.0  -0.0332
  C  C53  1  0.000000  0.779000  0.253300  1.0  -0.1229
  C  C54  1  0.000000  0.852200  0.173800  1.0  0.7893
  O  O55  1  0.151100  0.881000  0.852900  1.0  -0.5873
  O  O56  1  0.255300  0.884400  0.982500  1.0  -0.5727
  O  O57  1  0.386500  0.618400  0.645500  1.0  -0.5703
  O  O58  1  0.651100  0.381000  0.352900  1.0  -0.5873
  O  O59  1  0.755300  0.384400  0.482500  1.0  -0.5727
  O  O60  1  0.886500  0.118400  0.145500  1.0  -0.5703
  O  O61  1  0.848900  0.119000  0.852900  1.0  -0.587
  O  O62  1  0.744700  0.115600  0.982500  1.0  -0.5721
  O  O63  1  0.613500  0.381600  0.645500  1.0  -0.5709
  O  O64  1  0.348900  0.619000  0.352900  1.0  -0.587
  O  O65  1  0.244700  0.615600  0.482500  1.0  -0.5721
  O  O66  1  0.113500  0.881600  0.145500  1.0  -0.572
  O  O67  1  0.151100  0.119000  0.852900  1.0  -0.5872
  O  O68  1  0.255300  0.115600  0.982500  1.0  -0.5715
  O  O69  1  0.386500  0.381600  0.645500  1.0  -0.5708
  O  O70  1  0.651100  0.619000  0.352900  1.0  -0.5872
  O  O71  1  0.755300  0.615600  0.482500  1.0  -0.5715
  O  O72  1  0.886500  0.881600  0.145500  1.0  -0.5708
  O  O73  1  0.848900  0.881000  0.852900  1.0  -0.5871
  O  O74  1  0.744700  0.884400  0.982500  1.0  -0.5732
  O  O75  1  0.613500  0.618400  0.645500  1.0  -0.5723
  O  O76  1  0.348900  0.381000  0.352900  1.0  -0.5871
  O  O77  1  0.244700  0.384400  0.482500  1.0  -0.5732
  O  O78  1  0.113500  0.118400  0.145500  1.0  -0.5723
  O  O79  1  0.000000  0.000000  0.990900  1.0  -0.9364
  O  O80  1  0.500000  0.500000  0.490900  1.0  -0.9364
