# generated using pymatgen
data_LaH2C12Cl6O7
_symmetry_space_group_name_H-M   'P 1'
_cell_length_a   10.10710000
_cell_length_b   13.08940000
_cell_length_c   13.66960000
_cell_angle_alpha   97.07400000
_cell_angle_beta   109.84300000
_cell_angle_gamma   95.59600000
_symmetry_Int_Tables_number   1
_chemical_formula_structural   LaH2C12Cl6O7
_chemical_formula_sum   'La2 H4 C24 Cl12 O14'
_cell_volume   1669.20306202
_cell_formula_units_Z   2
loop_
 _symmetry_equiv_pos_site_id
 _symmetry_equiv_pos_as_xyz
  1  'x, y, z'
loop_
 _atom_site_type_symbol
 _atom_site_label
 _atom_site_symmetry_multiplicity
 _atom_site_fract_x
 _atom_site_fract_y
 _atom_site_fract_z
 _atom_site_occupancy
 _atom_site_charge
  La  La1  1  0.036280  0.119630  0.139670  1.0  2.0184
  La  La2  1  0.963720  0.880370  0.860330  1.0  2.0189
  H  H3  1  0.977400  0.975300  0.255700  1.0  0.438
  H  H4  1  0.992100  0.892600  0.183100  1.0  0.4135
  H  H5  1  0.022600  0.024700  0.744300  1.0  0.4372
  H  H6  1  0.007900  0.107400  0.816900  1.0  0.412
  C  C7  1  0.999600  0.278700  0.937100  1.0  0.7063
  C  C8  1  0.001000  0.393100  0.972400  1.0  -0.1197
  C  C9  1  0.126500  0.459800  0.020000  1.0  0.1703
  C  C10  1  0.871300  0.433600  0.951700  1.0  0.1508
  C  C11  1  0.221600  0.057500  0.386200  1.0  0.6614
  C  C12  1  0.366200  0.028600  0.446300  1.0  -0.1665
  C  C13  1  0.474900  0.100400  0.523500  1.0  0.1259
  C  C14  1  0.606500  0.072800  0.575800  1.0  0.0357
  C  C15  1  0.733600  0.931600  0.942400  1.0  0.6534
  C  C16  1  0.613000  0.966600  0.972900  1.0  -0.1548
  C  C17  1  0.568500  0.921400  0.045700  1.0  0.0813
  C  C18  1  0.541000  0.043700  0.925500  1.0  0.0934
  C  C19  1  0.000400  0.721300  0.062900  1.0  0.7064
  C  C20  1  0.999000  0.606900  0.027600  1.0  -0.1192
  C  C21  1  0.873500  0.540200  0.980000  1.0  0.1706
  C  C22  1  0.128700  0.566400  0.048300  1.0  0.1506
  C  C23  1  0.778400  0.942500  0.613800  1.0  0.6598
  C  C24  1  0.633800  0.971400  0.553700  1.0  -0.1668
  C  C25  1  0.525100  0.899600  0.476500  1.0  0.1259
  C  C26  1  0.393500  0.927200  0.424200  1.0  0.0368
  C  C27  1  0.266400  0.068400  0.057600  1.0  0.653
  C  C28  1  0.387000  0.033400  0.027100  1.0  -0.1547
  C  C29  1  0.431500  0.078600  0.954300  1.0  0.0813
  C  C30  1  0.459000  0.956300  0.074500  1.0  0.0928
  Cl  Cl31  1  0.283700  0.409520  0.044380  1.0  -0.0841
  Cl  Cl32  1  0.713490  0.351180  0.892430  1.0  -0.1182
  Cl  Cl33  1  0.438270  0.224330  0.553030  1.0  -0.1062
  Cl  Cl34  1  0.738500  0.163820  0.666880  1.0  -0.0883
  Cl  Cl35  1  0.647670  0.820250  0.097920  1.0  -0.1025
  Cl  Cl36  1  0.591360  0.094260  0.831190  1.0  -0.0735
  Cl  Cl37  1  0.716300  0.590480  0.955620  1.0  -0.0831
  Cl  Cl38  1  0.286510  0.648820  0.107570  1.0  -0.1173
  Cl  Cl39  1  0.561730  0.775670  0.446970  1.0  -0.1103
  Cl  Cl40  1  0.261500  0.836180  0.333120  1.0  -0.0898
  Cl  Cl41  1  0.352330  0.179750  0.902080  1.0  -0.1007
  Cl  Cl42  1  0.408640  0.905740  0.168810  1.0  -0.0773
  O  O43  1  0.984000  0.216800  0.997400  1.0  -0.6943
  O  O44  1  0.015300  0.254300  0.851500  1.0  -0.5186
  O  O45  1  0.218200  0.107800  0.312900  1.0  -0.636
  O  O46  1  0.121800  0.026000  0.412100  1.0  -0.4488
  O  O47  1  0.853100  0.991000  0.980600  1.0  -0.7574
  O  O48  1  0.712200  0.849200  0.879500  1.0  -0.6209
  O  O49  1  0.974100  0.951300  0.196400  1.0  -0.8547
  O  O50  1  0.016000  0.783200  0.002600  1.0  -0.6944
  O  O51  1  0.984700  0.745700  0.148500  1.0  -0.5195
  O  O52  1  0.781800  0.892200  0.687100  1.0  -0.6365
  O  O53  1  0.878200  0.974000  0.587900  1.0  -0.449
  O  O54  1  0.146900  0.009000  0.019400  1.0  -0.7555
  O  O55  1  0.287800  0.150800  0.120500  1.0  -0.6216
  O  O56  1  0.025900  0.048700  0.803600  1.0  -0.8536
