# generated using pymatgen
data_LaC12(ClO)6
_symmetry_space_group_name_H-M   'P 1'
_cell_length_a   8.88700000
_cell_length_b   25.05300000
_cell_length_c   10.03900000
_cell_angle_alpha   90.00000000
_cell_angle_beta   101.56500000
_cell_angle_gamma   90.00000000
_symmetry_Int_Tables_number   1
_chemical_formula_structural   LaC12(ClO)6
_chemical_formula_sum   'La4 C48 Cl24 O24'
_cell_volume   2189.76519783
_cell_formula_units_Z   4
loop_
 _symmetry_equiv_pos_site_id
 _symmetry_equiv_pos_as_xyz
  1  'x, y, z'
loop_
 _atom_site_type_symbol
 _atom_site_label
 _atom_site_symmetry_multiplicity
 _atom_site_fract_x
 _atom_site_fract_y
 _atom_site_fract_z
 _atom_site_occupancy
 _atom_site_charge
  La  La1  1  0.000000  0.234120  0.000000  1.0  2.1791
  La  La2  1  0.500000  0.734120  0.000000  1.0  2.1791
  La  La3  1  0.000000  0.765880  0.000000  1.0  2.1794
  La  La4  1  0.500000  0.265880  0.000000  1.0  2.1794
  C  C5  1  0.350500  0.266850  0.247800  1.0  0.7064
  C  C6  1  0.302400  0.258170  0.379500  1.0  -0.0883
  C  C7  1  0.260100  0.301090  0.452700  1.0  0.0248
  C  C8  1  0.294900  0.207540  0.432700  1.0  0.1052
  C  C9  1  0.024100  0.026700  0.127900  1.0  0.1021
  C  C10  1  0.850500  0.766850  0.247800  1.0  0.7064
  C  C11  1  0.802400  0.758170  0.379500  1.0  -0.0883
  C  C12  1  0.760100  0.801090  0.452700  1.0  0.0248
  C  C13  1  0.794900  0.707540  0.432700  1.0  0.1052
  C  C14  1  0.524100  0.526700  0.127900  1.0  0.1021
  C  C15  1  0.649500  0.266850  0.752200  1.0  0.7063
  C  C16  1  0.697600  0.258170  0.620500  1.0  -0.0877
  C  C17  1  0.739900  0.301090  0.547300  1.0  0.0237
  C  C18  1  0.705100  0.207540  0.567300  1.0  0.1068
  C  C19  1  0.975900  0.026700  0.872100  1.0  0.1015
  C  C20  1  0.149500  0.766850  0.752200  1.0  0.7063
  C  C21  1  0.197600  0.758170  0.620500  1.0  -0.0877
  C  C22  1  0.239900  0.801090  0.547300  1.0  0.0237
  C  C23  1  0.205100  0.707540  0.567300  1.0  0.1068
  C  C24  1  0.475900  0.526700  0.872100  1.0  0.1015
  C  C25  1  0.649500  0.733150  0.752200  1.0  0.7072
  C  C26  1  0.697600  0.741830  0.620500  1.0  -0.0875
  C  C27  1  0.739900  0.698910  0.547300  1.0  0.0225
  C  C28  1  0.705100  0.792460  0.567300  1.0  0.0986
  C  C29  1  0.975900  0.973300  0.872100  1.0  0.1014
  C  C30  1  0.149500  0.233150  0.752200  1.0  0.7072
  C  C31  1  0.197600  0.241830  0.620500  1.0  -0.0875
  C  C32  1  0.239900  0.198910  0.547300  1.0  0.0225
  C  C33  1  0.205100  0.292460  0.567300  1.0  0.0986
  C  C34  1  0.475900  0.473300  0.872100  1.0  0.1014
  C  C35  1  0.350500  0.733150  0.247800  1.0  0.7069
  C  C36  1  0.302400  0.741830  0.379500  1.0  -0.0883
  C  C37  1  0.260100  0.698910  0.452700  1.0  0.0238
  C  C38  1  0.294900  0.792460  0.432700  1.0  0.0967
  C  C39  1  0.024100  0.973300  0.127900  1.0  0.1023
  C  C40  1  0.850500  0.233150  0.247800  1.0  0.7069
  C  C41  1  0.802400  0.241830  0.379500  1.0  -0.0883
  C  C42  1  0.760100  0.198910  0.452700  1.0  0.0238
  C  C43  1  0.794900  0.292460  0.432700  1.0  0.0967
  C  C44  1  0.524100  0.473300  0.127900  1.0  0.1023
  C  C45  1  0.000000  0.115900  0.000000  1.0  0.7053
  C  C46  1  0.000000  0.056500  0.000000  1.0  -0.0267
  C  C47  1  0.500000  0.615900  0.000000  1.0  0.7053
  C  C48  1  0.500000  0.556500  0.000000  1.0  -0.0267
  C  C49  1  0.000000  0.884100  0.000000  1.0  0.7048
  C  C50  1  0.000000  0.943500  0.000000  1.0  -0.0268
  C  C51  1  0.500000  0.384100  0.000000  1.0  0.7048
  C  C52  1  0.500000  0.443500  0.000000  1.0  -0.0268
  Cl  Cl53  1  0.269370  0.364930  0.384240  1.0  -0.082
  Cl  Cl54  1  0.353640  0.153780  0.344060  1.0  -0.0654
  Cl  Cl55  1  0.045860  0.062920  0.272500  1.0  -0.0708
  Cl  Cl56  1  0.769370  0.864930  0.384240  1.0  -0.082
  Cl  Cl57  1  0.853640  0.653780  0.344060  1.0  -0.0654
  Cl  Cl58  1  0.545860  0.562920  0.272500  1.0  -0.0708
  Cl  Cl59  1  0.730630  0.364930  0.615760  1.0  -0.0814
  Cl  Cl60  1  0.646360  0.153780  0.655940  1.0  -0.0658
  Cl  Cl61  1  0.954140  0.062920  0.727500  1.0  -0.0705
  Cl  Cl62  1  0.230630  0.864930  0.615760  1.0  -0.0814
  Cl  Cl63  1  0.146360  0.653780  0.655940  1.0  -0.0658
  Cl  Cl64  1  0.454140  0.562920  0.727500  1.0  -0.0705
  Cl  Cl65  1  0.730630  0.635070  0.615760  1.0  -0.0805
  Cl  Cl66  1  0.646360  0.846220  0.655940  1.0  -0.0661
  Cl  Cl67  1  0.954140  0.937080  0.727500  1.0  -0.0712
  Cl  Cl68  1  0.230630  0.135070  0.615760  1.0  -0.0805
  Cl  Cl69  1  0.146360  0.346220  0.655940  1.0  -0.0661
  Cl  Cl70  1  0.454140  0.437080  0.727500  1.0  -0.0712
  Cl  Cl71  1  0.269370  0.635070  0.384240  1.0  -0.08
  Cl  Cl72  1  0.353640  0.846220  0.344060  1.0  -0.0665
  Cl  Cl73  1  0.045860  0.937080  0.272500  1.0  -0.0718
  Cl  Cl74  1  0.769370  0.135070  0.384240  1.0  -0.08
  Cl  Cl75  1  0.853640  0.346220  0.344060  1.0  -0.0665
  Cl  Cl76  1  0.545860  0.437080  0.272500  1.0  -0.0718
  O  O77  1  0.266800  0.255160  0.134100  1.0  -0.8268
  O  O78  1  0.488700  0.282250  0.248200  1.0  -0.6171
  O  O79  1  0.874900  0.141000  0.993900  1.0  -0.6154
  O  O80  1  0.766800  0.755160  0.134100  1.0  -0.8268
  O  O81  1  0.988700  0.782250  0.248200  1.0  -0.6171
  O  O82  1  0.374900  0.641000  0.993900  1.0  -0.6154
  O  O83  1  0.733200  0.255160  0.865900  1.0  -0.8238
  O  O84  1  0.511300  0.282250  0.751800  1.0  -0.6151
  O  O85  1  0.125100  0.141000  0.006100  1.0  -0.6158
  O  O86  1  0.233200  0.755160  0.865900  1.0  -0.8238
  O  O87  1  0.011300  0.782250  0.751800  1.0  -0.6151
  O  O88  1  0.625100  0.641000  0.006100  1.0  -0.6158
  O  O89  1  0.733200  0.744840  0.865900  1.0  -0.8237
  O  O90  1  0.511300  0.717750  0.751800  1.0  -0.6147
  O  O91  1  0.125100  0.859000  0.006100  1.0  -0.6156
  O  O92  1  0.233200  0.244840  0.865900  1.0  -0.8237
  O  O93  1  0.011300  0.217750  0.751800  1.0  -0.6147
  O  O94  1  0.625100  0.359000  0.006100  1.0  -0.6156
  O  O95  1  0.266800  0.744840  0.134100  1.0  -0.8266
  O  O96  1  0.488700  0.717750  0.248200  1.0  -0.617
  O  O97  1  0.874900  0.859000  0.993900  1.0  -0.6159
  O  O98  1  0.766800  0.244840  0.134100  1.0  -0.8266
  O  O99  1  0.988700  0.217750  0.248200  1.0  -0.617
  O  O100  1  0.374900  0.359000  0.993900  1.0  -0.6159
