# generated using pymatgen
data_ZnH21C31N7O6
_symmetry_space_group_name_H-M   'P 1'
_cell_length_a   30.88510000
_cell_length_b   17.46650000
_cell_length_c   20.32720000
_cell_angle_alpha   90.00000000
_cell_angle_beta   127.70500000
_cell_angle_gamma   90.00000000
_symmetry_Int_Tables_number   1
_chemical_formula_structural   ZnH21C31N7O6
_chemical_formula_sum   'Zn8 H168 C248 N56 O48'
_cell_volume   8675.65676082
_cell_formula_units_Z   8
loop_
 _symmetry_equiv_pos_site_id
 _symmetry_equiv_pos_as_xyz
  1  'x, y, z'
loop_
 _atom_site_type_symbol
 _atom_site_label
 _atom_site_symmetry_multiplicity
 _atom_site_fract_x
 _atom_site_fract_y
 _atom_site_fract_z
 _atom_site_occupancy
 _atom_site_charge
  Zn  Zn1  1  0.370060  0.796690  0.586080  1.0  0.8378
  Zn  Zn2  1  0.870060  0.296690  0.586080  1.0  0.8378
  Zn  Zn3  1  0.629940  0.796690  0.913920  1.0  0.8381
  Zn  Zn4  1  0.129940  0.296690  0.913920  1.0  0.8381
  Zn  Zn5  1  0.629940  0.203310  0.413920  1.0  0.8382
  Zn  Zn6  1  0.129940  0.703310  0.413920  1.0  0.8382
  Zn  Zn7  1  0.370060  0.203310  0.086080  1.0  0.8379
  Zn  Zn8  1  0.870060  0.703310  0.086080  1.0  0.8379
  H  H9  1  0.249900  0.978200  0.435500  1.0  0.1082
  H  H10  1  0.214100  0.100800  0.393400  1.0  0.1186
  H  H11  1  0.315300  0.172600  0.630400  1.0  0.1151
  H  H12  1  0.351200  0.050100  0.672500  1.0  0.0933
  H  H13  1  0.494800  0.645000  0.810300  1.0  0.0962
  H  H14  1  0.528300  0.564400  0.919800  1.0  0.1101
  H  H15  1  0.382500  0.562900  0.875200  1.0  0.1206
  H  H16  1  0.348300  0.639600  0.759400  1.0  0.0965
  H  H17  1  0.384200  0.936300  0.511700  1.0  0.0693
  H  H18  1  0.449400  0.012400  0.529200  1.0  0.1279
  H  H19  1  0.561200  0.858700  0.696000  1.0  0.125
  H  H20  1  0.491500  0.787900  0.673000  1.0  0.0725
  H  H21  1  0.590100  0.193000  0.590800  1.0  0.1287
  H  H22  1  0.680300  0.239900  0.660400  1.0  0.1059
  H  H23  1  0.753400  0.155900  0.744800  1.0  0.1109
  H  H24  1  0.893100  0.845000  0.028800  1.0  0.0725
  H  H25  1  0.849000  0.939500  0.931200  1.0  0.1291
  H  H26  1  0.708800  0.828500  0.835900  1.0  0.1071
  H  H27  1  0.757100  0.736100  0.933800  1.0  0.0938
  H  H28  1  0.707500  0.935500  0.773000  1.0  0.2468
  H  H29  1  0.583200  0.957600  0.646000  1.0  0.2807
  H  H30  1  0.749900  0.478200  0.435500  1.0  0.1082
  H  H31  1  0.714100  0.600800  0.393400  1.0  0.1186
  H  H32  1  0.815300  0.672600  0.630400  1.0  0.1151
  H  H33  1  0.851200  0.550100  0.672500  1.0  0.0933
  H  H34  1  0.994800  0.145000  0.810300  1.0  0.0962
  H  H35  1  0.028300  0.064400  0.919800  1.0  0.1101
  H  H36  1  0.882500  0.062900  0.875200  1.0  0.1206
  H  H37  1  0.848300  0.139600  0.759400  1.0  0.0965
  H  H38  1  0.884200  0.436300  0.511700  1.0  0.0693
  H  H39  1  0.949400  0.512400  0.529200  1.0  0.1279
  H  H40  1  0.061200  0.358700  0.696000  1.0  0.125
  H  H41  1  0.991500  0.287900  0.673000  1.0  0.0725
  H  H42  1  0.090100  0.693000  0.590800  1.0  0.1287
  H  H43  1  0.180300  0.739900  0.660400  1.0  0.1059
  H  H44  1  0.253400  0.655900  0.744800  1.0  0.1109
  H  H45  1  0.393100  0.345000  0.028800  1.0  0.0725
  H  H46  1  0.349000  0.439500  0.931200  1.0  0.1291
  H  H47  1  0.208800  0.328500  0.835900  1.0  0.1071
  H  H48  1  0.257100  0.236100  0.933800  1.0  0.0938
  H  H49  1  0.207500  0.435500  0.773000  1.0  0.2468
  H  H50  1  0.083200  0.457600  0.646000  1.0  0.2807
  H  H51  1  0.750100  0.978200  0.064500  1.0  0.1088
  H  H52  1  0.785900  0.100800  0.106600  1.0  0.119
  H  H53  1  0.684700  0.172600  0.869600  1.0  0.1157
  H  H54  1  0.648800  0.050100  0.827500  1.0  0.093
  H  H55  1  0.505200  0.645000  0.689700  1.0  0.0961
  H  H56  1  0.471700  0.564400  0.580200  1.0  0.1101
  H  H57  1  0.617500  0.562900  0.624800  1.0  0.1202
  H  H58  1  0.651700  0.639600  0.740600  1.0  0.0969
  H  H59  1  0.615800  0.936300  0.988300  1.0  0.0687
  H  H60  1  0.550600  0.012400  0.970800  1.0  0.1278
  H  H61  1  0.438800  0.858700  0.804000  1.0  0.1251
  H  H62  1  0.508500  0.787900  0.827000  1.0  0.0747
  H  H63  1  0.409900  0.193000  0.909200  1.0  0.1284
  H  H64  1  0.319700  0.239900  0.839600  1.0  0.1068
  H  H65  1  0.246600  0.155900  0.755200  1.0  0.1099
  H  H66  1  0.106900  0.845000  0.471200  1.0  0.0726
  H  H67  1  0.151000  0.939500  0.568800  1.0  0.1282
  H  H68  1  0.291200  0.828500  0.664100  1.0  0.1099
  H  H69  1  0.242900  0.736100  0.566200  1.0  0.0937
  H  H70  1  0.292500  0.935500  0.727000  1.0  0.248
  H  H71  1  0.416800  0.957600  0.854000  1.0  0.2811
  H  H72  1  0.250100  0.478200  0.064500  1.0  0.1088
  H  H73  1  0.285900  0.600800  0.106600  1.0  0.119
  H  H74  1  0.184700  0.672600  0.869600  1.0  0.1157
  H  H75  1  0.148800  0.550100  0.827500  1.0  0.093
  H  H76  1  0.005200  0.145000  0.689700  1.0  0.0961
  H  H77  1  0.971700  0.064400  0.580200  1.0  0.1101
  H  H78  1  0.117500  0.062900  0.624800  1.0  0.1202
  H  H79  1  0.151700  0.139600  0.740600  1.0  0.0969
  H  H80  1  0.115800  0.436300  0.988300  1.0  0.0687
  H  H81  1  0.050600  0.512400  0.970800  1.0  0.1278
  H  H82  1  0.938800  0.358700  0.804000  1.0  0.1251
  H  H83  1  0.008500  0.287900  0.827000  1.0  0.0747
  H  H84  1  0.909900  0.693000  0.909200  1.0  0.1284
  H  H85  1  0.819700  0.739900  0.839600  1.0  0.1068
  H  H86  1  0.746600  0.655900  0.755200  1.0  0.1099
  H  H87  1  0.606900  0.345000  0.471200  1.0  0.0726
  H  H88  1  0.651000  0.439500  0.568800  1.0  0.1283
  H  H89  1  0.791200  0.328500  0.664100  1.0  0.1099
  H  H90  1  0.742900  0.236100  0.566200  1.0  0.0937
  H  H91  1  0.792500  0.435500  0.727000  1.0  0.248
  H  H92  1  0.916800  0.457600  0.854000  1.0  0.2811
  H  H93  1  0.750100  0.021800  0.564500  1.0  0.1086
  H  H94  1  0.785900  0.899200  0.606600  1.0  0.119
  H  H95  1  0.684700  0.827400  0.369600  1.0  0.1155
  H  H96  1  0.648800  0.949900  0.327500  1.0  0.0931
  H  H97  1  0.505200  0.355000  0.189700  1.0  0.0954
  H  H98  1  0.471700  0.435600  0.080200  1.0  0.11
  H  H99  1  0.617500  0.437100  0.124800  1.0  0.1204
  H  H100  1  0.651700  0.360400  0.240600  1.0  0.097
  H  H101  1  0.615800  0.063700  0.488300  1.0  0.0687
  H  H102  1  0.550600  0.987600  0.470800  1.0  0.1272
  H  H103  1  0.438800  0.141300  0.304000  1.0  0.1251
  H  H104  1  0.508500  0.212100  0.327000  1.0  0.0731
  H  H105  1  0.409900  0.807000  0.409200  1.0  0.1277
  H  H106  1  0.319700  0.760100  0.339600  1.0  0.1065
  H  H107  1  0.246600  0.844100  0.255200  1.0  0.1102
  H  H108  1  0.106900  0.155000  0.971200  1.0  0.0726
  H  H109  1  0.151000  0.060500  0.068800  1.0  0.1278
  H  H110  1  0.291200  0.171500  0.164100  1.0  0.1097
  H  H111  1  0.242900  0.263900  0.066200  1.0  0.0943
  H  H112  1  0.292500  0.064500  0.227000  1.0  0.2474
  H  H113  1  0.416800  0.042400  0.354000  1.0  0.2811
  H  H114  1  0.250100  0.521800  0.564500  1.0  0.1086
  H  H115  1  0.285900  0.399200  0.606600  1.0  0.119
  H  H116  1  0.184700  0.327400  0.369600  1.0  0.1155
  H  H117  1  0.148800  0.449900  0.327500  1.0  0.0931
  H  H118  1  0.005200  0.855000  0.189700  1.0  0.0954
  H  H119  1  0.971700  0.935600  0.080200  1.0  0.11
  H  H120  1  0.117500  0.937100  0.124800  1.0  0.1204
  H  H121  1  0.151700  0.860400  0.240600  1.0  0.097
  H  H122  1  0.115800  0.563700  0.488300  1.0  0.0687
  H  H123  1  0.050600  0.487600  0.470800  1.0  0.1272
  H  H124  1  0.938800  0.641300  0.304000  1.0  0.1251
  H  H125  1  0.008500  0.712100  0.327000  1.0  0.0731
  H  H126  1  0.909900  0.307000  0.409200  1.0  0.1277
  H  H127  1  0.819700  0.260100  0.339600  1.0  0.1065
  H  H128  1  0.746600  0.344100  0.255200  1.0  0.1102
  H  H129  1  0.606900  0.655000  0.971200  1.0  0.0726
  H  H130  1  0.651000  0.560500  0.068800  1.0  0.1278
  H  H131  1  0.791200  0.671500  0.164100  1.0  0.1097
  H  H132  1  0.742900  0.763900  0.066200  1.0  0.0943
  H  H133  1  0.792500  0.564500  0.227000  1.0  0.2474
  H  H134  1  0.916800  0.542400  0.354000  1.0  0.2811
  H  H135  1  0.249900  0.021800  0.935500  1.0  0.1083
  H  H136  1  0.214100  0.899200  0.893400  1.0  0.1184
  H  H137  1  0.315300  0.827400  0.130400  1.0  0.1155
  H  H138  1  0.351200  0.949900  0.172500  1.0  0.0933
  H  H139  1  0.494800  0.355000  0.310300  1.0  0.096
  H  H140  1  0.528300  0.435600  0.419800  1.0  0.1101
  H  H141  1  0.382500  0.437100  0.375200  1.0  0.1209
  H  H142  1  0.348300  0.360400  0.259400  1.0  0.0968
  H  H143  1  0.384200  0.063700  0.011700  1.0  0.0696
  H  H144  1  0.449400  0.987600  0.029200  1.0  0.1268
  H  H145  1  0.561200  0.141300  0.196000  1.0  0.125
  H  H146  1  0.491500  0.212100  0.173000  1.0  0.0724
  H  H147  1  0.590100  0.807000  0.090800  1.0  0.1281
  H  H148  1  0.680300  0.760100  0.160400  1.0  0.1062
  H  H149  1  0.753400  0.844100  0.244800  1.0  0.1108
  H  H150  1  0.893100  0.155000  0.528800  1.0  0.0725
  H  H151  1  0.849000  0.060500  0.431200  1.0  0.1281
  H  H152  1  0.708800  0.171500  0.335900  1.0  0.1056
  H  H153  1  0.757100  0.263900  0.433800  1.0  0.0942
  H  H154  1  0.707500  0.064500  0.273000  1.0  0.2472
  H  H155  1  0.583200  0.042400  0.146000  1.0  0.2811
  H  H156  1  0.749900  0.521800  0.935500  1.0  0.1083
  H  H157  1  0.714100  0.399200  0.893400  1.0  0.1184
  H  H158  1  0.815300  0.327400  0.130400  1.0  0.1155
  H  H159  1  0.851200  0.449900  0.172500  1.0  0.0933
  H  H160  1  0.994800  0.855000  0.310300  1.0  0.096
  H  H161  1  0.028300  0.935600  0.419800  1.0  0.1101
  H  H162  1  0.882500  0.937100  0.375200  1.0  0.1209
  H  H163  1  0.848300  0.860400  0.259400  1.0  0.0968
  H  H164  1  0.884200  0.563700  0.011700  1.0  0.0696
  H  H165  1  0.949400  0.487600  0.029200  1.0  0.1268
  H  H166  1  0.061200  0.641300  0.196000  1.0  0.125
  H  H167  1  0.991500  0.712100  0.173000  1.0  0.0724
  H  H168  1  0.090100  0.307000  0.090800  1.0  0.1281
  H  H169  1  0.180300  0.260100  0.160400  1.0  0.1062
  H  H170  1  0.253400  0.344100  0.244800  1.0  0.1108
  H  H171  1  0.393100  0.655000  0.528800  1.0  0.0725
  H  H172  1  0.349000  0.560500  0.431200  1.0  0.1281
  H  H173  1  0.208800  0.671500  0.335900  1.0  0.1056
  H  H174  1  0.257100  0.763900  0.433800  1.0  0.0942
  H  H175  1  0.207500  0.564500  0.273000  1.0  0.2472
  H  H176  1  0.083200  0.542400  0.146000  1.0  0.2811
  C  C177  1  0.330000  0.926100  0.586400  1.0  0.6677
  C  C178  1  0.304100  0.002000  0.558200  1.0  -0.1127
  C  C179  1  0.263000  0.017200  0.474500  1.0  -0.0332
  C  C180  1  0.241500  0.090600  0.449300  1.0  -0.1174
  C  C181  1  0.261200  0.148800  0.507700  1.0  0.1279
  C  C182  1  0.302200  0.133700  0.591400  1.0  -0.0369
  C  C183  1  0.323700  0.060200  0.616600  1.0  -0.0655
  C  C184  1  0.394900  0.706200  0.702200  1.0  0.6776
  C  C185  1  0.418200  0.653700  0.774100  1.0  -0.1833
  C  C186  1  0.472000  0.628800  0.822900  1.0  -0.0368
  C  C187  1  0.492300  0.581200  0.888800  1.0  -0.0743
  C  C188  1  0.459500  0.557600  0.909900  1.0  0.1544
  C  C189  1  0.405100  0.579100  0.862100  1.0  -0.187
  C  C190  1  0.385100  0.626200  0.793400  1.0  -0.0321
  C  C191  1  0.558200  0.061600  0.615300  1.0  0.5584
  C  C192  1  0.420500  0.921100  0.549800  1.0  0.166
  C  C193  1  0.459200  0.967500  0.559900  1.0  -0.2293
  C  C194  1  0.514000  0.946600  0.617400  1.0  0.2546
  C  C195  1  0.525400  0.876100  0.659000  1.0  -0.2507
  C  C196  1  0.483200  0.833800  0.644200  1.0  0.1835
  C  C197  1  0.753800  0.022700  0.804600  1.0  0.4584
  C  C198  1  0.614800  0.090600  0.651000  1.0  0.1326
  C  C199  1  0.620400  0.163300  0.629600  1.0  -0.0865
  C  C200  1  0.674200  0.190300  0.669600  1.0  -0.1057
  C  C201  1  0.717900  0.141400  0.722900  1.0  -0.1333
  C  C202  1  0.708200  0.071400  0.743100  1.0  0.1204
  C  C203  1  0.855300  0.841100  0.988700  1.0  0.1816
  C  C204  1  0.829200  0.899300  0.930800  1.0  -0.2339
  C  C205  1  0.772700  0.896300  0.872200  1.0  0.2622
  C  C206  1  0.746600  0.833100  0.874600  1.0  -0.2626
  C  C207  1  0.775800  0.777700  0.933500  1.0  0.1848
  C  C208  1  0.830000  0.426100  0.586400  1.0  0.6677
  C  C209  1  0.804100  0.502000  0.558200  1.0  -0.1127
  C  C210  1  0.763000  0.517200  0.474500  1.0  -0.0332
  C  C211  1  0.741500  0.590600  0.449300  1.0  -0.1174
  C  C212  1  0.761200  0.648800  0.507700  1.0  0.1279
  C  C213  1  0.802200  0.633700  0.591400  1.0  -0.0369
  C  C214  1  0.823700  0.560200  0.616600  1.0  -0.0655
  C  C215  1  0.894900  0.206200  0.702200  1.0  0.6776
  C  C216  1  0.918200  0.153700  0.774100  1.0  -0.1833
  C  C217  1  0.972000  0.128800  0.822900  1.0  -0.0373
  C  C218  1  0.992300  0.081200  0.888800  1.0  -0.0743
  C  C219  1  0.959500  0.057600  0.909900  1.0  0.1545
  C  C220  1  0.905100  0.079100  0.862100  1.0  -0.187
  C  C221  1  0.885100  0.126200  0.793400  1.0  -0.0321
  C  C222  1  0.058200  0.561600  0.615300  1.0  0.5584
  C  C223  1  0.920500  0.421100  0.549800  1.0  0.1662
  C  C224  1  0.959200  0.467500  0.559900  1.0  -0.2295
  C  C225  1  0.014000  0.446600  0.617400  1.0  0.2546
  C  C226  1  0.025400  0.376100  0.659000  1.0  -0.2507
  C  C227  1  0.983200  0.333800  0.644200  1.0  0.1835
  C  C228  1  0.253800  0.522700  0.804600  1.0  0.4584
  C  C229  1  0.114800  0.590600  0.651000  1.0  0.1327
  C  C230  1  0.120400  0.663300  0.629600  1.0  -0.0865
  C  C231  1  0.174200  0.690300  0.669600  1.0  -0.1057
  C  C232  1  0.217900  0.641400  0.722900  1.0  -0.1333
  C  C233  1  0.208200  0.571400  0.743100  1.0  0.1204
  C  C234  1  0.355300  0.341100  0.988700  1.0  0.1816
  C  C235  1  0.329200  0.399300  0.930800  1.0  -0.2339
  C  C236  1  0.272700  0.396300  0.872200  1.0  0.2622
  C  C237  1  0.246600  0.333100  0.874600  1.0  -0.2626
  C  C238  1  0.275800  0.277700  0.933500  1.0  0.1848
  C  C239  1  0.670000  0.926100  0.913600  1.0  0.667
  C  C240  1  0.695900  0.002000  0.941800  1.0  -0.1121
  C  C241  1  0.737000  0.017200  0.025500  1.0  -0.0332
  C  C242  1  0.758500  0.090600  0.050700  1.0  -0.1166
  C  C243  1  0.738800  0.148800  0.992300  1.0  0.1337
  C  C244  1  0.697800  0.133700  0.908600  1.0  -0.035
  C  C245  1  0.676300  0.060200  0.883400  1.0  -0.066
  C  C246  1  0.605100  0.706200  0.797800  1.0  0.6773
  C  C247  1  0.581800  0.653700  0.725900  1.0  -0.1824
  C  C248  1  0.528000  0.628800  0.677100  1.0  -0.0434
  C  C249  1  0.507700  0.581200  0.611200  1.0  -0.0746
  C  C250  1  0.540500  0.557600  0.590100  1.0  0.1653
  C  C251  1  0.594900  0.579100  0.637900  1.0  -0.1875
  C  C252  1  0.614900  0.626200  0.706600  1.0  -0.0298
  C  C253  1  0.441800  0.061600  0.884700  1.0  0.5594
  C  C254  1  0.579500  0.921100  0.950200  1.0  0.1664
  C  C255  1  0.540800  0.967500  0.940100  1.0  -0.2267
  C  C256  1  0.486000  0.946600  0.882600  1.0  0.2543
  C  C257  1  0.474600  0.876100  0.841000  1.0  -0.259
  C  C258  1  0.516800  0.833800  0.855800  1.0  0.1842
  C  C259  1  0.246200  0.022700  0.695400  1.0  0.4575
  C  C260  1  0.385200  0.090600  0.849000  1.0  0.1325
  C  C261  1  0.379600  0.163300  0.870400  1.0  -0.0855
  C  C262  1  0.325800  0.190300  0.830400  1.0  -0.1084
  C  C263  1  0.282100  0.141400  0.777100  1.0  -0.1321
  C  C264  1  0.291800  0.071400  0.756900  1.0  0.1197
  C  C265  1  0.144700  0.841100  0.511300  1.0  0.1805
  C  C266  1  0.170800  0.899300  0.569200  1.0  -0.2367
  C  C267  1  0.227300  0.896300  0.627800  1.0  0.2632
  C  C268  1  0.253400  0.833100  0.625400  1.0  -0.2611
  C  C269  1  0.224200  0.777700  0.566500  1.0  0.1845
  C  C270  1  0.170000  0.426100  0.913600  1.0  0.6685
  C  C271  1  0.195900  0.502000  0.941800  1.0  -0.1121
  C  C272  1  0.237000  0.517200  0.025500  1.0  -0.0332
  C  C273  1  0.258500  0.590600  0.050700  1.0  -0.1166
  C  C274  1  0.238800  0.648800  0.992300  1.0  0.1337
  C  C275  1  0.197800  0.633700  0.908600  1.0  -0.035
  C  C276  1  0.176300  0.560200  0.883400  1.0  -0.066
  C  C277  1  0.105100  0.206200  0.797800  1.0  0.6773
  C  C278  1  0.081800  0.153700  0.725900  1.0  -0.1824
  C  C279  1  0.028000  0.128800  0.677100  1.0  -0.0434
  C  C280  1  0.007700  0.081200  0.611200  1.0  -0.0746
  C  C281  1  0.040500  0.057600  0.590100  1.0  0.1653
  C  C282  1  0.094900  0.079100  0.637900  1.0  -0.1875
  C  C283  1  0.114900  0.126200  0.706600  1.0  -0.0298
  C  C284  1  0.941800  0.561600  0.884700  1.0  0.5594
  C  C285  1  0.079500  0.421100  0.950200  1.0  0.1663
  C  C286  1  0.040800  0.467500  0.940100  1.0  -0.2267
  C  C287  1  0.986000  0.446600  0.882600  1.0  0.2543
  C  C288  1  0.974600  0.376100  0.841000  1.0  -0.2546
  C  C289  1  0.016800  0.333800  0.855800  1.0  0.1842
  C  C290  1  0.746200  0.522700  0.695400  1.0  0.4575
  C  C291  1  0.885200  0.590600  0.849000  1.0  0.1326
  C  C292  1  0.879600  0.663300  0.870400  1.0  -0.0855
  C  C293  1  0.825800  0.690300  0.830400  1.0  -0.1084
  C  C294  1  0.782100  0.641400  0.777100  1.0  -0.1321
  C  C295  1  0.791800  0.571400  0.756900  1.0  0.1197
  C  C296  1  0.644700  0.341100  0.511300  1.0  0.1805
  C  C297  1  0.670800  0.399300  0.569200  1.0  -0.2367
  C  C298  1  0.727300  0.396300  0.627800  1.0  0.2632
  C  C299  1  0.753400  0.333100  0.625400  1.0  -0.2611
  C  C300  1  0.724200  0.277700  0.566500  1.0  0.1845
  C  C301  1  0.670000  0.073900  0.413600  1.0  0.6685
  C  C302  1  0.695900  0.998000  0.441800  1.0  -0.1126
  C  C303  1  0.737000  0.982800  0.525500  1.0  -0.0332
  C  C304  1  0.758500  0.909400  0.550700  1.0  -0.1187
  C  C305  1  0.738800  0.851200  0.492300  1.0  0.1306
  C  C306  1  0.697800  0.866300  0.408600  1.0  -0.0358
  C  C307  1  0.676300  0.939800  0.383400  1.0  -0.0654
  C  C308  1  0.605100  0.293800  0.297800  1.0  0.6775
  C  C309  1  0.581800  0.346300  0.225900  1.0  -0.1819
  C  C310  1  0.528000  0.371200  0.177100  1.0  -0.0453
  C  C311  1  0.507700  0.418800  0.111200  1.0  -0.0759
  C  C312  1  0.540500  0.442400  0.090100  1.0  0.1661
  C  C313  1  0.594900  0.420900  0.137900  1.0  -0.1865
  C  C314  1  0.614900  0.373800  0.206600  1.0  -0.03
  C  C315  1  0.441800  0.938400  0.384700  1.0  0.5576
  C  C316  1  0.579500  0.078900  0.450200  1.0  0.1686
  C  C317  1  0.540800  0.032500  0.440100  1.0  -0.2275
  C  C318  1  0.486000  0.053400  0.382600  1.0  0.2544
  C  C319  1  0.474600  0.123900  0.341000  1.0  -0.2575
  C  C320  1  0.516800  0.166200  0.355800  1.0  0.1849
  C  C321  1  0.246200  0.977300  0.195400  1.0  0.4576
  C  C322  1  0.385200  0.909400  0.349000  1.0  0.1319
  C  C323  1  0.379600  0.836700  0.370400  1.0  -0.0868
  C  C324  1  0.325800  0.809700  0.330400  1.0  -0.1084
  C  C325  1  0.282100  0.858600  0.277100  1.0  -0.1272
  C  C326  1  0.291800  0.928600  0.256900  1.0  0.1198
  C  C327  1  0.144700  0.158900  0.011300  1.0  0.1767
  C  C328  1  0.170800  0.100700  0.069200  1.0  -0.2352
  C  C329  1  0.227300  0.103700  0.127800  1.0  0.2606
  C  C330  1  0.253400  0.166900  0.125400  1.0  -0.2609
  C  C331  1  0.224200  0.222300  0.066500  1.0  0.1841
  C  C332  1  0.170000  0.573900  0.413600  1.0  0.6667
  C  C333  1  0.195900  0.498000  0.441800  1.0  -0.1126
  C  C334  1  0.237000  0.482800  0.525500  1.0  -0.0332
  C  C335  1  0.258500  0.409400  0.550700  1.0  -0.1187
  C  C336  1  0.238800  0.351200  0.492300  1.0  0.1306
  C  C337  1  0.197800  0.366300  0.408600  1.0  -0.0358
  C  C338  1  0.176300  0.439800  0.383400  1.0  -0.0654
  C  C339  1  0.105100  0.793800  0.297800  1.0  0.6775
  C  C340  1  0.081800  0.846300  0.225900  1.0  -0.1819
  C  C341  1  0.028000  0.871200  0.177100  1.0  -0.0453
  C  C342  1  0.007700  0.918800  0.111200  1.0  -0.0759
  C  C343  1  0.040500  0.942400  0.090100  1.0  0.1661
  C  C344  1  0.094900  0.920900  0.137900  1.0  -0.1865
  C  C345  1  0.114900  0.873800  0.206600  1.0  -0.03
  C  C346  1  0.941800  0.438400  0.384700  1.0  0.5576
  C  C347  1  0.079500  0.578900  0.450200  1.0  0.1686
  C  C348  1  0.040800  0.532500  0.440100  1.0  -0.2275
  C  C349  1  0.986000  0.553400  0.382600  1.0  0.2544
  C  C350  1  0.974600  0.623900  0.341000  1.0  -0.2587
  C  C351  1  0.016800  0.666200  0.355800  1.0  0.1849
  C  C352  1  0.746200  0.477300  0.195400  1.0  0.4576
  C  C353  1  0.885200  0.409400  0.349000  1.0  0.1319
  C  C354  1  0.879600  0.336700  0.370400  1.0  -0.0868
  C  C355  1  0.825800  0.309700  0.330400  1.0  -0.1084
  C  C356  1  0.782100  0.358600  0.277100  1.0  -0.1272
  C  C357  1  0.791800  0.428600  0.256900  1.0  0.1198
  C  C358  1  0.644700  0.658900  0.011300  1.0  0.1767
  C  C359  1  0.670800  0.600700  0.069200  1.0  -0.2352
  C  C360  1  0.727300  0.603700  0.127800  1.0  0.2606
  C  C361  1  0.753400  0.666900  0.125400  1.0  -0.2609
  C  C362  1  0.724200  0.722300  0.066500  1.0  0.1841
  C  C363  1  0.330000  0.073900  0.086400  1.0  0.6665
  C  C364  1  0.304100  0.998000  0.058200  1.0  -0.1128
  C  C365  1  0.263000  0.982800  0.974500  1.0  -0.0332
  C  C366  1  0.241500  0.909400  0.949300  1.0  -0.1179
  C  C367  1  0.261200  0.851200  0.007700  1.0  0.1261
  C  C368  1  0.302200  0.866300  0.091400  1.0  -0.038
  C  C369  1  0.323700  0.939800  0.116600  1.0  -0.0662
  C  C370  1  0.394900  0.293800  0.202200  1.0  0.6773
  C  C371  1  0.418200  0.346300  0.274100  1.0  -0.1824
  C  C372  1  0.472000  0.371200  0.322900  1.0  -0.0354
  C  C373  1  0.492300  0.418800  0.388800  1.0  -0.0744
  C  C374  1  0.459500  0.442400  0.409900  1.0  0.1554
  C  C375  1  0.405100  0.420900  0.362100  1.0  -0.1868
  C  C376  1  0.385100  0.373800  0.293400  1.0  -0.0309
  C  C377  1  0.558200  0.938400  0.115300  1.0  0.5594
  C  C378  1  0.420500  0.078900  0.049800  1.0  0.1652
  C  C379  1  0.459200  0.032500  0.059900  1.0  -0.2292
  C  C380  1  0.514000  0.053400  0.117400  1.0  0.252
  C  C381  1  0.525400  0.123900  0.159000  1.0  -0.2584
  C  C382  1  0.483200  0.166200  0.144200  1.0  0.1839
  C  C383  1  0.753800  0.977300  0.304600  1.0  0.4582
  C  C384  1  0.614800  0.909400  0.151000  1.0  0.1326
  C  C385  1  0.620400  0.836700  0.129600  1.0  -0.0866
  C  C386  1  0.674200  0.809700  0.169600  1.0  -0.1078
  C  C387  1  0.717900  0.858600  0.222900  1.0  -0.1307
  C  C388  1  0.708200  0.928600  0.243100  1.0  0.1205
  C  C389  1  0.855300  0.158900  0.488700  1.0  0.1808
  C  C390  1  0.829200  0.100700  0.430800  1.0  -0.233
  C  C391  1  0.772700  0.103700  0.372200  1.0  0.2624
  C  C392  1  0.746600  0.166900  0.374600  1.0  -0.2638
  C  C393  1  0.775800  0.222300  0.433500  1.0  0.1841
  C  C394  1  0.830000  0.573900  0.086400  1.0  0.6665
  C  C395  1  0.804100  0.498000  0.058200  1.0  -0.1128
  C  C396  1  0.763000  0.482800  0.974500  1.0  -0.0332
  C  C397  1  0.741500  0.409400  0.949300  1.0  -0.1179
  C  C398  1  0.761200  0.351200  0.007700  1.0  0.1261
  C  C399  1  0.802200  0.366300  0.091400  1.0  -0.038
  C  C400  1  0.823700  0.439800  0.116600  1.0  -0.0662
  C  C401  1  0.894900  0.793800  0.202200  1.0  0.6773
  C  C402  1  0.918200  0.846300  0.274100  1.0  -0.1824
  C  C403  1  0.972000  0.871200  0.322900  1.0  -0.0358
  C  C404  1  0.992300  0.918800  0.388800  1.0  -0.0744
  C  C405  1  0.959500  0.942400  0.409900  1.0  0.1543
  C  C406  1  0.905100  0.920900  0.362100  1.0  -0.1868
  C  C407  1  0.885100  0.873800  0.293400  1.0  -0.0309
  C  C408  1  0.058200  0.438400  0.115300  1.0  0.5594
  C  C409  1  0.920500  0.578900  0.049800  1.0  0.1644
  C  C410  1  0.959200  0.532500  0.059900  1.0  -0.23
  C  C411  1  0.014000  0.553400  0.117400  1.0  0.252
  C  C412  1  0.025400  0.623900  0.159000  1.0  -0.2584
  C  C413  1  0.983200  0.666200  0.144200  1.0  0.1839
  C  C414  1  0.253800  0.477300  0.304600  1.0  0.4582
  C  C415  1  0.114800  0.409400  0.151000  1.0  0.1326
  C  C416  1  0.120400  0.336700  0.129600  1.0  -0.0866
  C  C417  1  0.174200  0.309700  0.169600  1.0  -0.1078
  C  C418  1  0.217900  0.358600  0.222900  1.0  -0.1307
  C  C419  1  0.208200  0.428600  0.243100  1.0  0.1205
  C  C420  1  0.355300  0.658900  0.488700  1.0  0.1808
  C  C421  1  0.329200  0.600700  0.430800  1.0  -0.233
  C  C422  1  0.272700  0.603700  0.372200  1.0  0.2624
  C  C423  1  0.246600  0.666900  0.374600  1.0  -0.2638
  C  C424  1  0.275800  0.722300  0.433500  1.0  0.1841
  N  N425  1  0.430230  0.854400  0.590500  1.0  -0.3383
  N  N426  1  0.558600  0.987800  0.637100  1.0  -0.2938
  N  N427  1  0.739800  0.951000  0.811100  1.0  -0.3149
  N  N428  1  0.831300  0.780700  0.991900  1.0  -0.3093
  N  N429  1  0.656800  0.044900  0.704700  1.0  -0.4887
  N  N430  1  0.238700  0.225300  0.479900  1.0  -0.1221
  N  N431  1  0.475200  0.506300  0.977600  1.0  -0.1466
  N  N432  1  0.930230  0.354400  0.590500  1.0  -0.3383
  N  N433  1  0.058600  0.487800  0.637100  1.0  -0.2938
  N  N434  1  0.239800  0.451000  0.811100  1.0  -0.3149
  N  N435  1  0.331300  0.280700  0.991900  1.0  -0.3093
  N  N436  1  0.156800  0.544900  0.704700  1.0  -0.4887
  N  N437  1  0.738700  0.725300  0.479900  1.0  -0.1221
  N  N438  1  0.975200  0.006300  0.977600  1.0  -0.1466
  N  N439  1  0.569770  0.854400  0.909500  1.0  -0.3393
  N  N440  1  0.441400  0.987800  0.862900  1.0  -0.2923
  N  N441  1  0.260200  0.951000  0.688900  1.0  -0.3175
  N  N442  1  0.168700  0.780700  0.508100  1.0  -0.31
  N  N443  1  0.343200  0.044900  0.795300  1.0  -0.4888
  N  N444  1  0.761300  0.225300  0.020100  1.0  -0.1248
  N  N445  1  0.524800  0.506300  0.522400  1.0  -0.1494
  N  N446  1  0.069770  0.354400  0.909500  1.0  -0.3385
  N  N447  1  0.941400  0.487800  0.862900  1.0  -0.2934
  N  N448  1  0.760200  0.451000  0.688900  1.0  -0.3175
  N  N449  1  0.668700  0.280700  0.508100  1.0  -0.31
  N  N450  1  0.843200  0.544900  0.795300  1.0  -0.4888
  N  N451  1  0.261300  0.725300  0.020100  1.0  -0.1248
  N  N452  1  0.024800  0.006300  0.522400  1.0  -0.1494
  N  N453  1  0.569770  0.145600  0.409500  1.0  -0.3392
  N  N454  1  0.441400  0.012200  0.362900  1.0  -0.2923
  N  N455  1  0.260200  0.049000  0.188900  1.0  -0.3175
  N  N456  1  0.168700  0.219300  0.008100  1.0  -0.3098
  N  N457  1  0.343200  0.955100  0.295300  1.0  -0.4832
  N  N458  1  0.761300  0.774700  0.520100  1.0  -0.1247
  N  N459  1  0.524800  0.493700  0.022400  1.0  -0.1493
  N  N460  1  0.069770  0.645600  0.409500  1.0  -0.3384
  N  N461  1  0.941400  0.512200  0.362900  1.0  -0.2931
  N  N462  1  0.760200  0.549000  0.188900  1.0  -0.3175
  N  N463  1  0.668700  0.719300  0.008100  1.0  -0.3098
  N  N464  1  0.843200  0.455100  0.295300  1.0  -0.4842
  N  N465  1  0.261300  0.274700  0.520100  1.0  -0.1247
  N  N466  1  0.024800  0.993700  0.022400  1.0  -0.1493
  N  N467  1  0.430230  0.145600  0.090500  1.0  -0.3382
  N  N468  1  0.558600  0.012200  0.137100  1.0  -0.2935
  N  N469  1  0.739800  0.049000  0.311100  1.0  -0.3158
  N  N470  1  0.831300  0.219300  0.491900  1.0  -0.3085
  N  N471  1  0.656800  0.955100  0.204700  1.0  -0.4875
  N  N472  1  0.238700  0.774700  0.979900  1.0  -0.1215
  N  N473  1  0.475200  0.493700  0.477600  1.0  -0.1469
  N  N474  1  0.930230  0.645600  0.090500  1.0  -0.3382
  N  N475  1  0.058600  0.512200  0.137100  1.0  -0.2935
  N  N476  1  0.239800  0.549000  0.311100  1.0  -0.3158
  N  N477  1  0.331300  0.719300  0.491900  1.0  -0.3085
  N  N478  1  0.156800  0.455100  0.204700  1.0  -0.4875
  N  N479  1  0.738700  0.274700  0.979900  1.0  -0.1215
  N  N480  1  0.975200  0.993700  0.477600  1.0  -0.1469
  O  O481  1  0.426070  0.726000  0.684600  1.0  -0.5637
  O  O482  1  0.345800  0.725200  0.657900  1.0  -0.6005
  O  O483  1  0.367300  0.913900  0.661300  1.0  -0.5756
  O  O484  1  0.313400  0.878200  0.531200  1.0  -0.5591
  O  O485  1  0.518200  0.102600  0.572700  1.0  -0.4718
  O  O486  1  0.801400  0.049200  0.855100  1.0  -0.5279
  O  O487  1  0.926070  0.226000  0.684600  1.0  -0.5637
  O  O488  1  0.845800  0.225200  0.657900  1.0  -0.6005
  O  O489  1  0.867300  0.413900  0.661300  1.0  -0.5756
  O  O490  1  0.813400  0.378200  0.531200  1.0  -0.5591
  O  O491  1  0.018200  0.602600  0.572700  1.0  -0.4729
  O  O492  1  0.301400  0.549200  0.855100  1.0  -0.5279
  O  O493  1  0.573930  0.726000  0.815400  1.0  -0.5637
  O  O494  1  0.654200  0.725200  0.842100  1.0  -0.6019
  O  O495  1  0.632700  0.913900  0.838700  1.0  -0.5746
  O  O496  1  0.686600  0.878200  0.968800  1.0  -0.5589
  O  O497  1  0.481800  0.102600  0.927300  1.0  -0.4714
  O  O498  1  0.198600  0.049200  0.644900  1.0  -0.526
  O  O499  1  0.073930  0.226000  0.815400  1.0  -0.5637
  O  O500  1  0.154200  0.225200  0.842100  1.0  -0.6019
  O  O501  1  0.132700  0.413900  0.838700  1.0  -0.5746
  O  O502  1  0.186600  0.378200  0.968800  1.0  -0.5589
  O  O503  1  0.981800  0.602600  0.927300  1.0  -0.4714
  O  O504  1  0.698600  0.549200  0.644900  1.0  -0.526
  O  O505  1  0.573930  0.274000  0.315400  1.0  -0.5635
  O  O506  1  0.654200  0.274800  0.342100  1.0  -0.602
  O  O507  1  0.632700  0.086100  0.338700  1.0  -0.5749
  O  O508  1  0.686600  0.121800  0.468800  1.0  -0.5594
  O  O509  1  0.481800  0.897400  0.427300  1.0  -0.4743
  O  O510  1  0.198600  0.950800  0.144900  1.0  -0.5265
  O  O511  1  0.073930  0.774000  0.315400  1.0  -0.5635
  O  O512  1  0.154200  0.774800  0.342100  1.0  -0.602
  O  O513  1  0.132700  0.586100  0.338700  1.0  -0.5753
  O  O514  1  0.186600  0.621800  0.468800  1.0  -0.5596
  O  O515  1  0.981800  0.397400  0.427300  1.0  -0.4743
  O  O516  1  0.698600  0.450800  0.144900  1.0  -0.5265
  O  O517  1  0.426070  0.274000  0.184600  1.0  -0.5635
  O  O518  1  0.345800  0.274800  0.157900  1.0  -0.6009
  O  O519  1  0.367300  0.086100  0.161300  1.0  -0.5749
  O  O520  1  0.313400  0.121800  0.031200  1.0  -0.5599
  O  O521  1  0.518200  0.897400  0.072700  1.0  -0.4766
  O  O522  1  0.801400  0.950800  0.355100  1.0  -0.5277
  O  O523  1  0.926070  0.774000  0.184600  1.0  -0.5635
  O  O524  1  0.845800  0.774800  0.157900  1.0  -0.6009
  O  O525  1  0.867300  0.586100  0.161300  1.0  -0.5749
  O  O526  1  0.813400  0.621800  0.031200  1.0  -0.5599
  O  O527  1  0.018200  0.397400  0.072700  1.0  -0.4766
  O  O528  1  0.301400  0.450800  0.355100  1.0  -0.5277
