# generated using pymatgen
data_Gd2Zn3H24(C4O5)6
_symmetry_space_group_name_H-M   'P 1'
_cell_length_a   14.51040000
_cell_length_b   14.51040000
_cell_length_c   15.77250000
_cell_angle_alpha   90.00000000
_cell_angle_beta   90.00000000
_cell_angle_gamma   120.00000000
_symmetry_Int_Tables_number   1
_chemical_formula_structural   Gd2Zn3H24(C4O5)6
_chemical_formula_sum   'Gd4 Zn6 H48 C48 O60'
_cell_volume   2876.00698759
_cell_formula_units_Z   2
loop_
 _symmetry_equiv_pos_site_id
 _symmetry_equiv_pos_as_xyz
  1  'x, y, z'
loop_
 _atom_site_type_symbol
 _atom_site_label
 _atom_site_symmetry_multiplicity
 _atom_site_fract_x
 _atom_site_fract_y
 _atom_site_fract_z
 _atom_site_occupancy
 _atom_site_charge
  Gd  Gd1  1  0.333333  0.666667  0.750000  1.0  2.1029
  Gd  Gd2  1  0.666667  0.333333  0.750000  1.0  2.1029
  Gd  Gd3  1  0.666667  0.333333  0.250000  1.0  2.1029
  Gd  Gd4  1  0.333333  0.666667  0.250000  1.0  2.1029
  Zn  Zn5  1  0.000000  0.500000  0.500000  1.0  1.1847
  Zn  Zn6  1  0.500000  0.000000  0.500000  1.0  1.1847
  Zn  Zn7  1  0.500000  0.500000  0.500000  1.0  1.1847
  Zn  Zn8  1  0.500000  0.500000  0.000000  1.0  1.1847
  Zn  Zn9  1  0.500000  0.000000  0.000000  1.0  1.1847
  Zn  Zn10  1  0.000000  0.500000  0.000000  1.0  1.1847
  H  H11  1  0.167600  0.802600  0.660200  1.0  0.0995
  H  H12  1  0.087200  0.723000  0.727400  1.0  0.082
  H  H13  1  0.635000  0.832400  0.660200  1.0  0.0985
  H  H14  1  0.635800  0.912800  0.727400  1.0  0.0818
  H  H15  1  0.197400  0.365000  0.660200  1.0  0.0999
  H  H16  1  0.277000  0.364200  0.727400  1.0  0.0818
  H  H17  1  0.832400  0.197400  0.660200  1.0  0.0995
  H  H18  1  0.912800  0.277000  0.727400  1.0  0.0823
  H  H19  1  0.365000  0.167600  0.660200  1.0  0.0987
  H  H20  1  0.364200  0.087200  0.727400  1.0  0.082
  H  H21  1  0.802600  0.635000  0.660200  1.0  0.1001
  H  H22  1  0.723000  0.635800  0.727400  1.0  0.0818
  H  H23  1  0.365000  0.197400  0.839800  1.0  0.0998
  H  H24  1  0.364200  0.277000  0.772600  1.0  0.0818
  H  H25  1  0.802600  0.167600  0.839800  1.0  0.0985
  H  H26  1  0.723000  0.087200  0.772600  1.0  0.0824
  H  H27  1  0.832400  0.635000  0.839800  1.0  0.1003
  H  H28  1  0.912800  0.635800  0.772600  1.0  0.0815
  H  H29  1  0.635000  0.802600  0.839800  1.0  0.0988
  H  H30  1  0.635800  0.723000  0.772600  1.0  0.0821
  H  H31  1  0.197400  0.832400  0.839800  1.0  0.0993
  H  H32  1  0.277000  0.912800  0.772600  1.0  0.0818
  H  H33  1  0.167600  0.365000  0.839800  1.0  0.1006
  H  H34  1  0.087200  0.364200  0.772600  1.0  0.0817
  H  H35  1  0.832400  0.197400  0.339800  1.0  0.0995
  H  H36  1  0.912800  0.277000  0.272600  1.0  0.082
  H  H37  1  0.365000  0.167600  0.339800  1.0  0.0997
  H  H38  1  0.364200  0.087200  0.272600  1.0  0.0821
  H  H39  1  0.802600  0.635000  0.339800  1.0  0.1
  H  H40  1  0.723000  0.635800  0.272600  1.0  0.0822
  H  H41  1  0.167600  0.802600  0.339800  1.0  0.0992
  H  H42  1  0.087200  0.723000  0.272600  1.0  0.0821
  H  H43  1  0.635000  0.832400  0.339800  1.0  0.098
  H  H44  1  0.635800  0.912800  0.272600  1.0  0.0822
  H  H45  1  0.197400  0.365000  0.339800  1.0  0.1005
  H  H46  1  0.277000  0.364200  0.272600  1.0  0.0814
  H  H47  1  0.635000  0.802600  0.160200  1.0  0.0997
  H  H48  1  0.635800  0.723000  0.227400  1.0  0.0821
  H  H49  1  0.197400  0.832400  0.160200  1.0  0.0985
  H  H50  1  0.277000  0.912800  0.227400  1.0  0.0813
  H  H51  1  0.167600  0.365000  0.160200  1.0  0.1
  H  H52  1  0.087200  0.364200  0.227400  1.0  0.0817
  H  H53  1  0.365000  0.197400  0.160200  1.0  0.0992
  H  H54  1  0.364200  0.277000  0.227400  1.0  0.0818
  H  H55  1  0.802600  0.167600  0.160200  1.0  0.0986
  H  H56  1  0.723000  0.087200  0.227400  1.0  0.0824
  H  H57  1  0.832400  0.635000  0.160200  1.0  0.1004
  H  H58  1  0.912800  0.635800  0.227400  1.0  0.0815
  C  C59  1  0.131900  0.650000  0.640000  1.0  0.7295
  C  C60  1  0.150900  0.741100  0.695100  1.0  -0.0553
  C  C61  1  0.518100  0.868100  0.640000  1.0  0.73
  C  C62  1  0.590200  0.849100  0.695100  1.0  -0.0564
  C  C63  1  0.350000  0.481900  0.640000  1.0  0.7312
  C  C64  1  0.258900  0.409800  0.695100  1.0  -0.057
  C  C65  1  0.868100  0.350000  0.640000  1.0  0.73
  C  C66  1  0.849100  0.258900  0.695100  1.0  -0.0558
  C  C67  1  0.481900  0.131900  0.640000  1.0  0.7293
  C  C68  1  0.409800  0.150900  0.695100  1.0  -0.0549
  C  C69  1  0.650000  0.518100  0.640000  1.0  0.7307
  C  C70  1  0.741100  0.590200  0.695100  1.0  -0.0571
  C  C71  1  0.481900  0.350000  0.860000  1.0  0.7299
  C  C72  1  0.409800  0.258900  0.804900  1.0  -0.0554
  C  C73  1  0.650000  0.131900  0.860000  1.0  0.7307
  C  C74  1  0.741100  0.150900  0.804900  1.0  -0.0558
  C  C75  1  0.868100  0.518100  0.860000  1.0  0.7318
  C  C76  1  0.849100  0.590200  0.804900  1.0  -0.0571
  C  C77  1  0.518100  0.650000  0.860000  1.0  0.7305
  C  C78  1  0.590200  0.741100  0.804900  1.0  -0.0561
  C  C79  1  0.350000  0.868100  0.860000  1.0  0.7305
  C  C80  1  0.258900  0.849100  0.804900  1.0  -0.0555
  C  C81  1  0.131900  0.481900  0.860000  1.0  0.7316
  C  C82  1  0.150900  0.409800  0.804900  1.0  -0.0569
  C  C83  1  0.868100  0.350000  0.360000  1.0  0.7303
  C  C84  1  0.849100  0.258900  0.304900  1.0  -0.0559
  C  C85  1  0.481900  0.131900  0.360000  1.0  0.7306
  C  C86  1  0.409800  0.150900  0.304900  1.0  -0.0553
  C  C87  1  0.650000  0.518100  0.360000  1.0  0.7315
  C  C88  1  0.741100  0.590200  0.304900  1.0  -0.0572
  C  C89  1  0.131900  0.650000  0.360000  1.0  0.7303
  C  C90  1  0.150900  0.741100  0.304900  1.0  -0.0553
  C  C91  1  0.518100  0.868100  0.360000  1.0  0.7308
  C  C92  1  0.590200  0.849100  0.304900  1.0  -0.0561
  C  C93  1  0.350000  0.481900  0.360000  1.0  0.7322
  C  C94  1  0.258900  0.409800  0.304900  1.0  -0.0567
  C  C95  1  0.518100  0.650000  0.140000  1.0  0.7294
  C  C96  1  0.590200  0.741100  0.195100  1.0  -0.0567
  C  C97  1  0.350000  0.868100  0.140000  1.0  0.7295
  C  C98  1  0.258900  0.849100  0.195100  1.0  -0.0551
  C  C99  1  0.131900  0.481900  0.140000  1.0  0.731
  C  C100  1  0.150900  0.409800  0.195100  1.0  -0.057
  C  C101  1  0.481900  0.350000  0.140000  1.0  0.7301
  C  C102  1  0.409800  0.258900  0.195100  1.0  -0.0546
  C  C103  1  0.650000  0.131900  0.140000  1.0  0.7298
  C  C104  1  0.741100  0.150900  0.195100  1.0  -0.0561
  C  C105  1  0.868100  0.518100  0.140000  1.0  0.7307
  C  C106  1  0.849100  0.590200  0.195100  1.0  -0.0572
  O  O107  1  0.195690  0.615230  0.645590  1.0  -0.6932
  O  O108  1  0.055000  0.617310  0.590430  1.0  -0.6422
  O  O109  1  0.419540  0.804310  0.645590  1.0  -0.6927
  O  O110  1  0.562310  0.945000  0.590430  1.0  -0.6435
  O  O111  1  0.384770  0.580460  0.645590  1.0  -0.6932
  O  O112  1  0.382690  0.437690  0.590430  1.0  -0.6417
  O  O113  1  0.804310  0.384770  0.645590  1.0  -0.6928
  O  O114  1  0.945000  0.382690  0.590430  1.0  -0.6415
  O  O115  1  0.580460  0.195690  0.645590  1.0  -0.6922
  O  O116  1  0.437690  0.055000  0.590430  1.0  -0.6422
  O  O117  1  0.615230  0.419540  0.645590  1.0  -0.6938
  O  O118  1  0.617310  0.562310  0.590430  1.0  -0.642
  O  O119  1  0.580460  0.384770  0.854410  1.0  -0.693
  O  O120  1  0.437690  0.382690  0.909570  1.0  -0.6428
  O  O121  1  0.615230  0.195690  0.854410  1.0  -0.6927
  O  O122  1  0.617310  0.055000  0.909570  1.0  -0.6429
  O  O123  1  0.804310  0.419540  0.854410  1.0  -0.6937
  O  O124  1  0.945000  0.562310  0.909570  1.0  -0.6429
  O  O125  1  0.419540  0.615230  0.854410  1.0  -0.6935
  O  O126  1  0.562310  0.617310  0.909570  1.0  -0.6414
  O  O127  1  0.384770  0.804310  0.854410  1.0  -0.6928
  O  O128  1  0.382690  0.945000  0.909570  1.0  -0.6429
  O  O129  1  0.195690  0.580460  0.854410  1.0  -0.6942
  O  O130  1  0.055000  0.437690  0.909570  1.0  -0.6417
  O  O131  1  0.804310  0.384770  0.354410  1.0  -0.693
  O  O132  1  0.945000  0.382690  0.409570  1.0  -0.6422
  O  O133  1  0.580460  0.195690  0.354410  1.0  -0.6925
  O  O134  1  0.437690  0.055000  0.409570  1.0  -0.6438
  O  O135  1  0.615230  0.419540  0.354410  1.0  -0.6944
  O  O136  1  0.617310  0.562310  0.409570  1.0  -0.6426
  O  O137  1  0.195690  0.615230  0.354410  1.0  -0.6936
  O  O138  1  0.055000  0.617310  0.409570  1.0  -0.6428
  O  O139  1  0.419540  0.804310  0.354410  1.0  -0.693
  O  O140  1  0.562310  0.945000  0.409570  1.0  -0.6427
  O  O141  1  0.384770  0.580460  0.354410  1.0  -0.6934
  O  O142  1  0.382690  0.437690  0.409570  1.0  -0.6431
  O  O143  1  0.419540  0.615230  0.145590  1.0  -0.693
  O  O144  1  0.562310  0.617310  0.090430  1.0  -0.6427
  O  O145  1  0.384770  0.804310  0.145590  1.0  -0.6928
  O  O146  1  0.382690  0.945000  0.090430  1.0  -0.6438
  O  O147  1  0.195690  0.580460  0.145590  1.0  -0.6936
  O  O148  1  0.055000  0.437690  0.090430  1.0  -0.6425
  O  O149  1  0.580460  0.384770  0.145590  1.0  -0.6931
  O  O150  1  0.437690  0.382690  0.090430  1.0  -0.6421
  O  O151  1  0.615230  0.195690  0.145590  1.0  -0.6919
  O  O152  1  0.617310  0.055000  0.090430  1.0  -0.6427
  O  O153  1  0.804310  0.419540  0.145590  1.0  -0.6934
  O  O154  1  0.945000  0.562310  0.090430  1.0  -0.6435
  O  O155  1  0.234850  0.765150  0.750000  1.0  -0.3331
  O  O156  1  0.530300  0.765150  0.750000  1.0  -0.3329
  O  O157  1  0.234850  0.469700  0.750000  1.0  -0.3342
  O  O158  1  0.765150  0.234850  0.750000  1.0  -0.3325
  O  O159  1  0.469700  0.234850  0.750000  1.0  -0.3329
  O  O160  1  0.765150  0.530300  0.750000  1.0  -0.3344
  O  O161  1  0.765150  0.234850  0.250000  1.0  -0.3325
  O  O162  1  0.469700  0.234850  0.250000  1.0  -0.3329
  O  O163  1  0.765150  0.530300  0.250000  1.0  -0.3344
  O  O164  1  0.234850  0.765150  0.250000  1.0  -0.3331
  O  O165  1  0.530300  0.765150  0.250000  1.0  -0.3329
  O  O166  1  0.234850  0.469700  0.250000  1.0  -0.3342
