# generated using pymatgen
data_Gd2Zn3H24(C4O5)6
_symmetry_space_group_name_H-M   'P 1'
_cell_length_a   14.51020000
_cell_length_b   14.51020000
_cell_length_c   15.83200000
_cell_angle_alpha   90.00000000
_cell_angle_beta   90.00000000
_cell_angle_gamma   120.00000000
_symmetry_Int_Tables_number   1
_chemical_formula_structural   Gd2Zn3H24(C4O5)6
_chemical_formula_sum   'Gd4 Zn6 H48 C48 O60'
_cell_volume   2886.77682392
_cell_formula_units_Z   2
loop_
 _symmetry_equiv_pos_site_id
 _symmetry_equiv_pos_as_xyz
  1  'x, y, z'
loop_
 _atom_site_type_symbol
 _atom_site_label
 _atom_site_symmetry_multiplicity
 _atom_site_fract_x
 _atom_site_fract_y
 _atom_site_fract_z
 _atom_site_occupancy
 _atom_site_charge
  Gd  Gd1  1  0.666667  0.333333  0.250000  1.0  2.0884
  Gd  Gd2  1  0.333333  0.666667  0.250000  1.0  2.0884
  Gd  Gd3  1  0.333333  0.666667  0.750000  1.0  2.0884
  Gd  Gd4  1  0.666667  0.333333  0.750000  1.0  2.0884
  Zn  Zn5  1  0.000000  0.500000  0.000000  1.0  1.1709
  Zn  Zn6  1  0.500000  0.500000  0.000000  1.0  1.1709
  Zn  Zn7  1  0.500000  0.000000  0.000000  1.0  1.1709
  Zn  Zn8  1  0.500000  0.000000  0.500000  1.0  1.1709
  Zn  Zn9  1  0.500000  0.500000  0.500000  1.0  1.1709
  Zn  Zn10  1  0.000000  0.500000  0.500000  1.0  1.1709
  H  H11  1  0.833700  0.196600  0.159200  1.0  0.0992
  H  H12  1  0.915700  0.279000  0.227000  1.0  0.076
  H  H13  1  0.803400  0.637100  0.159200  1.0  0.1008
  H  H14  1  0.721000  0.636700  0.227000  1.0  0.0765
  H  H15  1  0.362900  0.166300  0.159200  1.0  0.0985
  H  H16  1  0.363300  0.084300  0.227000  1.0  0.0766
  H  H17  1  0.166300  0.803400  0.159200  1.0  0.0999
  H  H18  1  0.084300  0.721000  0.227000  1.0  0.0763
  H  H19  1  0.196600  0.362900  0.159200  1.0  0.1002
  H  H20  1  0.279000  0.363300  0.227000  1.0  0.0768
  H  H21  1  0.637100  0.833700  0.159200  1.0  0.0985
  H  H22  1  0.636700  0.915700  0.227000  1.0  0.0759
  H  H23  1  0.196600  0.833700  0.340800  1.0  0.0981
  H  H24  1  0.279000  0.915700  0.273000  1.0  0.0761
  H  H25  1  0.637100  0.803400  0.340800  1.0  0.0987
  H  H26  1  0.636700  0.721000  0.273000  1.0  0.0758
  H  H27  1  0.166300  0.362900  0.340800  1.0  0.1
  H  H28  1  0.084300  0.363300  0.273000  1.0  0.0765
  H  H29  1  0.803400  0.166300  0.340800  1.0  0.0976
  H  H30  1  0.721000  0.084300  0.273000  1.0  0.0763
  H  H31  1  0.362900  0.196600  0.340800  1.0  0.0987
  H  H32  1  0.363300  0.279000  0.273000  1.0  0.0758
  H  H33  1  0.833700  0.637100  0.340800  1.0  0.1002
  H  H34  1  0.915700  0.636700  0.273000  1.0  0.0761
  H  H35  1  0.166300  0.803400  0.840800  1.0  0.0993
  H  H36  1  0.084300  0.721000  0.773000  1.0  0.0761
  H  H37  1  0.196600  0.362900  0.840800  1.0  0.0997
  H  H38  1  0.279000  0.363300  0.773000  1.0  0.076
  H  H39  1  0.637100  0.833700  0.840800  1.0  0.0973
  H  H40  1  0.636700  0.915700  0.773000  1.0  0.0759
  H  H41  1  0.833700  0.196600  0.840800  1.0  0.0986
  H  H42  1  0.915700  0.279000  0.773000  1.0  0.0757
  H  H43  1  0.803400  0.637100  0.840800  1.0  0.1002
  H  H44  1  0.721000  0.636700  0.773000  1.0  0.0772
  H  H45  1  0.362900  0.166300  0.840800  1.0  0.0984
  H  H46  1  0.363300  0.084300  0.773000  1.0  0.0764
  H  H47  1  0.803400  0.166300  0.659200  1.0  0.0982
  H  H48  1  0.721000  0.084300  0.727000  1.0  0.0763
  H  H49  1  0.362900  0.196600  0.659200  1.0  0.0988
  H  H50  1  0.363300  0.279000  0.727000  1.0  0.0758
  H  H51  1  0.833700  0.637100  0.659200  1.0  0.1011
  H  H52  1  0.915700  0.636700  0.727000  1.0  0.076
  H  H53  1  0.196600  0.833700  0.659200  1.0  0.0987
  H  H54  1  0.279000  0.915700  0.727000  1.0  0.076
  H  H55  1  0.637100  0.803400  0.659200  1.0  0.0999
  H  H56  1  0.636700  0.721000  0.727000  1.0  0.0763
  H  H57  1  0.166300  0.362900  0.659200  1.0  0.1002
  H  H58  1  0.084300  0.363300  0.727000  1.0  0.0769
  C  C59  1  0.868000  0.350200  0.139000  1.0  0.6982
  C  C60  1  0.850300  0.259500  0.194400  1.0  -0.0434
  C  C61  1  0.649800  0.517800  0.139000  1.0  0.6985
  C  C62  1  0.740500  0.590800  0.194400  1.0  -0.0441
  C  C63  1  0.482200  0.132000  0.139000  1.0  0.6978
  C  C64  1  0.409200  0.149700  0.194400  1.0  -0.0419
  C  C65  1  0.132000  0.649800  0.139000  1.0  0.6981
  C  C66  1  0.149700  0.740500  0.194400  1.0  -0.0429
  C  C67  1  0.350200  0.482200  0.139000  1.0  0.6988
  C  C68  1  0.259500  0.409200  0.194400  1.0  -0.0428
  C  C69  1  0.517800  0.868000  0.139000  1.0  0.6998
  C  C70  1  0.590800  0.850300  0.194400  1.0  -0.0439
  C  C71  1  0.350200  0.868000  0.361000  1.0  0.6965
  C  C72  1  0.259500  0.850300  0.305600  1.0  -0.042
  C  C73  1  0.517800  0.649800  0.361000  1.0  0.6966
  C  C74  1  0.590800  0.740500  0.305600  1.0  -0.043
  C  C75  1  0.132000  0.482200  0.361000  1.0  0.6977
  C  C76  1  0.149700  0.409200  0.305600  1.0  -0.0425
  C  C77  1  0.649800  0.132000  0.361000  1.0  0.6978
  C  C78  1  0.740500  0.149700  0.305600  1.0  -0.0431
  C  C79  1  0.482200  0.350200  0.361000  1.0  0.6965
  C  C80  1  0.409200  0.259500  0.305600  1.0  -0.0422
  C  C81  1  0.868000  0.517800  0.361000  1.0  0.6968
  C  C82  1  0.850300  0.590800  0.305600  1.0  -0.0431
  C  C83  1  0.132000  0.649800  0.861000  1.0  0.6966
  C  C84  1  0.149700  0.740500  0.805600  1.0  -0.0421
  C  C85  1  0.350200  0.482200  0.861000  1.0  0.6976
  C  C86  1  0.259500  0.409200  0.805600  1.0  -0.0422
  C  C87  1  0.517800  0.868000  0.861000  1.0  0.6979
  C  C88  1  0.590800  0.850300  0.805600  1.0  -0.043
  C  C89  1  0.868000  0.350200  0.861000  1.0  0.6968
  C  C90  1  0.850300  0.259500  0.805600  1.0  -0.0431
  C  C91  1  0.649800  0.517800  0.861000  1.0  0.697
  C  C92  1  0.740500  0.590800  0.805600  1.0  -0.0431
  C  C93  1  0.482200  0.132000  0.861000  1.0  0.6964
  C  C94  1  0.409200  0.149700  0.805600  1.0  -0.0418
  C  C95  1  0.649800  0.132000  0.639000  1.0  0.6995
  C  C96  1  0.740500  0.149700  0.694400  1.0  -0.0434
  C  C97  1  0.482200  0.350200  0.639000  1.0  0.6987
  C  C98  1  0.409200  0.259500  0.694400  1.0  -0.0421
  C  C99  1  0.868000  0.517800  0.639000  1.0  0.6978
  C  C100  1  0.850300  0.590800  0.694400  1.0  -0.0442
  C  C101  1  0.350200  0.868000  0.639000  1.0  0.6981
  C  C102  1  0.259500  0.850300  0.694400  1.0  -0.0425
  C  C103  1  0.517800  0.649800  0.639000  1.0  0.6974
  C  C104  1  0.590800  0.740500  0.694400  1.0  -0.0441
  C  C105  1  0.132000  0.482200  0.639000  1.0  0.6995
  C  C106  1  0.149700  0.409200  0.694400  1.0  -0.0431
  O  O107  1  0.944200  0.383000  0.090700  1.0  -0.6319
  O  O108  1  0.804500  0.385300  0.145800  1.0  -0.6703
  O  O109  1  0.617000  0.561200  0.090700  1.0  -0.6328
  O  O110  1  0.614700  0.419200  0.145800  1.0  -0.6709
  O  O111  1  0.438800  0.055800  0.090700  1.0  -0.6331
  O  O112  1  0.580800  0.195500  0.145800  1.0  -0.6692
  O  O113  1  0.055800  0.617000  0.090700  1.0  -0.6315
  O  O114  1  0.195500  0.614700  0.145800  1.0  -0.6703
  O  O115  1  0.383000  0.438800  0.090700  1.0  -0.6327
  O  O116  1  0.385300  0.580800  0.145800  1.0  -0.6705
  O  O117  1  0.561200  0.944200  0.090700  1.0  -0.633
  O  O118  1  0.419200  0.804500  0.145800  1.0  -0.6702
  O  O119  1  0.383000  0.944200  0.409300  1.0  -0.6328
  O  O120  1  0.385300  0.804500  0.354200  1.0  -0.6693
  O  O121  1  0.561200  0.617000  0.409300  1.0  -0.6326
  O  O122  1  0.419200  0.614700  0.354200  1.0  -0.6702
  O  O123  1  0.055800  0.438800  0.409300  1.0  -0.6329
  O  O124  1  0.195500  0.580800  0.354200  1.0  -0.6711
  O  O125  1  0.617000  0.055800  0.409300  1.0  -0.633
  O  O126  1  0.614700  0.195500  0.354200  1.0  -0.6697
  O  O127  1  0.438800  0.383000  0.409300  1.0  -0.632
  O  O128  1  0.580800  0.385300  0.354200  1.0  -0.6698
  O  O129  1  0.944200  0.561200  0.409300  1.0  -0.6324
  O  O130  1  0.804500  0.419200  0.354200  1.0  -0.6708
  O  O131  1  0.055800  0.617000  0.909300  1.0  -0.6326
  O  O132  1  0.195500  0.614700  0.854200  1.0  -0.6702
  O  O133  1  0.383000  0.438800  0.909300  1.0  -0.6337
  O  O134  1  0.385300  0.580800  0.854200  1.0  -0.6705
  O  O135  1  0.561200  0.944200  0.909300  1.0  -0.6324
  O  O136  1  0.419200  0.804500  0.854200  1.0  -0.6701
  O  O137  1  0.944200  0.383000  0.909300  1.0  -0.6324
  O  O138  1  0.804500  0.385300  0.854200  1.0  -0.67
  O  O139  1  0.617000  0.561200  0.909300  1.0  -0.6319
  O  O140  1  0.614700  0.419200  0.854200  1.0  -0.6713
  O  O141  1  0.438800  0.055800  0.909300  1.0  -0.6337
  O  O142  1  0.580800  0.195500  0.854200  1.0  -0.6688
  O  O143  1  0.617000  0.055800  0.590700  1.0  -0.6333
  O  O144  1  0.614700  0.195500  0.645800  1.0  -0.6696
  O  O145  1  0.438800  0.383000  0.590700  1.0  -0.632
  O  O146  1  0.580800  0.385300  0.645800  1.0  -0.6705
  O  O147  1  0.944200  0.561200  0.590700  1.0  -0.6338
  O  O148  1  0.804500  0.419200  0.645800  1.0  -0.6705
  O  O149  1  0.383000  0.944200  0.590700  1.0  -0.6341
  O  O150  1  0.385300  0.804500  0.645800  1.0  -0.6697
  O  O151  1  0.561200  0.617000  0.590700  1.0  -0.633
  O  O152  1  0.419200  0.614700  0.645800  1.0  -0.6703
  O  O153  1  0.055800  0.438800  0.590700  1.0  -0.6328
  O  O154  1  0.195500  0.580800  0.645800  1.0  -0.6709
  O  O155  1  0.765300  0.234700  0.250000  1.0  -0.3352
  O  O156  1  0.765300  0.530600  0.250000  1.0  -0.3372
  O  O157  1  0.469400  0.234700  0.250000  1.0  -0.3362
  O  O158  1  0.234700  0.765300  0.250000  1.0  -0.3364
  O  O159  1  0.234700  0.469400  0.250000  1.0  -0.3369
  O  O160  1  0.530600  0.765300  0.250000  1.0  -0.3354
  O  O161  1  0.234700  0.765300  0.750000  1.0  -0.3364
  O  O162  1  0.234700  0.469400  0.750000  1.0  -0.3369
  O  O163  1  0.530600  0.765300  0.750000  1.0  -0.3354
  O  O164  1  0.765300  0.234700  0.750000  1.0  -0.3352
  O  O165  1  0.765300  0.530600  0.750000  1.0  -0.3372
  O  O166  1  0.469400  0.234700  0.750000  1.0  -0.3362
