# generated using pymatgen
data_NaCo3H9(C9O7)2
_symmetry_space_group_name_H-M   'P 1'
_cell_length_a   18.12490000
_cell_length_b   12.10640000
_cell_length_c   17.73330000
_cell_angle_alpha   90.00000000
_cell_angle_beta   107.30100000
_cell_angle_gamma   90.00000000
_symmetry_Int_Tables_number   1
_chemical_formula_structural   NaCo3H9(C9O7)2
_chemical_formula_sum   'Na4 Co12 H36 C72 O56'
_cell_volume   3715.11633645
_cell_formula_units_Z   4
loop_
 _symmetry_equiv_pos_site_id
 _symmetry_equiv_pos_as_xyz
  1  'x, y, z'
loop_
 _atom_site_type_symbol
 _atom_site_label
 _atom_site_symmetry_multiplicity
 _atom_site_fract_x
 _atom_site_fract_y
 _atom_site_fract_z
 _atom_site_occupancy
 _atom_site_charge
  Na  Na1  1  0.599700  0.002400  0.994500  1.0  0.9685
  Na  Na2  1  0.099700  0.502400  0.994500  1.0  0.9685
  Na  Na3  1  0.400300  0.002400  0.005500  1.0  0.9807
  Na  Na4  1  0.900300  0.502400  0.005500  1.0  0.9807
  Co  Co5  1  0.789980  0.157180  0.686430  1.0  1.0306
  Co  Co6  1  0.667140  0.345780  0.661210  1.0  1.0901
  Co  Co7  1  0.806260  0.313830  0.836210  1.0  0.9894
  Co  Co8  1  0.289980  0.657180  0.686430  1.0  1.0305
  Co  Co9  1  0.167140  0.845780  0.661210  1.0  1.0901
  Co  Co10  1  0.306260  0.813830  0.836210  1.0  0.9892
  Co  Co11  1  0.210020  0.157180  0.313570  1.0  1.0302
  Co  Co12  1  0.332860  0.345780  0.338790  1.0  1.0846
  Co  Co13  1  0.193740  0.313830  0.163790  1.0  0.9875
  Co  Co14  1  0.710020  0.657180  0.313570  1.0  1.0304
  Co  Co15  1  0.832860  0.845780  0.338790  1.0  1.0846
  Co  Co16  1  0.693740  0.813830  0.163790  1.0  0.9876
  H  H17  1  0.464800  0.952900  0.871900  1.0  0.3781
  H  H18  1  0.466700  0.065800  0.876100  1.0  0.4328
  H  H19  1  0.548900  0.236200  0.440900  1.0  0.0997
  H  H20  1  0.531400  0.045100  0.250200  1.0  0.1052
  H  H21  1  0.719100  0.016500  0.444300  1.0  0.1105
  H  H22  1  0.544700  0.554400  0.746700  1.0  0.1136
  H  H23  1  0.513900  0.752500  0.919800  1.0  0.106
  H  H24  1  0.721400  0.602500  0.946500  1.0  0.1104
  H  H25  1  0.699000  0.204000  0.766000  1.0  0.4357
  H  H26  1  0.964800  0.452900  0.871900  1.0  0.3781
  H  H27  1  0.966700  0.565800  0.876100  1.0  0.4328
  H  H28  1  0.048900  0.736200  0.440900  1.0  0.0997
  H  H29  1  0.031400  0.545100  0.250200  1.0  0.1052
  H  H30  1  0.219100  0.516500  0.444300  1.0  0.1105
  H  H31  1  0.044700  0.054400  0.746700  1.0  0.1136
  H  H32  1  0.013900  0.252500  0.919800  1.0  0.106
  H  H33  1  0.221400  0.102500  0.946500  1.0  0.1104
  H  H34  1  0.199000  0.704000  0.766000  1.0  0.4357
  H  H35  1  0.535200  0.952900  0.128100  1.0  0.3791
  H  H36  1  0.533300  0.065800  0.123900  1.0  0.432
  H  H37  1  0.451100  0.236200  0.559100  1.0  0.0999
  H  H38  1  0.468600  0.045100  0.749800  1.0  0.105
  H  H39  1  0.280900  0.016500  0.555700  1.0  0.1097
  H  H40  1  0.455300  0.554400  0.253300  1.0  0.1131
  H  H41  1  0.486100  0.752500  0.080200  1.0  0.106
  H  H42  1  0.278600  0.602500  0.053500  1.0  0.1106
  H  H43  1  0.301000  0.204000  0.234000  1.0  0.4355
  H  H44  1  0.035200  0.452900  0.128100  1.0  0.3791
  H  H45  1  0.033300  0.565800  0.123900  1.0  0.432
  H  H46  1  0.951100  0.736200  0.559100  1.0  0.0999
  H  H47  1  0.968600  0.545100  0.749800  1.0  0.105
  H  H48  1  0.780900  0.516500  0.555700  1.0  0.1097
  H  H49  1  0.955300  0.054400  0.253300  1.0  0.1131
  H  H50  1  0.986100  0.252500  0.080200  1.0  0.106
  H  H51  1  0.778600  0.102500  0.053500  1.0  0.1106
  H  H52  1  0.801000  0.704000  0.234000  1.0  0.4355
  C  C53  1  0.641500  0.134100  0.454700  1.0  -0.1788
  C  C54  1  0.570300  0.181500  0.415100  1.0  -0.014
  C  C55  1  0.530600  0.150000  0.339000  1.0  -0.1218
  C  C56  1  0.559900  0.068200  0.301900  1.0  -0.0601
  C  C57  1  0.631600  0.018600  0.340000  1.0  -0.1643
  C  C58  1  0.671500  0.051000  0.417200  1.0  0.0234
  C  C59  1  0.682700  0.171200  0.537800  1.0  0.7037
  C  C60  1  0.453500  0.202200  0.298100  1.0  0.6959
  C  C61  1  0.665000  0.928000  0.301800  1.0  0.712
  C  C62  1  0.640700  0.567700  0.841000  1.0  -0.1313
  C  C63  1  0.564900  0.587600  0.797200  1.0  0.0048
  C  C64  1  0.517500  0.656200  0.826500  1.0  -0.1268
  C  C65  1  0.546400  0.706900  0.899700  1.0  -0.0076
  C  C66  1  0.624300  0.690100  0.943900  1.0  -0.1565
  C  C67  1  0.670000  0.617800  0.915300  1.0  0.0156
  C  C68  1  0.688500  0.486300  0.810800  1.0  0.751
  C  C69  1  0.431600  0.667400  0.784600  1.0  0.6951
  C  C70  1  0.655100  0.740500  0.024600  1.0  0.6719
  C  C71  1  0.141500  0.634100  0.454700  1.0  -0.1788
  C  C72  1  0.070300  0.681500  0.415100  1.0  -0.014
  C  C73  1  0.030600  0.650000  0.339000  1.0  -0.1218
  C  C74  1  0.059900  0.568200  0.301900  1.0  -0.0601
  C  C75  1  0.131600  0.518600  0.340000  1.0  -0.1643
  C  C76  1  0.171500  0.551000  0.417200  1.0  0.0234
  C  C77  1  0.182700  0.671200  0.537800  1.0  0.7037
  C  C78  1  0.953500  0.702200  0.298100  1.0  0.6959
  C  C79  1  0.165000  0.428000  0.301800  1.0  0.712
  C  C80  1  0.140700  0.067700  0.841000  1.0  -0.1313
  C  C81  1  0.064900  0.087600  0.797200  1.0  0.0048
  C  C82  1  0.017500  0.156200  0.826500  1.0  -0.1268
  C  C83  1  0.046400  0.206900  0.899700  1.0  -0.0076
  C  C84  1  0.124300  0.190100  0.943900  1.0  -0.1565
  C  C85  1  0.170000  0.117800  0.915300  1.0  0.0156
  C  C86  1  0.188500  0.986300  0.810800  1.0  0.751
  C  C87  1  0.931600  0.167400  0.784600  1.0  0.6951
  C  C88  1  0.155100  0.240500  0.024600  1.0  0.6719
  C  C89  1  0.358500  0.134100  0.545300  1.0  -0.1789
  C  C90  1  0.429700  0.181500  0.584900  1.0  -0.0128
  C  C91  1  0.469400  0.150000  0.661000  1.0  -0.1214
  C  C92  1  0.440100  0.068200  0.698100  1.0  -0.0595
  C  C93  1  0.368400  0.018600  0.660000  1.0  -0.1648
  C  C94  1  0.328500  0.051000  0.582800  1.0  0.0223
  C  C95  1  0.317300  0.171200  0.462200  1.0  0.702
  C  C96  1  0.546500  0.202200  0.701900  1.0  0.6925
  C  C97  1  0.335000  0.928000  0.698200  1.0  0.7122
  C  C98  1  0.359300  0.567700  0.159000  1.0  -0.132
  C  C99  1  0.435100  0.587600  0.202800  1.0  0.0043
  C  C100  1  0.482500  0.656200  0.173500  1.0  -0.1266
  C  C101  1  0.453600  0.706900  0.100300  1.0  -0.0071
  C  C102  1  0.375700  0.690100  0.056100  1.0  -0.1557
  C  C103  1  0.330000  0.617800  0.084700  1.0  0.0142
  C  C104  1  0.311500  0.486300  0.189200  1.0  0.7523
  C  C105  1  0.568400  0.667400  0.215400  1.0  0.6949
  C  C106  1  0.344900  0.740500  0.975400  1.0  0.6695
  C  C107  1  0.858500  0.634100  0.545300  1.0  -0.1789
  C  C108  1  0.929700  0.681500  0.584900  1.0  -0.0128
  C  C109  1  0.969400  0.650000  0.661000  1.0  -0.1214
  C  C110  1  0.940100  0.568200  0.698100  1.0  -0.0595
  C  C111  1  0.868400  0.518600  0.660000  1.0  -0.1648
  C  C112  1  0.828500  0.551000  0.582800  1.0  0.0223
  C  C113  1  0.817300  0.671200  0.462200  1.0  0.702
  C  C114  1  0.046500  0.702200  0.701900  1.0  0.6925
  C  C115  1  0.835000  0.428000  0.698200  1.0  0.7122
  C  C116  1  0.859300  0.067700  0.159000  1.0  -0.132
  C  C117  1  0.935100  0.087600  0.202800  1.0  0.0043
  C  C118  1  0.982500  0.156200  0.173500  1.0  -0.1266
  C  C119  1  0.953600  0.206900  0.100300  1.0  -0.0071
  C  C120  1  0.875700  0.190100  0.056100  1.0  -0.1557
  C  C121  1  0.830000  0.117800  0.084700  1.0  0.0142
  C  C122  1  0.811500  0.986300  0.189200  1.0  0.7523
  C  C123  1  0.068400  0.167400  0.215400  1.0  0.6949
  C  C124  1  0.844900  0.240500  0.975400  1.0  0.6695
  O  O125  1  0.748300  0.133900  0.570200  1.0  -0.5972
  O  O126  1  0.645400  0.233600  0.568200  1.0  -0.5992
  O  O127  1  0.439600  0.294400  0.325500  1.0  -0.6195
  O  O128  1  0.406600  0.152600  0.242100  1.0  -0.5618
  O  O129  1  0.641900  0.920000  0.227800  1.0  -0.5667
  O  O130  1  0.713800  0.864900  0.347400  1.0  -0.6808
  O  O131  1  0.670700  0.475400  0.738200  1.0  -0.6316
  O  O132  1  0.743200  0.439600  0.862200  1.0  -0.5843
  O  O133  1  0.406900  0.643600  0.711500  1.0  -0.5874
  O  O134  1  0.389100  0.697600  0.823900  1.0  -0.6769
  O  O135  1  0.713700  0.703100  0.072900  1.0  -0.5807
  O  O136  1  0.619200  0.824100  0.041700  1.0  -0.6751
  O  O137  1  0.728400  0.235900  0.744800  1.0  -0.9585
  O  O138  1  0.476200  0.008200  0.902600  1.0  -0.9578
  O  O139  1  0.248300  0.633900  0.570200  1.0  -0.5972
  O  O140  1  0.145400  0.733600  0.568200  1.0  -0.5992
  O  O141  1  0.939600  0.794400  0.325500  1.0  -0.6195
  O  O142  1  0.906600  0.652600  0.242100  1.0  -0.5618
  O  O143  1  0.141900  0.420000  0.227800  1.0  -0.5667
  O  O144  1  0.213800  0.364900  0.347400  1.0  -0.6808
  O  O145  1  0.170700  0.975400  0.738200  1.0  -0.6316
  O  O146  1  0.243200  0.939600  0.862200  1.0  -0.5843
  O  O147  1  0.906900  0.143600  0.711500  1.0  -0.5874
  O  O148  1  0.889100  0.197600  0.823900  1.0  -0.6769
  O  O149  1  0.213700  0.203100  0.072900  1.0  -0.5807
  O  O150  1  0.119200  0.324100  0.041700  1.0  -0.6751
  O  O151  1  0.228400  0.735900  0.744800  1.0  -0.9588
  O  O152  1  0.976200  0.508200  0.902600  1.0  -0.9578
  O  O153  1  0.251700  0.133900  0.429800  1.0  -0.5961
  O  O154  1  0.354600  0.233600  0.431800  1.0  -0.5993
  O  O155  1  0.560400  0.294400  0.674500  1.0  -0.6215
  O  O156  1  0.593400  0.152600  0.757900  1.0  -0.5638
  O  O157  1  0.358100  0.920000  0.772200  1.0  -0.567
  O  O158  1  0.286200  0.864900  0.652600  1.0  -0.6819
  O  O159  1  0.329300  0.475400  0.261800  1.0  -0.633
  O  O160  1  0.256800  0.439600  0.137800  1.0  -0.5836
  O  O161  1  0.593100  0.643600  0.288500  1.0  -0.5925
  O  O162  1  0.610900  0.697600  0.176100  1.0  -0.676
  O  O163  1  0.286300  0.703100  0.927100  1.0  -0.5795
  O  O164  1  0.380800  0.824100  0.958300  1.0  -0.6748
  O  O165  1  0.271600  0.235900  0.255200  1.0  -0.958
  O  O166  1  0.523800  0.008200  0.097400  1.0  -0.9569
  O  O167  1  0.751700  0.633900  0.429800  1.0  -0.5965
  O  O168  1  0.854600  0.733600  0.431800  1.0  -0.5993
  O  O169  1  0.060400  0.794400  0.674500  1.0  -0.6215
  O  O170  1  0.093400  0.652600  0.757900  1.0  -0.5638
  O  O171  1  0.858100  0.420000  0.772200  1.0  -0.567
  O  O172  1  0.786200  0.364900  0.652600  1.0  -0.6819
  O  O173  1  0.829300  0.975400  0.261800  1.0  -0.633
  O  O174  1  0.756800  0.939600  0.137800  1.0  -0.5836
  O  O175  1  0.093100  0.143600  0.288500  1.0  -0.5926
  O  O176  1  0.110900  0.197600  0.176100  1.0  -0.676
  O  O177  1  0.786300  0.203100  0.927100  1.0  -0.5795
  O  O178  1  0.880800  0.324100  0.958300  1.0  -0.6748
  O  O179  1  0.771600  0.735900  0.255200  1.0  -0.9585
  O  O180  1  0.023800  0.508200  0.097400  1.0  -0.9569
