# generated using pymatgen
data_Nd(CO)6
_symmetry_space_group_name_H-M   'P 1'
_cell_length_a   8.59470000
_cell_length_b   13.18700000
_cell_length_c   9.64620000
_cell_angle_alpha   90.00000000
_cell_angle_beta   96.49600000
_cell_angle_gamma   90.00000000
_symmetry_Int_Tables_number   1
_chemical_formula_structural   Nd(CO)6
_chemical_formula_sum   'Nd4 C24 O24'
_cell_volume   1086.26484566
_cell_formula_units_Z   4
loop_
 _symmetry_equiv_pos_site_id
 _symmetry_equiv_pos_as_xyz
  1  'x, y, z'
loop_
 _atom_site_type_symbol
 _atom_site_label
 _atom_site_symmetry_multiplicity
 _atom_site_fract_x
 _atom_site_fract_y
 _atom_site_fract_z
 _atom_site_occupancy
 _atom_site_charge
  Nd  Nd1  1  0.549560  0.265540  0.496580  1.0  2.1935
  Nd  Nd2  1  0.950440  0.765540  0.003420  1.0  2.1929
  Nd  Nd3  1  0.450440  0.734460  0.503420  1.0  2.1928
  Nd  Nd4  1  0.049560  0.234460  0.996580  1.0  2.1937
  C  C5  1  0.544800  0.390500  0.747000  1.0  0.6695
  C  C6  1  0.526700  0.451900  0.876100  1.0  -0.1171
  C  C7  1  0.620300  0.427300  0.000500  1.0  -0.1129
  C  C8  1  0.407300  0.525600  0.872900  1.0  -0.1465
  C  C9  1  0.760800  0.358300  0.996700  1.0  0.6555
  C  C10  1  0.303100  0.551000  0.738400  1.0  0.7439
  C  C11  1  0.955200  0.890500  0.753000  1.0  0.6702
  C  C12  1  0.973300  0.951900  0.623900  1.0  -0.1174
  C  C13  1  0.879700  0.927300  0.499500  1.0  -0.1133
  C  C14  1  0.092700  0.025600  0.627100  1.0  -0.147
  C  C15  1  0.739200  0.858300  0.503300  1.0  0.6554
  C  C16  1  0.196900  0.051000  0.761600  1.0  0.7449
  C  C17  1  0.455200  0.609500  0.253000  1.0  0.6698
  C  C18  1  0.473300  0.548100  0.123900  1.0  -0.1173
  C  C19  1  0.379700  0.572700  0.999500  1.0  -0.1132
  C  C20  1  0.592700  0.474400  0.127100  1.0  -0.147
  C  C21  1  0.239200  0.641700  0.003300  1.0  0.6558
  C  C22  1  0.696900  0.449000  0.261600  1.0  0.7448
  C  C23  1  0.044800  0.109500  0.247000  1.0  0.6699
  C  C24  1  0.026700  0.048100  0.376100  1.0  -0.1169
  C  C25  1  0.120300  0.072700  0.500500  1.0  -0.1131
  C  C26  1  0.907300  0.974400  0.372900  1.0  -0.1464
  C  C27  1  0.260800  0.141700  0.496700  1.0  0.6564
  C  C28  1  0.803100  0.949000  0.238400  1.0  0.7439
  O  O29  1  0.546700  0.433500  0.630100  1.0  -0.6014
  O  O30  1  0.553700  0.294000  0.758500  1.0  -0.6366
  O  O31  1  0.788000  0.288300  0.085600  1.0  -0.624
  O  O32  1  0.853200  0.376000  0.903700  1.0  -0.6828
  O  O33  1  0.351600  0.615800  0.658800  1.0  -0.7938
  O  O34  1  0.171700  0.507700  0.719000  1.0  -0.549
  O  O35  1  0.953300  0.933500  0.869900  1.0  -0.603
  O  O36  1  0.946300  0.794000  0.741500  1.0  -0.6356
  O  O37  1  0.712000  0.788300  0.414400  1.0  -0.624
  O  O38  1  0.646800  0.876000  0.596300  1.0  -0.6835
  O  O39  1  0.148400  0.115800  0.841200  1.0  -0.7924
  O  O40  1  0.328300  0.007700  0.781000  1.0  -0.5514
  O  O41  1  0.453300  0.566500  0.369900  1.0  -0.6026
  O  O42  1  0.446300  0.706000  0.241500  1.0  -0.6343
  O  O43  1  0.212000  0.711700  0.914400  1.0  -0.6238
  O  O44  1  0.146800  0.624000  0.096300  1.0  -0.6811
  O  O45  1  0.648400  0.384200  0.341200  1.0  -0.7919
  O  O46  1  0.828300  0.492300  0.281000  1.0  -0.5511
  O  O47  1  0.046700  0.066500  0.130100  1.0  -0.6021
  O  O48  1  0.053700  0.206000  0.258500  1.0  -0.6345
  O  O49  1  0.288000  0.211700  0.585600  1.0  -0.6247
  O  O50  1  0.353200  0.124000  0.403700  1.0  -0.6809
  O  O51  1  0.851600  0.884200  0.158800  1.0  -0.7928
  O  O52  1  0.671700  0.992300  0.219000  1.0  -0.5475
