# generated using pymatgen
data_Cu2H11C22NO8
_symmetry_space_group_name_H-M   'P 1'
_cell_length_a   18.44800000
_cell_length_b   18.44800000
_cell_length_c   23.93900000
_cell_angle_alpha   90.00000000
_cell_angle_beta   90.00000000
_cell_angle_gamma   120.00000000
_symmetry_Int_Tables_number   1
_chemical_formula_structural   Cu2H11C22NO8
_chemical_formula_sum   'Cu12 H66 C132 N6 O48'
_cell_volume   7055.62054772
_cell_formula_units_Z   6
loop_
 _symmetry_equiv_pos_site_id
 _symmetry_equiv_pos_as_xyz
  1  'x, y, z'
loop_
 _atom_site_type_symbol
 _atom_site_label
 _atom_site_symmetry_multiplicity
 _atom_site_fract_x
 _atom_site_fract_y
 _atom_site_fract_z
 _atom_site_occupancy
 _atom_site_charge
  Cu  Cu1  1  0.524290  0.048580  0.044940  1.0  0.9053
  Cu  Cu2  1  0.951420  0.475710  0.044940  1.0  0.9048
  Cu  Cu3  1  0.524290  0.475710  0.044940  1.0  0.9054
  Cu  Cu4  1  0.475710  0.951420  0.544940  1.0  0.9054
  Cu  Cu5  1  0.048580  0.524290  0.544940  1.0  0.9053
  Cu  Cu6  1  0.475710  0.524290  0.544940  1.0  0.9044
  Cu  Cu7  1  0.048580  0.524290  0.955060  1.0  0.9038
  Cu  Cu8  1  0.475710  0.951420  0.955060  1.0  0.9056
  Cu  Cu9  1  0.475710  0.524290  0.955060  1.0  0.905
  Cu  Cu10  1  0.951420  0.475710  0.455060  1.0  0.905
  Cu  Cu11  1  0.524290  0.048580  0.455060  1.0  0.9043
  Cu  Cu12  1  0.524290  0.475710  0.455060  1.0  0.9038
  H  H13  1  0.290600  0.927200  0.138000  1.0  0.1181
  H  H14  1  0.072800  0.363400  0.138000  1.0  0.1182
  H  H15  1  0.636600  0.709400  0.138000  1.0  0.118
  H  H16  1  0.709400  0.072800  0.638000  1.0  0.1189
  H  H17  1  0.927200  0.636600  0.638000  1.0  0.1179
  H  H18  1  0.363400  0.290600  0.638000  1.0  0.119
  H  H19  1  0.927200  0.290600  0.862000  1.0  0.1183
  H  H20  1  0.363400  0.072800  0.862000  1.0  0.119
  H  H21  1  0.709400  0.636600  0.862000  1.0  0.1181
  H  H22  1  0.072800  0.709400  0.362000  1.0  0.1183
  H  H23  1  0.636600  0.927200  0.362000  1.0  0.1185
  H  H24  1  0.290600  0.363400  0.362000  1.0  0.1182
  H  H25  1  0.709400  0.072800  0.862000  1.0  0.1191
  H  H26  1  0.927200  0.636600  0.862000  1.0  0.1183
  H  H27  1  0.363400  0.290600  0.862000  1.0  0.1192
  H  H28  1  0.290600  0.927200  0.362000  1.0  0.1182
  H  H29  1  0.072800  0.363400  0.362000  1.0  0.1181
  H  H30  1  0.636600  0.709400  0.362000  1.0  0.1182
  H  H31  1  0.072800  0.709400  0.138000  1.0  0.1185
  H  H32  1  0.636600  0.927200  0.138000  1.0  0.1183
  H  H33  1  0.290600  0.363400  0.138000  1.0  0.118
  H  H34  1  0.927200  0.290600  0.638000  1.0  0.1179
  H  H35  1  0.363400  0.072800  0.638000  1.0  0.1187
  H  H36  1  0.709400  0.636600  0.638000  1.0  0.1178
  H  H37  1  0.235800  0.764200  0.010300  1.0  0.1216
  H  H38  1  0.230700  0.769300  0.218200  1.0  0.3307
  H  H39  1  0.094700  0.905300  0.165400  1.0  0.1224
  H  H40  1  0.235800  0.471600  0.010300  1.0  0.1219
  H  H41  1  0.230700  0.461400  0.218200  1.0  0.3308
  H  H42  1  0.094700  0.189400  0.165400  1.0  0.1227
  H  H43  1  0.528400  0.764200  0.010300  1.0  0.1215
  H  H44  1  0.538600  0.769300  0.218200  1.0  0.3302
  H  H45  1  0.810600  0.905300  0.165400  1.0  0.1228
  H  H46  1  0.764200  0.235800  0.510300  1.0  0.1214
  H  H47  1  0.769300  0.230700  0.718200  1.0  0.3294
  H  H48  1  0.905300  0.094700  0.665400  1.0  0.1225
  H  H49  1  0.764200  0.528400  0.510300  1.0  0.1221
  H  H50  1  0.769300  0.538600  0.718200  1.0  0.3316
  H  H51  1  0.905300  0.810600  0.665400  1.0  0.1232
  H  H52  1  0.471600  0.235800  0.510300  1.0  0.1214
  H  H53  1  0.461400  0.230700  0.718200  1.0  0.3304
  H  H54  1  0.189400  0.094700  0.665400  1.0  0.1223
  H  H55  1  0.764200  0.235800  0.989700  1.0  0.1213
  H  H56  1  0.769300  0.230700  0.781800  1.0  0.3301
  H  H57  1  0.905300  0.094700  0.834600  1.0  0.122
  H  H58  1  0.471600  0.235800  0.989700  1.0  0.1214
  H  H59  1  0.461400  0.230700  0.781800  1.0  0.3297
  H  H60  1  0.189400  0.094700  0.834600  1.0  0.1228
  H  H61  1  0.764200  0.528400  0.989700  1.0  0.122
  H  H62  1  0.769300  0.538600  0.781800  1.0  0.3316
  H  H63  1  0.905300  0.810600  0.834600  1.0  0.1234
  H  H64  1  0.235800  0.764200  0.489700  1.0  0.1217
  H  H65  1  0.230700  0.769300  0.281800  1.0  0.33
  H  H66  1  0.094700  0.905300  0.334600  1.0  0.1227
  H  H67  1  0.528400  0.764200  0.489700  1.0  0.1215
  H  H68  1  0.538600  0.769300  0.281800  1.0  0.3305
  H  H69  1  0.810600  0.905300  0.334600  1.0  0.1223
  H  H70  1  0.235800  0.471600  0.489700  1.0  0.122
  H  H71  1  0.230700  0.461400  0.281800  1.0  0.3302
  H  H72  1  0.094700  0.189400  0.334600  1.0  0.1232
  H  H73  1  0.058400  0.941600  0.250000  1.0  0.1136
  H  H74  1  0.058400  0.116800  0.250000  1.0  0.1151
  H  H75  1  0.883200  0.941600  0.250000  1.0  0.1139
  H  H76  1  0.941600  0.058400  0.750000  1.0  0.1138
  H  H77  1  0.941600  0.883200  0.750000  1.0  0.1154
  H  H78  1  0.116800  0.058400  0.750000  1.0  0.1138
  C  C79  1  0.275300  0.854860  0.069840  1.0  -0.1516
  C  C80  1  0.358500  0.909910  0.044170  1.0  0.6904
  C  C81  1  0.252740  0.875820  0.120340  1.0  -0.1151
  C  C82  1  0.145140  0.420440  0.069840  1.0  -0.1528
  C  C83  1  0.090090  0.448590  0.044170  1.0  0.69
  C  C84  1  0.124180  0.376920  0.120340  1.0  -0.1147
  C  C85  1  0.579560  0.724700  0.069840  1.0  -0.1535
  C  C86  1  0.551410  0.641500  0.044170  1.0  0.6905
  C  C87  1  0.623080  0.747260  0.120340  1.0  -0.1153
  C  C88  1  0.724700  0.145140  0.569840  1.0  -0.1528
  C  C89  1  0.641500  0.090090  0.544170  1.0  0.6903
  C  C90  1  0.747260  0.124180  0.620340  1.0  -0.1163
  C  C91  1  0.854860  0.579560  0.569840  1.0  -0.153
  C  C92  1  0.909910  0.551410  0.544170  1.0  0.6895
  C  C93  1  0.875820  0.623080  0.620340  1.0  -0.1161
  C  C94  1  0.420440  0.275300  0.569840  1.0  -0.1523
  C  C95  1  0.448590  0.358500  0.544170  1.0  0.6907
  C  C96  1  0.376920  0.252740  0.620340  1.0  -0.1165
  C  C97  1  0.854860  0.275300  0.930160  1.0  -0.1538
  C  C98  1  0.909910  0.358500  0.955830  1.0  0.6906
  C  C99  1  0.875820  0.252740  0.879660  1.0  -0.1163
  C  C100  1  0.420440  0.145140  0.930160  1.0  -0.1531
  C  C101  1  0.448590  0.090090  0.955830  1.0  0.6899
  C  C102  1  0.376920  0.124180  0.879660  1.0  -0.1149
  C  C103  1  0.724700  0.579560  0.930160  1.0  -0.1534
  C  C104  1  0.641500  0.551410  0.955830  1.0  0.6899
  C  C105  1  0.747260  0.623080  0.879660  1.0  -0.1152
  C  C106  1  0.145140  0.724700  0.430160  1.0  -0.1537
  C  C107  1  0.090090  0.641500  0.455830  1.0  0.6904
  C  C108  1  0.124180  0.747260  0.379660  1.0  -0.1163
  C  C109  1  0.579560  0.854860  0.430160  1.0  -0.1526
  C  C110  1  0.551410  0.909910  0.455830  1.0  0.6905
  C  C111  1  0.623080  0.875820  0.379660  1.0  -0.1163
  C  C112  1  0.275300  0.420440  0.430160  1.0  -0.1542
  C  C113  1  0.358500  0.448590  0.455830  1.0  0.6895
  C  C114  1  0.252740  0.376920  0.379660  1.0  -0.1158
  C  C115  1  0.724700  0.145140  0.930160  1.0  -0.1531
  C  C116  1  0.641500  0.090090  0.955830  1.0  0.6902
  C  C117  1  0.747260  0.124180  0.879660  1.0  -0.1169
  C  C118  1  0.854860  0.579560  0.930160  1.0  -0.1543
  C  C119  1  0.909910  0.551410  0.955830  1.0  0.6894
  C  C120  1  0.875820  0.623080  0.879660  1.0  -0.117
  C  C121  1  0.420440  0.275300  0.930160  1.0  -0.1533
  C  C122  1  0.448590  0.358500  0.955830  1.0  0.6906
  C  C123  1  0.376920  0.252740  0.879660  1.0  -0.1167
  C  C124  1  0.275300  0.854860  0.430160  1.0  -0.1528
  C  C125  1  0.358500  0.909910  0.455830  1.0  0.6902
  C  C126  1  0.252740  0.875820  0.379660  1.0  -0.1152
  C  C127  1  0.145140  0.420440  0.430160  1.0  -0.1535
  C  C128  1  0.090090  0.448590  0.455830  1.0  0.69
  C  C129  1  0.124180  0.376920  0.379660  1.0  -0.1153
  C  C130  1  0.579560  0.724700  0.430160  1.0  -0.154
  C  C131  1  0.551410  0.641500  0.455830  1.0  0.6904
  C  C132  1  0.623080  0.747260  0.379660  1.0  -0.1161
  C  C133  1  0.145140  0.724700  0.069840  1.0  -0.1534
  C  C134  1  0.090090  0.641500  0.044170  1.0  0.6905
  C  C135  1  0.124180  0.747260  0.120340  1.0  -0.1163
  C  C136  1  0.579560  0.854860  0.069840  1.0  -0.1516
  C  C137  1  0.551410  0.909910  0.044170  1.0  0.6907
  C  C138  1  0.623080  0.875820  0.120340  1.0  -0.1172
  C  C139  1  0.275300  0.420440  0.069840  1.0  -0.153
  C  C140  1  0.358500  0.448590  0.044170  1.0  0.6896
  C  C141  1  0.252740  0.376920  0.120340  1.0  -0.1161
  C  C142  1  0.854860  0.275300  0.569840  1.0  -0.1527
  C  C143  1  0.909910  0.358500  0.544170  1.0  0.6907
  C  C144  1  0.875820  0.252740  0.620340  1.0  -0.1171
  C  C145  1  0.420440  0.145140  0.569840  1.0  -0.1527
  C  C146  1  0.448590  0.090090  0.544170  1.0  0.69
  C  C147  1  0.376920  0.124180  0.620340  1.0  -0.1149
  C  C148  1  0.724700  0.579560  0.569840  1.0  -0.1526
  C  C149  1  0.641500  0.551410  0.544170  1.0  0.69
  C  C150  1  0.747260  0.623080  0.620340  1.0  -0.1156
  C  C151  1  0.221040  0.778960  0.044690  1.0  0.0046
  C  C152  1  0.176570  0.823430  0.145080  1.0  0.0119
  C  C153  1  0.152870  0.847130  0.199310  1.0  0.0262
  C  C154  1  0.109710  0.890290  0.199600  1.0  -0.1049
  C  C155  1  0.221040  0.442080  0.044690  1.0  0.0039
  C  C156  1  0.176570  0.353140  0.145080  1.0  0.015
  C  C157  1  0.152870  0.305740  0.199310  1.0  0.0258
  C  C158  1  0.109710  0.219420  0.199600  1.0  -0.1055
  C  C159  1  0.557920  0.778960  0.044690  1.0  0.0051
  C  C160  1  0.646860  0.823430  0.145080  1.0  0.0136
  C  C161  1  0.694260  0.847130  0.199310  1.0  0.0267
  C  C162  1  0.780580  0.890290  0.199600  1.0  -0.1045
  C  C163  1  0.778960  0.221040  0.544690  1.0  0.0049
  C  C164  1  0.823430  0.176570  0.645080  1.0  0.0133
  C  C165  1  0.847130  0.152870  0.699310  1.0  0.0266
  C  C166  1  0.890290  0.109710  0.699600  1.0  -0.1048
  C  C167  1  0.778960  0.557920  0.544690  1.0  0.0042
  C  C168  1  0.823430  0.646860  0.645080  1.0  0.0153
  C  C169  1  0.847130  0.694260  0.699310  1.0  0.0256
  C  C170  1  0.890290  0.780580  0.699600  1.0  -0.105
  C  C171  1  0.442080  0.221040  0.544690  1.0  0.0043
  C  C172  1  0.353140  0.176570  0.645080  1.0  0.0116
  C  C173  1  0.305740  0.152870  0.699310  1.0  0.0262
  C  C174  1  0.219420  0.109710  0.699600  1.0  -0.1056
  C  C175  1  0.778960  0.221040  0.955310  1.0  0.0043
  C  C176  1  0.823430  0.176570  0.854920  1.0  0.013
  C  C177  1  0.847130  0.152870  0.800690  1.0  0.0267
  C  C178  1  0.890290  0.109710  0.800400  1.0  -0.104
  C  C179  1  0.442080  0.221040  0.955310  1.0  0.0053
  C  C180  1  0.353140  0.176570  0.854920  1.0  0.0115
  C  C181  1  0.305740  0.152870  0.800690  1.0  0.0264
  C  C182  1  0.219420  0.109710  0.800400  1.0  -0.1054
  C  C183  1  0.778960  0.557920  0.955310  1.0  0.0047
  C  C184  1  0.823430  0.646860  0.854920  1.0  0.0149
  C  C185  1  0.847130  0.694260  0.800690  1.0  0.0258
  C  C186  1  0.890290  0.780580  0.800400  1.0  -0.1052
  C  C187  1  0.221040  0.778960  0.455310  1.0  0.0055
  C  C188  1  0.176570  0.823430  0.354920  1.0  0.0115
  C  C189  1  0.152870  0.847130  0.300690  1.0  0.0262
  C  C190  1  0.109710  0.890290  0.300400  1.0  -0.1052
  C  C191  1  0.557920  0.778960  0.455310  1.0  0.0045
  C  C192  1  0.646860  0.823430  0.354920  1.0  0.013
  C  C193  1  0.694260  0.847130  0.300690  1.0  0.0268
  C  C194  1  0.780580  0.890290  0.300400  1.0  -0.1039
  C  C195  1  0.221040  0.442080  0.455310  1.0  0.0042
  C  C196  1  0.176570  0.353140  0.354920  1.0  0.0147
  C  C197  1  0.152870  0.305740  0.300690  1.0  0.0261
  C  C198  1  0.109710  0.219420  0.300400  1.0  -0.1054
  C  C199  1  0.174400  0.825600  0.250000  1.0  0.2273
  C  C200  1  0.088200  0.911800  0.250000  1.0  -0.1057
  C  C201  1  0.174400  0.348800  0.250000  1.0  0.2277
  C  C202  1  0.088200  0.176400  0.250000  1.0  -0.1029
  C  C203  1  0.651200  0.825600  0.250000  1.0  0.2273
  C  C204  1  0.823600  0.911800  0.250000  1.0  -0.1032
  C  C205  1  0.825600  0.174400  0.750000  1.0  0.2275
  C  C206  1  0.911800  0.088200  0.750000  1.0  -0.1029
  C  C207  1  0.825600  0.651200  0.750000  1.0  0.2279
  C  C208  1  0.911800  0.823600  0.750000  1.0  -0.1009
  C  C209  1  0.348800  0.174400  0.750000  1.0  0.2275
  C  C210  1  0.176400  0.088200  0.750000  1.0  -0.1058
  N  N211  1  0.216920  0.783080  0.250000  1.0  -0.6944
  N  N212  1  0.216920  0.433840  0.250000  1.0  -0.6944
  N  N213  1  0.566160  0.783080  0.250000  1.0  -0.6956
  N  N214  1  0.783080  0.216920  0.750000  1.0  -0.6957
  N  N215  1  0.783080  0.566160  0.750000  1.0  -0.6946
  N  N216  1  0.433840  0.216920  0.750000  1.0  -0.6952
  O  O217  1  0.410790  0.972110  0.072000  1.0  -0.565
  O  O218  1  0.370790  0.890060  0.996310  1.0  -0.5707
  O  O219  1  0.027890  0.438680  0.072000  1.0  -0.5646
  O  O220  1  0.109940  0.480730  0.996310  1.0  -0.57
  O  O221  1  0.561320  0.589210  0.072000  1.0  -0.5647
  O  O222  1  0.519270  0.629210  0.996310  1.0  -0.5698
  O  O223  1  0.589210  0.027890  0.572000  1.0  -0.5646
  O  O224  1  0.629210  0.109940  0.496310  1.0  -0.5701
  O  O225  1  0.972110  0.561320  0.572000  1.0  -0.5644
  O  O226  1  0.890060  0.519270  0.496310  1.0  -0.5702
  O  O227  1  0.438680  0.410790  0.572000  1.0  -0.5647
  O  O228  1  0.480730  0.370790  0.496310  1.0  -0.5696
  O  O229  1  0.972110  0.410790  0.928000  1.0  -0.5648
  O  O230  1  0.890060  0.370790  0.003690  1.0  -0.5694
  O  O231  1  0.438680  0.027890  0.928000  1.0  -0.5655
  O  O232  1  0.480730  0.109940  0.003690  1.0  -0.57
  O  O233  1  0.589210  0.561320  0.928000  1.0  -0.5647
  O  O234  1  0.629210  0.519270  0.003690  1.0  -0.5694
  O  O235  1  0.027890  0.589210  0.428000  1.0  -0.5654
  O  O236  1  0.109940  0.629210  0.503690  1.0  -0.5691
  O  O237  1  0.561320  0.972110  0.428000  1.0  -0.565
  O  O238  1  0.519270  0.890060  0.503690  1.0  -0.5699
  O  O239  1  0.410790  0.438680  0.428000  1.0  -0.5652
  O  O240  1  0.370790  0.480730  0.503690  1.0  -0.5697
  O  O241  1  0.589210  0.027890  0.928000  1.0  -0.5654
  O  O242  1  0.629210  0.109940  0.003690  1.0  -0.5697
  O  O243  1  0.972110  0.561320  0.928000  1.0  -0.5647
  O  O244  1  0.890060  0.519270  0.003690  1.0  -0.5695
  O  O245  1  0.438680  0.410790  0.928000  1.0  -0.5651
  O  O246  1  0.480730  0.370790  0.003690  1.0  -0.5691
  O  O247  1  0.410790  0.972110  0.428000  1.0  -0.565
  O  O248  1  0.370790  0.890060  0.503690  1.0  -0.5704
  O  O249  1  0.027890  0.438680  0.428000  1.0  -0.5652
  O  O250  1  0.109940  0.480730  0.503690  1.0  -0.5697
  O  O251  1  0.561320  0.589210  0.428000  1.0  -0.5649
  O  O252  1  0.519270  0.629210  0.503690  1.0  -0.5695
  O  O253  1  0.027890  0.589210  0.072000  1.0  -0.5648
  O  O254  1  0.109940  0.629210  0.996310  1.0  -0.5693
  O  O255  1  0.561320  0.972110  0.072000  1.0  -0.565
  O  O256  1  0.519270  0.890060  0.996310  1.0  -0.5704
  O  O257  1  0.410790  0.438680  0.072000  1.0  -0.5647
  O  O258  1  0.370790  0.480730  0.996310  1.0  -0.5698
  O  O259  1  0.972110  0.410790  0.572000  1.0  -0.5646
  O  O260  1  0.890060  0.370790  0.496310  1.0  -0.5702
  O  O261  1  0.438680  0.027890  0.572000  1.0  -0.565
  O  O262  1  0.480730  0.109940  0.496310  1.0  -0.5703
  O  O263  1  0.589210  0.561320  0.572000  1.0  -0.5646
  O  O264  1  0.629210  0.519270  0.496310  1.0  -0.5701
