# generated using pymatgen
data_Zn2H11C22NO8
_symmetry_space_group_name_H-M   'P 1'
_cell_length_a   18.46800000
_cell_length_b   18.46800000
_cell_length_c   24.16000000
_cell_angle_alpha   90.00000000
_cell_angle_beta   90.00000000
_cell_angle_gamma   120.00000000
_symmetry_Int_Tables_number   1
_chemical_formula_structural   Zn2H11C22NO8
_chemical_formula_sum   'Zn12 H66 C132 N6 O48'
_cell_volume   7136.20460540
_cell_formula_units_Z   6
loop_
 _symmetry_equiv_pos_site_id
 _symmetry_equiv_pos_as_xyz
  1  'x, y, z'
loop_
 _atom_site_type_symbol
 _atom_site_label
 _atom_site_symmetry_multiplicity
 _atom_site_fract_x
 _atom_site_fract_y
 _atom_site_fract_z
 _atom_site_occupancy
 _atom_site_charge
  Zn  Zn1  1  0.472930  0.527070  0.449890  1.0  1.1591
  Zn  Zn2  1  0.472930  0.945850  0.449890  1.0  1.162
  Zn  Zn3  1  0.054150  0.527070  0.449890  1.0  1.1632
  Zn  Zn4  1  0.527070  0.472930  0.949890  1.0  1.158
  Zn  Zn5  1  0.527070  0.054150  0.949890  1.0  1.1619
  Zn  Zn6  1  0.945850  0.472930  0.949890  1.0  1.1628
  Zn  Zn7  1  0.527070  0.472930  0.550110  1.0  1.1584
  Zn  Zn8  1  0.945850  0.472930  0.550110  1.0  1.162
  Zn  Zn9  1  0.527070  0.054150  0.550110  1.0  1.1625
  Zn  Zn10  1  0.472930  0.527070  0.050110  1.0  1.1579
  Zn  Zn11  1  0.054150  0.527070  0.050110  1.0  1.1638
  Zn  Zn12  1  0.472930  0.945850  0.050110  1.0  1.16
  H  H13  1  0.636100  0.710400  0.637800  1.0  0.0905
  H  H14  1  0.289600  0.925700  0.637800  1.0  0.0988
  H  H15  1  0.074300  0.363900  0.637800  1.0  0.1005
  H  H16  1  0.363900  0.289600  0.137800  1.0  0.0914
  H  H17  1  0.710400  0.074300  0.137800  1.0  0.0996
  H  H18  1  0.925700  0.636100  0.137800  1.0  0.1001
  H  H19  1  0.710400  0.636100  0.362200  1.0  0.0933
  H  H20  1  0.925700  0.289600  0.362200  1.0  0.0998
  H  H21  1  0.363900  0.074300  0.362200  1.0  0.0997
  H  H22  1  0.289600  0.363900  0.862200  1.0  0.0928
  H  H23  1  0.074300  0.710400  0.862200  1.0  0.0999
  H  H24  1  0.636100  0.925700  0.862200  1.0  0.0996
  H  H25  1  0.363900  0.289600  0.362200  1.0  0.0922
  H  H26  1  0.710400  0.074300  0.362200  1.0  0.0997
  H  H27  1  0.925700  0.636100  0.362200  1.0  0.1007
  H  H28  1  0.636100  0.710400  0.862200  1.0  0.091
  H  H29  1  0.289600  0.925700  0.862200  1.0  0.0993
  H  H30  1  0.074300  0.363900  0.862200  1.0  0.1004
  H  H31  1  0.289600  0.363900  0.637800  1.0  0.0924
  H  H32  1  0.074300  0.710400  0.637800  1.0  0.1001
  H  H33  1  0.636100  0.925700  0.637800  1.0  0.0991
  H  H34  1  0.710400  0.636100  0.137800  1.0  0.0925
  H  H35  1  0.925700  0.289600  0.137800  1.0  0.0993
  H  H36  1  0.363900  0.074300  0.137800  1.0  0.0992
  H  H37  1  0.527500  0.763750  0.512600  1.0  0.1194
  H  H38  1  0.536600  0.768300  0.780800  1.0  0.3484
  H  H39  1  0.804500  0.902250  0.667400  1.0  0.0974
  H  H40  1  0.236250  0.763750  0.512600  1.0  0.1202
  H  H41  1  0.231700  0.768300  0.780800  1.0  0.3493
  H  H42  1  0.097750  0.902250  0.667400  1.0  0.0971
  H  H43  1  0.236250  0.472500  0.512600  1.0  0.1194
  H  H44  1  0.231700  0.463400  0.780800  1.0  0.3486
  H  H45  1  0.097750  0.195500  0.667400  1.0  0.0968
  H  H46  1  0.472500  0.236250  0.012600  1.0  0.1194
  H  H47  1  0.463400  0.231700  0.280800  1.0  0.3497
  H  H48  1  0.195500  0.097750  0.167400  1.0  0.0974
  H  H49  1  0.763750  0.236250  0.012600  1.0  0.1198
  H  H50  1  0.768300  0.231700  0.280800  1.0  0.3486
  H  H51  1  0.902250  0.097750  0.167400  1.0  0.0972
  H  H52  1  0.763750  0.527500  0.012600  1.0  0.1196
  H  H53  1  0.768300  0.536600  0.280800  1.0  0.3489
  H  H54  1  0.902250  0.804500  0.167400  1.0  0.0973
  H  H55  1  0.763750  0.527500  0.487400  1.0  0.1192
  H  H56  1  0.768300  0.536600  0.219200  1.0  0.3484
  H  H57  1  0.902250  0.804500  0.332600  1.0  0.0978
  H  H58  1  0.763750  0.236250  0.487400  1.0  0.1198
  H  H59  1  0.768300  0.231700  0.219200  1.0  0.3478
  H  H60  1  0.902250  0.097750  0.332600  1.0  0.0968
  H  H61  1  0.472500  0.236250  0.487400  1.0  0.1189
  H  H62  1  0.463400  0.231700  0.219200  1.0  0.3487
  H  H63  1  0.195500  0.097750  0.332600  1.0  0.098
  H  H64  1  0.236250  0.472500  0.987400  1.0  0.119
  H  H65  1  0.231700  0.463400  0.719200  1.0  0.3483
  H  H66  1  0.097750  0.195500  0.832600  1.0  0.0975
  H  H67  1  0.236250  0.763750  0.987400  1.0  0.1199
  H  H68  1  0.231700  0.768300  0.719200  1.0  0.3486
  H  H69  1  0.097750  0.902250  0.832600  1.0  0.0977
  H  H70  1  0.527500  0.763750  0.987400  1.0  0.1192
  H  H71  1  0.536600  0.768300  0.719200  1.0  0.3483
  H  H72  1  0.804500  0.902250  0.832600  1.0  0.097
  H  H73  1  0.877400  0.938700  0.750000  1.0  0.112
  H  H74  1  0.061300  0.938700  0.750000  1.0  0.1123
  H  H75  1  0.061300  0.122600  0.750000  1.0  0.1145
  H  H76  1  0.122600  0.061300  0.250000  1.0  0.1128
  H  H77  1  0.938700  0.061300  0.250000  1.0  0.1122
  H  H78  1  0.938700  0.877400  0.250000  1.0  0.1143
  C  C79  1  0.552000  0.642700  0.545600  1.0  0.6872
  C  C80  1  0.579400  0.724100  0.572180  1.0  -0.1822
  C  C81  1  0.622200  0.747000  0.620820  1.0  -0.0741
  C  C82  1  0.357300  0.909300  0.545600  1.0  0.685
  C  C83  1  0.275900  0.855300  0.572180  1.0  -0.1819
  C  C84  1  0.253000  0.875200  0.620820  1.0  -0.0749
  C  C85  1  0.090700  0.448000  0.545600  1.0  0.6864
  C  C86  1  0.144700  0.420600  0.572180  1.0  -0.1828
  C  C87  1  0.124800  0.377800  0.620820  1.0  -0.0741
  C  C88  1  0.448000  0.357300  0.045600  1.0  0.6847
  C  C89  1  0.420600  0.275900  0.072180  1.0  -0.1821
  C  C90  1  0.377800  0.253000  0.120820  1.0  -0.0762
  C  C91  1  0.642700  0.090700  0.045600  1.0  0.6872
  C  C92  1  0.724100  0.144700  0.072180  1.0  -0.1813
  C  C93  1  0.747000  0.124800  0.120820  1.0  -0.075
  C  C94  1  0.909300  0.552000  0.045600  1.0  0.6857
  C  C95  1  0.855300  0.579400  0.072180  1.0  -0.1831
  C  C96  1  0.875200  0.622200  0.120820  1.0  -0.0731
  C  C97  1  0.642700  0.552000  0.454400  1.0  0.6861
  C  C98  1  0.724100  0.579400  0.427820  1.0  -0.1828
  C  C99  1  0.747000  0.622200  0.379180  1.0  -0.0741
  C  C100  1  0.909300  0.357300  0.454400  1.0  0.6845
  C  C101  1  0.855300  0.275900  0.427820  1.0  -0.183
  C  C102  1  0.875200  0.253000  0.379180  1.0  -0.0756
  C  C103  1  0.448000  0.090700  0.454400  1.0  0.6856
  C  C104  1  0.420600  0.144700  0.427820  1.0  -0.1818
  C  C105  1  0.377800  0.124800  0.379180  1.0  -0.0744
  C  C106  1  0.357300  0.448000  0.954400  1.0  0.6859
  C  C107  1  0.275900  0.420600  0.927820  1.0  -0.1837
  C  C108  1  0.253000  0.377800  0.879180  1.0  -0.0729
  C  C109  1  0.090700  0.642700  0.954400  1.0  0.6878
  C  C110  1  0.144700  0.724100  0.927820  1.0  -0.1818
  C  C111  1  0.124800  0.747000  0.879180  1.0  -0.0747
  C  C112  1  0.552000  0.909300  0.954400  1.0  0.687
  C  C113  1  0.579400  0.855300  0.927820  1.0  -0.1813
  C  C114  1  0.622200  0.875200  0.879180  1.0  -0.0749
  C  C115  1  0.448000  0.357300  0.454400  1.0  0.6845
  C  C116  1  0.420600  0.275900  0.427820  1.0  -0.1824
  C  C117  1  0.377800  0.253000  0.379180  1.0  -0.0758
  C  C118  1  0.642700  0.090700  0.454400  1.0  0.6871
  C  C119  1  0.724100  0.144700  0.427820  1.0  -0.1811
  C  C120  1  0.747000  0.124800  0.379180  1.0  -0.0747
  C  C121  1  0.909300  0.552000  0.454400  1.0  0.6855
  C  C122  1  0.855300  0.579400  0.427820  1.0  -0.1838
  C  C123  1  0.875200  0.622200  0.379180  1.0  -0.073
  C  C124  1  0.552000  0.642700  0.954400  1.0  0.6868
  C  C125  1  0.579400  0.724100  0.927820  1.0  -0.1823
  C  C126  1  0.622200  0.747000  0.879180  1.0  -0.0739
  C  C127  1  0.357300  0.909300  0.954400  1.0  0.6855
  C  C128  1  0.275900  0.855300  0.927820  1.0  -0.1822
  C  C129  1  0.253000  0.875200  0.879180  1.0  -0.0745
  C  C130  1  0.090700  0.448000  0.954400  1.0  0.6862
  C  C131  1  0.144700  0.420600  0.927820  1.0  -0.1829
  C  C132  1  0.124800  0.377800  0.879180  1.0  -0.0738
  C  C133  1  0.357300  0.448000  0.545600  1.0  0.6861
  C  C134  1  0.275900  0.420600  0.572180  1.0  -0.1831
  C  C135  1  0.253000  0.377800  0.620820  1.0  -0.0729
  C  C136  1  0.090700  0.642700  0.545600  1.0  0.6879
  C  C137  1  0.144700  0.724100  0.572180  1.0  -0.1821
  C  C138  1  0.124800  0.747000  0.620820  1.0  -0.0747
  C  C139  1  0.552000  0.909300  0.545600  1.0  0.6872
  C  C140  1  0.579400  0.855300  0.572180  1.0  -0.181
  C  C141  1  0.622200  0.875200  0.620820  1.0  -0.0752
  C  C142  1  0.642700  0.552000  0.045600  1.0  0.6858
  C  C143  1  0.724100  0.579400  0.072180  1.0  -0.1828
  C  C144  1  0.747000  0.622200  0.120820  1.0  -0.0745
  C  C145  1  0.909300  0.357300  0.045600  1.0  0.6845
  C  C146  1  0.855300  0.275900  0.072180  1.0  -0.1823
  C  C147  1  0.875200  0.253000  0.120820  1.0  -0.0762
  C  C148  1  0.448000  0.090700  0.045600  1.0  0.685
  C  C149  1  0.420600  0.144700  0.072180  1.0  -0.1819
  C  C150  1  0.377800  0.124800  0.120820  1.0  -0.0749
  C  C151  1  0.556500  0.778250  0.546000  1.0  -0.0367
  C  C152  1  0.645600  0.822800  0.645700  1.0  0.0512
  C  C153  1  0.692800  0.846400  0.699800  1.0  0.0667
  C  C154  1  0.775300  0.887650  0.700600  1.0  -0.1239
  C  C155  1  0.221750  0.778250  0.546000  1.0  -0.0379
  C  C156  1  0.177200  0.822800  0.645700  1.0  0.0502
  C  C157  1  0.153600  0.846400  0.699800  1.0  0.0667
  C  C158  1  0.112350  0.887650  0.700600  1.0  -0.1241
  C  C159  1  0.221750  0.443500  0.546000  1.0  -0.0363
  C  C160  1  0.177200  0.354400  0.645700  1.0  0.0504
  C  C161  1  0.153600  0.307200  0.699800  1.0  0.0656
  C  C162  1  0.112350  0.224700  0.700600  1.0  -0.1267
  C  C163  1  0.443500  0.221750  0.046000  1.0  -0.0383
  C  C164  1  0.354400  0.177200  0.145700  1.0  0.05
  C  C165  1  0.307200  0.153600  0.199800  1.0  0.0674
  C  C166  1  0.224700  0.112350  0.200600  1.0  -0.1234
  C  C167  1  0.778250  0.221750  0.046000  1.0  -0.037
  C  C168  1  0.822800  0.177200  0.145700  1.0  0.051
  C  C169  1  0.846400  0.153600  0.199800  1.0  0.0673
  C  C170  1  0.887650  0.112350  0.200600  1.0  -0.1239
  C  C171  1  0.778250  0.556500  0.046000  1.0  -0.0363
  C  C172  1  0.822800  0.645600  0.145700  1.0  0.0504
  C  C173  1  0.846400  0.692800  0.199800  1.0  0.0655
  C  C174  1  0.887650  0.775300  0.200600  1.0  -0.1265
  C  C175  1  0.778250  0.556500  0.454000  1.0  -0.0375
  C  C176  1  0.822800  0.645600  0.354300  1.0  0.0498
  C  C177  1  0.846400  0.692800  0.300200  1.0  0.0644
  C  C178  1  0.887650  0.775300  0.299400  1.0  -0.1238
  C  C179  1  0.778250  0.221750  0.454000  1.0  -0.0392
  C  C180  1  0.822800  0.177200  0.354300  1.0  0.0505
  C  C181  1  0.846400  0.153600  0.300200  1.0  0.0662
  C  C182  1  0.887650  0.112350  0.299400  1.0  -0.1194
  C  C183  1  0.443500  0.221750  0.454000  1.0  -0.0387
  C  C184  1  0.354400  0.177200  0.354300  1.0  0.0497
  C  C185  1  0.307200  0.153600  0.300200  1.0  0.0665
  C  C186  1  0.224700  0.112350  0.299400  1.0  -0.124
  C  C187  1  0.221750  0.443500  0.954000  1.0  -0.0377
  C  C188  1  0.177200  0.354400  0.854300  1.0  0.0501
  C  C189  1  0.153600  0.307200  0.800200  1.0  0.0646
  C  C190  1  0.112350  0.224700  0.799400  1.0  -0.1268
  C  C191  1  0.221750  0.778250  0.954000  1.0  -0.0386
  C  C192  1  0.177200  0.822800  0.854300  1.0  0.0498
  C  C193  1  0.153600  0.846400  0.800200  1.0  0.0659
  C  C194  1  0.112350  0.887650  0.799400  1.0  -0.1249
  C  C195  1  0.556500  0.778250  0.954000  1.0  -0.0392
  C  C196  1  0.645600  0.822800  0.854300  1.0  0.0506
  C  C197  1  0.692800  0.846400  0.800200  1.0  0.0656
  C  C198  1  0.775300  0.887650  0.799400  1.0  -0.12
  C  C199  1  0.650900  0.825450  0.750000  1.0  0.1673
  C  C200  1  0.819200  0.909600  0.750000  1.0  -0.1203
  C  C201  1  0.174550  0.825450  0.750000  1.0  0.1674
  C  C202  1  0.090400  0.909600  0.750000  1.0  -0.1232
  C  C203  1  0.174550  0.349100  0.750000  1.0  0.1665
  C  C204  1  0.090400  0.180800  0.750000  1.0  -0.1214
  C  C205  1  0.349100  0.174550  0.250000  1.0  0.1673
  C  C206  1  0.180800  0.090400  0.250000  1.0  -0.1227
  C  C207  1  0.825450  0.174550  0.250000  1.0  0.1672
  C  C208  1  0.909600  0.090400  0.250000  1.0  -0.1193
  C  C209  1  0.825450  0.650900  0.250000  1.0  0.1673
  C  C210  1  0.909600  0.819200  0.250000  1.0  -0.1171
  N  N211  1  0.563400  0.781700  0.750000  1.0  -0.7156
  N  N212  1  0.218300  0.781700  0.750000  1.0  -0.7172
  N  N213  1  0.218300  0.436600  0.750000  1.0  -0.7176
  N  N214  1  0.436600  0.218300  0.250000  1.0  -0.7173
  N  N215  1  0.781700  0.218300  0.250000  1.0  -0.7152
  N  N216  1  0.781700  0.563400  0.250000  1.0  -0.7148
  O  O217  1  0.520300  0.629700  0.498380  1.0  -0.6242
  O  O218  1  0.562900  0.590800  0.573600  1.0  -0.6042
  O  O219  1  0.370300  0.890600  0.498380  1.0  -0.6237
  O  O220  1  0.409200  0.972100  0.573600  1.0  -0.6046
  O  O221  1  0.109400  0.479700  0.498380  1.0  -0.6231
  O  O222  1  0.027900  0.437100  0.573600  1.0  -0.6035
  O  O223  1  0.479700  0.370300  0.998380  1.0  -0.6234
  O  O224  1  0.437100  0.409200  0.073600  1.0  -0.6043
  O  O225  1  0.629700  0.109400  0.998380  1.0  -0.6245
  O  O226  1  0.590800  0.027900  0.073600  1.0  -0.6046
  O  O227  1  0.890600  0.520300  0.998380  1.0  -0.6244
  O  O228  1  0.972100  0.562900  0.073600  1.0  -0.6038
  O  O229  1  0.629700  0.520300  0.501620  1.0  -0.6233
  O  O230  1  0.590800  0.562900  0.426400  1.0  -0.6029
  O  O231  1  0.890600  0.370300  0.501620  1.0  -0.6231
  O  O232  1  0.972100  0.409200  0.426400  1.0  -0.6033
  O  O233  1  0.479700  0.109400  0.501620  1.0  -0.6232
  O  O234  1  0.437100  0.027900  0.426400  1.0  -0.6054
  O  O235  1  0.370300  0.479700  0.001620  1.0  -0.6239
  O  O236  1  0.409200  0.437100  0.926400  1.0  -0.6039
  O  O237  1  0.109400  0.629700  0.001620  1.0  -0.6229
  O  O238  1  0.027900  0.590800  0.926400  1.0  -0.6047
  O  O239  1  0.520300  0.890600  0.001620  1.0  -0.6235
  O  O240  1  0.562900  0.972100  0.926400  1.0  -0.6032
  O  O241  1  0.479700  0.370300  0.501620  1.0  -0.6227
  O  O242  1  0.437100  0.409200  0.426400  1.0  -0.6035
  O  O243  1  0.629700  0.109400  0.501620  1.0  -0.6243
  O  O244  1  0.590800  0.027900  0.426400  1.0  -0.6045
  O  O245  1  0.890600  0.520300  0.501620  1.0  -0.624
  O  O246  1  0.972100  0.562900  0.426400  1.0  -0.6035
  O  O247  1  0.520300  0.629700  0.001620  1.0  -0.6232
  O  O248  1  0.562900  0.590800  0.926400  1.0  -0.6045
  O  O249  1  0.370300  0.890600  0.001620  1.0  -0.6231
  O  O250  1  0.409200  0.972100  0.926400  1.0  -0.6041
  O  O251  1  0.109400  0.479700  0.001620  1.0  -0.6223
  O  O252  1  0.027900  0.437100  0.926400  1.0  -0.6039
  O  O253  1  0.370300  0.479700  0.498380  1.0  -0.6245
  O  O254  1  0.409200  0.437100  0.573600  1.0  -0.604
  O  O255  1  0.109400  0.629700  0.498380  1.0  -0.6239
  O  O256  1  0.027900  0.590800  0.573600  1.0  -0.6038
  O  O257  1  0.520300  0.890600  0.498380  1.0  -0.624
  O  O258  1  0.562900  0.972100  0.573600  1.0  -0.6045
  O  O259  1  0.629700  0.520300  0.998380  1.0  -0.6236
  O  O260  1  0.590800  0.562900  0.073600  1.0  -0.6034
  O  O261  1  0.890600  0.370300  0.998380  1.0  -0.6239
  O  O262  1  0.972100  0.409200  0.073600  1.0  -0.6046
  O  O263  1  0.479700  0.109400  0.998380  1.0  -0.624
  O  O264  1  0.437100  0.027900  0.073600  1.0  -0.6054
