# generated using pymatgen
data_Fe4H8C24N32Cl
_symmetry_space_group_name_H-M   'P 1'
_cell_length_a   18.87540000
_cell_length_b   18.87540000
_cell_length_c   18.87540000
_cell_angle_alpha   90.00000000
_cell_angle_beta   90.00000000
_cell_angle_gamma   90.00000000
_symmetry_Int_Tables_number   1
_chemical_formula_structural   Fe4H8C24N32Cl
_chemical_formula_sum   'Fe12 H24 C72 N96 Cl3'
_cell_volume   6724.94119969
_cell_formula_units_Z   3
loop_
 _symmetry_equiv_pos_site_id
 _symmetry_equiv_pos_as_xyz
  1  'x, y, z'
loop_
 _atom_site_type_symbol
 _atom_site_label
 _atom_site_symmetry_multiplicity
 _atom_site_fract_x
 _atom_site_fract_y
 _atom_site_fract_z
 _atom_site_occupancy
 _atom_site_charge
  Fe  Fe1  1  0.135380  0.500000  0.000000  1.0  0.8623
  Fe  Fe2  1  0.864620  0.500000  0.000000  1.0  0.8623
  Fe  Fe3  1  0.000000  0.135380  0.500000  1.0  0.8629
  Fe  Fe4  1  0.000000  0.864620  0.500000  1.0  0.8609
  Fe  Fe5  1  0.500000  0.000000  0.135380  1.0  0.8595
  Fe  Fe6  1  0.500000  0.000000  0.864620  1.0  0.8602
  Fe  Fe7  1  0.500000  0.135380  0.000000  1.0  0.8629
  Fe  Fe8  1  0.500000  0.864620  0.000000  1.0  0.8609
  Fe  Fe9  1  0.135380  0.000000  0.500000  1.0  0.8623
  Fe  Fe10  1  0.864620  0.000000  0.500000  1.0  0.8623
  Fe  Fe11  1  0.000000  0.500000  0.864620  1.0  0.8602
  Fe  Fe12  1  0.000000  0.500000  0.135380  1.0  0.8595
  H  H13  1  0.265720  0.265720  0.105950  1.0  0.1302
  H  H14  1  0.734280  0.734280  0.105950  1.0  0.1302
  H  H15  1  0.734280  0.265720  0.894050  1.0  0.1305
  H  H16  1  0.265720  0.734280  0.894050  1.0  0.1303
  H  H17  1  0.105950  0.265720  0.265720  1.0  0.1305
  H  H18  1  0.105950  0.734280  0.734280  1.0  0.1302
  H  H19  1  0.894050  0.734280  0.265720  1.0  0.1316
  H  H20  1  0.894050  0.265720  0.734280  1.0  0.1312
  H  H21  1  0.265720  0.105950  0.265720  1.0  0.13
  H  H22  1  0.734280  0.105950  0.734280  1.0  0.1301
  H  H23  1  0.265720  0.894050  0.734280  1.0  0.1306
  H  H24  1  0.734280  0.894050  0.265720  1.0  0.131
  H  H25  1  0.265720  0.265720  0.894050  1.0  0.1304
  H  H26  1  0.734280  0.734280  0.894050  1.0  0.1302
  H  H27  1  0.265720  0.734280  0.105950  1.0  0.1302
  H  H28  1  0.734280  0.265720  0.105950  1.0  0.1304
  H  H29  1  0.265720  0.105950  0.734280  1.0  0.1302
  H  H30  1  0.734280  0.105950  0.265720  1.0  0.13
  H  H31  1  0.734280  0.894050  0.734280  1.0  0.1308
  H  H32  1  0.265720  0.894050  0.265720  1.0  0.1307
  H  H33  1  0.105950  0.265720  0.734280  1.0  0.1304
  H  H34  1  0.105950  0.734280  0.265720  1.0  0.1303
  H  H35  1  0.894050  0.265720  0.265720  1.0  0.1316
  H  H36  1  0.894050  0.734280  0.734280  1.0  0.1312
  C  C37  1  0.151600  0.335750  0.151600  1.0  0.3032
  C  C38  1  0.180040  0.271150  0.180040  1.0  -0.0753
  C  C39  1  0.848400  0.664250  0.151600  1.0  0.3033
  C  C40  1  0.819960  0.728850  0.180040  1.0  -0.0754
  C  C41  1  0.848400  0.335750  0.848400  1.0  0.3025
  C  C42  1  0.819960  0.271150  0.819960  1.0  -0.0759
  C  C43  1  0.151600  0.664250  0.848400  1.0  0.3032
  C  C44  1  0.180040  0.728850  0.819960  1.0  -0.0756
  C  C45  1  0.151600  0.151600  0.335750  1.0  0.3031
  C  C46  1  0.180040  0.180040  0.271150  1.0  -0.0751
  C  C47  1  0.151600  0.848400  0.664250  1.0  0.3027
  C  C48  1  0.180040  0.819960  0.728850  1.0  -0.0755
  C  C49  1  0.848400  0.848400  0.335750  1.0  0.3018
  C  C50  1  0.819960  0.819960  0.271150  1.0  -0.0753
  C  C51  1  0.848400  0.151600  0.664250  1.0  0.3031
  C  C52  1  0.819960  0.180040  0.728850  1.0  -0.0757
  C  C53  1  0.335750  0.151600  0.151600  1.0  0.3018
  C  C54  1  0.271150  0.180040  0.180040  1.0  -0.0749
  C  C55  1  0.664250  0.151600  0.848400  1.0  0.3022
  C  C56  1  0.728850  0.180040  0.819960  1.0  -0.0765
  C  C57  1  0.335750  0.848400  0.848400  1.0  0.3008
  C  C58  1  0.271150  0.819960  0.819960  1.0  -0.0756
  C  C59  1  0.664250  0.848400  0.151600  1.0  0.3021
  C  C60  1  0.728850  0.819960  0.180040  1.0  -0.0761
  C  C61  1  0.335750  0.151600  0.848400  1.0  0.3013
  C  C62  1  0.271150  0.180040  0.819960  1.0  -0.0755
  C  C63  1  0.664250  0.848400  0.848400  1.0  0.3015
  C  C64  1  0.728850  0.819960  0.819960  1.0  -0.0767
  C  C65  1  0.335750  0.848400  0.151600  1.0  0.3013
  C  C66  1  0.271150  0.819960  0.180040  1.0  -0.0749
  C  C67  1  0.664250  0.151600  0.151600  1.0  0.3028
  C  C68  1  0.728850  0.180040  0.180040  1.0  -0.076
  C  C69  1  0.151600  0.151600  0.664250  1.0  0.3035
  C  C70  1  0.180040  0.180040  0.728850  1.0  -0.0756
  C  C71  1  0.848400  0.151600  0.335750  1.0  0.3026
  C  C72  1  0.819960  0.180040  0.271150  1.0  -0.0752
  C  C73  1  0.848400  0.848400  0.664250  1.0  0.3023
  C  C74  1  0.819960  0.819960  0.728850  1.0  -0.0757
  C  C75  1  0.151600  0.848400  0.335750  1.0  0.3022
  C  C76  1  0.180040  0.819960  0.271150  1.0  -0.0752
  C  C77  1  0.151600  0.335750  0.848400  1.0  0.3029
  C  C78  1  0.180040  0.271150  0.819960  1.0  -0.0759
  C  C79  1  0.151600  0.664250  0.151600  1.0  0.3035
  C  C80  1  0.180040  0.728850  0.180040  1.0  -0.0751
  C  C81  1  0.848400  0.335750  0.151600  1.0  0.303
  C  C82  1  0.819960  0.271150  0.180040  1.0  -0.0753
  C  C83  1  0.848400  0.664250  0.848400  1.0  0.3027
  C  C84  1  0.819960  0.728850  0.819960  1.0  -0.0759
  C  C85  1  0.242270  0.242270  0.149840  1.0  -0.0946
  C  C86  1  0.757730  0.757730  0.149840  1.0  -0.0952
  C  C87  1  0.757730  0.242270  0.850160  1.0  -0.0968
  C  C88  1  0.242270  0.757730  0.850160  1.0  -0.0944
  C  C89  1  0.149840  0.242270  0.242270  1.0  -0.095
  C  C90  1  0.149840  0.757730  0.757730  1.0  -0.0945
  C  C91  1  0.850160  0.757730  0.242270  1.0  -0.0944
  C  C92  1  0.850160  0.242270  0.757730  1.0  -0.0945
  C  C93  1  0.242270  0.149840  0.242270  1.0  -0.0981
  C  C94  1  0.757730  0.149840  0.757730  1.0  -0.0994
  C  C95  1  0.242270  0.850160  0.757730  1.0  -0.0995
  C  C96  1  0.757730  0.850160  0.242270  1.0  -0.1013
  C  C97  1  0.242270  0.242270  0.850160  1.0  -0.0955
  C  C98  1  0.757730  0.757730  0.850160  1.0  -0.0957
  C  C99  1  0.242270  0.757730  0.149840  1.0  -0.0943
  C  C100  1  0.757730  0.242270  0.149840  1.0  -0.0953
  C  C101  1  0.242270  0.149840  0.757730  1.0  -0.0947
  C  C102  1  0.757730  0.149840  0.242270  1.0  -0.0956
  C  C103  1  0.757730  0.850160  0.757730  1.0  -0.0968
  C  C104  1  0.242270  0.850160  0.242270  1.0  -0.0969
  C  C105  1  0.149840  0.242270  0.757730  1.0  -0.0979
  C  C106  1  0.149840  0.757730  0.242270  1.0  -0.0981
  C  C107  1  0.850160  0.242270  0.242270  1.0  -0.0982
  C  C108  1  0.850160  0.757730  0.757730  1.0  -0.098
  N  N109  1  0.131080  0.420560  0.081670  1.0  -0.015
  N  N110  1  0.175690  0.368020  0.091650  1.0  -0.3154
  N  N111  1  0.868920  0.579440  0.081670  1.0  -0.0149
  N  N112  1  0.824310  0.631980  0.091650  1.0  -0.3151
  N  N113  1  0.868920  0.420560  0.918330  1.0  -0.0142
  N  N114  1  0.824310  0.368020  0.908350  1.0  -0.3152
  N  N115  1  0.131080  0.579440  0.918330  1.0  -0.0152
  N  N116  1  0.175690  0.631980  0.908350  1.0  -0.3144
  N  N117  1  0.081670  0.131080  0.420560  1.0  -0.0167
  N  N118  1  0.091650  0.175690  0.368020  1.0  -0.3152
  N  N119  1  0.081670  0.868920  0.579440  1.0  -0.0164
  N  N120  1  0.091650  0.824310  0.631980  1.0  -0.3167
  N  N121  1  0.918330  0.868920  0.420560  1.0  -0.0158
  N  N122  1  0.908350  0.824310  0.368020  1.0  -0.3171
  N  N123  1  0.918330  0.131080  0.579440  1.0  -0.0161
  N  N124  1  0.908350  0.175690  0.631980  1.0  -0.3164
  N  N125  1  0.420560  0.081670  0.131080  1.0  -0.0146
  N  N126  1  0.368020  0.091650  0.175690  1.0  -0.3157
  N  N127  1  0.579440  0.081670  0.868920  1.0  -0.0168
  N  N128  1  0.631980  0.091650  0.824310  1.0  -0.3178
  N  N129  1  0.420560  0.918330  0.868920  1.0  -0.0159
  N  N130  1  0.368020  0.908350  0.824310  1.0  -0.3168
  N  N131  1  0.579440  0.918330  0.131080  1.0  -0.0165
  N  N132  1  0.631980  0.908350  0.175690  1.0  -0.3165
  N  N133  1  0.420560  0.131080  0.918330  1.0  -0.0145
  N  N134  1  0.368020  0.175690  0.908350  1.0  -0.3154
  N  N135  1  0.579440  0.868920  0.918330  1.0  -0.0164
  N  N136  1  0.631980  0.824310  0.908350  1.0  -0.3176
  N  N137  1  0.420560  0.868920  0.081670  1.0  -0.0152
  N  N138  1  0.368020  0.824310  0.091650  1.0  -0.3172
  N  N139  1  0.579440  0.131080  0.081670  1.0  -0.016
  N  N140  1  0.631980  0.175690  0.091650  1.0  -0.3173
  N  N141  1  0.131080  0.081670  0.579440  1.0  -0.0164
  N  N142  1  0.175690  0.091650  0.631980  1.0  -0.3148
  N  N143  1  0.868920  0.081670  0.420560  1.0  -0.0162
  N  N144  1  0.824310  0.091650  0.368020  1.0  -0.3159
  N  N145  1  0.868920  0.918330  0.579440  1.0  -0.0166
  N  N146  1  0.824310  0.908350  0.631980  1.0  -0.3155
  N  N147  1  0.131080  0.918330  0.420560  1.0  -0.0169
  N  N148  1  0.175690  0.908350  0.368020  1.0  -0.3154
  N  N149  1  0.081670  0.420560  0.868920  1.0  -0.0156
  N  N150  1  0.091650  0.368020  0.824310  1.0  -0.3163
  N  N151  1  0.081670  0.579440  0.131080  1.0  -0.0157
  N  N152  1  0.091650  0.631980  0.175690  1.0  -0.3148
  N  N153  1  0.918330  0.420560  0.131080  1.0  -0.0146
  N  N154  1  0.908350  0.368020  0.175690  1.0  -0.3163
  N  N155  1  0.918330  0.579440  0.868920  1.0  -0.0154
  N  N156  1  0.908350  0.631980  0.824310  1.0  -0.3177
  N  N157  1  0.868920  0.579440  0.918330  1.0  -0.0148
  N  N158  1  0.824310  0.631980  0.908350  1.0  -0.3176
  N  N159  1  0.131080  0.420560  0.918330  1.0  -0.0145
  N  N160  1  0.175690  0.368020  0.908350  1.0  -0.317
  N  N161  1  0.131080  0.579440  0.081670  1.0  -0.0151
  N  N162  1  0.175690  0.631980  0.091650  1.0  -0.3174
  N  N163  1  0.868920  0.420560  0.081670  1.0  -0.0149
  N  N164  1  0.824310  0.368020  0.091650  1.0  -0.3179
  N  N165  1  0.918330  0.868920  0.579440  1.0  -0.0162
  N  N166  1  0.908350  0.824310  0.631980  1.0  -0.3194
  N  N167  1  0.918330  0.131080  0.420560  1.0  -0.0157
  N  N168  1  0.908350  0.175690  0.368020  1.0  -0.319
  N  N169  1  0.081670  0.131080  0.579440  1.0  -0.0163
  N  N170  1  0.091650  0.175690  0.631980  1.0  -0.3175
  N  N171  1  0.081670  0.868920  0.420560  1.0  -0.0169
  N  N172  1  0.091650  0.824310  0.368020  1.0  -0.3192
  N  N173  1  0.579440  0.918330  0.868920  1.0  -0.017
  N  N174  1  0.631980  0.908350  0.824310  1.0  -0.3211
  N  N175  1  0.420560  0.918330  0.131080  1.0  -0.0151
  N  N176  1  0.368020  0.908350  0.175690  1.0  -0.3185
  N  N177  1  0.579440  0.081670  0.131080  1.0  -0.0161
  N  N178  1  0.631980  0.091650  0.175690  1.0  -0.3189
  N  N179  1  0.420560  0.081670  0.868920  1.0  -0.0154
  N  N180  1  0.368020  0.091650  0.824310  1.0  -0.3193
  N  N181  1  0.579440  0.868920  0.081670  1.0  -0.0161
  N  N182  1  0.631980  0.824310  0.091650  1.0  -0.3209
  N  N183  1  0.420560  0.131080  0.081670  1.0  -0.0151
  N  N184  1  0.368020  0.175690  0.091650  1.0  -0.3188
  N  N185  1  0.579440  0.131080  0.918330  1.0  -0.016
  N  N186  1  0.631980  0.175690  0.908350  1.0  -0.3188
  N  N187  1  0.420560  0.868920  0.918330  1.0  -0.0149
  N  N188  1  0.368020  0.824310  0.908350  1.0  -0.3193
  N  N189  1  0.868920  0.918330  0.420560  1.0  -0.0165
  N  N190  1  0.824310  0.908350  0.368020  1.0  -0.3178
  N  N191  1  0.131080  0.918330  0.579440  1.0  -0.0168
  N  N192  1  0.175690  0.908350  0.631980  1.0  -0.3175
  N  N193  1  0.131080  0.081670  0.420560  1.0  -0.0163
  N  N194  1  0.175690  0.091650  0.368020  1.0  -0.3169
  N  N195  1  0.868920  0.081670  0.579440  1.0  -0.0163
  N  N196  1  0.824310  0.091650  0.631980  1.0  -0.3186
  N  N197  1  0.918330  0.579440  0.131080  1.0  -0.0146
  N  N198  1  0.908350  0.631980  0.175690  1.0  -0.3183
  N  N199  1  0.918330  0.420560  0.868920  1.0  -0.0152
  N  N200  1  0.908350  0.368020  0.824310  1.0  -0.3203
  N  N201  1  0.081670  0.579440  0.868920  1.0  -0.0161
  N  N202  1  0.091650  0.631980  0.824310  1.0  -0.3184
  N  N203  1  0.081670  0.420560  0.131080  1.0  -0.0154
  N  N204  1  0.091650  0.368020  0.175690  1.0  -0.3176
  Cl  Cl205  1  0.000000  0.500000  0.000000  1.0  -0.204
  Cl  Cl206  1  0.000000  0.000000  0.500000  1.0  -0.204
  Cl  Cl207  1  0.500000  0.000000  0.000000  1.0  -0.204
