# generated using pymatgen
data_Th3H9C27O19
_symmetry_space_group_name_H-M   'P 1'
_cell_length_a   18.44480000
_cell_length_b   18.44480000
_cell_length_c   9.80840000
_cell_angle_alpha   90.00000000
_cell_angle_beta   90.00000000
_cell_angle_gamma   120.00000000
_symmetry_Int_Tables_number   1
_chemical_formula_structural   Th3H9C27O19
_chemical_formula_sum   'Th6 H18 C54 O38'
_cell_volume   2889.85931808
_cell_formula_units_Z   2
loop_
 _symmetry_equiv_pos_site_id
 _symmetry_equiv_pos_as_xyz
  1  'x, y, z'
loop_
 _atom_site_type_symbol
 _atom_site_label
 _atom_site_symmetry_multiplicity
 _atom_site_fract_x
 _atom_site_fract_y
 _atom_site_fract_z
 _atom_site_occupancy
 _atom_site_charge
  Th  Th1  1  0.646170  0.202010  0.250000  1.0  2.3123
  Th  Th2  1  0.797990  0.444160  0.250000  1.0  2.3128
  Th  Th3  1  0.555840  0.353830  0.250000  1.0  2.3128
  Th  Th4  1  0.353830  0.797990  0.750000  1.0  2.3132
  Th  Th5  1  0.202010  0.555840  0.750000  1.0  2.313
  Th  Th6  1  0.444160  0.646170  0.750000  1.0  2.3111
  H  H7  1  0.515000  0.916800  0.455500  1.0  0.1313
  H  H8  1  0.083200  0.598200  0.455500  1.0  0.1354
  H  H9  1  0.401800  0.485000  0.455500  1.0  0.1333
  H  H10  1  0.485000  0.083200  0.955500  1.0  0.1315
  H  H11  1  0.916800  0.401800  0.955500  1.0  0.1349
  H  H12  1  0.598200  0.515000  0.955500  1.0  0.1332
  H  H13  1  0.485000  0.083200  0.544500  1.0  0.1309
  H  H14  1  0.916800  0.401800  0.544500  1.0  0.1346
  H  H15  1  0.598200  0.515000  0.544500  1.0  0.1324
  H  H16  1  0.515000  0.916800  0.044500  1.0  0.1308
  H  H17  1  0.083200  0.598200  0.044500  1.0  0.1347
  H  H18  1  0.401800  0.485000  0.044500  1.0  0.1328
  H  H19  1  0.458100  0.707000  0.250000  1.0  0.1259
  H  H20  1  0.293000  0.751100  0.250000  1.0  0.1249
  H  H21  1  0.248900  0.541900  0.250000  1.0  0.125
  H  H22  1  0.541900  0.293000  0.750000  1.0  0.1258
  H  H23  1  0.707000  0.248900  0.750000  1.0  0.1243
  H  H24  1  0.751100  0.458100  0.750000  1.0  0.1268
  C  C25  1  0.470200  0.759400  0.504500  1.0  0.739
  C  C26  1  0.484800  0.805200  0.372900  1.0  -0.1482
  C  C27  1  0.508600  0.889100  0.373300  1.0  0.0428
  C  C28  1  0.240600  0.710800  0.504500  1.0  0.74
  C  C29  1  0.194800  0.679600  0.372900  1.0  -0.1505
  C  C30  1  0.110900  0.619500  0.373300  1.0  0.0404
  C  C31  1  0.289200  0.529800  0.504500  1.0  0.7385
  C  C32  1  0.320400  0.515200  0.372900  1.0  -0.1459
  C  C33  1  0.380500  0.491400  0.373300  1.0  0.0445
  C  C34  1  0.529800  0.240600  0.004500  1.0  0.7375
  C  C35  1  0.515200  0.194800  0.872900  1.0  -0.1497
  C  C36  1  0.491400  0.110900  0.873300  1.0  0.0446
  C  C37  1  0.759400  0.289200  0.004500  1.0  0.7408
  C  C38  1  0.805200  0.320400  0.872900  1.0  -0.1494
  C  C39  1  0.889100  0.380500  0.873300  1.0  0.0387
  C  C40  1  0.710800  0.470200  0.004500  1.0  0.7394
  C  C41  1  0.679600  0.484800  0.872900  1.0  -0.1462
  C  C42  1  0.619500  0.508600  0.873300  1.0  0.0443
  C  C43  1  0.529800  0.240600  0.495500  1.0  0.7369
  C  C44  1  0.515200  0.194800  0.627100  1.0  -0.149
  C  C45  1  0.491400  0.110900  0.626700  1.0  0.0445
  C  C46  1  0.759400  0.289200  0.495500  1.0  0.7391
  C  C47  1  0.805200  0.320400  0.627100  1.0  -0.1481
  C  C48  1  0.889100  0.380500  0.626700  1.0  0.0382
  C  C49  1  0.710800  0.470200  0.495500  1.0  0.7384
  C  C50  1  0.679600  0.484800  0.627100  1.0  -0.1444
  C  C51  1  0.619500  0.508600  0.626700  1.0  0.0442
  C  C52  1  0.470200  0.759400  0.995500  1.0  0.7375
  C  C53  1  0.484800  0.805200  0.127100  1.0  -0.1459
  C  C54  1  0.508600  0.889100  0.126700  1.0  0.0422
  C  C55  1  0.240600  0.710800  0.995500  1.0  0.7403
  C  C56  1  0.194800  0.679600  0.127100  1.0  -0.1493
  C  C57  1  0.110900  0.619500  0.126700  1.0  0.0405
  C  C58  1  0.289200  0.529800  0.995500  1.0  0.7379
  C  C59  1  0.320400  0.515200  0.127100  1.0  -0.1448
  C  C60  1  0.380500  0.491400  0.126700  1.0  0.0446
  C  C61  1  0.523200  0.932400  0.250000  1.0  -0.1332
  C  C62  1  0.553800  0.022800  0.250000  1.0  0.6912
  C  C63  1  0.473400  0.763300  0.250000  1.0  0.0241
  C  C64  1  0.067600  0.590800  0.250000  1.0  -0.1403
  C  C65  1  0.977200  0.531000  0.250000  1.0  0.6875
  C  C66  1  0.236700  0.710100  0.250000  1.0  0.0239
  C  C67  1  0.409200  0.476800  0.250000  1.0  -0.1409
  C  C68  1  0.469000  0.446200  0.250000  1.0  0.6897
  C  C69  1  0.289900  0.526600  0.250000  1.0  0.0198
  C  C70  1  0.476800  0.067600  0.750000  1.0  -0.1352
  C  C71  1  0.446200  0.977200  0.750000  1.0  0.6921
  C  C72  1  0.526600  0.236700  0.750000  1.0  0.022
  C  C73  1  0.932400  0.409200  0.750000  1.0  -0.1405
  C  C74  1  0.022800  0.469000  0.750000  1.0  0.6903
  C  C75  1  0.763300  0.289900  0.750000  1.0  0.0229
  C  C76  1  0.590800  0.523200  0.750000  1.0  -0.141
  C  C77  1  0.531000  0.553800  0.750000  1.0  0.6865
  C  C78  1  0.710100  0.473400  0.750000  1.0  0.0241
  O  O79  1  0.568600  0.062300  0.361000  1.0  -0.6727
  O  O80  1  0.461600  0.687800  0.504400  1.0  -0.6686
  O  O81  1  0.467100  0.793900  0.614100  1.0  -0.7244
  O  O82  1  0.937700  0.506300  0.361000  1.0  -0.6713
  O  O83  1  0.312200  0.773800  0.504400  1.0  -0.6718
  O  O84  1  0.206100  0.673200  0.614100  1.0  -0.7196
  O  O85  1  0.493700  0.431400  0.361000  1.0  -0.6729
  O  O86  1  0.226200  0.538400  0.504400  1.0  -0.6648
  O  O87  1  0.326800  0.532900  0.614100  1.0  -0.718
  O  O88  1  0.431400  0.937700  0.861000  1.0  -0.6737
  O  O89  1  0.538400  0.312200  0.004400  1.0  -0.6711
  O  O90  1  0.532900  0.206100  0.114100  1.0  -0.7202
  O  O91  1  0.062300  0.493700  0.861000  1.0  -0.6709
  O  O92  1  0.687800  0.226200  0.004400  1.0  -0.668
  O  O93  1  0.793900  0.326800  0.114100  1.0  -0.7214
  O  O94  1  0.506300  0.568600  0.861000  1.0  -0.6726
  O  O95  1  0.773800  0.461600  0.004400  1.0  -0.6627
  O  O96  1  0.673200  0.467100  0.114100  1.0  -0.7176
  O  O97  1  0.431400  0.937700  0.639000  1.0  -0.6736
  O  O98  1  0.538400  0.312200  0.495600  1.0  -0.6713
  O  O99  1  0.532900  0.206100  0.385900  1.0  -0.7227
  O  O100  1  0.062300  0.493700  0.639000  1.0  -0.6708
  O  O101  1  0.687800  0.226200  0.495600  1.0  -0.6685
  O  O102  1  0.793900  0.326800  0.385900  1.0  -0.721
  O  O103  1  0.506300  0.568600  0.639000  1.0  -0.6715
  O  O104  1  0.773800  0.461600  0.495600  1.0  -0.6629
  O  O105  1  0.673200  0.467100  0.385900  1.0  -0.7178
  O  O106  1  0.568600  0.062300  0.139000  1.0  -0.6724
  O  O107  1  0.461600  0.687800  0.995600  1.0  -0.6692
  O  O108  1  0.467100  0.793900  0.885900  1.0  -0.7225
  O  O109  1  0.937700  0.506300  0.139000  1.0  -0.6702
  O  O110  1  0.312200  0.773800  0.995600  1.0  -0.6721
  O  O111  1  0.206100  0.673200  0.885900  1.0  -0.7206
  O  O112  1  0.493700  0.431400  0.139000  1.0  -0.6733
  O  O113  1  0.226200  0.538400  0.995600  1.0  -0.665
  O  O114  1  0.326800  0.532900  0.885900  1.0  -0.719
  O  O115  1  0.666667  0.333333  0.250000  1.0  -1.2716
  O  O116  1  0.333333  0.666667  0.750000  1.0  -1.2716
