# generated using pymatgen
data_Th2H9(C3O2)9
_symmetry_space_group_name_H-M   'P 1'
_cell_length_a   20.51580000
_cell_length_b   10.00120000
_cell_length_c   21.51450000
_cell_angle_alpha   90.00000000
_cell_angle_beta   99.15600000
_cell_angle_gamma   90.00000000
_symmetry_Int_Tables_number   1
_chemical_formula_structural   Th2H9(C3O2)9
_chemical_formula_sum   'Th8 H36 C108 O72'
_cell_volume   4358.15648038
_cell_formula_units_Z   4
loop_
 _symmetry_equiv_pos_site_id
 _symmetry_equiv_pos_as_xyz
  1  'x, y, z'
loop_
 _atom_site_type_symbol
 _atom_site_label
 _atom_site_symmetry_multiplicity
 _atom_site_fract_x
 _atom_site_fract_y
 _atom_site_fract_z
 _atom_site_occupancy
 _atom_site_charge
  Th  Th1  1  0.148130  0.695280  0.415760  1.0  2.2562
  Th  Th2  1  0.359520  0.703470  0.601210  1.0  2.3977
  Th  Th3  1  0.851870  0.195280  0.084240  1.0  2.2564
  Th  Th4  1  0.640480  0.203470  0.898790  1.0  2.407
  Th  Th5  1  0.851870  0.304720  0.584240  1.0  2.256
  Th  Th6  1  0.640480  0.296530  0.398790  1.0  2.3988
  Th  Th7  1  0.148130  0.804720  0.915760  1.0  2.2571
  Th  Th8  1  0.359520  0.796530  0.101210  1.0  2.4058
  H  H9  1  0.196500  0.103100  0.421500  1.0  0.1333
  H  H10  1  0.305300  0.099200  0.594100  1.0  0.1265
  H  H11  1  0.064300  0.528100  0.561500  1.0  0.1388
  H  H12  1  0.431300  0.982200  0.944400  1.0  0.1282
  H  H13  1  0.198300  0.686600  0.699600  1.0  0.1287
  H  H14  1  0.438400  0.033000  0.760200  1.0  0.1313
  H  H15  1  0.282600  0.847500  0.814800  1.0  0.1399
  H  H16  1  0.268700  0.446900  0.502400  1.0  0.1103
  H  H17  1  0.030000  0.525600  0.740400  1.0  0.1367
  H  H18  1  0.803500  0.603100  0.078500  1.0  0.1334
  H  H19  1  0.694700  0.599200  0.905900  1.0  0.1268
  H  H20  1  0.935700  0.028100  0.938500  1.0  0.138
  H  H21  1  0.568700  0.482200  0.555600  1.0  0.129
  H  H22  1  0.801700  0.186600  0.800400  1.0  0.1293
  H  H23  1  0.561600  0.533000  0.739800  1.0  0.1315
  H  H24  1  0.717400  0.347500  0.685200  1.0  0.1402
  H  H25  1  0.731300  0.946900  0.997600  1.0  0.1104
  H  H26  1  0.970000  0.025600  0.759600  1.0  0.1359
  H  H27  1  0.803500  0.896900  0.578500  1.0  0.1332
  H  H28  1  0.694700  0.900800  0.405900  1.0  0.1269
  H  H29  1  0.935700  0.471900  0.438500  1.0  0.138
  H  H30  1  0.568700  0.017800  0.055600  1.0  0.1285
  H  H31  1  0.801700  0.313400  0.300400  1.0  0.1292
  H  H32  1  0.561600  0.967000  0.239800  1.0  0.1314
  H  H33  1  0.717400  0.152500  0.185200  1.0  0.1397
  H  H34  1  0.731300  0.553100  0.497600  1.0  0.1104
  H  H35  1  0.970000  0.474400  0.259600  1.0  0.1359
  H  H36  1  0.196500  0.396900  0.921500  1.0  0.1334
  H  H37  1  0.305300  0.400800  0.094100  1.0  0.1264
  H  H38  1  0.064300  0.971900  0.061500  1.0  0.1387
  H  H39  1  0.431300  0.517800  0.444400  1.0  0.1279
  H  H40  1  0.198300  0.813400  0.199600  1.0  0.1289
  H  H41  1  0.438400  0.467000  0.260200  1.0  0.1311
  H  H42  1  0.282600  0.652500  0.314800  1.0  0.14
  H  H43  1  0.268700  0.053100  0.002400  1.0  0.1096
  H  H44  1  0.030000  0.974400  0.240400  1.0  0.1368
  C  C45  1  0.220500  0.148700  0.455300  1.0  0.0489
  C  C46  1  0.285800  0.146400  0.558700  1.0  0.03
  C  C47  1  0.140400  0.604800  0.624200  1.0  -0.1376
  C  C48  1  0.227400  0.287000  0.452700  1.0  -0.1396
  C  C49  1  0.318800  0.845700  0.937000  1.0  0.7811
  C  C50  1  0.249400  0.079000  0.508500  1.0  -0.1252
  C  C51  1  0.187200  0.623700  0.579300  1.0  0.7919
  C  C52  1  0.078200  0.546800  0.603900  1.0  0.0437
  C  C53  1  0.411900  0.973700  0.902500  1.0  0.0339
  C  C54  1  0.293100  0.284300  0.556400  1.0  -0.1255
  C  C55  1  0.158300  0.643500  0.686700  1.0  0.0198
  C  C56  1  0.442700  0.027700  0.854900  1.0  -0.1367
  C  C57  1  0.037700  0.517900  0.648400  1.0  -0.0991
  C  C58  1  0.415800  0.004800  0.792000  1.0  0.0327
  C  C59  1  0.133600  0.665300  0.796900  1.0  0.7347
  C  C60  1  0.241800  0.932300  0.510800  1.0  0.7499
  C  C61  1  0.115900  0.617400  0.730100  1.0  -0.1092
  C  C62  1  0.323000  0.890800  0.824600  1.0  0.0085
  C  C63  1  0.352200  0.907300  0.887000  1.0  -0.1357
  C  C64  1  0.264000  0.354600  0.503800  1.0  0.0275
  C  C65  1  0.355400  0.940200  0.776600  1.0  -0.0811
  C  C66  1  0.056600  0.549400  0.711000  1.0  0.0319
  C  C67  1  0.195000  0.358500  0.394100  1.0  0.7465
  C  C68  1  0.973000  0.453000  0.627100  1.0  0.7495
  C  C69  1  0.323600  0.914900  0.709500  1.0  0.6605
  C  C70  1  0.333600  0.354800  0.611500  1.0  0.7476
  C  C71  1  0.506000  0.101000  0.870800  1.0  0.6835
  C  C72  1  0.779500  0.648700  0.044700  1.0  0.0487
  C  C73  1  0.714200  0.646400  0.941300  1.0  0.029
  C  C74  1  0.859600  0.104800  0.875800  1.0  -0.1367
  C  C75  1  0.772600  0.787000  0.047300  1.0  -0.1398
  C  C76  1  0.681200  0.345700  0.563000  1.0  0.7798
  C  C77  1  0.750600  0.579000  0.991500  1.0  -0.1247
  C  C78  1  0.812800  0.123700  0.920700  1.0  0.793
  C  C79  1  0.921800  0.046800  0.896100  1.0  0.0439
  C  C80  1  0.588100  0.473700  0.597500  1.0  0.0338
  C  C81  1  0.706900  0.784300  0.943600  1.0  -0.1249
  C  C82  1  0.841700  0.143500  0.813300  1.0  0.0182
  C  C83  1  0.557300  0.527700  0.645100  1.0  -0.1364
  C  C84  1  0.962300  0.017900  0.851600  1.0  -0.0993
  C  C85  1  0.584200  0.504800  0.708000  1.0  0.0318
  C  C86  1  0.866400  0.165300  0.703100  1.0  0.7349
  C  C87  1  0.758200  0.432300  0.989200  1.0  0.7503
  C  C88  1  0.884100  0.117400  0.769900  1.0  -0.1087
  C  C89  1  0.677000  0.390800  0.675400  1.0  0.0087
  C  C90  1  0.647800  0.407300  0.613000  1.0  -0.1353
  C  C91  1  0.736000  0.854600  0.996200  1.0  0.0269
  C  C92  1  0.644600  0.440200  0.723400  1.0  -0.083
  C  C93  1  0.943400  0.049400  0.789000  1.0  0.0316
  C  C94  1  0.805000  0.858500  0.105900  1.0  0.7475
  C  C95  1  0.027000  0.953000  0.872900  1.0  0.7498
  C  C96  1  0.676400  0.414900  0.790500  1.0  0.6615
  C  C97  1  0.666400  0.854800  0.888500  1.0  0.7479
  C  C98  1  0.494000  0.601000  0.629200  1.0  0.6819
  C  C99  1  0.779500  0.851300  0.544700  1.0  0.0484
  C  C100  1  0.714200  0.853600  0.441300  1.0  0.0291
  C  C101  1  0.859600  0.395200  0.375800  1.0  -0.1367
  C  C102  1  0.772600  0.713000  0.547300  1.0  -0.1391
  C  C103  1  0.681200  0.154300  0.063000  1.0  0.7804
  C  C104  1  0.750600  0.921000  0.491500  1.0  -0.1247
  C  C105  1  0.812800  0.376300  0.420700  1.0  0.7929
  C  C106  1  0.921800  0.453200  0.396100  1.0  0.0438
  C  C107  1  0.588100  0.026300  0.097500  1.0  0.0336
  C  C108  1  0.706900  0.715700  0.443600  1.0  -0.1257
  C  C109  1  0.841700  0.356500  0.313300  1.0  0.0183
  C  C110  1  0.557300  0.972300  0.145100  1.0  -0.1374
  C  C111  1  0.962300  0.482100  0.351600  1.0  -0.0996
  C  C112  1  0.584200  0.995200  0.208000  1.0  0.0324
  C  C113  1  0.866400  0.334700  0.203100  1.0  0.7348
  C  C114  1  0.758200  0.067700  0.489200  1.0  0.752
  C  C115  1  0.884100  0.382600  0.269900  1.0  -0.1087
  C  C116  1  0.677000  0.109200  0.175400  1.0  0.0095
  C  C117  1  0.647800  0.092700  0.113000  1.0  -0.1343
  C  C118  1  0.736000  0.645400  0.496200  1.0  0.0273
  C  C119  1  0.644600  0.059800  0.223400  1.0  -0.0829
  C  C120  1  0.943400  0.450600  0.289000  1.0  0.0311
  C  C121  1  0.805000  0.641500  0.605900  1.0  0.7473
  C  C122  1  0.027000  0.547000  0.372900  1.0  0.7502
  C  C123  1  0.676400  0.085100  0.290500  1.0  0.662
  C  C124  1  0.666400  0.645200  0.388500  1.0  0.7472
  C  C125  1  0.494000  0.899000  0.129200  1.0  0.6836
  C  C126  1  0.220500  0.351300  0.955300  1.0  0.0489
  C  C127  1  0.285800  0.353600  0.058700  1.0  0.0296
  C  C128  1  0.140400  0.895200  0.124200  1.0  -0.1378
  C  C129  1  0.227400  0.213000  0.952700  1.0  -0.1396
  C  C130  1  0.318800  0.654300  0.437000  1.0  0.7807
  C  C131  1  0.249400  0.421000  0.008500  1.0  -0.1251
  C  C132  1  0.187200  0.876300  0.079300  1.0  0.7918
  C  C133  1  0.078200  0.953200  0.103900  1.0  0.0439
  C  C134  1  0.411900  0.526300  0.402500  1.0  0.0338
  C  C135  1  0.293100  0.215700  0.056400  1.0  -0.1251
  C  C136  1  0.158300  0.856500  0.186700  1.0  0.0196
  C  C137  1  0.442700  0.472300  0.354900  1.0  -0.137
  C  C138  1  0.037700  0.982100  0.148400  1.0  -0.0991
  C  C139  1  0.415800  0.495200  0.292000  1.0  0.0325
  C  C140  1  0.133600  0.834700  0.296900  1.0  0.7348
  C  C141  1  0.241800  0.567700  0.010800  1.0  0.7515
  C  C142  1  0.115900  0.882600  0.230100  1.0  -0.1092
  C  C143  1  0.323000  0.609200  0.324600  1.0  0.0083
  C  C144  1  0.352200  0.592700  0.387000  1.0  -0.135
  C  C145  1  0.264000  0.145400  0.003800  1.0  0.028
  C  C146  1  0.355400  0.559800  0.276600  1.0  -0.0812
  C  C147  1  0.056600  0.950600  0.211000  1.0  0.0307
  C  C148  1  0.195000  0.141500  0.894100  1.0  0.7464
  C  C149  1  0.973000  0.047000  0.127100  1.0  0.7497
  C  C150  1  0.323600  0.585100  0.209500  1.0  0.6609
  C  C151  1  0.333600  0.145200  0.111500  1.0  0.7469
  C  C152  1  0.506000  0.399000  0.370800  1.0  0.6843
  O  O153  1  0.264400  0.789000  0.921700  1.0  -0.67
  O  O154  1  0.165200  0.617200  0.521500  1.0  -0.6945
  O  O155  1  0.109500  0.615300  0.840700  1.0  -0.5945
  O  O156  1  0.246600  0.641200  0.601500  1.0  -0.709
  O  O157  1  0.946800  0.384000  0.665500  1.0  -0.628
  O  O158  1  0.353800  0.472700  0.601000  1.0  -0.7004
  O  O159  1  0.172600  0.765000  0.807200  1.0  -0.6913
  O  O160  1  0.189000  0.883800  0.478600  1.0  -0.7002
  O  O161  1  0.285500  0.865700  0.543600  1.0  -0.717
  O  O162  1  0.348000  0.852900  0.992100  1.0  -0.6896
  O  O163  1  0.187900  0.484400  0.396700  1.0  -0.7145
  O  O164  1  0.364000  0.889400  0.671400  1.0  -0.7032
  O  O165  1  0.533300  0.110000  0.927400  1.0  -0.6684
  O  O166  1  0.944100  0.469400  0.571100  1.0  -0.676
  O  O167  1  0.533300  0.155200  0.827900  1.0  -0.6829
  O  O168  1  0.347400  0.294100  0.661000  1.0  -0.4725
  O  O169  1  0.177800  0.294800  0.346400  1.0  -0.4262
  O  O170  1  0.260000  0.924400  0.694900  1.0  -0.5258
  O  O171  1  0.735600  0.289000  0.578300  1.0  -0.6708
  O  O172  1  0.834800  0.117200  0.978500  1.0  -0.6933
  O  O173  1  0.890500  0.115300  0.659300  1.0  -0.5948
  O  O174  1  0.753400  0.141200  0.898500  1.0  -0.7106
  O  O175  1  0.053200  0.884000  0.834500  1.0  -0.6268
  O  O176  1  0.646200  0.972700  0.899000  1.0  -0.6997
  O  O177  1  0.827400  0.265000  0.692800  1.0  -0.6908
  O  O178  1  0.811000  0.383800  0.021400  1.0  -0.7022
  O  O179  1  0.714500  0.365700  0.956400  1.0  -0.7157
  O  O180  1  0.652000  0.352900  0.507900  1.0  -0.6899
  O  O181  1  0.812100  0.984400  0.103300  1.0  -0.7143
  O  O182  1  0.636000  0.389400  0.828600  1.0  -0.7052
  O  O183  1  0.466700  0.610000  0.572600  1.0  -0.6668
  O  O184  1  0.055900  0.969400  0.928900  1.0  -0.6768
  O  O185  1  0.466700  0.655200  0.672100  1.0  -0.68
  O  O186  1  0.652600  0.794100  0.839000  1.0  -0.4758
  O  O187  1  0.822200  0.794800  0.153600  1.0  -0.4214
  O  O188  1  0.740000  0.424400  0.805100  1.0  -0.5302
  O  O189  1  0.735600  0.211000  0.078300  1.0  -0.6698
  O  O190  1  0.834800  0.382800  0.478500  1.0  -0.6926
  O  O191  1  0.890500  0.384700  0.159300  1.0  -0.5949
  O  O192  1  0.753400  0.358800  0.398500  1.0  -0.7109
  O  O193  1  0.053200  0.616000  0.334500  1.0  -0.6266
  O  O194  1  0.646200  0.527300  0.399000  1.0  -0.701
  O  O195  1  0.827400  0.235000  0.192800  1.0  -0.6909
  O  O196  1  0.811000  0.116200  0.521400  1.0  -0.7026
  O  O197  1  0.714500  0.134300  0.456400  1.0  -0.7171
  O  O198  1  0.652000  0.147100  0.007900  1.0  -0.6897
  O  O199  1  0.812100  0.515600  0.603300  1.0  -0.7158
  O  O200  1  0.636000  0.110600  0.328600  1.0  -0.7051
  O  O201  1  0.466700  0.890000  0.072600  1.0  -0.6672
  O  O202  1  0.055900  0.530600  0.428900  1.0  -0.6769
  O  O203  1  0.466700  0.844800  0.172100  1.0  -0.6794
  O  O204  1  0.652600  0.705900  0.339000  1.0  -0.4759
  O  O205  1  0.822200  0.705200  0.653600  1.0  -0.4221
  O  O206  1  0.740000  0.075600  0.305100  1.0  -0.5299
  O  O207  1  0.264400  0.711000  0.421700  1.0  -0.6687
  O  O208  1  0.165200  0.882800  0.021500  1.0  -0.6941
  O  O209  1  0.109500  0.884700  0.340700  1.0  -0.5963
  O  O210  1  0.246600  0.858800  0.101500  1.0  -0.709
  O  O211  1  0.946800  0.116000  0.165500  1.0  -0.6284
  O  O212  1  0.353800  0.027300  0.101000  1.0  -0.701
  O  O213  1  0.172600  0.735000  0.307200  1.0  -0.6912
  O  O214  1  0.189000  0.616200  0.978600  1.0  -0.6998
  O  O215  1  0.285500  0.634300  0.043600  1.0  -0.7181
  O  O216  1  0.348000  0.647100  0.492100  1.0  -0.6902
  O  O217  1  0.187900  0.015600  0.896700  1.0  -0.7134
  O  O218  1  0.364000  0.610600  0.171400  1.0  -0.7031
  O  O219  1  0.533300  0.390000  0.427400  1.0  -0.6682
  O  O220  1  0.944100  0.030600  0.071100  1.0  -0.6765
  O  O221  1  0.533300  0.344800  0.327900  1.0  -0.6814
  O  O222  1  0.347400  0.205900  0.161000  1.0  -0.4729
  O  O223  1  0.177800  0.205200  0.846400  1.0  -0.4258
  O  O224  1  0.260000  0.575600  0.194900  1.0  -0.5251
