# generated using pymatgen
data_Th2H9(C3O2)9
_symmetry_space_group_name_H-M   'P 1'
_cell_length_a   20.23270000
_cell_length_b   10.07140000
_cell_length_c   21.67300000
_cell_angle_alpha   90.00000000
_cell_angle_beta   97.85600000
_cell_angle_gamma   90.00000000
_symmetry_Int_Tables_number   1
_chemical_formula_structural   Th2H9(C3O2)9
_chemical_formula_sum   'Th8 H36 C108 O72'
_cell_volume   4374.89360331
_cell_formula_units_Z   4
loop_
 _symmetry_equiv_pos_site_id
 _symmetry_equiv_pos_as_xyz
  1  'x, y, z'
loop_
 _atom_site_type_symbol
 _atom_site_label
 _atom_site_symmetry_multiplicity
 _atom_site_fract_x
 _atom_site_fract_y
 _atom_site_fract_z
 _atom_site_occupancy
 _atom_site_charge
  Th  Th1  1  0.148960  0.790570  0.413060  1.0  2.2246
  Th  Th2  1  0.356480  0.785560  0.593040  1.0  2.2971
  Th  Th3  1  0.851040  0.290570  0.086940  1.0  2.2233
  Th  Th4  1  0.643520  0.285560  0.906960  1.0  2.2978
  Th  Th5  1  0.851040  0.209430  0.586940  1.0  2.2294
  Th  Th6  1  0.643520  0.214440  0.406960  1.0  2.2999
  Th  Th7  1  0.148960  0.709430  0.913060  1.0  2.2263
  Th  Th8  1  0.356480  0.714440  0.093040  1.0  2.2956
  H  H9  1  0.196900  0.815000  0.696300  1.0  0.132
  H  H10  1  0.060700  0.965700  0.561100  1.0  0.1387
  H  H11  1  0.430400  0.983900  0.441800  1.0  0.1292
  H  H12  1  0.030200  0.984100  0.740200  1.0  0.1375
  H  H13  1  0.304000  0.799100  0.310200  1.0  0.131
  H  H14  1  0.197400  0.381300  0.420800  1.0  0.1324
  H  H15  1  0.302900  0.385300  0.592000  1.0  0.1303
  H  H16  1  0.264900  0.039100  0.502400  1.0  0.1141
  H  H17  1  0.455400  0.015500  0.261400  1.0  0.1346
  H  H18  1  0.803100  0.315000  0.803700  1.0  0.132
  H  H19  1  0.939300  0.465700  0.938900  1.0  0.1381
  H  H20  1  0.569600  0.483900  0.058200  1.0  0.1304
  H  H21  1  0.969800  0.484100  0.759800  1.0  0.1373
  H  H22  1  0.696000  0.299100  0.189800  1.0  0.1311
  H  H23  1  0.802600  0.881300  0.079200  1.0  0.1325
  H  H24  1  0.697100  0.885300  0.908000  1.0  0.1304
  H  H25  1  0.735100  0.539100  0.997600  1.0  0.1142
  H  H26  1  0.544600  0.515500  0.238600  1.0  0.135
  H  H27  1  0.803100  0.185000  0.303700  1.0  0.1319
  H  H28  1  0.939300  0.034300  0.438900  1.0  0.1379
  H  H29  1  0.569600  0.016100  0.558200  1.0  0.13
  H  H30  1  0.969800  0.015900  0.259800  1.0  0.1374
  H  H31  1  0.696000  0.200900  0.689800  1.0  0.1306
  H  H32  1  0.802600  0.618700  0.579200  1.0  0.1326
  H  H33  1  0.697100  0.614700  0.408000  1.0  0.1298
  H  H34  1  0.735100  0.960900  0.497600  1.0  0.1136
  H  H35  1  0.544600  0.984500  0.738600  1.0  0.1355
  H  H36  1  0.196900  0.685000  0.196300  1.0  0.1315
  H  H37  1  0.060700  0.534300  0.061100  1.0  0.1385
  H  H38  1  0.430400  0.516100  0.941800  1.0  0.129
  H  H39  1  0.030200  0.515900  0.240200  1.0  0.1374
  H  H40  1  0.304000  0.700900  0.810200  1.0  0.131
  H  H41  1  0.197400  0.118700  0.920800  1.0  0.1325
  H  H42  1  0.302900  0.114700  0.092000  1.0  0.1301
  H  H43  1  0.264900  0.460900  0.002400  1.0  0.1136
  H  H44  1  0.455400  0.484500  0.761400  1.0  0.1354
  C  C45  1  0.156400  0.857600  0.684300  1.0  0.026
  C  C46  1  0.137100  0.890800  0.621800  1.0  -0.1644
  C  C47  1  0.360700  0.886100  0.383500  1.0  -0.1201
  C  C48  1  0.075100  0.950200  0.603100  1.0  0.0443
  C  C49  1  0.321400  0.833900  0.431900  1.0  0.8004
  C  C50  1  0.416400  0.964400  0.400100  1.0  0.0472
  C  C51  1  0.115000  0.888400  0.728300  1.0  -0.1281
  C  C52  1  0.133900  0.845500  0.794400  1.0  0.7198
  C  C53  1  0.035500  0.985800  0.647600  1.0  -0.1291
  C  C54  1  0.362700  0.847600  0.210400  1.0  0.7268
  C  C55  1  0.056100  0.957000  0.710200  1.0  0.044
  C  C56  1  0.289100  0.199200  0.556000  1.0  -0.1376
  C  C57  1  0.378300  0.897100  0.276000  1.0  -0.1144
  C  C58  1  0.183200  0.863400  0.575200  1.0  0.7887
  C  C59  1  0.248000  0.405200  0.506900  1.0  -0.1378
  C  C60  1  0.341400  0.852000  0.321300  1.0  0.0278
  C  C61  1  0.219800  0.335800  0.454700  1.0  0.0458
  C  C62  1  0.451700  0.013900  0.354200  1.0  -0.1286
  C  C63  1  0.225000  0.196600  0.452800  1.0  -0.1527
  C  C64  1  0.283200  0.338000  0.557400  1.0  0.0533
  C  C65  1  0.970400  0.053600  0.627700  1.0  0.7493
  C  C66  1  0.241400  0.552100  0.508900  1.0  0.7835
  C  C67  1  0.260500  0.130900  0.503700  1.0  0.0183
  C  C68  1  0.432300  0.981200  0.292100  1.0  0.0394
  C  C69  1  0.193300  0.124600  0.396100  1.0  0.764
  C  C70  1  0.512300  0.098300  0.372100  1.0  0.7011
  C  C71  1  0.326600  0.130500  0.611400  1.0  0.7518
  C  C72  1  0.843600  0.357600  0.815700  1.0  0.0257
  C  C73  1  0.862900  0.390800  0.878200  1.0  -0.1641
  C  C74  1  0.639300  0.386100  0.116500  1.0  -0.12
  C  C75  1  0.924900  0.450200  0.896900  1.0  0.0449
  C  C76  1  0.678600  0.333900  0.068100  1.0  0.7998
  C  C77  1  0.583600  0.464400  0.099900  1.0  0.0478
  C  C78  1  0.885000  0.388400  0.771700  1.0  -0.1275
  C  C79  1  0.866100  0.345500  0.705600  1.0  0.721
  C  C80  1  0.964500  0.485800  0.852400  1.0  -0.1294
  C  C81  1  0.637300  0.347600  0.289600  1.0  0.7262
  C  C82  1  0.943900  0.457000  0.789800  1.0  0.0433
  C  C83  1  0.710900  0.699200  0.944000  1.0  -0.1378
  C  C84  1  0.621700  0.397100  0.224000  1.0  -0.1157
  C  C85  1  0.816800  0.363400  0.924800  1.0  0.788
  C  C86  1  0.752000  0.905200  0.993100  1.0  -0.1373
  C  C87  1  0.658600  0.352000  0.178700  1.0  0.0285
  C  C88  1  0.780200  0.835800  0.045300  1.0  0.0459
  C  C89  1  0.548300  0.513900  0.145800  1.0  -0.1284
  C  C90  1  0.775000  0.696600  0.047200  1.0  -0.1524
  C  C91  1  0.716800  0.838000  0.942600  1.0  0.0526
  C  C92  1  0.029600  0.553600  0.872300  1.0  0.75
  C  C93  1  0.758600  0.052100  0.991100  1.0  0.7837
  C  C94  1  0.739500  0.630900  0.996300  1.0  0.0178
  C  C95  1  0.567700  0.481200  0.207900  1.0  0.0382
  C  C96  1  0.806700  0.624600  0.103900  1.0  0.7609
  C  C97  1  0.487700  0.598300  0.127900  1.0  0.699
  C  C98  1  0.673400  0.630500  0.888600  1.0  0.75
  C  C99  1  0.843600  0.142400  0.315700  1.0  0.0251
  C  C100  1  0.862900  0.109200  0.378200  1.0  -0.1644
  C  C101  1  0.639300  0.113900  0.616500  1.0  -0.1194
  C  C102  1  0.924900  0.049800  0.396900  1.0  0.0452
  C  C103  1  0.678600  0.166100  0.568100  1.0  0.8002
  C  C104  1  0.583600  0.035600  0.599900  1.0  0.0477
  C  C105  1  0.885000  0.111600  0.271700  1.0  -0.1276
  C  C106  1  0.866100  0.154500  0.205600  1.0  0.7207
  C  C107  1  0.964500  0.014200  0.352400  1.0  -0.1295
  C  C108  1  0.637300  0.152400  0.789600  1.0  0.7265
  C  C109  1  0.943900  0.043000  0.289800  1.0  0.0437
  C  C110  1  0.710900  0.800800  0.444000  1.0  -0.1376
  C  C111  1  0.621700  0.102900  0.724000  1.0  -0.1157
  C  C112  1  0.816800  0.136600  0.424800  1.0  0.7879
  C  C113  1  0.752000  0.594800  0.493100  1.0  -0.138
  C  C114  1  0.658600  0.148000  0.678700  1.0  0.029
  C  C115  1  0.780200  0.664200  0.545300  1.0  0.0468
  C  C116  1  0.548300  0.986100  0.645800  1.0  -0.1293
  C  C117  1  0.775000  0.803400  0.547200  1.0  -0.1529
  C  C118  1  0.716800  0.662000  0.442600  1.0  0.0525
  C  C119  1  0.029600  0.946400  0.372300  1.0  0.7505
  C  C120  1  0.758600  0.447900  0.491100  1.0  0.7828
  C  C121  1  0.739500  0.869100  0.496300  1.0  0.0169
  C  C122  1  0.567700  0.018800  0.707900  1.0  0.0393
  C  C123  1  0.806700  0.875400  0.603900  1.0  0.7609
  C  C124  1  0.487700  0.901700  0.627900  1.0  0.6999
  C  C125  1  0.673400  0.869500  0.388600  1.0  0.7503
  C  C126  1  0.156400  0.642400  0.184300  1.0  0.0256
  C  C127  1  0.137100  0.609200  0.121800  1.0  -0.164
  C  C128  1  0.360700  0.613900  0.883500  1.0  -0.1196
  C  C129  1  0.075100  0.549800  0.103100  1.0  0.0443
  C  C130  1  0.321400  0.666100  0.931900  1.0  0.7999
  C  C131  1  0.416400  0.535600  0.900100  1.0  0.0471
  C  C132  1  0.115000  0.611600  0.228300  1.0  -0.1282
  C  C133  1  0.133900  0.654500  0.294400  1.0  0.7197
  C  C134  1  0.035500  0.514200  0.147600  1.0  -0.1296
  C  C135  1  0.362700  0.652400  0.710400  1.0  0.7269
  C  C136  1  0.056100  0.543000  0.210200  1.0  0.0446
  C  C137  1  0.289100  0.300800  0.056000  1.0  -0.138
  C  C138  1  0.378300  0.602900  0.776000  1.0  -0.1145
  C  C139  1  0.183200  0.636600  0.075200  1.0  0.789
  C  C140  1  0.248000  0.094800  0.006900  1.0  -0.1386
  C  C141  1  0.341400  0.648000  0.821300  1.0  0.0278
  C  C142  1  0.219800  0.164200  0.954700  1.0  0.0461
  C  C143  1  0.451700  0.486100  0.854200  1.0  -0.1293
  C  C144  1  0.225000  0.303400  0.952800  1.0  -0.1526
  C  C145  1  0.283200  0.162000  0.057400  1.0  0.0537
  C  C146  1  0.970400  0.446400  0.127700  1.0  0.7501
  C  C147  1  0.241400  0.947900  0.008900  1.0  0.7828
  C  C148  1  0.260500  0.369100  0.003700  1.0  0.0174
  C  C149  1  0.432300  0.518800  0.792100  1.0  0.0397
  C  C150  1  0.193300  0.375400  0.896100  1.0  0.7635
  C  C151  1  0.512300  0.401700  0.872100  1.0  0.7017
  C  C152  1  0.326600  0.369500  0.111400  1.0  0.752
  O  O153  1  0.161500  0.865100  0.518270  1.0  -0.7033
  O  O154  1  0.176100  0.752500  0.805230  1.0  -0.6595
  O  O155  1  0.344100  0.852200  0.487420  1.0  -0.6833
  O  O156  1  0.106700  0.895000  0.837820  1.0  -0.6193
  O  O157  1  0.327600  0.742200  0.200000  1.0  -0.6626
  O  O158  1  0.268200  0.771900  0.414900  1.0  -0.6762
  O  O159  1  0.383900  0.904500  0.167430  1.0  -0.6147
  O  O160  1  0.192500  0.601400  0.474000  1.0  -0.743
  O  O161  1  0.540800  0.152400  0.330700  1.0  -0.6603
  O  O162  1  0.944300  0.122300  0.666910  1.0  -0.6253
  O  O163  1  0.192500  0.998900  0.398400  1.0  -0.706
  O  O164  1  0.943100  0.043800  0.572300  1.0  -0.6457
  O  O165  1  0.535400  0.109300  0.428600  1.0  -0.6584
  O  O166  1  0.242600  0.843100  0.596200  1.0  -0.6924
  O  O167  1  0.346400  0.012800  0.604200  1.0  -0.6938
  O  O168  1  0.283400  0.616300  0.544200  1.0  -0.7294
  O  O169  1  0.167400  0.187700  0.351900  1.0  -0.4198
  O  O170  1  0.339500  0.190900  0.660100  1.0  -0.4309
  O  O171  1  0.838500  0.365100  0.981730  1.0  -0.7017
  O  O172  1  0.823900  0.252500  0.694770  1.0  -0.6587
  O  O173  1  0.655900  0.352200  0.012580  1.0  -0.6825
  O  O174  1  0.893300  0.395000  0.662180  1.0  -0.6189
  O  O175  1  0.672400  0.242200  0.300000  1.0  -0.6625
  O  O176  1  0.731800  0.271900  0.085100  1.0  -0.676
  O  O177  1  0.616100  0.404500  0.332570  1.0  -0.6146
  O  O178  1  0.807500  0.101400  0.026000  1.0  -0.742
  O  O179  1  0.459200  0.652400  0.169300  1.0  -0.6606
  O  O180  1  0.055700  0.622300  0.833090  1.0  -0.6263
  O  O181  1  0.807500  0.498900  0.101600  1.0  -0.7081
  O  O182  1  0.056900  0.543800  0.927700  1.0  -0.6447
  O  O183  1  0.464600  0.609300  0.071400  1.0  -0.6556
  O  O184  1  0.757400  0.343100  0.903800  1.0  -0.6923
  O  O185  1  0.653600  0.512800  0.895800  1.0  -0.6923
  O  O186  1  0.716600  0.116300  0.955800  1.0  -0.7297
  O  O187  1  0.832600  0.687700  0.148100  1.0  -0.4172
  O  O188  1  0.660500  0.690900  0.839900  1.0  -0.4339
  O  O189  1  0.838500  0.134900  0.481730  1.0  -0.7018
  O  O190  1  0.823900  0.247500  0.194770  1.0  -0.6579
  O  O191  1  0.655900  0.147800  0.512580  1.0  -0.6819
  O  O192  1  0.893300  0.105000  0.162180  1.0  -0.6186
  O  O193  1  0.672400  0.257800  0.800000  1.0  -0.6626
  O  O194  1  0.731800  0.228100  0.585100  1.0  -0.6761
  O  O195  1  0.616100  0.095500  0.832570  1.0  -0.6133
  O  O196  1  0.807500  0.398600  0.526000  1.0  -0.7417
  O  O197  1  0.459200  0.847600  0.669300  1.0  -0.6606
  O  O198  1  0.055700  0.877700  0.333090  1.0  -0.6261
  O  O199  1  0.807500  0.001100  0.601600  1.0  -0.7074
  O  O200  1  0.056900  0.956200  0.427700  1.0  -0.6446
  O  O201  1  0.464600  0.890700  0.571400  1.0  -0.6578
  O  O202  1  0.757400  0.156900  0.403800  1.0  -0.6925
  O  O203  1  0.653600  0.987200  0.395800  1.0  -0.6917
  O  O204  1  0.716600  0.383700  0.455800  1.0  -0.7298
  O  O205  1  0.832600  0.812300  0.648100  1.0  -0.4134
  O  O206  1  0.660500  0.809100  0.339900  1.0  -0.4344
  O  O207  1  0.161500  0.634900  0.018270  1.0  -0.7028
  O  O208  1  0.176100  0.747500  0.305230  1.0  -0.6594
  O  O209  1  0.344100  0.647800  0.987420  1.0  -0.6827
  O  O210  1  0.106700  0.605000  0.337820  1.0  -0.6175
  O  O211  1  0.327600  0.757800  0.700000  1.0  -0.6625
  O  O212  1  0.268200  0.728100  0.914900  1.0  -0.6753
  O  O213  1  0.383900  0.595500  0.667430  1.0  -0.6148
  O  O214  1  0.192500  0.898600  0.974000  1.0  -0.7425
  O  O215  1  0.540800  0.347600  0.830700  1.0  -0.6607
  O  O216  1  0.944300  0.377700  0.166910  1.0  -0.6249
  O  O217  1  0.192500  0.501100  0.898400  1.0  -0.7072
  O  O218  1  0.943100  0.456200  0.072300  1.0  -0.6454
  O  O219  1  0.535400  0.390700  0.928600  1.0  -0.6588
  O  O220  1  0.242600  0.656900  0.096200  1.0  -0.693
  O  O221  1  0.346400  0.487200  0.104200  1.0  -0.6922
  O  O222  1  0.283400  0.883700  0.044200  1.0  -0.7297
  O  O223  1  0.167400  0.312300  0.851900  1.0  -0.4167
  O  O224  1  0.339500  0.309100  0.160100  1.0  -0.4311
