# generated using pymatgen
data_Ni3H16C22(NO6)2
_symmetry_space_group_name_H-M   'P 1'
_cell_length_a   8.80840000
_cell_length_b   8.80840000
_cell_length_c   40.07800000
_cell_angle_alpha   86.30710000
_cell_angle_beta   86.30710000
_cell_angle_gamma   82.93760000
_symmetry_Int_Tables_number   1
_chemical_formula_structural   Ni3H16C22(NO6)2
_chemical_formula_sum   'Ni12 H64 C88 N8 O48'
_cell_volume   3074.55393546
_cell_formula_units_Z   4
loop_
 _symmetry_equiv_pos_site_id
 _symmetry_equiv_pos_as_xyz
  1  'x, y, z'
loop_
 _atom_site_type_symbol
 _atom_site_label
 _atom_site_symmetry_multiplicity
 _atom_site_fract_x
 _atom_site_fract_y
 _atom_site_fract_z
 _atom_site_occupancy
 _atom_site_charge
  Ni  Ni1  1  0.747800  0.804640  0.118270  1.0  0.7757
  Ni  Ni2  1  0.968580  0.589420  0.164150  1.0  0.8718
  Ni  Ni3  1  0.905050  0.138850  0.104620  1.0  0.8344
  Ni  Ni4  1  0.195360  0.252200  0.381730  1.0  0.7782
  Ni  Ni5  1  0.410580  0.031420  0.335850  1.0  0.8745
  Ni  Ni6  1  0.861150  0.094950  0.395380  1.0  0.8303
  Ni  Ni7  1  0.252200  0.195360  0.881730  1.0  0.7751
  Ni  Ni8  1  0.031420  0.410580  0.835850  1.0  0.877
  Ni  Ni9  1  0.094950  0.861150  0.895380  1.0  0.8341
  Ni  Ni10  1  0.804640  0.747800  0.618270  1.0  0.7651
  Ni  Ni11  1  0.589420  0.968580  0.664150  1.0  0.8765
  Ni  Ni12  1  0.138850  0.905050  0.604620  1.0  0.8356
  H  H13  1  0.988900  0.617500  0.967200  1.0  0.1298
  H  H14  1  0.322700  0.880700  0.974700  1.0  0.1364
  H  H15  1  0.390600  0.308400  0.247500  1.0  0.1143
  H  H16  1  0.056800  0.571000  0.295400  1.0  0.1163
  H  H17  1  0.003800  0.862600  0.207800  1.0  0.1161
  H  H18  1  0.157700  0.916700  0.192100  1.0  0.0971
  H  H19  1  0.273800  0.782400  0.148800  1.0  0.1297
  H  H20  1  0.369200  0.660200  0.171600  1.0  0.1113
  H  H21  1  0.012300  0.718900  0.246900  1.0  0.131
  H  H22  1  0.114500  0.518100  0.932600  1.0  0.1351
  H  H23  1  0.293300  0.479300  0.928200  1.0  0.112
  H  H24  1  0.435900  0.655100  0.909200  1.0  0.108
  H  H25  1  0.441400  0.721400  0.944400  1.0  0.1067
  H  H26  1  0.349800  0.457400  0.199100  1.0  0.1342
  H  H27  1  0.886500  0.683500  0.019000  1.0  0.1145
  H  H28  1  0.216600  0.947600  0.026900  1.0  0.1132
  H  H29  1  0.382500  0.011100  0.532800  1.0  0.1302
  H  H30  1  0.119300  0.677300  0.525300  1.0  0.135
  H  H31  1  0.691600  0.609400  0.252500  1.0  0.1147
  H  H32  1  0.429000  0.943200  0.204600  1.0  0.116
  H  H33  1  0.137400  0.996200  0.292200  1.0  0.1165
  H  H34  1  0.083300  0.842300  0.307900  1.0  0.0985
  H  H35  1  0.217600  0.726200  0.351200  1.0  0.1306
  H  H36  1  0.339800  0.630800  0.328400  1.0  0.1131
  H  H37  1  0.281100  0.987700  0.253100  1.0  0.1321
  H  H38  1  0.481900  0.885500  0.567400  1.0  0.1347
  H  H39  1  0.520700  0.706700  0.571800  1.0  0.1113
  H  H40  1  0.344900  0.564100  0.590800  1.0  0.1085
  H  H41  1  0.278600  0.558600  0.555600  1.0  0.1056
  H  H42  1  0.542600  0.650200  0.300900  1.0  0.1343
  H  H43  1  0.316500  0.113500  0.481000  1.0  0.1139
  H  H44  1  0.052400  0.783400  0.473100  1.0  0.114
  H  H45  1  0.011100  0.382500  0.032800  1.0  0.1298
  H  H46  1  0.677300  0.119300  0.025300  1.0  0.136
  H  H47  1  0.609400  0.691600  0.752500  1.0  0.1147
  H  H48  1  0.943200  0.429000  0.704600  1.0  0.1167
  H  H49  1  0.996200  0.137400  0.792200  1.0  0.1157
  H  H50  1  0.842300  0.083300  0.807900  1.0  0.0979
  H  H51  1  0.726200  0.217600  0.851200  1.0  0.13
  H  H52  1  0.630800  0.339800  0.828400  1.0  0.1089
  H  H53  1  0.987700  0.281100  0.753100  1.0  0.1311
  H  H54  1  0.885500  0.481900  0.067400  1.0  0.1356
  H  H55  1  0.706700  0.520700  0.071800  1.0  0.1104
  H  H56  1  0.564100  0.344900  0.090800  1.0  0.1095
  H  H57  1  0.558600  0.278600  0.055600  1.0  0.1066
  H  H58  1  0.650200  0.542600  0.800900  1.0  0.1344
  H  H59  1  0.113500  0.316500  0.981000  1.0  0.1146
  H  H60  1  0.783400  0.052400  0.973100  1.0  0.1131
  H  H61  1  0.617500  0.988900  0.467200  1.0  0.1297
  H  H62  1  0.880700  0.322700  0.474700  1.0  0.1359
  H  H63  1  0.308400  0.390600  0.747500  1.0  0.1146
  H  H64  1  0.571000  0.056800  0.795400  1.0  0.1166
  H  H65  1  0.862600  0.003800  0.707800  1.0  0.116
  H  H66  1  0.916700  0.157700  0.692100  1.0  0.0986
  H  H67  1  0.782400  0.273800  0.648800  1.0  0.1303
  H  H68  1  0.660200  0.369200  0.671600  1.0  0.1121
  H  H69  1  0.718900  0.012300  0.746900  1.0  0.1321
  H  H70  1  0.518100  0.114500  0.432600  1.0  0.1351
  H  H71  1  0.479300  0.293300  0.428200  1.0  0.111
  H  H72  1  0.655100  0.435900  0.409200  1.0  0.108
  H  H73  1  0.721400  0.441400  0.444400  1.0  0.1049
  H  H74  1  0.457400  0.349800  0.699100  1.0  0.1337
  H  H75  1  0.683500  0.886500  0.519000  1.0  0.1136
  H  H76  1  0.947600  0.216600  0.526900  1.0  0.1144
  C  C77  1  0.036100  0.683900  0.979160  1.0  -0.1622
  C  C78  1  0.234800  0.840400  0.983410  1.0  -0.1937
  C  C79  1  0.314400  0.391400  0.247500  1.0  -0.0349
  C  C80  1  0.226800  0.423000  0.276710  1.0  -0.1915
  C  C81  1  0.252300  0.319300  0.307470  1.0  0.6804
  C  C82  1  0.115800  0.547200  0.275960  1.0  -0.0473
  C  C83  1  0.000000  0.907600  0.157020  1.0  0.7423
  C  C84  1  0.077700  0.853500  0.188830  1.0  -0.1349
  C  C85  1  0.273500  0.682700  0.160570  1.0  -0.1659
  C  C86  1  0.179200  0.605600  0.217910  1.0  0.1198
  C  C87  1  0.195800  0.553800  0.883970  1.0  0.7575
  C  C88  1  0.089900  0.637100  0.246970  1.0  -0.1648
  C  C89  1  0.206800  0.551400  0.921500  1.0  -0.1566
  C  C90  1  0.039900  0.824300  0.028370  1.0  -0.1305
  C  C91  1  0.388000  0.733400  0.923770  1.0  -0.124
  C  C92  1  0.290300  0.481100  0.218490  1.0  -0.1904
  C  C93  1  0.408700  0.888300  0.907100  1.0  0.7527
  C  C94  1  0.974000  0.724200  0.010160  1.0  -0.0489
  C  C95  1  0.170300  0.880900  0.014840  1.0  -0.0163
  C  C96  1  0.964000  0.872200  0.061320  1.0  0.6953
  C  C97  1  0.267600  0.563200  0.134920  1.0  0.7696
  C  C98  1  0.168100  0.740500  0.965300  1.0  0.1467
  C  C99  1  0.316100  0.963900  0.520840  1.0  -0.166
  C  C100  1  0.159600  0.765200  0.516590  1.0  -0.1965
  C  C101  1  0.608600  0.685600  0.252500  1.0  -0.0332
  C  C102  1  0.577000  0.773200  0.223290  1.0  -0.1894
  C  C103  1  0.680700  0.747700  0.192530  1.0  0.6801
  C  C104  1  0.452800  0.884200  0.224040  1.0  -0.0514
  C  C105  1  0.092400  0.000000  0.342980  1.0  0.7413
  C  C106  1  0.146500  0.922300  0.311170  1.0  -0.1342
  C  C107  1  0.317300  0.726500  0.339430  1.0  -0.1683
  C  C108  1  0.394400  0.820800  0.282090  1.0  0.1195
  C  C109  1  0.446200  0.804200  0.616030  1.0  0.7578
  C  C110  1  0.362900  0.910100  0.253030  1.0  -0.1682
  C  C111  1  0.448600  0.793200  0.578500  1.0  -0.1546
  C  C112  1  0.175700  0.960100  0.471630  1.0  -0.1302
  C  C113  1  0.266600  0.612000  0.576230  1.0  -0.1284
  C  C114  1  0.518900  0.709700  0.281510  1.0  -0.1874
  C  C115  1  0.111700  0.591300  0.592900  1.0  0.7556
  C  C116  1  0.275800  0.026000  0.489840  1.0  -0.0499
  C  C117  1  0.119100  0.829700  0.485160  1.0  -0.0179
  C  C118  1  0.127800  0.036000  0.438680  1.0  0.6938
  C  C119  1  0.436800  0.732400  0.365080  1.0  0.7704
  C  C120  1  0.259500  0.831900  0.534700  1.0  0.146
  C  C121  1  0.963900  0.316100  0.020840  1.0  -0.1644
  C  C122  1  0.765200  0.159600  0.016590  1.0  -0.195
  C  C123  1  0.685600  0.608600  0.752500  1.0  -0.0338
  C  C124  1  0.773200  0.577000  0.723290  1.0  -0.1897
  C  C125  1  0.747700  0.680700  0.692530  1.0  0.6806
  C  C126  1  0.884200  0.452800  0.724040  1.0  -0.0481
  C  C127  1  0.000000  0.092400  0.842980  1.0  0.7422
  C  C128  1  0.922300  0.146500  0.811170  1.0  -0.1286
  C  C129  1  0.726500  0.317300  0.839430  1.0  -0.1675
  C  C130  1  0.820800  0.394400  0.782090  1.0  0.1182
  C  C131  1  0.804200  0.446200  0.116030  1.0  0.7585
  C  C132  1  0.910100  0.362900  0.753030  1.0  -0.1646
  C  C133  1  0.793200  0.448600  0.078500  1.0  -0.1569
  C  C134  1  0.960100  0.175700  0.971630  1.0  -0.1305
  C  C135  1  0.612000  0.266600  0.076230  1.0  -0.1256
  C  C136  1  0.709700  0.518900  0.781510  1.0  -0.1894
  C  C137  1  0.591300  0.111700  0.092900  1.0  0.755
  C  C138  1  0.026000  0.275800  0.989840  1.0  -0.0524
  C  C139  1  0.829700  0.119100  0.985160  1.0  -0.0159
  C  C140  1  0.036000  0.127800  0.938680  1.0  0.6929
  C  C141  1  0.732400  0.436800  0.865080  1.0  0.7695
  C  C142  1  0.831900  0.259500  0.034700  1.0  0.1457
  C  C143  1  0.683900  0.036100  0.479160  1.0  -0.165
  C  C144  1  0.840400  0.234800  0.483410  1.0  -0.1954
  C  C145  1  0.391400  0.314400  0.747500  1.0  -0.0327
  C  C146  1  0.423000  0.226800  0.776710  1.0  -0.1894
  C  C147  1  0.319300  0.252300  0.807470  1.0  0.6802
  C  C148  1  0.547200  0.115800  0.775960  1.0  -0.0514
  C  C149  1  0.907600  0.000000  0.657020  1.0  0.7428
  C  C150  1  0.853500  0.077700  0.688830  1.0  -0.1387
  C  C151  1  0.682700  0.273500  0.660570  1.0  -0.1679
  C  C152  1  0.605600  0.179200  0.717910  1.0  0.1209
  C  C153  1  0.553800  0.195800  0.383970  1.0  0.7576
  C  C154  1  0.637100  0.089900  0.746970  1.0  -0.1684
  C  C155  1  0.551400  0.206800  0.421500  1.0  -0.156
  C  C156  1  0.824300  0.039900  0.528370  1.0  -0.1297
  C  C157  1  0.733400  0.388000  0.423770  1.0  -0.1316
  C  C158  1  0.481100  0.290300  0.718490  1.0  -0.1886
  C  C159  1  0.888300  0.408700  0.407100  1.0  0.7565
  C  C160  1  0.724200  0.974000  0.510160  1.0  -0.0484
  C  C161  1  0.880900  0.170300  0.514840  1.0  -0.0172
  C  C162  1  0.872200  0.964000  0.561320  1.0  0.6938
  C  C163  1  0.563200  0.267600  0.634920  1.0  0.7718
  C  C164  1  0.740500  0.168100  0.465300  1.0  0.1455
  N  N165  1  0.145000  0.691800  0.186670  1.0  -0.0413
  N  N166  1  0.226100  0.706300  0.931750  1.0  -0.0861
  N  N167  1  0.308200  0.855000  0.313330  1.0  -0.0406
  N  N168  1  0.293700  0.773900  0.568250  1.0  -0.085
  N  N169  1  0.855000  0.308200  0.813330  1.0  -0.0405
  N  N170  1  0.773900  0.293700  0.068250  1.0  -0.0861
  N  N171  1  0.691800  0.145000  0.686670  1.0  -0.0408
  N  N172  1  0.706300  0.226100  0.431750  1.0  -0.0862
  O  O173  1  0.982900  0.046700  0.149240  1.0  -0.5673
  O  O174  1  0.952400  0.805400  0.140920  1.0  -0.6948
  O  O175  1  0.339500  0.197500  0.302990  1.0  -0.5824
  O  O176  1  0.183300  0.359100  0.334690  1.0  -0.5802
  O  O177  1  0.144600  0.504600  0.133600  1.0  -0.5661
  O  O178  1  0.858600  0.797400  0.073000  1.0  -0.5673
  O  O179  1  0.193000  0.430200  0.870650  1.0  -0.659
  O  O180  1  0.294400  0.958800  0.891470  1.0  -0.6782
  O  O181  1  0.183000  0.680400  0.867440  1.0  -0.5645
  O  O182  1  0.011200  0.984000  0.073930  1.0  -0.5869
  O  O183  1  0.384200  0.533800  0.116540  1.0  -0.5701
  O  O184  1  0.535400  0.935400  0.908260  1.0  -0.5416
  O  O185  1  0.953300  0.017100  0.350760  1.0  -0.5673
  O  O186  1  0.194600  0.047600  0.359080  1.0  -0.6961
  O  O187  1  0.802500  0.660500  0.197010  1.0  -0.5831
  O  O188  1  0.640900  0.816700  0.165310  1.0  -0.5805
  O  O189  1  0.495400  0.855400  0.366400  1.0  -0.5647
  O  O190  1  0.202600  0.141400  0.427000  1.0  -0.5685
  O  O191  1  0.569800  0.807000  0.629350  1.0  -0.6617
  O  O192  1  0.041200  0.705600  0.608530  1.0  -0.6778
  O  O193  1  0.319600  0.817000  0.632560  1.0  -0.5639
  O  O194  1  0.016000  0.988800  0.426070  1.0  -0.5859
  O  O195  1  0.466200  0.615800  0.383460  1.0  -0.572
  O  O196  1  0.064600  0.464600  0.591740  1.0  -0.5373
  O  O197  1  0.017100  0.953300  0.850760  1.0  -0.5664
  O  O198  1  0.047600  0.194600  0.859080  1.0  -0.6947
  O  O199  1  0.660500  0.802500  0.697010  1.0  -0.5821
  O  O200  1  0.816700  0.640900  0.665310  1.0  -0.5801
  O  O201  1  0.855400  0.495400  0.866400  1.0  -0.5665
  O  O202  1  0.141400  0.202600  0.927000  1.0  -0.5684
  O  O203  1  0.807000  0.569800  0.129350  1.0  -0.6606
  O  O204  1  0.705600  0.041200  0.108530  1.0  -0.6771
  O  O205  1  0.817000  0.319600  0.132560  1.0  -0.5619
  O  O206  1  0.988800  0.016000  0.926070  1.0  -0.5867
  O  O207  1  0.615800  0.466200  0.883460  1.0  -0.5687
  O  O208  1  0.464600  0.064600  0.091740  1.0  -0.5403
  O  O209  1  0.046700  0.982900  0.649240  1.0  -0.5671
  O  O210  1  0.805400  0.952400  0.640920  1.0  -0.695
  O  O211  1  0.197500  0.339500  0.802990  1.0  -0.5837
  O  O212  1  0.359100  0.183300  0.834690  1.0  -0.5796
  O  O213  1  0.504600  0.144600  0.633600  1.0  -0.565
  O  O214  1  0.797400  0.858600  0.573000  1.0  -0.5691
  O  O215  1  0.430200  0.193000  0.370650  1.0  -0.6591
  O  O216  1  0.958800  0.294400  0.391470  1.0  -0.6779
  O  O217  1  0.680400  0.183000  0.367440  1.0  -0.5649
  O  O218  1  0.984000  0.011200  0.573930  1.0  -0.5856
  O  O219  1  0.533800  0.384200  0.616540  1.0  -0.572
  O  O220  1  0.935400  0.535400  0.408260  1.0  -0.5379
