# generated using pymatgen
data_AgH22C16(NO)2
_symmetry_space_group_name_H-M   'P 1'
_cell_length_a   10.20890000
_cell_length_b   11.47900000
_cell_length_c   11.66750000
_cell_angle_alpha   112.68500000
_cell_angle_beta   103.95200000
_cell_angle_gamma   94.64400000
_symmetry_Int_Tables_number   1
_chemical_formula_structural   AgH22C16(NO)2
_chemical_formula_sum   'Ag2 H44 C32 N4 O4'
_cell_volume   1200.97376651
_cell_formula_units_Z   2
loop_
 _symmetry_equiv_pos_site_id
 _symmetry_equiv_pos_as_xyz
  1  'x, y, z'
loop_
 _atom_site_type_symbol
 _atom_site_label
 _atom_site_symmetry_multiplicity
 _atom_site_fract_x
 _atom_site_fract_y
 _atom_site_fract_z
 _atom_site_occupancy
 _atom_site_charge
  Ag  Ag1  1  0.226810  0.961110  0.919200  1.0  0.3939
  Ag  Ag2  1  0.773190  0.038890  0.080800  1.0  0.3953
  H  H3  1  0.596500  0.202100  0.207000  1.0  0.1486
  H  H4  1  0.437800  0.155700  0.174000  1.0  0.1468
  H  H5  1  0.494900  0.293600  0.189600  1.0  0.1533
  H  H6  1  0.216900  0.112800  0.629600  1.0  0.1488
  H  H7  1  0.210500  0.228300  0.754600  1.0  0.1653
  H  H8  1  0.137200  0.088600  0.720100  1.0  0.1558
  H  H9  1  0.571000  0.912300  0.605400  1.0  0.0916
  H  H10  1  0.418000  0.839700  0.558800  1.0  0.1123
  H  H11  1  0.487000  0.217200  0.616600  1.0  0.1238
  H  H12  1  0.615500  0.154400  0.643400  1.0  0.1046
  H  H13  1  0.819300  0.041200  0.832800  1.0  0.1431
  H  H14  1  0.840800  0.958200  0.698500  1.0  0.148
  H  H15  1  0.963900  0.060300  0.811300  1.0  0.1492
  H  H16  1  0.128200  0.553900  0.755900  1.0  0.1437
  H  H17  1  0.210500  0.671600  0.749800  1.0  0.1418
  H  H18  1  0.073200  0.592300  0.640400  1.0  0.1675
  H  H19  1  0.207200  0.632100  0.030900  1.0  0.1234
  H  H20  1  0.102800  0.671500  0.111900  1.0  0.1056
  H  H21  1  0.842600  0.581200  0.994300  1.0  0.108
  H  H22  1  0.795700  0.489600  0.845300  1.0  0.1189
  H  H23  1  0.511100  0.065100  0.788900  1.0  0.3155
  H  H24  1  0.939100  0.729100  0.925000  1.0  0.3089
  H  H25  1  0.403500  0.797900  0.793000  1.0  0.1494
  H  H26  1  0.562200  0.844300  0.826000  1.0  0.1468
  H  H27  1  0.505100  0.706400  0.810400  1.0  0.1521
  H  H28  1  0.783100  0.887200  0.370400  1.0  0.1483
  H  H29  1  0.789500  0.771700  0.245400  1.0  0.1647
  H  H30  1  0.862800  0.911400  0.279900  1.0  0.1561
  H  H31  1  0.429000  0.087700  0.394600  1.0  0.0917
  H  H32  1  0.582000  0.160300  0.441200  1.0  0.1131
  H  H33  1  0.513000  0.782800  0.383400  1.0  0.1231
  H  H34  1  0.384500  0.845600  0.356600  1.0  0.1084
  H  H35  1  0.180700  0.958800  0.167200  1.0  0.1434
  H  H36  1  0.159200  0.041800  0.301500  1.0  0.1492
  H  H37  1  0.036100  0.939700  0.188700  1.0  0.1505
  H  H38  1  0.871800  0.446100  0.244100  1.0  0.1453
  H  H39  1  0.789500  0.328400  0.250200  1.0  0.141
  H  H40  1  0.926800  0.407700  0.359600  1.0  0.168
  H  H41  1  0.792800  0.367900  0.969100  1.0  0.1236
  H  H42  1  0.897200  0.328500  0.888100  1.0  0.106
  H  H43  1  0.157400  0.418800  0.005700  1.0  0.1072
  H  H44  1  0.204300  0.510400  0.154700  1.0  0.1173
  H  H45  1  0.488900  0.934900  0.211100  1.0  0.3177
  H  H46  1  0.060900  0.270900  0.075000  1.0  0.3098
  C  C47  1  0.506900  0.205800  0.159800  1.0  -0.4094
  C  C48  1  0.493700  0.152200  0.015700  1.0  0.3295
  C  C49  1  0.366500  0.150400  0.930900  1.0  -0.1044
  C  C50  1  0.345500  0.118200  0.796000  1.0  0.1338
  C  C51  1  0.215700  0.138900  0.718000  1.0  -0.4003
  C  C52  1  0.432500  0.033700  0.603400  1.0  0.0316
  C  C53  1  0.478900  0.904600  0.552200  1.0  -0.1932
  C  C54  1  0.521900  0.137900  0.588600  1.0  -0.2478
  C  C55  1  0.883000  0.998500  0.791000  1.0  -0.4054
  C  C56  1  0.922400  0.898000  0.838400  1.0  0.3249
  C  C57  1  0.015700  0.824200  0.788000  1.0  -0.1088
  C  C58  1  0.040300  0.712700  0.808400  1.0  0.1601
  C  C59  1  0.120300  0.624600  0.731600  1.0  -0.4136
  C  C60  1  0.004200  0.566300  0.914800  1.0  0.0109
  C  C61  1  0.120900  0.602200  0.041000  1.0  -0.2444
  C  C62  1  0.867500  0.514300  0.926500  1.0  -0.2776
  C  C63  1  0.493100  0.794200  0.840200  1.0  -0.4086
  C  C64  1  0.506300  0.847800  0.984300  1.0  0.3344
  C  C65  1  0.633500  0.849600  0.069100  1.0  -0.1028
  C  C66  1  0.654500  0.881800  0.204000  1.0  0.1352
  C  C67  1  0.784300  0.861100  0.282000  1.0  -0.4
  C  C68  1  0.567500  0.966300  0.396600  1.0  0.0316
  C  C69  1  0.521100  0.095400  0.447800  1.0  -0.1929
  C  C70  1  0.478100  0.862100  0.411400  1.0  -0.2493
  C  C71  1  0.117000  0.001500  0.209000  1.0  -0.4068
  C  C72  1  0.077600  0.102000  0.161600  1.0  0.3216
  C  C73  1  0.984300  0.175800  0.212000  1.0  -0.1008
  C  C74  1  0.959700  0.287300  0.191600  1.0  0.1617
  C  C75  1  0.879700  0.375400  0.268400  1.0  -0.4139
  C  C76  1  0.995800  0.433700  0.085200  1.0  0.0101
  C  C77  1  0.879100  0.397800  0.959000  1.0  -0.2467
  C  C78  1  0.132500  0.485700  0.073500  1.0  -0.2748
  N  N79  1  0.437900  0.072900  0.739600  1.0  -0.3837
  N  N80  1  0.988200  0.679200  0.886300  1.0  -0.3839
  N  N81  1  0.562100  0.927100  0.260400  1.0  -0.3824
  N  N82  1  0.011800  0.320800  0.113700  1.0  -0.3859
  O  O83  1  0.591800  0.111400  0.975800  1.0  -0.5654
  O  O84  1  0.867500  0.881400  0.918000  1.0  -0.5819
  O  O85  1  0.408200  0.888600  0.024200  1.0  -0.5654
  O  O86  1  0.132500  0.118600  0.082000  1.0  -0.5815
