# generated using pymatgen
data_GdH9C18S3(NO2)3
_symmetry_space_group_name_H-M   'P 1'
_cell_length_a   12.83450000
_cell_length_b   12.83450000
_cell_length_c   34.87400000
_cell_angle_alpha   82.50040000
_cell_angle_beta   82.50040000
_cell_angle_gamma   63.72600000
_symmetry_Int_Tables_number   1
_chemical_formula_structural   GdH9C18S3(NO2)3
_chemical_formula_sum   'Gd8 H72 C144 S24 N24 O48'
_cell_volume   5089.92018762
_cell_formula_units_Z   8
loop_
 _symmetry_equiv_pos_site_id
 _symmetry_equiv_pos_as_xyz
  1  'x, y, z'
loop_
 _atom_site_type_symbol
 _atom_site_label
 _atom_site_symmetry_multiplicity
 _atom_site_fract_x
 _atom_site_fract_y
 _atom_site_fract_z
 _atom_site_occupancy
 _atom_site_charge
  Gd  Gd1  1  0.203770  0.360860  0.058600  1.0  2.1931
  Gd  Gd2  1  0.130730  0.348270  0.184430  1.0  2.1428
  Gd  Gd3  1  0.360860  0.203770  0.558600  1.0  2.1927
  Gd  Gd4  1  0.348270  0.130730  0.684440  1.0  2.1424
  Gd  Gd5  1  0.639140  0.796230  0.441400  1.0  2.1965
  Gd  Gd6  1  0.651730  0.869270  0.315570  1.0  2.1406
  Gd  Gd7  1  0.796230  0.639140  0.941400  1.0  2.1957
  Gd  Gd8  1  0.869270  0.651730  0.815570  1.0  2.1408
  H  H9  1  0.243600  0.435800  0.743500  1.0  0.0719
  H  H10  1  0.442300  0.097100  0.191300  1.0  0.1067
  H  H11  1  0.589700  0.108700  0.084200  1.0  0.0694
  H  H12  1  0.004900  0.099100  0.174000  1.0  0.0745
  H  H13  1  0.204500  0.663500  0.179800  1.0  0.0952
  H  H14  1  0.328700  0.614500  0.069800  1.0  0.0931
  H  H15  1  0.129100  0.043300  0.064100  1.0  0.1065
  H  H16  1  0.061100  0.901500  0.067800  1.0  0.1193
  H  H17  1  0.760100  0.604500  0.163800  1.0  0.0979
  H  H18  1  0.860500  0.634900  0.052000  1.0  0.0635
  H  H19  1  0.132700  0.613700  0.937500  1.0  0.0703
  H  H20  1  0.579000  0.756600  0.151500  1.0  0.1003
  H  H21  1  0.390900  0.757700  0.069300  1.0  0.1113
  H  H22  1  0.548900  0.329300  0.787600  1.0  0.0943
  H  H23  1  0.479200  0.506400  0.813700  1.0  0.1129
  H  H24  1  0.488400  0.612200  0.905600  1.0  0.1102
  H  H25  1  0.454000  0.523000  0.964500  1.0  0.0884
  H  H26  1  0.618200  0.951200  0.209500  1.0  0.1079
  H  H27  1  0.435800  0.243600  0.243500  1.0  0.0719
  H  H28  1  0.097100  0.442300  0.691300  1.0  0.1075
  H  H29  1  0.108700  0.589700  0.584200  1.0  0.0686
  H  H30  1  0.099100  0.004900  0.674000  1.0  0.0753
  H  H31  1  0.663500  0.204500  0.679800  1.0  0.0959
  H  H32  1  0.614500  0.328700  0.569800  1.0  0.093
  H  H33  1  0.043300  0.129100  0.564100  1.0  0.1068
  H  H34  1  0.901500  0.061100  0.567800  1.0  0.1194
  H  H35  1  0.604500  0.760100  0.663800  1.0  0.0971
  H  H36  1  0.634900  0.860500  0.552000  1.0  0.0644
  H  H37  1  0.613700  0.132700  0.437500  1.0  0.0732
  H  H38  1  0.756600  0.579000  0.651500  1.0  0.1
  H  H39  1  0.757700  0.390900  0.569300  1.0  0.1115
  H  H40  1  0.329300  0.548900  0.287600  1.0  0.094
  H  H41  1  0.506400  0.479200  0.313700  1.0  0.1126
  H  H42  1  0.612200  0.488400  0.405600  1.0  0.1083
  H  H43  1  0.523000  0.454000  0.464500  1.0  0.0873
  H  H44  1  0.951200  0.618200  0.709500  1.0  0.1078
  H  H45  1  0.564200  0.756400  0.756500  1.0  0.0711
  H  H46  1  0.902900  0.557700  0.308700  1.0  0.1068
  H  H47  1  0.891300  0.410300  0.415800  1.0  0.0682
  H  H48  1  0.900900  0.995100  0.326000  1.0  0.0744
  H  H49  1  0.336500  0.795500  0.320200  1.0  0.0959
  H  H50  1  0.385500  0.671300  0.430200  1.0  0.093
  H  H51  1  0.956700  0.870900  0.435900  1.0  0.1073
  H  H52  1  0.098500  0.938900  0.432200  1.0  0.1205
  H  H53  1  0.395500  0.239900  0.336200  1.0  0.0974
  H  H54  1  0.365100  0.139500  0.448000  1.0  0.0641
  H  H55  1  0.386300  0.867300  0.562500  1.0  0.0728
  H  H56  1  0.243400  0.421000  0.348500  1.0  0.1002
  H  H57  1  0.242300  0.609100  0.430700  1.0  0.1113
  H  H58  1  0.670700  0.451100  0.712400  1.0  0.0948
  H  H59  1  0.493600  0.520800  0.686300  1.0  0.112
  H  H60  1  0.387800  0.511600  0.594400  1.0  0.1091
  H  H61  1  0.477000  0.546000  0.535500  1.0  0.0873
  H  H62  1  0.048800  0.381800  0.290500  1.0  0.1081
  H  H63  1  0.756400  0.564200  0.256500  1.0  0.0713
  H  H64  1  0.557700  0.902900  0.808700  1.0  0.107
  H  H65  1  0.410300  0.891300  0.915800  1.0  0.0688
  H  H66  1  0.995100  0.900900  0.826000  1.0  0.0742
  H  H67  1  0.795500  0.336500  0.820200  1.0  0.0952
  H  H68  1  0.671300  0.385500  0.930200  1.0  0.0932
  H  H69  1  0.870900  0.956700  0.935900  1.0  0.1072
  H  H70  1  0.938900  0.098500  0.932200  1.0  0.1205
  H  H71  1  0.239900  0.395500  0.836200  1.0  0.0977
  H  H72  1  0.139500  0.365100  0.948000  1.0  0.0635
  H  H73  1  0.867300  0.386300  0.062500  1.0  0.07
  H  H74  1  0.421000  0.243400  0.848500  1.0  0.1004
  H  H75  1  0.609100  0.242300  0.930700  1.0  0.1108
  H  H76  1  0.451100  0.670700  0.212400  1.0  0.0942
  H  H77  1  0.520800  0.493600  0.186300  1.0  0.1122
  H  H78  1  0.511600  0.387800  0.094400  1.0  0.1093
  H  H79  1  0.546000  0.477000  0.035500  1.0  0.0879
  H  H80  1  0.381800  0.048800  0.790500  1.0  0.1084
  C  C81  1  0.217700  0.531300  0.124940  1.0  0.7216
  C  C82  1  0.258000  0.625200  0.124740  1.0  -0.2041
  C  C83  1  0.114600  0.179800  0.119350  1.0  0.7298
  C  C84  1  0.072600  0.088000  0.119090  1.0  -0.2928
  C  C85  1  0.439800  0.245400  0.747680  1.0  0.7372
  C  C86  1  0.402800  0.361400  0.763110  1.0  -0.1573
  C  C87  1  0.702900  0.947500  0.156400  1.0  0.2365
  C  C88  1  0.618700  0.777700  0.094190  1.0  0.1775
  C  C89  1  0.292000  0.449800  0.757650  1.0  0.1765
  C  C90  1  0.831000  0.602800  0.108620  1.0  -0.2218
  C  C91  1  0.506500  0.070700  0.173260  1.0  0.0233
  C  C92  1  0.497600  0.118800  0.135230  1.0  -0.2578
  C  C93  1  0.595400  0.076400  0.109800  1.0  0.1998
  C  C94  1  0.995400  0.921200  0.123350  1.0  0.2109
  C  C95  1  0.331100  0.793300  0.123610  1.0  0.209
  C  C96  1  0.016600  0.059000  0.152240  1.0  0.1941
  C  C97  1  0.949200  0.507800  0.114830  1.0  0.7349
  C  C98  1  0.331700  0.658500  0.888010  1.0  0.1725
  C  C99  1  0.321500  0.573100  0.791950  1.0  0.1962
  C  C100  1  0.385300  0.213300  0.122010  1.0  0.7146
  C  C101  1  0.241000  0.683400  0.157200  1.0  0.1935
  C  C102  1  0.315100  0.653700  0.091950  1.0  0.0296
  C  C103  1  0.090500  0.027300  0.086940  1.0  -0.0145
  C  C104  1  0.050600  0.942800  0.089100  1.0  -0.1365
  C  C105  1  0.262300  0.496100  0.994390  1.0  0.6694
  C  C106  1  0.288100  0.555700  0.957520  1.0  -0.1668
  C  C107  1  0.745300  0.639700  0.138760  1.0  0.0375
  C  C108  1  0.803100  0.658500  0.072440  1.0  0.2116
  C  C109  1  0.206400  0.611200  0.931030  1.0  0.194
  C  C110  1  0.637400  0.729600  0.131540  1.0  -0.1165
  C  C111  1  0.352100  0.738500  0.091430  1.0  -0.0975
  C  C112  1  0.473300  0.385300  0.783890  1.0  0.0067
  C  C113  1  0.433000  0.490600  0.799050  1.0  -0.1111
  C  C114  1  0.416900  0.610100  0.912340  1.0  -0.1016
  C  C115  1  0.395800  0.557600  0.947410  1.0  0.0207
  C  C116  1  0.610300  0.984300  0.184050  1.0  -0.1263
  C  C117  1  0.531300  0.217700  0.624940  1.0  0.7185
  C  C118  1  0.625200  0.258000  0.624740  1.0  -0.2018
  C  C119  1  0.179800  0.114600  0.619350  1.0  0.7295
  C  C120  1  0.088000  0.072600  0.619090  1.0  -0.2948
  C  C121  1  0.245400  0.439800  0.247680  1.0  0.7341
  C  C122  1  0.361400  0.402800  0.263110  1.0  -0.1613
  C  C123  1  0.947500  0.702900  0.656400  1.0  0.2362
  C  C124  1  0.777700  0.618700  0.594190  1.0  0.176
  C  C125  1  0.449800  0.292000  0.257650  1.0  0.1753
  C  C126  1  0.602800  0.831000  0.608620  1.0  -0.2208
  C  C127  1  0.070700  0.506500  0.673260  1.0  0.027
  C  C128  1  0.118800  0.497600  0.635230  1.0  -0.2581
  C  C129  1  0.076400  0.595400  0.609800  1.0  0.2002
  C  C130  1  0.921200  0.995400  0.623350  1.0  0.2129
  C  C131  1  0.793300  0.331100  0.623610  1.0  0.2098
  C  C132  1  0.059000  0.016600  0.652240  1.0  0.1953
  C  C133  1  0.507800  0.949200  0.614830  1.0  0.7389
  C  C134  1  0.658500  0.331700  0.388010  1.0  0.1751
  C  C135  1  0.573100  0.321500  0.291950  1.0  0.1971
  C  C136  1  0.213300  0.385300  0.622010  1.0  0.7146
  C  C137  1  0.683400  0.241000  0.657200  1.0  0.1923
  C  C138  1  0.653700  0.315100  0.591950  1.0  0.0273
  C  C139  1  0.027300  0.090500  0.586940  1.0  -0.0172
  C  C140  1  0.942800  0.050600  0.589100  1.0  -0.1387
  C  C141  1  0.496100  0.262300  0.494390  1.0  0.6697
  C  C142  1  0.555700  0.288100  0.457520  1.0  -0.1672
  C  C143  1  0.639700  0.745300  0.638760  1.0  0.0369
  C  C144  1  0.658500  0.803100  0.572440  1.0  0.2149
  C  C145  1  0.611200  0.206400  0.431030  1.0  0.1951
  C  C146  1  0.729600  0.637400  0.631540  1.0  -0.1154
  C  C147  1  0.738500  0.352100  0.591430  1.0  -0.0979
  C  C148  1  0.385300  0.473300  0.283890  1.0  0.004
  C  C149  1  0.490600  0.433000  0.299050  1.0  -0.1118
  C  C150  1  0.610100  0.416900  0.412340  1.0  -0.1017
  C  C151  1  0.557600  0.395800  0.447410  1.0  0.0179
  C  C152  1  0.984300  0.610300  0.684050  1.0  -0.128
  C  C153  1  0.468700  0.782300  0.375060  1.0  0.7195
  C  C154  1  0.374800  0.742000  0.375260  1.0  -0.2001
  C  C155  1  0.820200  0.885400  0.380650  1.0  0.7297
  C  C156  1  0.912000  0.927400  0.380910  1.0  -0.2962
  C  C157  1  0.754600  0.560200  0.752320  1.0  0.7326
  C  C158  1  0.638600  0.597200  0.736890  1.0  -0.1595
  C  C159  1  0.052500  0.297100  0.343600  1.0  0.2378
  C  C160  1  0.222300  0.381300  0.405810  1.0  0.1764
  C  C161  1  0.550200  0.708000  0.742350  1.0  0.1774
  C  C162  1  0.397200  0.169000  0.391380  1.0  -0.2231
  C  C163  1  0.929300  0.493500  0.326740  1.0  0.027
  C  C164  1  0.881200  0.502400  0.364770  1.0  -0.2576
  C  C165  1  0.923600  0.404600  0.390200  1.0  0.2015
  C  C166  1  0.078800  0.004600  0.376650  1.0  0.2072
  C  C167  1  0.206700  0.668900  0.376390  1.0  0.2115
  C  C168  1  0.941000  0.983400  0.347760  1.0  0.1945
  C  C169  1  0.492200  0.050800  0.385170  1.0  0.7212
  C  C170  1  0.341500  0.668300  0.611990  1.0  0.1759
  C  C171  1  0.426900  0.678500  0.708050  1.0  0.1983
  C  C172  1  0.786700  0.614700  0.377990  1.0  0.7159
  C  C173  1  0.316600  0.759000  0.342800  1.0  0.1918
  C  C174  1  0.346300  0.684900  0.408050  1.0  0.0272
  C  C175  1  0.972700  0.909500  0.413060  1.0  -0.0194
  C  C176  1  0.057200  0.949400  0.410900  1.0  -0.1366
  C  C177  1  0.503900  0.737700  0.505610  1.0  0.67
  C  C178  1  0.444300  0.711900  0.542480  1.0  -0.1675
  C  C179  1  0.360300  0.254700  0.361240  1.0  0.0368
  C  C180  1  0.341500  0.196900  0.427560  1.0  0.2172
  C  C181  1  0.388800  0.793600  0.568970  1.0  0.1939
  C  C182  1  0.270400  0.362600  0.368460  1.0  -0.1146
  C  C183  1  0.261500  0.647900  0.408570  1.0  -0.0963
  C  C184  1  0.614700  0.526700  0.716110  1.0  0.0017
  C  C185  1  0.509400  0.567000  0.700950  1.0  -0.1106
  C  C186  1  0.389900  0.583100  0.587660  1.0  -0.0998
  C  C187  1  0.442400  0.604200  0.552590  1.0  0.0186
  C  C188  1  0.015700  0.389700  0.315950  1.0  -0.1259
  C  C189  1  0.782300  0.468700  0.875060  1.0  0.7217
  C  C190  1  0.742000  0.374800  0.875260  1.0  -0.201
  C  C191  1  0.885400  0.820200  0.880650  1.0  0.7305
  C  C192  1  0.927400  0.912000  0.880910  1.0  -0.2953
  C  C193  1  0.560200  0.754600  0.252320  1.0  0.7366
  C  C194  1  0.597200  0.638600  0.236890  1.0  -0.1553
  C  C195  1  0.297100  0.052500  0.843600  1.0  0.2383
  C  C196  1  0.381300  0.222300  0.905810  1.0  0.1768
  C  C197  1  0.708000  0.550200  0.242350  1.0  0.1781
  C  C198  1  0.169000  0.397200  0.891380  1.0  -0.2236
  C  C199  1  0.493500  0.929300  0.826740  1.0  0.0226
  C  C200  1  0.502400  0.881200  0.864770  1.0  -0.2584
  C  C201  1  0.404600  0.923600  0.890200  1.0  0.2004
  C  C202  1  0.004600  0.078800  0.876650  1.0  0.2082
  C  C203  1  0.668900  0.206700  0.876390  1.0  0.2087
  C  C204  1  0.983400  0.941000  0.847760  1.0  0.195
  C  C205  1  0.050800  0.492200  0.885170  1.0  0.7166
  C  C206  1  0.668300  0.341500  0.111990  1.0  0.1735
  C  C207  1  0.678500  0.426900  0.208050  1.0  0.1983
  C  C208  1  0.614700  0.786700  0.877990  1.0  0.7149
  C  C209  1  0.759000  0.316600  0.842800  1.0  0.1918
  C  C210  1  0.684900  0.346300  0.908050  1.0  0.0294
  C  C211  1  0.909500  0.972700  0.913060  1.0  -0.0161
  C  C212  1  0.949400  0.057200  0.910900  1.0  -0.1353
  C  C213  1  0.737700  0.503900  0.005610  1.0  0.6708
  C  C214  1  0.711900  0.444300  0.042480  1.0  -0.1674
  C  C215  1  0.254700  0.360300  0.861240  1.0  0.0379
  C  C216  1  0.196900  0.341500  0.927560  1.0  0.2152
  C  C217  1  0.793600  0.388800  0.068970  1.0  0.1953
  C  C218  1  0.362600  0.270400  0.868460  1.0  -0.1168
  C  C219  1  0.647900  0.261500  0.908570  1.0  -0.0962
  C  C220  1  0.526700  0.614700  0.216110  1.0  0.0089
  C  C221  1  0.567000  0.509400  0.200950  1.0  -0.11
  C  C222  1  0.583100  0.389900  0.087660  1.0  -0.1005
  C  C223  1  0.604200  0.442400  0.052590  1.0  0.0217
  C  C224  1  0.389700  0.015700  0.815950  1.0  -0.1249
  S  S225  1  0.835230  0.834650  0.172770  1.0  -0.007
  S  S226  1  0.372650  0.907970  0.126790  1.0  0.0313
  S  S227  1  0.251600  0.716680  0.807480  1.0  0.0512
  S  S228  1  0.363390  0.723810  0.841710  1.0  -0.0271
  S  S229  1  0.486300  0.894760  0.079670  1.0  0.002
  S  S230  1  0.949620  0.807320  0.125470  1.0  0.0312
  S  S231  1  0.834650  0.835230  0.672770  1.0  -0.0072
  S  S232  1  0.907970  0.372650  0.626790  1.0  0.0285
  S  S233  1  0.716680  0.251600  0.307480  1.0  0.0504
  S  S234  1  0.723810  0.363390  0.341710  1.0  -0.0263
  S  S235  1  0.894760  0.486300  0.579670  1.0  0.0002
  S  S236  1  0.807320  0.949620  0.625470  1.0  0.0317
  S  S237  1  0.165350  0.164770  0.327230  1.0  -0.0078
  S  S238  1  0.092030  0.627350  0.373210  1.0  0.0299
  S  S239  1  0.283320  0.748400  0.692520  1.0  0.0517
  S  S240  1  0.276190  0.636610  0.658290  1.0  -0.0285
  S  S241  1  0.105240  0.513700  0.420330  1.0  0.0008
  S  S242  1  0.192680  0.050380  0.374530  1.0  0.0316
  S  S243  1  0.164770  0.165350  0.827230  1.0  -0.0065
  S  S244  1  0.627350  0.092030  0.873210  1.0  0.0311
  S  S245  1  0.748400  0.283320  0.192520  1.0  0.0507
  S  S246  1  0.636610  0.276190  0.158290  1.0  -0.0284
  S  S247  1  0.513700  0.105240  0.920330  1.0  0.0019
  S  S248  1  0.050380  0.192680  0.874530  1.0  0.0334
  N  N249  1  0.251260  0.554060  0.771660  1.0  -0.4311
  N  N250  1  0.225500  0.662900  0.895850  1.0  -0.398
  N  N251  1  0.977700  0.975900  0.155160  1.0  -0.4143
  N  N252  1  0.698800  0.744400  0.064630  1.0  -0.4198
  N  N253  1  0.276200  0.769800  0.157060  1.0  -0.4183
  N  N254  1  0.698300  0.991900  0.119530  1.0  -0.4283
  N  N255  1  0.554060  0.251260  0.271660  1.0  -0.4292
  N  N256  1  0.662900  0.225500  0.395850  1.0  -0.3953
  N  N257  1  0.975900  0.977700  0.655160  1.0  -0.4151
  N  N258  1  0.744400  0.698800  0.564630  1.0  -0.4138
  N  N259  1  0.769800  0.276200  0.657060  1.0  -0.4141
  N  N260  1  0.991900  0.698300  0.619530  1.0  -0.4302
  N  N261  1  0.445940  0.748740  0.728340  1.0  -0.428
  N  N262  1  0.337100  0.774500  0.604150  1.0  -0.3964
  N  N263  1  0.024100  0.022300  0.344840  1.0  -0.4173
  N  N264  1  0.255600  0.301200  0.435370  1.0  -0.415
  N  N265  1  0.230200  0.723800  0.342940  1.0  -0.4139
  N  N266  1  0.008100  0.301700  0.380470  1.0  -0.4292
  N  N267  1  0.748740  0.445940  0.228340  1.0  -0.4318
  N  N268  1  0.774500  0.337100  0.104150  1.0  -0.396
  N  N269  1  0.022300  0.024100  0.844840  1.0  -0.4178
  N  N270  1  0.301200  0.255600  0.935370  1.0  -0.4181
  N  N271  1  0.723800  0.230200  0.842940  1.0  -0.4152
  N  N272  1  0.301700  0.008100  0.880470  1.0  -0.4267
  O  O273  1  0.103290  0.218490  0.151390  1.0  -0.7016
  O  O274  1  0.363140  0.229540  0.733760  1.0  -0.7266
  O  O275  1  0.227300  0.490700  0.093540  1.0  -0.7103
  O  O276  1  0.157460  0.210860  0.088330  1.0  -0.7604
  O  O277  1  0.175920  0.502720  0.156820  1.0  -0.7311
  O  O278  1  0.344200  0.426600  0.014060  1.0  -0.6609
  O  O279  1  0.379840  0.239240  0.085870  1.0  -0.6534
  O  O280  1  0.304160  0.260560  0.146840  1.0  -0.7478
  O  O281  1  0.017810  0.471210  0.086060  1.0  -0.7242
  O  O282  1  0.970280  0.469880  0.149290  1.0  -0.7418
  O  O283  1  0.158860  0.512660  0.004860  1.0  -0.7028
  O  O284  1  0.543560  0.170160  0.750370  1.0  -0.525
  O  O285  1  0.218490  0.103290  0.651390  1.0  -0.7052
  O  O286  1  0.229540  0.363140  0.233760  1.0  -0.7284
  O  O287  1  0.490700  0.227300  0.593540  1.0  -0.7094
  O  O288  1  0.210860  0.157460  0.588330  1.0  -0.7599
  O  O289  1  0.502720  0.175920  0.656820  1.0  -0.7298
  O  O290  1  0.426600  0.344200  0.514060  1.0  -0.6614
  O  O291  1  0.239240  0.379840  0.585870  1.0  -0.6588
  O  O292  1  0.260560  0.304160  0.646840  1.0  -0.7494
  O  O293  1  0.471210  0.017810  0.586060  1.0  -0.7254
  O  O294  1  0.469880  0.970280  0.649290  1.0  -0.7412
  O  O295  1  0.512660  0.158860  0.504860  1.0  -0.701
  O  O296  1  0.170160  0.543560  0.250370  1.0  -0.5251
  O  O297  1  0.781510  0.896710  0.348610  1.0  -0.7039
  O  O298  1  0.770460  0.636860  0.766240  1.0  -0.7263
  O  O299  1  0.509300  0.772700  0.406460  1.0  -0.7084
  O  O300  1  0.789140  0.842540  0.411670  1.0  -0.7598
  O  O301  1  0.497280  0.824080  0.343180  1.0  -0.7301
  O  O302  1  0.573400  0.655800  0.485940  1.0  -0.6602
  O  O303  1  0.760760  0.620160  0.414130  1.0  -0.659
  O  O304  1  0.739440  0.695840  0.353160  1.0  -0.7491
  O  O305  1  0.528790  0.982190  0.413940  1.0  -0.7256
  O  O306  1  0.530120  0.029720  0.350710  1.0  -0.7414
  O  O307  1  0.487340  0.841140  0.495140  1.0  -0.703
  O  O308  1  0.829840  0.456440  0.749630  1.0  -0.5246
  O  O309  1  0.896710  0.781510  0.848610  1.0  -0.7019
  O  O310  1  0.636860  0.770460  0.266240  1.0  -0.7246
  O  O311  1  0.772700  0.509300  0.906460  1.0  -0.7102
  O  O312  1  0.842540  0.789140  0.911670  1.0  -0.7628
  O  O313  1  0.824080  0.497280  0.843180  1.0  -0.7314
  O  O314  1  0.655800  0.573400  0.985940  1.0  -0.6619
  O  O315  1  0.620160  0.760760  0.914130  1.0  -0.6556
  O  O316  1  0.695840  0.739440  0.853160  1.0  -0.7473
  O  O317  1  0.982190  0.528790  0.913940  1.0  -0.7255
  O  O318  1  0.029720  0.530120  0.850710  1.0  -0.7436
  O  O319  1  0.841140  0.487340  0.995140  1.0  -0.706
  O  O320  1  0.456440  0.829840  0.249630  1.0  -0.5264
