# generated using pymatgen
data_TbH9C18S3(NO2)3
_symmetry_space_group_name_H-M   'P 1'
_cell_length_a   12.83990000
_cell_length_b   12.83990000
_cell_length_c   34.87250000
_cell_angle_alpha   82.40350000
_cell_angle_beta   82.40350000
_cell_angle_gamma   63.71650000
_symmetry_Int_Tables_number   1
_chemical_formula_structural   TbH9C18S3(NO2)3
_chemical_formula_sum   'Tb8 H72 C144 S24 N24 O48'
_cell_volume   5091.98155653
_cell_formula_units_Z   8
loop_
 _symmetry_equiv_pos_site_id
 _symmetry_equiv_pos_as_xyz
  1  'x, y, z'
loop_
 _atom_site_type_symbol
 _atom_site_label
 _atom_site_symmetry_multiplicity
 _atom_site_fract_x
 _atom_site_fract_y
 _atom_site_fract_z
 _atom_site_occupancy
 _atom_site_charge
  Tb  Tb1  1  0.796350  0.637920  0.441160  1.0  2.2766
  Tb  Tb2  1  0.869780  0.650540  0.315860  1.0  2.2234
  Tb  Tb3  1  0.637920  0.796350  0.941160  1.0  2.2778
  Tb  Tb4  1  0.650540  0.869780  0.815860  1.0  2.223
  Tb  Tb5  1  0.362080  0.203650  0.058840  1.0  2.2777
  Tb  Tb6  1  0.349460  0.130220  0.184140  1.0  2.2233
  Tb  Tb7  1  0.203650  0.362080  0.558840  1.0  2.2784
  Tb  Tb8  1  0.130220  0.349460  0.684140  1.0  2.2241
  H  H9  1  0.873200  0.952800  0.436100  1.0  0.1071
  H  H10  1  0.938400  0.098000  0.431300  1.0  0.1162
  H  H11  1  0.996500  0.898500  0.326300  1.0  0.0549
  H  H12  1  0.384900  0.046500  0.290200  1.0  0.1061
  H  H13  1  0.559600  0.901000  0.308600  1.0  0.1003
  H  H14  1  0.410600  0.889600  0.415800  1.0  0.061
  H  H15  1  0.449900  0.673500  0.712600  1.0  0.088
  H  H16  1  0.520100  0.495100  0.686800  1.0  0.1088
  H  H17  1  0.754900  0.566300  0.757000  1.0  0.0554
  H  H18  1  0.510800  0.387800  0.594700  1.0  0.1046
  H  H19  1  0.545600  0.478800  0.535500  1.0  0.0825
  H  H20  1  0.867700  0.385700  0.562600  1.0  0.0623
  H  H21  1  0.238800  0.394000  0.335900  1.0  0.0945
  H  H22  1  0.418900  0.243300  0.348000  1.0  0.0945
  H  H23  1  0.140800  0.366000  0.448600  1.0  0.0603
  H  H24  1  0.607800  0.243200  0.430200  1.0  0.1083
  H  H25  1  0.672700  0.383900  0.429900  1.0  0.0877
  H  H26  1  0.798000  0.336000  0.320100  1.0  0.0889
  H  H27  1  0.952800  0.873200  0.936100  1.0  0.107
  H  H28  1  0.098000  0.938400  0.931300  1.0  0.1165
  H  H29  1  0.898500  0.996500  0.826300  1.0  0.0548
  H  H30  1  0.046500  0.384900  0.790200  1.0  0.1056
  H  H31  1  0.901000  0.559600  0.808600  1.0  0.1002
  H  H32  1  0.889600  0.410600  0.915800  1.0  0.0603
  H  H33  1  0.673500  0.449900  0.212600  1.0  0.089
  H  H34  1  0.495100  0.520100  0.186800  1.0  0.1088
  H  H35  1  0.566300  0.754900  0.257000  1.0  0.0558
  H  H36  1  0.387800  0.510800  0.094700  1.0  0.1034
  H  H37  1  0.478800  0.545600  0.035500  1.0  0.0821
  H  H38  1  0.385700  0.867700  0.062600  1.0  0.0651
  H  H39  1  0.394000  0.238800  0.835900  1.0  0.094
  H  H40  1  0.243300  0.418900  0.848000  1.0  0.0945
  H  H41  1  0.366000  0.140800  0.948600  1.0  0.0604
  H  H42  1  0.243200  0.607800  0.930200  1.0  0.1088
  H  H43  1  0.383900  0.672700  0.929900  1.0  0.0873
  H  H44  1  0.336000  0.798000  0.820100  1.0  0.0898
  H  H45  1  0.047200  0.126800  0.063900  1.0  0.1063
  H  H46  1  0.902000  0.061600  0.068700  1.0  0.1162
  H  H47  1  0.101500  0.003500  0.173700  1.0  0.0566
  H  H48  1  0.953500  0.615100  0.209800  1.0  0.1057
  H  H49  1  0.099000  0.440400  0.191400  1.0  0.1009
  H  H50  1  0.110400  0.589400  0.084200  1.0  0.0608
  H  H51  1  0.326500  0.550100  0.787400  1.0  0.0887
  H  H52  1  0.504900  0.479900  0.813200  1.0  0.1093
  H  H53  1  0.433700  0.245100  0.743000  1.0  0.0563
  H  H54  1  0.612200  0.489200  0.905300  1.0  0.103
  H  H55  1  0.521200  0.454400  0.964500  1.0  0.0824
  H  H56  1  0.614300  0.132300  0.937400  1.0  0.0655
  H  H57  1  0.606000  0.761200  0.164100  1.0  0.094
  H  H58  1  0.756700  0.581100  0.152000  1.0  0.0934
  H  H59  1  0.634000  0.859200  0.051400  1.0  0.0606
  H  H60  1  0.756800  0.392200  0.069800  1.0  0.1086
  H  H61  1  0.616100  0.327300  0.070100  1.0  0.0872
  H  H62  1  0.664000  0.202000  0.179900  1.0  0.0903
  H  H63  1  0.126800  0.047200  0.563900  1.0  0.1059
  H  H64  1  0.061600  0.902000  0.568700  1.0  0.1163
  H  H65  1  0.003500  0.101500  0.673700  1.0  0.0558
  H  H66  1  0.615100  0.953500  0.709800  1.0  0.1058
  H  H67  1  0.440400  0.099000  0.691400  1.0  0.1003
  H  H68  1  0.589400  0.110400  0.584200  1.0  0.0618
  H  H69  1  0.550100  0.326500  0.287400  1.0  0.0879
  H  H70  1  0.479900  0.504900  0.313200  1.0  0.1095
  H  H71  1  0.245100  0.433700  0.243000  1.0  0.0561
  H  H72  1  0.489200  0.612200  0.405300  1.0  0.1042
  H  H73  1  0.454400  0.521200  0.464500  1.0  0.0833
  H  H74  1  0.132300  0.614300  0.437400  1.0  0.0632
  H  H75  1  0.761200  0.606000  0.664100  1.0  0.0947
  H  H76  1  0.581100  0.756700  0.652000  1.0  0.0937
  H  H77  1  0.859200  0.634000  0.551400  1.0  0.0599
  H  H78  1  0.392200  0.756800  0.569800  1.0  0.1086
  H  H79  1  0.327300  0.616100  0.570100  1.0  0.0872
  H  H80  1  0.202000  0.664000  0.679900  1.0  0.0895
  C  C81  1  0.886000  0.818000  0.380270  1.0  0.738
  C  C82  1  0.927500  0.910700  0.380800  1.0  -0.2682
  C  C83  1  0.910300  0.969900  0.413070  1.0  -0.0182
  C  C84  1  0.949800  0.055400  0.410290  1.0  -0.1426
  C  C85  1  0.005500  0.075700  0.376280  1.0  0.2122
  C  C86  1  0.984200  0.939000  0.347940  1.0  0.192
  C  C87  1  0.298400  0.049400  0.342960  1.0  0.2219
  C  C88  1  0.391900  0.013100  0.315620  1.0  -0.1215
  C  C89  1  0.495200  0.927200  0.326610  1.0  0.0162
  C  C90  1  0.504200  0.878600  0.364710  1.0  -0.2863
  C  C91  1  0.405300  0.921300  0.390130  1.0  0.2053
  C  C92  1  0.615800  0.784600  0.378060  1.0  0.7244
  C  C93  1  0.557700  0.757300  0.752640  1.0  0.7425
  C  C94  1  0.596100  0.641700  0.737310  1.0  -0.2055
  C  C95  1  0.525300  0.617500  0.716360  1.0  0.0164
  C  C96  1  0.566200  0.511400  0.701250  1.0  -0.1153
  C  C97  1  0.678000  0.429600  0.708290  1.0  0.2045
  C  C98  1  0.706600  0.552800  0.742630  1.0  0.1859
  C  C99  1  0.668500  0.342900  0.612320  1.0  0.213
  C  C100  1  0.582200  0.390600  0.587940  1.0  -0.1232
  C  C101  1  0.603700  0.443500  0.552580  1.0  0.0286
  C  C102  1  0.710700  0.444100  0.542650  1.0  -0.1877
  C  C103  1  0.793900  0.388700  0.569140  1.0  0.193
  C  C104  1  0.737300  0.504500  0.505550  1.0  0.6601
  C  C105  1  0.050300  0.491300  0.385180  1.0  0.7154
  C  C106  1  0.168300  0.396300  0.391530  1.0  -0.2254
  C  C107  1  0.254000  0.359000  0.360960  1.0  0.0467
  C  C108  1  0.360800  0.270400  0.368050  1.0  -0.126
  C  C109  1  0.380600  0.221800  0.405860  1.0  0.2021
  C  C110  1  0.197300  0.341700  0.427890  1.0  0.2101
  C  C111  1  0.669100  0.206700  0.375710  1.0  0.2
  C  C112  1  0.647400  0.261800  0.408170  1.0  -0.1022
  C  C113  1  0.685600  0.345600  0.407700  1.0  0.0322
  C  C114  1  0.742500  0.374500  0.375070  1.0  -0.1979
  C  C115  1  0.783800  0.467400  0.375030  1.0  0.7139
  C  C116  1  0.760700  0.316300  0.342610  1.0  0.1864
  C  C117  1  0.818000  0.886000  0.880270  1.0  0.7371
  C  C118  1  0.910700  0.927500  0.880800  1.0  -0.269
  C  C119  1  0.969900  0.910300  0.913070  1.0  -0.0209
  C  C120  1  0.055400  0.949800  0.910290  1.0  -0.1419
  C  C121  1  0.075700  0.005500  0.876280  1.0  0.2107
  C  C122  1  0.939000  0.984200  0.847940  1.0  0.1925
  C  C123  1  0.049400  0.298400  0.842960  1.0  0.2215
  C  C124  1  0.013100  0.391900  0.815620  1.0  -0.1224
  C  C125  1  0.927200  0.495200  0.826610  1.0  0.0181
  C  C126  1  0.878600  0.504200  0.864710  1.0  -0.2847
  C  C127  1  0.921300  0.405300  0.890130  1.0  0.2055
  C  C128  1  0.784600  0.615800  0.878060  1.0  0.724
  C  C129  1  0.757300  0.557700  0.252640  1.0  0.7382
  C  C130  1  0.641700  0.596100  0.237310  1.0  -0.2088
  C  C131  1  0.617500  0.525300  0.216360  1.0  0.0094
  C  C132  1  0.511400  0.566200  0.201250  1.0  -0.1156
  C  C133  1  0.429600  0.678000  0.208290  1.0  0.2057
  C  C134  1  0.552800  0.706600  0.242630  1.0  0.1846
  C  C135  1  0.342900  0.668500  0.112320  1.0  0.2142
  C  C136  1  0.390600  0.582200  0.087940  1.0  -0.1236
  C  C137  1  0.443500  0.603700  0.052580  1.0  0.0243
  C  C138  1  0.444100  0.710700  0.042650  1.0  -0.1881
  C  C139  1  0.388700  0.793900  0.069140  1.0  0.1913
  C  C140  1  0.504500  0.737300  0.005550  1.0  0.6588
  C  C141  1  0.491300  0.050300  0.885180  1.0  0.7178
  C  C142  1  0.396300  0.168300  0.891530  1.0  -0.2244
  C  C143  1  0.359000  0.254000  0.860960  1.0  0.0467
  C  C144  1  0.270400  0.360800  0.868050  1.0  -0.1235
  C  C145  1  0.221800  0.380600  0.905860  1.0  0.204
  C  C146  1  0.341700  0.197300  0.927890  1.0  0.211
  C  C147  1  0.206700  0.669100  0.875710  1.0  0.2016
  C  C148  1  0.261800  0.647400  0.908170  1.0  -0.1031
  C  C149  1  0.345600  0.685600  0.907700  1.0  0.0305
  C  C150  1  0.374500  0.742500  0.875070  1.0  -0.1962
  C  C151  1  0.467400  0.783800  0.875030  1.0  0.7132
  C  C152  1  0.316300  0.760700  0.842610  1.0  0.1868
  C  C153  1  0.182000  0.114000  0.119730  1.0  0.7376
  C  C154  1  0.089300  0.072500  0.119200  1.0  -0.2687
  C  C155  1  0.030100  0.089700  0.086930  1.0  -0.0184
  C  C156  1  0.944600  0.050200  0.089710  1.0  -0.1449
  C  C157  1  0.924300  0.994500  0.123720  1.0  0.2155
  C  C158  1  0.061000  0.015800  0.152060  1.0  0.194
  C  C159  1  0.950600  0.701600  0.157040  1.0  0.2204
  C  C160  1  0.986900  0.608100  0.184380  1.0  -0.1237
  C  C161  1  0.072800  0.504800  0.173390  1.0  0.0196
  C  C162  1  0.121400  0.495800  0.135290  1.0  -0.2862
  C  C163  1  0.078700  0.594700  0.109870  1.0  0.2053
  C  C164  1  0.215400  0.384200  0.121940  1.0  0.7245
  C  C165  1  0.242700  0.442300  0.747360  1.0  0.7391
  C  C166  1  0.358300  0.403900  0.762690  1.0  -0.21
  C  C167  1  0.382500  0.474700  0.783640  1.0  0.0113
  C  C168  1  0.488600  0.433800  0.798750  1.0  -0.1159
  C  C169  1  0.570400  0.322000  0.791710  1.0  0.2021
  C  C170  1  0.447200  0.293400  0.757370  1.0  0.1834
  C  C171  1  0.657100  0.331500  0.887680  1.0  0.2141
  C  C172  1  0.609400  0.417800  0.912060  1.0  -0.1256
  C  C173  1  0.556500  0.396300  0.947420  1.0  0.0254
  C  C174  1  0.555900  0.289300  0.957350  1.0  -0.1896
  C  C175  1  0.611300  0.206100  0.930860  1.0  0.1921
  C  C176  1  0.495500  0.262700  0.994450  1.0  0.66
  C  C177  1  0.508700  0.949700  0.114820  1.0  0.7033
  C  C178  1  0.603700  0.831700  0.108470  1.0  -0.2225
  C  C179  1  0.641000  0.746000  0.139040  1.0  0.0461
  C  C180  1  0.729600  0.639200  0.131950  1.0  -0.1249
  C  C181  1  0.778200  0.619400  0.094140  1.0  0.2027
  C  C182  1  0.658300  0.802700  0.072110  1.0  0.2096
  C  C183  1  0.793300  0.330900  0.124290  1.0  0.1991
  C  C184  1  0.738200  0.352600  0.091830  1.0  -0.1037
  C  C185  1  0.654400  0.314400  0.092300  1.0  0.0322
  C  C186  1  0.625500  0.257500  0.124930  1.0  -0.1975
  C  C187  1  0.532600  0.216200  0.124970  1.0  0.7127
  C  C188  1  0.683700  0.239300  0.157390  1.0  0.1869
  C  C189  1  0.114000  0.182000  0.619730  1.0  0.737
  C  C190  1  0.072500  0.089300  0.619200  1.0  -0.2672
  C  C191  1  0.089700  0.030100  0.586930  1.0  -0.0167
  C  C192  1  0.050200  0.944600  0.589710  1.0  -0.1431
  C  C193  1  0.994500  0.924300  0.623720  1.0  0.2132
  C  C194  1  0.015800  0.061000  0.652060  1.0  0.1926
  C  C195  1  0.701600  0.950600  0.657040  1.0  0.221
  C  C196  1  0.608100  0.986900  0.684380  1.0  -0.1219
  C  C197  1  0.504800  0.072800  0.673390  1.0  0.0158
  C  C198  1  0.495800  0.121400  0.635290  1.0  -0.2855
  C  C199  1  0.594700  0.078700  0.609870  1.0  0.2058
  C  C200  1  0.384200  0.215400  0.621940  1.0  0.7247
  C  C201  1  0.442300  0.242700  0.247360  1.0  0.7428
  C  C202  1  0.403900  0.358300  0.262690  1.0  -0.2061
  C  C203  1  0.474700  0.382500  0.283640  1.0  0.0132
  C  C204  1  0.433800  0.488600  0.298750  1.0  -0.1161
  C  C205  1  0.322000  0.570400  0.291710  1.0  0.2031
  C  C206  1  0.293400  0.447200  0.257370  1.0  0.1843
  C  C207  1  0.331500  0.657100  0.387680  1.0  0.2127
  C  C208  1  0.417800  0.609400  0.412060  1.0  -0.1256
  C  C209  1  0.396300  0.556500  0.447420  1.0  0.0284
  C  C210  1  0.289300  0.555900  0.457350  1.0  -0.188
  C  C211  1  0.206100  0.611300  0.430860  1.0  0.1908
  C  C212  1  0.262700  0.495500  0.494450  1.0  0.6599
  C  C213  1  0.949700  0.508700  0.614820  1.0  0.7003
  C  C214  1  0.831700  0.603700  0.608470  1.0  -0.2231
  C  C215  1  0.746000  0.641000  0.639040  1.0  0.0461
  C  C216  1  0.639200  0.729600  0.631950  1.0  -0.1257
  C  C217  1  0.619400  0.778200  0.594140  1.0  0.2043
  C  C218  1  0.802700  0.658300  0.572110  1.0  0.2077
  C  C219  1  0.330900  0.793300  0.624290  1.0  0.199
  C  C220  1  0.352600  0.738200  0.591830  1.0  -0.1033
  C  C221  1  0.314400  0.654400  0.592300  1.0  0.0327
  C  C222  1  0.257500  0.625500  0.624930  1.0  -0.1995
  C  C223  1  0.216200  0.532600  0.624970  1.0  0.7133
  C  C224  1  0.239300  0.683700  0.657390  1.0  0.1868
  S  S225  1  0.051360  0.190340  0.373930  1.0  0.0314
  S  S226  1  0.166250  0.162590  0.326750  1.0  -0.0006
  S  S227  1  0.513750  0.104990  0.419720  1.0  -0.0175
  S  S228  1  0.627210  0.092510  0.372500  1.0  0.0459
  S  S229  1  0.747850  0.286030  0.692770  1.0  0.0477
  S  S230  1  0.635740  0.278440  0.658640  1.0  -0.0102
  S  S231  1  0.190340  0.051360  0.873930  1.0  0.0301
  S  S232  1  0.162590  0.166250  0.826750  1.0  -0.0014
  S  S233  1  0.104990  0.513750  0.919720  1.0  -0.0181
  S  S234  1  0.092510  0.627210  0.872500  1.0  0.0446
  S  S235  1  0.286030  0.747850  0.192770  1.0  0.0485
  S  S236  1  0.278440  0.635740  0.158640  1.0  -0.0107
  S  S237  1  0.809660  0.948640  0.126070  1.0  0.0299
  S  S238  1  0.837410  0.833750  0.173250  1.0  -0.0015
  S  S239  1  0.895010  0.486250  0.080280  1.0  -0.0171
  S  S240  1  0.907490  0.372790  0.127500  1.0  0.0412
  S  S241  1  0.713970  0.252150  0.807230  1.0  0.0471
  S  S242  1  0.721560  0.364260  0.841360  1.0  -0.008
  S  S243  1  0.948640  0.809660  0.626070  1.0  0.0294
  S  S244  1  0.833750  0.837410  0.673250  1.0  -0.0017
  S  S245  1  0.486250  0.895010  0.580280  1.0  -0.0175
  S  S246  1  0.372790  0.907490  0.627500  1.0  0.045
  S  S247  1  0.252150  0.713970  0.307230  1.0  0.0481
  S  S248  1  0.364260  0.721560  0.341360  1.0  -0.008
  N  N249  1  0.747490  0.449290  0.728420  1.0  -0.4194
  N  N250  1  0.773200  0.338600  0.604120  1.0  -0.3776
  N  N251  1  0.023100  0.021100  0.344770  1.0  -0.4012
  N  N252  1  0.302300  0.005700  0.380090  1.0  -0.4441
  N  N253  1  0.301000  0.256600  0.435220  1.0  -0.4269
  N  N254  1  0.725500  0.230100  0.342570  1.0  -0.4155
  N  N255  1  0.449290  0.747490  0.228420  1.0  -0.4171
  N  N256  1  0.338600  0.773200  0.104120  1.0  -0.3777
  N  N257  1  0.021100  0.023100  0.844770  1.0  -0.3985
  N  N258  1  0.005700  0.302300  0.880090  1.0  -0.4464
  N  N259  1  0.256600  0.301000  0.935220  1.0  -0.4236
  N  N260  1  0.230100  0.725500  0.842570  1.0  -0.4139
  N  N261  1  0.550710  0.252510  0.771580  1.0  -0.4164
  N  N262  1  0.661400  0.226800  0.895880  1.0  -0.3759
  N  N263  1  0.978900  0.976900  0.155230  1.0  -0.3986
  N  N264  1  0.994300  0.697700  0.119910  1.0  -0.4498
  N  N265  1  0.743400  0.699000  0.064780  1.0  -0.426
  N  N266  1  0.769900  0.274500  0.157430  1.0  -0.4133
  N  N267  1  0.252510  0.550710  0.271580  1.0  -0.42
  N  N268  1  0.226800  0.661400  0.395880  1.0  -0.3802
  N  N269  1  0.976900  0.978900  0.655230  1.0  -0.3996
  N  N270  1  0.697700  0.994300  0.619910  1.0  -0.4473
  N  N271  1  0.699000  0.743400  0.564780  1.0  -0.4293
  N  N272  1  0.274500  0.769900  0.657430  1.0  -0.418
  O  O273  1  0.896410  0.780210  0.348300  1.0  -0.7047
  O  O274  1  0.842430  0.787030  0.411450  1.0  -0.7722
  O  O275  1  0.697210  0.737010  0.353200  1.0  -0.7514
  O  O276  1  0.621930  0.758330  0.413780  1.0  -0.6685
  O  O277  1  0.028380  0.530180  0.350870  1.0  -0.7543
  O  O278  1  0.981330  0.526530  0.414450  1.0  -0.7488
  O  O279  1  0.825030  0.497030  0.343520  1.0  -0.7201
  O  O280  1  0.773290  0.507890  0.406660  1.0  -0.7045
  O  O281  1  0.635310  0.772910  0.766760  1.0  -0.7342
  O  O282  1  0.455110  0.831510  0.749980  1.0  -0.532
  O  O283  1  0.840590  0.486990  0.494660  1.0  -0.6589
  O  O284  1  0.655900  0.573700  0.485560  1.0  -0.6745
  O  O285  1  0.780210  0.896410  0.848300  1.0  -0.7052
  O  O286  1  0.787030  0.842430  0.911450  1.0  -0.7695
  O  O287  1  0.737010  0.697210  0.853200  1.0  -0.7541
  O  O288  1  0.758330  0.621930  0.913780  1.0  -0.6737
  O  O289  1  0.530180  0.028380  0.850870  1.0  -0.752
  O  O290  1  0.526530  0.981330  0.914450  1.0  -0.7487
  O  O291  1  0.497030  0.825030  0.843520  1.0  -0.7185
  O  O292  1  0.507890  0.773290  0.906660  1.0  -0.7024
  O  O293  1  0.772910  0.635310  0.266760  1.0  -0.7357
  O  O294  1  0.831510  0.455110  0.249980  1.0  -0.5265
  O  O295  1  0.486990  0.840590  0.994660  1.0  -0.6564
  O  O296  1  0.573700  0.655900  0.985560  1.0  -0.6734
  O  O297  1  0.219790  0.103590  0.151700  1.0  -0.7051
  O  O298  1  0.212970  0.157570  0.088550  1.0  -0.7686
  O  O299  1  0.262990  0.302790  0.146800  1.0  -0.7542
  O  O300  1  0.241670  0.378070  0.086220  1.0  -0.6716
  O  O301  1  0.469820  0.971620  0.149130  1.0  -0.7525
  O  O302  1  0.473470  0.018670  0.085550  1.0  -0.7491
  O  O303  1  0.502970  0.174970  0.156480  1.0  -0.7186
  O  O304  1  0.492110  0.226710  0.093340  1.0  -0.7038
  O  O305  1  0.227090  0.364690  0.733240  1.0  -0.7341
  O  O306  1  0.168490  0.544890  0.750020  1.0  -0.5289
  O  O307  1  0.513010  0.159410  0.005340  1.0  -0.6554
  O  O308  1  0.426300  0.344100  0.014440  1.0  -0.6743
  O  O309  1  0.103590  0.219790  0.651700  1.0  -0.7021
  O  O310  1  0.157570  0.212970  0.588550  1.0  -0.7696
  O  O311  1  0.302790  0.262990  0.646800  1.0  -0.7524
  O  O312  1  0.378070  0.241670  0.586220  1.0  -0.6653
  O  O313  1  0.971620  0.469820  0.649130  1.0  -0.7529
  O  O314  1  0.018670  0.473470  0.585550  1.0  -0.7482
  O  O315  1  0.174970  0.502970  0.656480  1.0  -0.7199
  O  O316  1  0.226710  0.492110  0.593340  1.0  -0.7052
  O  O317  1  0.364690  0.227090  0.233240  1.0  -0.7339
  O  O318  1  0.544890  0.168490  0.250020  1.0  -0.5291
  O  O319  1  0.159410  0.513010  0.505340  1.0  -0.6556
  O  O320  1  0.344100  0.426300  0.514440  1.0  -0.6733
