# generated using pymatgen
data_Zn3H48C60(NO8)2
_symmetry_space_group_name_H-M   'P 1'
_cell_length_a   14.55750000
_cell_length_b   24.67440000
_cell_length_c   22.40210000
_cell_angle_alpha   90.00000000
_cell_angle_beta   90.00000000
_cell_angle_gamma   90.00000000
_symmetry_Int_Tables_number   1
_chemical_formula_structural   Zn3H48C60(NO8)2
_chemical_formula_sum   'Zn12 H192 C240 N8 O64'
_cell_volume   8046.78006211
_cell_formula_units_Z   4
loop_
 _symmetry_equiv_pos_site_id
 _symmetry_equiv_pos_as_xyz
  1  'x, y, z'
loop_
 _atom_site_type_symbol
 _atom_site_label
 _atom_site_symmetry_multiplicity
 _atom_site_fract_x
 _atom_site_fract_y
 _atom_site_fract_z
 _atom_site_occupancy
 _atom_site_charge
  Zn  Zn1  1  0.959170  0.343830  0.386780  1.0  1.0348
  Zn  Zn2  1  0.996430  0.344020  0.229020  1.0  1.1727
  Zn  Zn3  1  0.039220  0.339720  0.064820  1.0  1.0407
  Zn  Zn4  1  0.540830  0.843830  0.386780  1.0  1.0342
  Zn  Zn5  1  0.503570  0.844020  0.229020  1.0  1.1728
  Zn  Zn6  1  0.460780  0.839720  0.064820  1.0  1.0406
  Zn  Zn7  1  0.040830  0.656170  0.886780  1.0  1.0346
  Zn  Zn8  1  0.003570  0.655980  0.729020  1.0  1.1728
  Zn  Zn9  1  0.960780  0.660280  0.564820  1.0  1.0412
  Zn  Zn10  1  0.459170  0.156170  0.886780  1.0  1.0354
  Zn  Zn11  1  0.496430  0.155980  0.729020  1.0  1.1727
  Zn  Zn12  1  0.539220  0.160280  0.564820  1.0  1.0414
  H  H13  1  0.037100  0.384600  0.563000  1.0  0.1056
  H  H14  1  0.073300  0.394000  0.663000  1.0  0.1018
  H  H15  1  0.927700  0.258800  0.701200  1.0  0.104
  H  H16  1  0.889800  0.249700  0.599900  1.0  0.1021
  H  H17  1  0.045600  0.416500  0.754500  1.0  0.1061
  H  H18  1  0.074800  0.429000  0.855200  1.0  0.1102
  H  H19  1  0.037700  0.269100  0.883600  1.0  0.1086
  H  H20  1  0.016600  0.255900  0.781100  1.0  0.1086
  H  H21  1  0.096500  0.493700  0.410200  1.0  0.1018
  H  H22  1  0.181500  0.573200  0.410500  1.0  0.1101
  H  H23  1  0.199900  0.566200  0.229900  1.0  0.1162
  H  H24  1  0.108100  0.489000  0.230400  1.0  0.0994
  H  H25  1  0.321600  0.611800  0.400700  1.0  0.1205
  H  H26  1  0.413100  0.689000  0.402400  1.0  0.0993
  H  H27  1  0.303500  0.738400  0.245700  1.0  0.0962
  H  H28  1  0.211100  0.660600  0.242900  1.0  0.1057
  H  H29  1  0.667100  0.383800  0.359300  1.0  0.1099
  H  H30  1  0.519100  0.391700  0.321500  1.0  0.1133
  H  H31  1  0.602400  0.324700  0.165100  1.0  0.122
  H  H32  1  0.750300  0.316900  0.204100  1.0  0.0977
  H  H33  1  0.384600  0.358400  0.294400  1.0  0.1068
  H  H34  1  0.234600  0.360400  0.258000  1.0  0.1164
  H  H35  1  0.336000  0.366800  0.089900  1.0  0.095
  H  H36  1  0.484800  0.370500  0.127400  1.0  0.1163
  H  H37  1  0.855900  0.207500  0.222500  1.0  0.1045
  H  H38  1  0.764600  0.129500  0.217800  1.0  0.1086
  H  H39  1  0.859800  0.098700  0.052000  1.0  0.1159
  H  H40  1  0.945500  0.177400  0.054200  1.0  0.1116
  H  H41  1  0.756000  0.036100  0.220000  1.0  0.1075
  H  H42  1  0.673500  0.955400  0.214900  1.0  0.111
  H  H43  1  0.628100  0.981800  0.038600  1.0  0.0971
  H  H44  1  0.716000  0.060100  0.042800  1.0  0.1142
  H  H45  1  0.462900  0.884600  0.563000  1.0  0.1053
  H  H46  1  0.426700  0.894000  0.663000  1.0  0.1021
  H  H47  1  0.572300  0.758800  0.701200  1.0  0.104
  H  H48  1  0.610200  0.749700  0.599900  1.0  0.1026
  H  H49  1  0.454400  0.916500  0.754500  1.0  0.1065
  H  H50  1  0.425200  0.929000  0.855200  1.0  0.1104
  H  H51  1  0.462300  0.769100  0.883600  1.0  0.1086
  H  H52  1  0.483400  0.755900  0.781100  1.0  0.1086
  H  H53  1  0.403500  0.993700  0.410200  1.0  0.1022
  H  H54  1  0.318500  0.073200  0.410500  1.0  0.1103
  H  H55  1  0.300100  0.066200  0.229900  1.0  0.1159
  H  H56  1  0.391900  0.989000  0.230400  1.0  0.0995
  H  H57  1  0.178400  0.111800  0.400700  1.0  0.1206
  H  H58  1  0.086900  0.189000  0.402400  1.0  0.0994
  H  H59  1  0.196500  0.238400  0.245700  1.0  0.0961
  H  H60  1  0.288900  0.160600  0.242900  1.0  0.1055
  H  H61  1  0.832900  0.883800  0.359300  1.0  0.1095
  H  H62  1  0.980900  0.891700  0.321500  1.0  0.1135
  H  H63  1  0.897600  0.824700  0.165100  1.0  0.1221
  H  H64  1  0.749700  0.816900  0.204100  1.0  0.0976
  H  H65  1  0.115400  0.858400  0.294400  1.0  0.1069
  H  H66  1  0.265400  0.860400  0.258000  1.0  0.1164
  H  H67  1  0.164000  0.866800  0.089900  1.0  0.0947
  H  H68  1  0.015200  0.870500  0.127400  1.0  0.1168
  H  H69  1  0.644100  0.707500  0.222500  1.0  0.1046
  H  H70  1  0.735400  0.629500  0.217800  1.0  0.1085
  H  H71  1  0.640200  0.598700  0.052000  1.0  0.1155
  H  H72  1  0.554500  0.677400  0.054200  1.0  0.1117
  H  H73  1  0.744000  0.536100  0.220000  1.0  0.108
  H  H74  1  0.826500  0.455400  0.214900  1.0  0.1114
  H  H75  1  0.871900  0.481800  0.038600  1.0  0.0969
  H  H76  1  0.784000  0.560100  0.042800  1.0  0.1135
  H  H77  1  0.962900  0.615400  0.063000  1.0  0.1053
  H  H78  1  0.926700  0.606000  0.163000  1.0  0.1018
  H  H79  1  0.072300  0.741200  0.201200  1.0  0.104
  H  H80  1  0.110200  0.750300  0.099900  1.0  0.1025
  H  H81  1  0.954400  0.583500  0.254500  1.0  0.1059
  H  H82  1  0.925200  0.571000  0.355200  1.0  0.1105
  H  H83  1  0.962300  0.730900  0.383600  1.0  0.1081
  H  H84  1  0.983400  0.744100  0.281100  1.0  0.1082
  H  H85  1  0.903500  0.506300  0.910200  1.0  0.1015
  H  H86  1  0.818500  0.426800  0.910500  1.0  0.1106
  H  H87  1  0.800100  0.433800  0.729900  1.0  0.1161
  H  H88  1  0.891900  0.511000  0.730400  1.0  0.0993
  H  H89  1  0.678400  0.388200  0.900700  1.0  0.1202
  H  H90  1  0.586900  0.311000  0.902400  1.0  0.0991
  H  H91  1  0.696500  0.261600  0.745700  1.0  0.0965
  H  H92  1  0.788900  0.339400  0.742900  1.0  0.1056
  H  H93  1  0.332900  0.616200  0.859300  1.0  0.1096
  H  H94  1  0.480900  0.608300  0.821500  1.0  0.1132
  H  H95  1  0.397600  0.675300  0.665100  1.0  0.1222
  H  H96  1  0.249700  0.683100  0.704100  1.0  0.0976
  H  H97  1  0.615400  0.641600  0.794400  1.0  0.1073
  H  H98  1  0.765400  0.639600  0.758000  1.0  0.1165
  H  H99  1  0.664000  0.633200  0.589900  1.0  0.0947
  H  H100  1  0.515200  0.629500  0.627400  1.0  0.1165
  H  H101  1  0.144100  0.792500  0.722500  1.0  0.1042
  H  H102  1  0.235400  0.870500  0.717800  1.0  0.1083
  H  H103  1  0.140200  0.901300  0.552000  1.0  0.1157
  H  H104  1  0.054500  0.822600  0.554200  1.0  0.1118
  H  H105  1  0.244000  0.963900  0.720000  1.0  0.1078
  H  H106  1  0.326500  0.044600  0.714900  1.0  0.1113
  H  H107  1  0.371900  0.018200  0.538600  1.0  0.0968
  H  H108  1  0.284000  0.939900  0.542800  1.0  0.1141
  H  H109  1  0.537100  0.115400  0.063000  1.0  0.1055
  H  H110  1  0.573300  0.106000  0.163000  1.0  0.1018
  H  H111  1  0.427700  0.241200  0.201200  1.0  0.1041
  H  H112  1  0.389800  0.250300  0.099900  1.0  0.1023
  H  H113  1  0.545600  0.083500  0.254500  1.0  0.1057
  H  H114  1  0.574800  0.071000  0.355200  1.0  0.1105
  H  H115  1  0.537700  0.230900  0.383600  1.0  0.1085
  H  H116  1  0.516600  0.244100  0.281100  1.0  0.1082
  H  H117  1  0.596500  0.006300  0.910200  1.0  0.1017
  H  H118  1  0.681500  0.926800  0.910500  1.0  0.1103
  H  H119  1  0.699900  0.933800  0.729900  1.0  0.1164
  H  H120  1  0.608100  0.011000  0.730400  1.0  0.0994
  H  H121  1  0.821600  0.888200  0.900700  1.0  0.1206
  H  H122  1  0.913100  0.811000  0.902400  1.0  0.099
  H  H123  1  0.803500  0.761600  0.745700  1.0  0.0967
  H  H124  1  0.711100  0.839400  0.742900  1.0  0.1058
  H  H125  1  0.167100  0.116200  0.859300  1.0  0.1098
  H  H126  1  0.019100  0.108300  0.821500  1.0  0.1131
  H  H127  1  0.102400  0.175300  0.665100  1.0  0.1221
  H  H128  1  0.250300  0.183100  0.704100  1.0  0.0976
  H  H129  1  0.884600  0.141600  0.794400  1.0  0.1072
  H  H130  1  0.734600  0.139600  0.758000  1.0  0.1165
  H  H131  1  0.836000  0.133200  0.589900  1.0  0.0949
  H  H132  1  0.984800  0.129500  0.627400  1.0  0.1163
  H  H133  1  0.355900  0.292500  0.722500  1.0  0.1041
  H  H134  1  0.264600  0.370500  0.717800  1.0  0.1086
  H  H135  1  0.359800  0.401300  0.552000  1.0  0.1162
  H  H136  1  0.445500  0.322600  0.554200  1.0  0.1117
  H  H137  1  0.256000  0.463900  0.720000  1.0  0.1072
  H  H138  1  0.173500  0.544600  0.714900  1.0  0.1111
  H  H139  1  0.128100  0.518200  0.538600  1.0  0.097
  H  H140  1  0.216000  0.439900  0.542800  1.0  0.1144
  H  H141  1  0.894600  0.215400  0.426400  1.0  0.2346
  H  H142  1  0.907300  0.168400  0.385800  1.0  0.1851
  H  H143  1  0.825300  0.232400  0.338600  1.0  0.0929
  H  H144  1  0.751000  0.230200  0.391200  1.0  0.0933
  H  H145  1  0.763900  0.179300  0.347700  1.0  0.0905
  H  H146  1  0.881600  0.137800  0.479000  1.0  0.0918
  H  H147  1  0.799500  0.119600  0.435900  1.0  0.0902
  H  H148  1  0.786300  0.170200  0.479800  1.0  0.0998
  H  H149  1  0.115800  0.454900  0.024200  1.0  0.2455
  H  H150  1  0.204100  0.484600  0.030900  1.0  0.1925
  H  H151  1  0.144200  0.469300  0.123100  1.0  0.1009
  H  H152  1  0.052800  0.500500  0.103200  1.0  0.0947
  H  H153  1  0.147300  0.533000  0.110200  1.0  0.1002
  H  H154  1  0.124600  0.521100  0.953300  1.0  0.1138
  H  H155  1  0.135100  0.565000  0.005500  1.0  0.1056
  H  H156  1  0.040600  0.532700  0.997600  1.0  0.1093
  H  H157  1  0.105400  0.784600  0.926400  1.0  0.233
  H  H158  1  0.092700  0.831600  0.885800  1.0  0.1899
  H  H159  1  0.174700  0.767600  0.838600  1.0  0.0931
  H  H160  1  0.249000  0.769800  0.891200  1.0  0.0925
  H  H161  1  0.236100  0.820700  0.847700  1.0  0.0906
  H  H162  1  0.118400  0.862200  0.979000  1.0  0.0923
  H  H163  1  0.200500  0.880400  0.935900  1.0  0.0913
  H  H164  1  0.213700  0.829800  0.979800  1.0  0.1
  H  H165  1  0.884200  0.545100  0.524200  1.0  0.2451
  H  H166  1  0.795900  0.515400  0.530900  1.0  0.1964
  H  H167  1  0.855800  0.530700  0.623100  1.0  0.0999
  H  H168  1  0.947200  0.499500  0.603200  1.0  0.0928
  H  H169  1  0.852700  0.467000  0.610200  1.0  0.0997
  H  H170  1  0.875400  0.478900  0.453300  1.0  0.1131
  H  H171  1  0.864900  0.435000  0.505500  1.0  0.1043
  H  H172  1  0.959400  0.467300  0.497600  1.0  0.1071
  H  H173  1  0.605400  0.715400  0.426400  1.0  0.2355
  H  H174  1  0.592700  0.668400  0.385800  1.0  0.1896
  H  H175  1  0.674700  0.732400  0.338600  1.0  0.0935
  H  H176  1  0.749000  0.730200  0.391200  1.0  0.0936
  H  H177  1  0.736100  0.679300  0.347700  1.0  0.09
  H  H178  1  0.618400  0.637800  0.479000  1.0  0.0922
  H  H179  1  0.700500  0.619600  0.435900  1.0  0.0886
  H  H180  1  0.713700  0.670200  0.479800  1.0  0.0999
  H  H181  1  0.384200  0.954900  0.024200  1.0  0.2439
  H  H182  1  0.295900  0.984600  0.030900  1.0  0.1962
  H  H183  1  0.355800  0.969300  0.123100  1.0  0.1006
  H  H184  1  0.447200  0.000500  0.103200  1.0  0.0928
  H  H185  1  0.352700  0.033000  0.110200  1.0  0.1006
  H  H186  1  0.375400  0.021100  0.953300  1.0  0.1135
  H  H187  1  0.364900  0.065000  0.005500  1.0  0.1063
  H  H188  1  0.459400  0.032700  0.997600  1.0  0.1074
  H  H189  1  0.394600  0.284600  0.926400  1.0  0.2327
  H  H190  1  0.407300  0.331600  0.885800  1.0  0.1858
  H  H191  1  0.325300  0.267600  0.838600  1.0  0.0927
  H  H192  1  0.251000  0.269800  0.891200  1.0  0.0927
  H  H193  1  0.263900  0.320700  0.847700  1.0  0.0912
  H  H194  1  0.381600  0.362200  0.979000  1.0  0.0927
  H  H195  1  0.299500  0.380400  0.935900  1.0  0.0926
  H  H196  1  0.286300  0.329800  0.979800  1.0  0.1002
  H  H197  1  0.615800  0.045100  0.524200  1.0  0.2459
  H  H198  1  0.704100  0.015400  0.530900  1.0  0.1926
  H  H199  1  0.644200  0.030700  0.623100  1.0  0.0998
  H  H200  1  0.552800  0.999500  0.603200  1.0  0.0946
  H  H201  1  0.647300  0.967000  0.610200  1.0  0.1014
  H  H202  1  0.624600  0.978900  0.453300  1.0  0.1135
  H  H203  1  0.635100  0.935000  0.505500  1.0  0.1064
  H  H204  1  0.540600  0.967300  0.497600  1.0  0.1094
  C  C205  1  0.938300  0.309910  0.506010  1.0  0.7009
  C  C206  1  0.959300  0.317150  0.571900  1.0  -0.1254
  C  C207  1  0.014000  0.359180  0.591080  1.0  -0.0245
  C  C208  1  0.035600  0.364660  0.650580  1.0  -0.1296
  C  C209  1  0.003300  0.328080  0.693060  1.0  0.0482
  C  C210  1  0.949400  0.284760  0.673260  1.0  -0.1103
  C  C211  1  0.926800  0.279120  0.612910  1.0  -0.0574
  C  C212  1  0.024700  0.334770  0.757620  1.0  0.0034
  C  C213  1  0.043700  0.386290  0.780720  1.0  -0.096
  C  C214  1  0.059800  0.393930  0.840670  1.0  -0.0535
  C  C215  1  0.054300  0.350820  0.879890  1.0  -0.1681
  C  C216  1  0.039000  0.299330  0.857280  1.0  -0.053
  C  C217  1  0.025400  0.291500  0.796170  1.0  -0.1194
  C  C218  1  0.063300  0.360930  0.945890  1.0  0.6847
  C  C219  1  0.037400  0.432350  0.320070  1.0  0.6821
  C  C220  1  0.094000  0.483810  0.320010  1.0  -0.1438
  C  C221  1  0.116500  0.508950  0.373490  1.0  -0.0237
  C  C222  1  0.167700  0.555840  0.373700  1.0  -0.1461
  C  C223  1  0.199700  0.578190  0.320010  1.0  0.0546
  C  C224  1  0.177900  0.552130  0.266690  1.0  -0.1306
  C  C225  1  0.124200  0.505810  0.267120  1.0  -0.0239
  C  C226  1  0.257500  0.628020  0.320950  1.0  0.0371
  C  C227  1  0.317900  0.637250  0.368980  1.0  -0.1578
  C  C228  1  0.372100  0.683330  0.370040  1.0  -0.0515
  C  C229  1  0.367200  0.721300  0.324620  1.0  -0.1268
  C  C230  1  0.307100  0.712630  0.277030  1.0  -0.043
  C  C231  1  0.252100  0.666160  0.275270  1.0  -0.1363
  C  C232  1  0.424700  0.771610  0.327330  1.0  0.6982
  C  C233  1  0.818200  0.341440  0.309300  1.0  0.6681
  C  C234  1  0.722800  0.348480  0.285120  1.0  -0.1424
  C  C235  1  0.653800  0.371540  0.320070  1.0  -0.0563
  C  C236  1  0.566100  0.376500  0.297340  1.0  -0.1538
  C  C237  1  0.545240  0.359570  0.239580  1.0  0.0469
  C  C238  1  0.615100  0.336760  0.204570  1.0  -0.1506
  C  C239  1  0.702900  0.331940  0.228030  1.0  -0.0184
  C  C240  1  0.449800  0.363560  0.215460  1.0  0.0035
  C  C241  1  0.374800  0.360720  0.252590  1.0  -0.0951
  C  C242  1  0.285200  0.361170  0.231280  1.0  -0.1084
  C  C243  1  0.271200  0.362780  0.169620  1.0  -0.1188
  C  C244  1  0.345600  0.365720  0.131790  1.0  -0.0391
  C  C245  1  0.434300  0.367100  0.154020  1.0  -0.1618
  C  C246  1  0.175800  0.360360  0.145450  1.0  0.697
  C  C247  1  0.965100  0.251350  0.140530  1.0  0.7112
  C  C248  1  0.909800  0.200220  0.138650  1.0  -0.139
  C  C249  1  0.855900  0.185730  0.187560  1.0  -0.0712
  C  C250  1  0.802200  0.139120  0.184760  1.0  -0.1416
  C  C251  1  0.802800  0.106390  0.134150  1.0  0.0461
  C  C252  1  0.857900  0.121130  0.086390  1.0  -0.1416
  C  C253  1  0.909600  0.167510  0.087870  1.0  -0.0862
  C  C254  1  0.747500  0.056210  0.131870  1.0  0.069
  C  C255  1  0.731600  0.024610  0.182790  1.0  -0.1168
  C  C256  1  0.681100  0.977010  0.180230  1.0  -0.0757
  C  C257  1  0.641100  0.961000  0.125610  1.0  -0.1428
  C  C258  1  0.654900  0.992410  0.075470  1.0  -0.0131
  C  C259  1  0.707200  0.039170  0.077920  1.0  -0.1528
  C  C260  1  0.585120  0.909930  0.123470  1.0  0.6747
  C  C261  1  0.561700  0.809910  0.506010  1.0  0.7005
  C  C262  1  0.540700  0.817150  0.571900  1.0  -0.1249
  C  C263  1  0.486000  0.859180  0.591080  1.0  -0.0237
  C  C264  1  0.464400  0.864660  0.650580  1.0  -0.128
  C  C265  1  0.496700  0.828080  0.693060  1.0  0.0482
  C  C266  1  0.550600  0.784760  0.673260  1.0  -0.1102
  C  C267  1  0.573200  0.779120  0.612910  1.0  -0.0588
  C  C268  1  0.475300  0.834770  0.757620  1.0  0.0035
  C  C269  1  0.456300  0.886290  0.780720  1.0  -0.0961
  C  C270  1  0.440200  0.893930  0.840670  1.0  -0.0523
  C  C271  1  0.445700  0.850820  0.879890  1.0  -0.1686
  C  C272  1  0.461000  0.799330  0.857280  1.0  -0.0531
  C  C273  1  0.474600  0.791500  0.796170  1.0  -0.1197
  C  C274  1  0.436700  0.860930  0.945890  1.0  0.6851
  C  C275  1  0.462600  0.932350  0.320070  1.0  0.6819
  C  C276  1  0.406000  0.983810  0.320010  1.0  -0.1445
  C  C277  1  0.383500  0.008950  0.373490  1.0  -0.0236
  C  C278  1  0.332300  0.055840  0.373700  1.0  -0.1471
  C  C279  1  0.300300  0.078190  0.320010  1.0  0.0559
  C  C280  1  0.322100  0.052130  0.266690  1.0  -0.1312
  C  C281  1  0.375800  0.005810  0.267120  1.0  -0.0242
  C  C282  1  0.242500  0.128020  0.320950  1.0  0.0374
  C  C283  1  0.182100  0.137250  0.368980  1.0  -0.1581
  C  C284  1  0.127900  0.183330  0.370040  1.0  -0.0506
  C  C285  1  0.132800  0.221300  0.324620  1.0  -0.1273
  C  C286  1  0.192900  0.212630  0.277030  1.0  -0.0435
  C  C287  1  0.247900  0.166160  0.275270  1.0  -0.1372
  C  C288  1  0.075300  0.271610  0.327330  1.0  0.6987
  C  C289  1  0.681800  0.841440  0.309300  1.0  0.6669
  C  C290  1  0.777200  0.848480  0.285120  1.0  -0.1406
  C  C291  1  0.846200  0.871540  0.320070  1.0  -0.0559
  C  C292  1  0.933900  0.876500  0.297340  1.0  -0.1542
  C  C293  1  0.954760  0.859570  0.239580  1.0  0.0467
  C  C294  1  0.884900  0.836760  0.204570  1.0  -0.1503
  C  C295  1  0.797100  0.831940  0.228030  1.0  -0.0168
  C  C296  1  0.050200  0.863560  0.215460  1.0  0.0033
  C  C297  1  0.125200  0.860720  0.252590  1.0  -0.0945
  C  C298  1  0.214800  0.861170  0.231280  1.0  -0.1092
  C  C299  1  0.228800  0.862780  0.169620  1.0  -0.1197
  C  C300  1  0.154400  0.865720  0.131790  1.0  -0.0392
  C  C301  1  0.065700  0.867100  0.154020  1.0  -0.1614
  C  C302  1  0.324200  0.860360  0.145450  1.0  0.6975
  C  C303  1  0.534900  0.751350  0.140530  1.0  0.7108
  C  C304  1  0.590200  0.700220  0.138650  1.0  -0.1394
  C  C305  1  0.644100  0.685730  0.187560  1.0  -0.0711
  C  C306  1  0.697800  0.639120  0.184760  1.0  -0.1426
  C  C307  1  0.697200  0.606390  0.134150  1.0  0.0481
  C  C308  1  0.642100  0.621130  0.086390  1.0  -0.1415
  C  C309  1  0.590400  0.667510  0.087870  1.0  -0.0852
  C  C310  1  0.752500  0.556210  0.131870  1.0  0.0691
  C  C311  1  0.768400  0.524610  0.182790  1.0  -0.1176
  C  C312  1  0.818900  0.477010  0.180230  1.0  -0.0757
  C  C313  1  0.858900  0.461000  0.125610  1.0  -0.1427
  C  C314  1  0.845100  0.492410  0.075470  1.0  -0.0128
  C  C315  1  0.792800  0.539170  0.077920  1.0  -0.1519
  C  C316  1  0.914880  0.409930  0.123470  1.0  0.6733
  C  C317  1  0.061700  0.690090  0.006010  1.0  0.7008
  C  C318  1  0.040700  0.682850  0.071900  1.0  -0.1249
  C  C319  1  0.986000  0.640820  0.091080  1.0  -0.0235
  C  C320  1  0.964400  0.635340  0.150580  1.0  -0.1265
  C  C321  1  0.996700  0.671920  0.193060  1.0  0.0479
  C  C322  1  0.050600  0.715240  0.173260  1.0  -0.1103
  C  C323  1  0.073200  0.720880  0.112910  1.0  -0.0585
  C  C324  1  0.975300  0.665230  0.257620  1.0  0.0034
  C  C325  1  0.956300  0.613710  0.280720  1.0  -0.0964
  C  C326  1  0.940200  0.606070  0.340670  1.0  -0.0533
  C  C327  1  0.945700  0.649180  0.379890  1.0  -0.1686
  C  C328  1  0.961000  0.700670  0.357280  1.0  -0.0522
  C  C329  1  0.974600  0.708500  0.296170  1.0  -0.1193
  C  C330  1  0.936700  0.639070  0.445890  1.0  0.6851
  C  C331  1  0.962600  0.567650  0.820070  1.0  0.6821
  C  C332  1  0.906000  0.516190  0.820010  1.0  -0.1428
  C  C333  1  0.883500  0.491050  0.873490  1.0  -0.0237
  C  C334  1  0.832300  0.444160  0.873700  1.0  -0.1477
  C  C335  1  0.800300  0.421810  0.820010  1.0  0.0558
  C  C336  1  0.822100  0.447870  0.766690  1.0  -0.1314
  C  C337  1  0.875800  0.494190  0.767120  1.0  -0.0243
  C  C338  1  0.742500  0.371980  0.820950  1.0  0.0369
  C  C339  1  0.682100  0.362750  0.868980  1.0  -0.1587
  C  C340  1  0.627900  0.316670  0.870040  1.0  -0.0502
  C  C341  1  0.632800  0.278700  0.824620  1.0  -0.1268
  C  C342  1  0.692900  0.287370  0.777030  1.0  -0.044
  C  C343  1  0.747900  0.333840  0.775270  1.0  -0.1371
  C  C344  1  0.575300  0.228390  0.827330  1.0  0.6985
  C  C345  1  0.181800  0.658560  0.809300  1.0  0.6665
  C  C346  1  0.277200  0.651520  0.785120  1.0  -0.1411
  C  C347  1  0.346200  0.628460  0.820070  1.0  -0.058
  C  C348  1  0.433900  0.623500  0.797340  1.0  -0.1563
  C  C349  1  0.454760  0.640430  0.739580  1.0  0.0467
  C  C350  1  0.384900  0.663240  0.704570  1.0  -0.1496
  C  C351  1  0.297100  0.668060  0.728030  1.0  -0.0171
  C  C352  1  0.550200  0.636440  0.715460  1.0  0.0032
  C  C353  1  0.625200  0.639280  0.752590  1.0  -0.0959
  C  C354  1  0.714800  0.638830  0.731280  1.0  -0.1089
  C  C355  1  0.728800  0.637220  0.669620  1.0  -0.1195
  C  C356  1  0.654400  0.634280  0.631790  1.0  -0.0391
  C  C357  1  0.565700  0.632900  0.654020  1.0  -0.1597
  C  C358  1  0.824200  0.639640  0.645450  1.0  0.6976
  C  C359  1  0.034900  0.748650  0.640530  1.0  0.7101
  C  C360  1  0.090200  0.799780  0.638650  1.0  -0.1397
  C  C361  1  0.144100  0.814270  0.687560  1.0  -0.0713
  C  C362  1  0.197800  0.860880  0.684760  1.0  -0.1424
  C  C363  1  0.197200  0.893610  0.634150  1.0  0.0479
  C  C364  1  0.142100  0.878870  0.586390  1.0  -0.1409
  C  C365  1  0.090400  0.832490  0.587870  1.0  -0.0845
  C  C366  1  0.252500  0.943790  0.631870  1.0  0.0693
  C  C367  1  0.268400  0.975390  0.682790  1.0  -0.1179
  C  C368  1  0.318900  0.022990  0.680230  1.0  -0.076
  C  C369  1  0.358900  0.039000  0.625610  1.0  -0.1423
  C  C370  1  0.345100  0.007590  0.575470  1.0  -0.0134
  C  C371  1  0.292800  0.960830  0.577920  1.0  -0.1512
  C  C372  1  0.414880  0.090070  0.623470  1.0  0.6755
  C  C373  1  0.438300  0.190090  0.006010  1.0  0.7011
  C  C374  1  0.459300  0.182850  0.071900  1.0  -0.1252
  C  C375  1  0.514000  0.140820  0.091080  1.0  -0.0243
  C  C376  1  0.535600  0.135340  0.150580  1.0  -0.1278
  C  C377  1  0.503300  0.171920  0.193060  1.0  0.048
  C  C378  1  0.449400  0.215240  0.173260  1.0  -0.1098
  C  C379  1  0.426800  0.220880  0.112910  1.0  -0.0567
  C  C380  1  0.524700  0.165230  0.257620  1.0  0.0033
  C  C381  1  0.543700  0.113710  0.280720  1.0  -0.0963
  C  C382  1  0.559800  0.106070  0.340670  1.0  -0.0542
  C  C383  1  0.554300  0.149180  0.379890  1.0  -0.1682
  C  C384  1  0.539000  0.200670  0.357280  1.0  -0.053
  C  C385  1  0.525400  0.208500  0.296170  1.0  -0.1194
  C  C386  1  0.563300  0.139070  0.445890  1.0  0.6848
  C  C387  1  0.537400  0.067650  0.820070  1.0  0.6825
  C  C388  1  0.594000  0.016190  0.820010  1.0  -0.1416
  C  C389  1  0.616500  0.991050  0.873490  1.0  -0.0243
  C  C390  1  0.667700  0.944160  0.873700  1.0  -0.1472
  C  C391  1  0.699700  0.921810  0.820010  1.0  0.0541
  C  C392  1  0.677900  0.947870  0.766690  1.0  -0.1304
  C  C393  1  0.624200  0.994190  0.767120  1.0  -0.0244
  C  C394  1  0.757500  0.871980  0.820950  1.0  0.0366
  C  C395  1  0.817900  0.862750  0.868980  1.0  -0.1579
  C  C396  1  0.872100  0.816670  0.870040  1.0  -0.0509
  C  C397  1  0.867200  0.778700  0.824620  1.0  -0.1273
  C  C398  1  0.807100  0.787370  0.777030  1.0  -0.0435
  C  C399  1  0.752100  0.833840  0.775270  1.0  -0.1361
  C  C400  1  0.924700  0.728390  0.827330  1.0  0.6973
  C  C401  1  0.318200  0.158560  0.809300  1.0  0.6675
  C  C402  1  0.222800  0.151520  0.785120  1.0  -0.1421
  C  C403  1  0.153800  0.128460  0.820070  1.0  -0.0576
  C  C404  1  0.066100  0.123500  0.797340  1.0  -0.1529
  C  C405  1  0.045240  0.140430  0.739580  1.0  0.0466
  C  C406  1  0.115100  0.163240  0.704570  1.0  -0.1498
  C  C407  1  0.202900  0.168060  0.728030  1.0  -0.0187
  C  C408  1  0.949800  0.136440  0.715460  1.0  0.0035
  C  C409  1  0.874800  0.139280  0.752590  1.0  -0.0962
  C  C410  1  0.785200  0.138830  0.731280  1.0  -0.1081
  C  C411  1  0.771200  0.137220  0.669620  1.0  -0.1186
  C  C412  1  0.845600  0.134280  0.631790  1.0  -0.0393
  C  C413  1  0.934300  0.132900  0.654020  1.0  -0.1614
  C  C414  1  0.675800  0.139640  0.645450  1.0  0.6969
  C  C415  1  0.465100  0.248650  0.640530  1.0  0.7105
  C  C416  1  0.409800  0.299780  0.638650  1.0  -0.1391
  C  C417  1  0.355900  0.314270  0.687560  1.0  -0.0712
  C  C418  1  0.302200  0.360880  0.684760  1.0  -0.1415
  C  C419  1  0.302800  0.393610  0.634150  1.0  0.0459
  C  C420  1  0.357900  0.378870  0.586390  1.0  -0.1403
  C  C421  1  0.409600  0.332490  0.587870  1.0  -0.0856
  C  C422  1  0.247500  0.443790  0.631870  1.0  0.0691
  C  C423  1  0.231600  0.475390  0.682790  1.0  -0.117
  C  C424  1  0.181100  0.522990  0.680230  1.0  -0.0758
  C  C425  1  0.141100  0.539000  0.625610  1.0  -0.1426
  C  C426  1  0.154900  0.507590  0.575470  1.0  -0.013
  C  C427  1  0.207200  0.460830  0.577920  1.0  -0.1525
  C  C428  1  0.085120  0.590070  0.623470  1.0  0.6753
  C  C429  1  0.795600  0.209030  0.368200  1.0  -0.1402
  C  C430  1  0.830200  0.150660  0.454500  1.0  -0.1476
  C  C431  1  0.119600  0.498490  0.098200  1.0  -0.1527
  C  C432  1  0.107600  0.530200  0.994500  1.0  -0.1765
  C  C433  1  0.204400  0.790970  0.868200  1.0  -0.1397
  C  C434  1  0.169800  0.849340  0.954500  1.0  -0.1498
  C  C435  1  0.880400  0.501510  0.598200  1.0  -0.1554
  C  C436  1  0.892400  0.469800  0.494500  1.0  -0.1774
  C  C437  1  0.704400  0.709030  0.368200  1.0  -0.1389
  C  C438  1  0.669800  0.650660  0.454500  1.0  -0.1482
  C  C439  1  0.380400  0.998490  0.098200  1.0  -0.1554
  C  C440  1  0.392400  0.030200  0.994500  1.0  -0.1771
  C  C441  1  0.295600  0.290970  0.868200  1.0  -0.1403
  C  C442  1  0.330200  0.349340  0.954500  1.0  -0.1495
  C  C443  1  0.619600  0.001510  0.598200  1.0  -0.1527
  C  C444  1  0.607600  0.969800  0.494500  1.0  -0.1764
  N  N445  1  0.864700  0.186960  0.408200  1.0  -0.0742
  N  N446  1  0.141400  0.487570  0.035070  1.0  -0.0675
  N  N447  1  0.135300  0.813040  0.908200  1.0  -0.0723
  N  N448  1  0.858600  0.512430  0.535070  1.0  -0.0646
  N  N449  1  0.635300  0.686960  0.408200  1.0  -0.0732
  N  N450  1  0.358600  0.987570  0.035070  1.0  -0.068
  N  N451  1  0.364700  0.313040  0.908200  1.0  -0.0736
  N  N452  1  0.641400  0.012430  0.535070  1.0  -0.0651
  O  O453  1  0.965850  0.348680  0.473270  1.0  -0.6032
  O  O454  1  0.898680  0.268530  0.488900  1.0  -0.596
  O  O455  1  0.091100  0.405110  0.963990  1.0  -0.6237
  O  O456  1  0.041540  0.321650  0.979700  1.0  -0.5961
  O  O457  1  0.031120  0.408500  0.370150  1.0  -0.6042
  O  O458  1  0.001900  0.417980  0.272160  1.0  -0.6104
  O  O459  1  0.483040  0.774050  0.369750  1.0  -0.6066
  O  O460  1  0.411250  0.807790  0.289610  1.0  -0.6214
  O  O461  1  0.831800  0.356200  0.363410  1.0  -0.6019
  O  O462  1  0.877480  0.319410  0.277430  1.0  -0.616
  O  O463  1  0.110500  0.370830  0.179970  1.0  -0.6352
  O  O464  1  0.166510  0.348510  0.091070  1.0  -0.5827
  O  O465  1  0.990070  0.268810  0.190090  1.0  -0.6221
  O  O466  1  0.980940  0.272300  0.090100  1.0  -0.6276
  O  O467  1  0.592350  0.877450  0.165750  1.0  -0.6253
  O  O468  1  0.536880  0.903720  0.077020  1.0  -0.5859
  O  O469  1  0.534150  0.848680  0.473270  1.0  -0.6036
  O  O470  1  0.601320  0.768530  0.488900  1.0  -0.5958
  O  O471  1  0.408900  0.905110  0.963990  1.0  -0.6238
  O  O472  1  0.458460  0.821650  0.979700  1.0  -0.5957
  O  O473  1  0.468880  0.908500  0.370150  1.0  -0.6044
  O  O474  1  0.498100  0.917980  0.272160  1.0  -0.61
  O  O475  1  0.016960  0.274050  0.369750  1.0  -0.6061
  O  O476  1  0.088750  0.307790  0.289610  1.0  -0.6207
  O  O477  1  0.668200  0.856200  0.363410  1.0  -0.601
  O  O478  1  0.622520  0.819410  0.277430  1.0  -0.6161
  O  O479  1  0.389500  0.870830  0.179970  1.0  -0.6376
  O  O480  1  0.333490  0.848510  0.091070  1.0  -0.5834
  O  O481  1  0.509930  0.768810  0.190090  1.0  -0.6221
  O  O482  1  0.519060  0.772300  0.090100  1.0  -0.628
  O  O483  1  0.907650  0.377450  0.165750  1.0  -0.6251
  O  O484  1  0.963120  0.403720  0.077020  1.0  -0.5844
  O  O485  1  0.034150  0.651320  0.973270  1.0  -0.6035
  O  O486  1  0.101320  0.731470  0.988900  1.0  -0.5956
  O  O487  1  0.908900  0.594890  0.463990  1.0  -0.6224
  O  O488  1  0.958460  0.678350  0.479700  1.0  -0.5959
  O  O489  1  0.968880  0.591500  0.870150  1.0  -0.6049
  O  O490  1  0.998100  0.582020  0.772160  1.0  -0.61
  O  O491  1  0.516960  0.225950  0.869750  1.0  -0.6058
  O  O492  1  0.588750  0.192210  0.789610  1.0  -0.6203
  O  O493  1  0.168200  0.643800  0.863410  1.0  -0.6009
  O  O494  1  0.122520  0.680590  0.777430  1.0  -0.6161
  O  O495  1  0.889500  0.629170  0.679970  1.0  -0.6378
  O  O496  1  0.833490  0.651490  0.591070  1.0  -0.5834
  O  O497  1  0.009930  0.731190  0.690090  1.0  -0.622
  O  O498  1  0.019060  0.727700  0.590100  1.0  -0.6281
  O  O499  1  0.407650  0.122550  0.665750  1.0  -0.6259
  O  O500  1  0.463120  0.096280  0.577020  1.0  -0.5841
  O  O501  1  0.465850  0.151320  0.973270  1.0  -0.6033
  O  O502  1  0.398680  0.231470  0.988900  1.0  -0.5958
  O  O503  1  0.591100  0.094890  0.463990  1.0  -0.6225
  O  O504  1  0.541540  0.178350  0.479700  1.0  -0.5967
  O  O505  1  0.531120  0.091500  0.870150  1.0  -0.6046
  O  O506  1  0.501900  0.082020  0.772160  1.0  -0.6102
  O  O507  1  0.983040  0.725950  0.869750  1.0  -0.6063
  O  O508  1  0.911250  0.692210  0.789610  1.0  -0.6209
  O  O509  1  0.331800  0.143800  0.863410  1.0  -0.6012
  O  O510  1  0.377480  0.180590  0.777430  1.0  -0.6163
  O  O511  1  0.610500  0.129170  0.679970  1.0  -0.6354
  O  O512  1  0.666510  0.151490  0.591070  1.0  -0.5826
  O  O513  1  0.490070  0.231190  0.690090  1.0  -0.6219
  O  O514  1  0.480940  0.227700  0.590100  1.0  -0.628
  O  O515  1  0.092350  0.622550  0.665750  1.0  -0.6256
  O  O516  1  0.036880  0.596280  0.577020  1.0  -0.5853
