# generated using pymatgen
data_Zn3H28C36(NO8)2
_symmetry_space_group_name_H-M   'P 1'
_cell_length_a   9.59590000
_cell_length_b   17.25320000
_cell_length_c   18.49500000
_cell_angle_alpha   90.44860000
_cell_angle_beta   90.00000000
_cell_angle_gamma   106.14600000
_symmetry_Int_Tables_number   1
_chemical_formula_structural   Zn3H28C36(NO8)2
_chemical_formula_sum   'Zn6 H56 C72 N4 O32'
_cell_volume   2941.15599107
_cell_formula_units_Z   2
loop_
 _symmetry_equiv_pos_site_id
 _symmetry_equiv_pos_as_xyz
  1  'x, y, z'
loop_
 _atom_site_type_symbol
 _atom_site_label
 _atom_site_symmetry_multiplicity
 _atom_site_fract_x
 _atom_site_fract_y
 _atom_site_fract_z
 _atom_site_occupancy
 _atom_site_charge
  Zn  Zn1  1  0.557200  0.693300  0.995680  1.0  1.0396
  Zn  Zn2  1  0.863900  0.306700  0.504320  1.0  1.0384
  Zn  Zn3  1  0.442800  0.306700  0.004320  1.0  1.0388
  Zn  Zn4  1  0.136100  0.693300  0.495680  1.0  1.0398
  Zn  Zn5  1  0.500000  0.500000  0.000000  1.0  1.1274
  Zn  Zn6  1  0.000000  0.500000  0.500000  1.0  1.1274
  H  H7  1  0.840900  0.735000  0.815400  1.0  0.1264
  H  H8  1  0.952000  0.740800  0.701500  1.0  0.1115
  H  H9  1  0.759000  0.502800  0.669200  1.0  0.1106
  H  H10  1  0.651300  0.496200  0.783300  1.0  0.1127
  H  H11  1  0.334000  0.920600  0.079200  1.0  0.1125
  H  H12  1  0.661000  0.943400  0.937700  1.0  0.1218
  H  H13  1  0.040000  0.564800  0.887700  1.0  0.1162
  H  H14  1  0.192100  0.514200  0.082000  1.0  0.1066
  H  H15  1  0.105900  0.265000  0.684600  1.0  0.1262
  H  H16  1  0.211200  0.259200  0.798500  1.0  0.111
  H  H17  1  0.256200  0.497200  0.830800  1.0  0.111
  H  H18  1  0.155100  0.503800  0.716700  1.0  0.1132
  H  H19  1  0.413400  0.079400  0.420800  1.0  0.1119
  H  H20  1  0.717600  0.056600  0.562300  1.0  0.1217
  H  H21  1  0.475200  0.435200  0.612300  1.0  0.1162
  H  H22  1  0.677900  0.485800  0.418000  1.0  0.1062
  H  H23  1  0.159100  0.265000  0.184600  1.0  0.1261
  H  H24  1  0.048000  0.259200  0.298500  1.0  0.1106
  H  H25  1  0.241000  0.497200  0.330800  1.0  0.1113
  H  H26  1  0.348700  0.503800  0.216700  1.0  0.1131
  H  H27  1  0.666000  0.079400  0.920800  1.0  0.1126
  H  H28  1  0.339000  0.056600  0.062300  1.0  0.1213
  H  H29  1  0.960000  0.435200  0.112300  1.0  0.1163
  H  H30  1  0.807900  0.485800  0.918000  1.0  0.1061
  H  H31  1  0.894100  0.735000  0.315400  1.0  0.1267
  H  H32  1  0.788800  0.740800  0.201500  1.0  0.1116
  H  H33  1  0.743800  0.502800  0.169200  1.0  0.1109
  H  H34  1  0.844900  0.496200  0.283300  1.0  0.1127
  H  H35  1  0.586600  0.920600  0.579200  1.0  0.1123
  H  H36  1  0.282400  0.943400  0.437700  1.0  0.1213
  H  H37  1  0.524800  0.564800  0.387700  1.0  0.1164
  H  H38  1  0.322100  0.514200  0.582000  1.0  0.1067
  H  H39  1  0.272400  0.743600  0.336400  1.0  0.1464
  H  H40  1  0.356900  0.832400  0.310600  1.0  0.1379
  H  H41  1  0.188500  0.796000  0.291800  1.0  0.1378
  H  H42  1  0.434500  0.676400  0.262100  1.0  0.1303
  H  H43  1  0.493100  0.719000  0.187100  1.0  0.1367
  H  H44  1  0.523100  0.770000  0.261000  1.0  0.1041
  H  H45  1  0.528800  0.256400  0.163600  1.0  0.1445
  H  H46  1  0.524500  0.167600  0.189400  1.0  0.1346
  H  H47  1  0.392500  0.204000  0.208200  1.0  0.1373
  H  H48  1  0.758100  0.323600  0.237900  1.0  0.1298
  H  H49  1  0.774100  0.281000  0.312900  1.0  0.1365
  H  H50  1  0.753100  0.230000  0.239000  1.0  0.1048
  H  H51  1  0.727600  0.256400  0.663600  1.0  0.1446
  H  H52  1  0.643100  0.167600  0.689400  1.0  0.1341
  H  H53  1  0.811500  0.204000  0.708200  1.0  0.1401
  H  H54  1  0.565500  0.323600  0.737900  1.0  0.13
  H  H55  1  0.506900  0.281000  0.812900  1.0  0.1357
  H  H56  1  0.476900  0.230000  0.739000  1.0  0.1051
  H  H57  1  0.471200  0.743600  0.836400  1.0  0.1465
  H  H58  1  0.475500  0.832400  0.810600  1.0  0.1375
  H  H59  1  0.607500  0.796000  0.791800  1.0  0.1406
  H  H60  1  0.241900  0.676400  0.762100  1.0  0.1306
  H  H61  1  0.225900  0.719000  0.687100  1.0  0.1367
  H  H62  1  0.246900  0.770000  0.761000  1.0  0.1054
  C  C63  1  0.663200  0.611200  0.881930  1.0  0.6828
  C  C64  1  0.736580  0.615160  0.810000  1.0  -0.118
  C  C65  1  0.825020  0.687840  0.786200  1.0  -0.0341
  C  C66  1  0.890850  0.691100  0.718300  1.0  -0.0314
  C  C67  1  0.867620  0.622440  0.675400  1.0  -0.1109
  C  C68  1  0.776810  0.549620  0.699000  1.0  -0.0049
  C  C69  1  0.712310  0.546020  0.766500  1.0  -0.0272
  C  C70  1  0.938790  0.626780  0.602690  1.0  0.7027
  C  C71  1  0.482300  0.830200  0.016600  1.0  0.6943
  C  C72  1  0.491000  0.918600  0.008000  1.0  -0.1047
  C  C73  1  0.401100  0.952800  0.046100  1.0  -0.0468
  C  C74  1  0.594400  0.965800  0.962600  1.0  -0.0746
  C  C75  1  0.285830  0.598460  0.961500  1.0  0.6491
  C  C76  1  0.138320  0.546240  0.982400  1.0  -0.1176
  C  C77  1  0.023240  0.538280  0.933000  1.0  -0.0357
  C  C78  1  0.114140  0.508280  0.048800  1.0  0.011
  C  C79  1  0.052000  0.388800  0.618070  1.0  0.6828
  C  C80  1  0.121420  0.384840  0.690000  1.0  -0.1178
  C  C81  1  0.137180  0.312160  0.713800  1.0  -0.0316
  C  C82  1  0.199750  0.308900  0.781700  1.0  -0.031
  C  C83  1  0.245180  0.377560  0.824600  1.0  -0.1115
  C  C84  1  0.227190  0.450380  0.801000  1.0  -0.0042
  C  C85  1  0.166290  0.453980  0.733500  1.0  -0.0277
  C  C86  1  0.312010  0.373220  0.897310  1.0  0.7029
  C  C87  1  0.652100  0.169800  0.483400  1.0  0.6938
  C  C88  1  0.572400  0.081400  0.492000  1.0  -0.1047
  C  C89  1  0.448300  0.047200  0.453900  1.0  -0.0466
  C  C90  1  0.628600  0.034200  0.537400  1.0  -0.0752
  C  C91  1  0.687370  0.401540  0.538500  1.0  0.6496
  C  C92  1  0.592080  0.453760  0.517600  1.0  -0.1173
  C  C93  1  0.484960  0.461720  0.567000  1.0  -0.0364
  C  C94  1  0.605860  0.491720  0.451200  1.0  0.0122
  C  C95  1  0.336800  0.388800  0.118070  1.0  0.6826
  C  C96  1  0.263420  0.384840  0.190000  1.0  -0.1172
  C  C97  1  0.174980  0.312160  0.213800  1.0  -0.0309
  C  C98  1  0.109150  0.308900  0.281700  1.0  -0.0312
  C  C99  1  0.132380  0.377560  0.324600  1.0  -0.1105
  C  C100  1  0.223190  0.450380  0.301000  1.0  -0.0048
  C  C101  1  0.287690  0.453980  0.233500  1.0  -0.028
  C  C102  1  0.061210  0.373220  0.397310  1.0  0.7035
  C  C103  1  0.517700  0.169800  0.983400  1.0  0.6927
  C  C104  1  0.509000  0.081400  0.992000  1.0  -0.1046
  C  C105  1  0.598900  0.047200  0.953900  1.0  -0.0466
  C  C106  1  0.405600  0.034200  0.037400  1.0  -0.0757
  C  C107  1  0.714170  0.401540  0.038500  1.0  0.6509
  C  C108  1  0.861680  0.453760  0.017600  1.0  -0.1168
  C  C109  1  0.976760  0.461720  0.067000  1.0  -0.0367
  C  C110  1  0.885860  0.491720  0.951200  1.0  0.0132
  C  C111  1  0.948000  0.611200  0.381930  1.0  0.6831
  C  C112  1  0.878580  0.615160  0.310000  1.0  -0.1175
  C  C113  1  0.862820  0.687840  0.286200  1.0  -0.0339
  C  C114  1  0.800250  0.691100  0.218300  1.0  -0.0312
  C  C115  1  0.754820  0.622440  0.175400  1.0  -0.1101
  C  C116  1  0.772810  0.549620  0.199000  1.0  -0.0055
  C  C117  1  0.833710  0.546020  0.266500  1.0  -0.0271
  C  C118  1  0.687990  0.626780  0.102690  1.0  0.7031
  C  C119  1  0.347900  0.830200  0.516600  1.0  0.6929
  C  C120  1  0.427600  0.918600  0.508000  1.0  -0.1046
  C  C121  1  0.551700  0.952800  0.546100  1.0  -0.0466
  C  C122  1  0.371400  0.965800  0.462600  1.0  -0.0747
  C  C123  1  0.312630  0.598460  0.461500  1.0  0.6499
  C  C124  1  0.407920  0.546240  0.482400  1.0  -0.1167
  C  C125  1  0.515040  0.538280  0.433000  1.0  -0.0363
  C  C126  1  0.394140  0.508280  0.548800  1.0  0.0121
  C  C127  1  0.281600  0.783200  0.297800  1.0  -0.276
  C  C128  1  0.453300  0.726600  0.234600  1.0  -0.1137
  C  C129  1  0.498400  0.216800  0.202200  1.0  -0.2746
  C  C130  1  0.726700  0.273400  0.265400  1.0  -0.112
  C  C131  1  0.718400  0.216800  0.702200  1.0  -0.2753
  C  C132  1  0.546700  0.273400  0.765400  1.0  -0.112
  C  C133  1  0.501600  0.783200  0.797800  1.0  -0.2761
  C  C134  1  0.273300  0.726600  0.734600  1.0  -0.1131
  N  N135  1  0.322100  0.747600  0.225400  1.0  -0.3093
  N  N136  1  0.574500  0.252400  0.274600  1.0  -0.3089
  N  N137  1  0.677900  0.252400  0.774600  1.0  -0.3097
  N  N138  1  0.425500  0.747600  0.725400  1.0  -0.3122
  O  O139  1  0.676810  0.678220  0.914420  1.0  -0.5894
  O  O140  1  0.590540  0.542680  0.903230  1.0  -0.5995
  O  O141  1  0.033300  0.691400  0.588330  1.0  -0.5757
  O  O142  1  0.898460  0.568120  0.560750  1.0  -0.5945
  O  O143  1  0.562590  0.803780  0.977000  1.0  -0.5739
  O  O144  1  0.422100  0.792600  0.072100  1.0  -0.4805
  O  O145  1  0.391610  0.597020  0.006120  1.0  -0.6524
  O  O146  1  0.304820  0.640240  0.907800  1.0  -0.5859
  O  O147  1  0.998590  0.321780  0.585580  1.0  -0.5879
  O  O148  1  0.047860  0.457320  0.596770  1.0  -0.5971
  O  O149  1  0.341900  0.308600  0.911670  1.0  -0.5748
  O  O150  1  0.330340  0.431880  0.939250  1.0  -0.596
  O  O151  1  0.758810  0.196220  0.523000  1.0  -0.5747
  O  O152  1  0.629500  0.207400  0.427900  1.0  -0.4805
  O  O153  1  0.794590  0.402980  0.493880  1.0  -0.6529
  O  O154  1  0.664580  0.359760  0.592200  1.0  -0.5863
  O  O155  1  0.323190  0.321780  0.085580  1.0  -0.5886
  O  O156  1  0.409460  0.457320  0.096770  1.0  -0.5993
  O  O157  1  0.966700  0.308600  0.411670  1.0  -0.5751
  O  O158  1  0.101540  0.431880  0.439250  1.0  -0.595
  O  O159  1  0.437410  0.196220  0.023000  1.0  -0.5747
  O  O160  1  0.577900  0.207400  0.927900  1.0  -0.4815
  O  O161  1  0.608390  0.402980  0.993880  1.0  -0.6521
  O  O162  1  0.695180  0.359760  0.092200  1.0  -0.586
  O  O163  1  0.001410  0.678220  0.414420  1.0  -0.5904
  O  O164  1  0.952140  0.542680  0.403230  1.0  -0.5994
  O  O165  1  0.658100  0.691400  0.088330  1.0  -0.5753
  O  O166  1  0.669660  0.568120  0.060750  1.0  -0.5939
  O  O167  1  0.241190  0.803780  0.477000  1.0  -0.5739
  O  O168  1  0.370500  0.792600  0.572100  1.0  -0.4814
  O  O169  1  0.205410  0.597020  0.506120  1.0  -0.6519
  O  O170  1  0.335420  0.640240  0.407800  1.0  -0.5851
