# generated using pymatgen
data_ErH9C18S3(NO2)3
_symmetry_space_group_name_H-M   'P 1'
_cell_length_a   12.80420000
_cell_length_b   12.80420000
_cell_length_c   34.63500000
_cell_angle_alpha   82.42540000
_cell_angle_beta   82.42540000
_cell_angle_gamma   63.91840000
_symmetry_Int_Tables_number   1
_chemical_formula_structural   ErH9C18S3(NO2)3
_chemical_formula_sum   'Er8 H72 C144 S24 N24 O48'
_cell_volume   5038.16155272
_cell_formula_units_Z   8
loop_
 _symmetry_equiv_pos_site_id
 _symmetry_equiv_pos_as_xyz
  1  'x, y, z'
loop_
 _atom_site_type_symbol
 _atom_site_label
 _atom_site_symmetry_multiplicity
 _atom_site_fract_x
 _atom_site_fract_y
 _atom_site_fract_z
 _atom_site_occupancy
 _atom_site_charge
  Er  Er1  1  0.862450  0.703190  0.059030  1.0  1.54
  Er  Er2  1  0.848440  0.632220  0.183840  1.0  1.5849
  Er  Er3  1  0.703190  0.862450  0.559030  1.0  1.5399
  Er  Er4  1  0.632220  0.848440  0.683840  1.0  1.5851
  Er  Er5  1  0.296810  0.137550  0.440970  1.0  1.5403
  Er  Er6  1  0.367780  0.151560  0.316160  1.0  1.5853
  Er  Er7  1  0.137550  0.296810  0.940970  1.0  1.5407
  Er  Er8  1  0.151560  0.367780  0.816160  1.0  1.5852
  H  H9  1  0.612900  0.087300  0.083700  1.0  0.0742
  H  H10  1  0.452800  0.116000  0.209300  1.0  0.1242
  H  H11  1  0.600000  0.942600  0.191000  1.0  0.1059
  H  H12  1  0.405100  0.560500  0.067100  1.0  0.1301
  H  H13  1  0.545700  0.630900  0.063700  1.0  0.1118
  H  H14  1  0.601600  0.501800  0.173900  1.0  0.0792
  H  H15  1  0.115300  0.827300  0.069700  1.0  0.0968
  H  H16  1  0.253100  0.893500  0.069200  1.0  0.1221
  H  H17  1  0.166400  0.700000  0.179500  1.0  0.0863
  H  H18  1  0.253400  0.083200  0.152400  1.0  0.1057
  H  H19  1  0.101900  0.262900  0.164700  1.0  0.1027
  H  H20  1  0.131900  0.363100  0.051700  1.0  0.077
  H  H21  1  0.826900  0.050300  0.787500  1.0  0.1054
  H  H22  1  0.005700  0.978900  0.812900  1.0  0.1142
  H  H23  1  0.929100  0.744300  0.742800  1.0  0.0843
  H  H24  1  0.110600  0.986800  0.905300  1.0  0.1204
  H  H25  1  0.021300  0.954900  0.964400  1.0  0.1098
  H  H26  1  0.114000  0.628600  0.938500  1.0  0.0982
  H  H27  1  0.087300  0.612900  0.583700  1.0  0.0758
  H  H28  1  0.116000  0.452800  0.709300  1.0  0.1245
  H  H29  1  0.942600  0.600000  0.691000  1.0  0.1049
  H  H30  1  0.560500  0.405100  0.567100  1.0  0.1301
  H  H31  1  0.630900  0.545700  0.563700  1.0  0.1115
  H  H32  1  0.501800  0.601600  0.673900  1.0  0.0785
  H  H33  1  0.827300  0.115300  0.569700  1.0  0.0969
  H  H34  1  0.893500  0.253100  0.569200  1.0  0.1221
  H  H35  1  0.700000  0.166400  0.679500  1.0  0.0854
  H  H36  1  0.083200  0.253400  0.652400  1.0  0.1062
  H  H37  1  0.262900  0.101900  0.664700  1.0  0.1035
  H  H38  1  0.363100  0.131900  0.551700  1.0  0.0761
  H  H39  1  0.050300  0.826900  0.287500  1.0  0.1049
  H  H40  1  0.978900  0.005700  0.312900  1.0  0.1138
  H  H41  1  0.744300  0.929100  0.242800  1.0  0.0842
  H  H42  1  0.986800  0.110600  0.405300  1.0  0.1239
  H  H43  1  0.954900  0.021300  0.464400  1.0  0.1111
  H  H44  1  0.628600  0.114000  0.438500  1.0  0.0972
  H  H45  1  0.912700  0.387100  0.416300  1.0  0.0752
  H  H46  1  0.884000  0.547200  0.290700  1.0  0.1244
  H  H47  1  0.057400  0.400000  0.309000  1.0  0.105
  H  H48  1  0.439500  0.594900  0.432900  1.0  0.1306
  H  H49  1  0.369100  0.454300  0.436300  1.0  0.1119
  H  H50  1  0.498200  0.398400  0.326100  1.0  0.0779
  H  H51  1  0.172700  0.884700  0.430300  1.0  0.0968
  H  H52  1  0.106500  0.746900  0.430800  1.0  0.122
  H  H53  1  0.300000  0.833600  0.320500  1.0  0.0854
  H  H54  1  0.916800  0.746600  0.347600  1.0  0.106
  H  H55  1  0.737100  0.898100  0.335300  1.0  0.1036
  H  H56  1  0.636900  0.868100  0.448300  1.0  0.0757
  H  H57  1  0.949700  0.173100  0.712500  1.0  0.1046
  H  H58  1  0.021100  0.994300  0.687100  1.0  0.1136
  H  H59  1  0.255700  0.070900  0.757200  1.0  0.0834
  H  H60  1  0.013200  0.889400  0.594700  1.0  0.121
  H  H61  1  0.045100  0.978700  0.535600  1.0  0.1108
  H  H62  1  0.371400  0.886000  0.561500  1.0  0.0964
  H  H63  1  0.387100  0.912700  0.916300  1.0  0.0741
  H  H64  1  0.547200  0.884000  0.790700  1.0  0.1242
  H  H65  1  0.400000  0.057400  0.809000  1.0  0.1055
  H  H66  1  0.594900  0.439500  0.932900  1.0  0.1304
  H  H67  1  0.454300  0.369100  0.936300  1.0  0.1118
  H  H68  1  0.398400  0.498200  0.826100  1.0  0.0779
  H  H69  1  0.884700  0.172700  0.930300  1.0  0.0968
  H  H70  1  0.746900  0.106500  0.930800  1.0  0.1222
  H  H71  1  0.833600  0.300000  0.820500  1.0  0.0865
  H  H72  1  0.746600  0.916800  0.847600  1.0  0.1059
  H  H73  1  0.898100  0.737100  0.835300  1.0  0.1031
  H  H74  1  0.868100  0.636900  0.948300  1.0  0.076
  H  H75  1  0.173100  0.949700  0.212500  1.0  0.1061
  H  H76  1  0.994300  0.021100  0.187100  1.0  0.1137
  H  H77  1  0.070900  0.255700  0.257200  1.0  0.0838
  H  H78  1  0.889400  0.013200  0.094700  1.0  0.1211
  H  H79  1  0.978700  0.045100  0.035600  1.0  0.11
  H  H80  1  0.886000  0.371400  0.061500  1.0  0.0982
  C  C81  1  0.717800  0.883800  0.121700  1.0  0.7436
  C  C82  1  0.622500  0.996300  0.134540  1.0  -0.2675
  C  C83  1  0.580300  0.093100  0.109410  1.0  0.2196
  C  C84  1  0.451400  0.201000  0.156000  1.0  0.2433
  C  C85  1  0.486800  0.108800  0.183800  1.0  -0.1753
  C  C86  1  0.573300  0.006700  0.172700  1.0  0.0506
  C  C87  1  0.424600  0.495800  0.122600  1.0  0.2463
  C  C88  1  0.445800  0.550600  0.088600  1.0  -0.1907
  C  C89  1  0.530000  0.591800  0.086700  1.0  0.0282
  C  C90  1  0.590600  0.574800  0.118700  1.0  -0.244
  C  C91  1  0.561000  0.515600  0.152000  1.0  0.2459
  C  C92  1  0.683300  0.615300  0.119900  1.0  0.7779
  C  C93  1  0.030600  0.714800  0.125000  1.0  0.7272
  C  C94  1  0.124800  0.757400  0.124500  1.0  -0.2332
  C  C95  1  0.153700  0.814500  0.092100  1.0  0.0509
  C  C96  1  0.235700  0.852900  0.091500  1.0  -0.183
  C  C97  1  0.292500  0.831500  0.123900  1.0  0.2184
  C  C98  1  0.184900  0.738700  0.157000  1.0  0.221
  C  C99  1  0.274200  0.122400  0.094200  1.0  0.2639
  C  C100  1  0.226000  0.141600  0.132200  1.0  -0.1957
  C  C101  1  0.136900  0.248100  0.139500  1.0  0.0575
  C  C102  1  0.099500  0.334100  0.108780  1.0  -0.2453
  C  C103  1  0.155300  0.306100  0.072400  1.0  0.2303
  C  C104  1  0.004900  0.451100  0.116500  1.0  0.745
  C  C105  1  0.741100  0.943100  0.746900  1.0  0.7216
  C  C106  1  0.856800  0.904000  0.762170  1.0  -0.2164
  C  C107  1  0.882400  0.974800  0.783500  1.0  0.0359
  C  C108  1  0.989100  0.932900  0.798400  1.0  -0.162
  C  C109  1  0.071500  0.820700  0.791300  1.0  0.2374
  C  C110  1  0.943900  0.792700  0.756800  1.0  0.2053
  C  C111  1  0.157700  0.830700  0.887900  1.0  0.2606
  C  C112  1  0.108800  0.915000  0.912400  1.0  -0.1797
  C  C113  1  0.056700  0.895900  0.947500  1.0  0.0329
  C  C114  1  0.056700  0.786900  0.958000  1.0  -0.2048
  C  C115  1  0.111700  0.702300  0.931900  1.0  0.2009
  C  C116  1  0.994900  0.760100  0.995300  1.0  0.6581
  C  C117  1  0.883800  0.717800  0.621700  1.0  0.7443
  C  C118  1  0.996300  0.622500  0.634540  1.0  -0.2671
  C  C119  1  0.093100  0.580300  0.609410  1.0  0.2195
  C  C120  1  0.201000  0.451400  0.656000  1.0  0.2438
  C  C121  1  0.108800  0.486800  0.683800  1.0  -0.1729
  C  C122  1  0.006700  0.573300  0.672700  1.0  0.0471
  C  C123  1  0.495800  0.424600  0.622600  1.0  0.2448
  C  C124  1  0.550600  0.445800  0.588600  1.0  -0.1893
  C  C125  1  0.591800  0.530000  0.586700  1.0  0.0304
  C  C126  1  0.574800  0.590600  0.618700  1.0  -0.2421
  C  C127  1  0.515600  0.561000  0.652000  1.0  0.2453
  C  C128  1  0.615300  0.683300  0.619900  1.0  0.7783
  C  C129  1  0.714800  0.030600  0.625000  1.0  0.7261
  C  C130  1  0.757400  0.124800  0.624500  1.0  -0.2357
  C  C131  1  0.814500  0.153700  0.592100  1.0  0.0525
  C  C132  1  0.852900  0.235700  0.591500  1.0  -0.1822
  C  C133  1  0.831500  0.292500  0.623900  1.0  0.217
  C  C134  1  0.738700  0.184900  0.657000  1.0  0.2205
  C  C135  1  0.122400  0.274200  0.594200  1.0  0.2648
  C  C136  1  0.141600  0.226000  0.632200  1.0  -0.1973
  C  C137  1  0.248100  0.136900  0.639500  1.0  0.0573
  C  C138  1  0.334100  0.099500  0.608780  1.0  -0.2445
  C  C139  1  0.306100  0.155300  0.572400  1.0  0.2256
  C  C140  1  0.451100  0.004900  0.616500  1.0  0.7434
  C  C141  1  0.943100  0.741100  0.246900  1.0  0.7252
  C  C142  1  0.904000  0.856800  0.262170  1.0  -0.211
  C  C143  1  0.974800  0.882400  0.283500  1.0  0.0371
  C  C144  1  0.932900  0.989100  0.298400  1.0  -0.1611
  C  C145  1  0.820700  0.071500  0.291300  1.0  0.2362
  C  C146  1  0.792700  0.943900  0.256800  1.0  0.2077
  C  C147  1  0.830700  0.157700  0.387900  1.0  0.257
  C  C148  1  0.915000  0.108800  0.412400  1.0  -0.1795
  C  C149  1  0.895900  0.056700  0.447500  1.0  0.0323
  C  C150  1  0.786900  0.056700  0.458000  1.0  -0.2018
  C  C151  1  0.702300  0.111700  0.431900  1.0  0.1987
  C  C152  1  0.760100  0.994900  0.495300  1.0  0.6583
  C  C153  1  0.116200  0.282200  0.378300  1.0  0.7437
  C  C154  1  0.003700  0.377500  0.365460  1.0  -0.267
  C  C155  1  0.906900  0.419700  0.390590  1.0  0.22
  C  C156  1  0.799000  0.548600  0.344000  1.0  0.2468
  C  C157  1  0.891200  0.513200  0.316200  1.0  -0.1738
  C  C158  1  0.993300  0.426700  0.327300  1.0  0.0476
  C  C159  1  0.504200  0.575400  0.377400  1.0  0.2434
  C  C160  1  0.449400  0.554200  0.411400  1.0  -0.1891
  C  C161  1  0.408200  0.470000  0.413300  1.0  0.0305
  C  C162  1  0.425200  0.409400  0.381300  1.0  -0.2432
  C  C163  1  0.484400  0.439000  0.348000  1.0  0.2454
  C  C164  1  0.384700  0.316700  0.380100  1.0  0.7786
  C  C165  1  0.285200  0.969400  0.375000  1.0  0.7251
  C  C166  1  0.242600  0.875200  0.375500  1.0  -0.2343
  C  C167  1  0.185500  0.846300  0.407900  1.0  0.0525
  C  C168  1  0.147100  0.764300  0.408500  1.0  -0.1811
  C  C169  1  0.168500  0.707500  0.376100  1.0  0.2188
  C  C170  1  0.261300  0.815100  0.343000  1.0  0.2198
  C  C171  1  0.877600  0.725800  0.405800  1.0  0.2639
  C  C172  1  0.858400  0.774000  0.367800  1.0  -0.1964
  C  C173  1  0.751900  0.863100  0.360500  1.0  0.0592
  C  C174  1  0.665900  0.900500  0.391220  1.0  -0.2472
  C  C175  1  0.693900  0.844700  0.427600  1.0  0.2301
  C  C176  1  0.548900  0.995100  0.383500  1.0  0.7429
  C  C177  1  0.056900  0.258900  0.753100  1.0  0.7247
  C  C178  1  0.096000  0.143200  0.737830  1.0  -0.2116
  C  C179  1  0.025200  0.117600  0.716500  1.0  0.0396
  C  C180  1  0.067100  0.010900  0.701600  1.0  -0.16
  C  C181  1  0.179300  0.928500  0.708700  1.0  0.2369
  C  C182  1  0.207300  0.056100  0.743200  1.0  0.2106
  C  C183  1  0.169300  0.842300  0.612100  1.0  0.2575
  C  C184  1  0.085000  0.891200  0.587600  1.0  -0.1773
  C  C185  1  0.104100  0.943300  0.552500  1.0  0.0322
  C  C186  1  0.213100  0.943300  0.542000  1.0  -0.2013
  C  C187  1  0.297700  0.888300  0.568100  1.0  0.2015
  C  C188  1  0.239900  0.005100  0.504700  1.0  0.6577
  C  C189  1  0.282200  0.116200  0.878300  1.0  0.7443
  C  C190  1  0.377500  0.003700  0.865460  1.0  -0.2672
  C  C191  1  0.419700  0.906900  0.890590  1.0  0.2208
  C  C192  1  0.548600  0.799000  0.844000  1.0  0.2454
  C  C193  1  0.513200  0.891200  0.816200  1.0  -0.1739
  C  C194  1  0.426700  0.993300  0.827300  1.0  0.0496
  C  C195  1  0.575400  0.504200  0.877400  1.0  0.2432
  C  C196  1  0.554200  0.449400  0.911400  1.0  -0.1881
  C  C197  1  0.470000  0.408200  0.913300  1.0  0.0259
  C  C198  1  0.409400  0.425200  0.881300  1.0  -0.2441
  C  C199  1  0.439000  0.484400  0.848000  1.0  0.2455
  C  C200  1  0.316700  0.384700  0.880100  1.0  0.7778
  C  C201  1  0.969400  0.285200  0.875000  1.0  0.7271
  C  C202  1  0.875200  0.242600  0.875500  1.0  -0.2319
  C  C203  1  0.846300  0.185500  0.907900  1.0  0.0499
  C  C204  1  0.764300  0.147100  0.908500  1.0  -0.1824
  C  C205  1  0.707500  0.168500  0.876100  1.0  0.2201
  C  C206  1  0.815100  0.261300  0.843000  1.0  0.2197
  C  C207  1  0.725800  0.877600  0.905800  1.0  0.2644
  C  C208  1  0.774000  0.858400  0.867800  1.0  -0.1941
  C  C209  1  0.863100  0.751900  0.860500  1.0  0.0586
  C  C210  1  0.900500  0.665900  0.891220  1.0  -0.2471
  C  C211  1  0.844700  0.693900  0.927600  1.0  0.2324
  C  C212  1  0.995100  0.548900  0.883500  1.0  0.7442
  C  C213  1  0.258900  0.056900  0.253100  1.0  0.7211
  C  C214  1  0.143200  0.096000  0.237830  1.0  -0.2161
  C  C215  1  0.117600  0.025200  0.216500  1.0  0.0353
  C  C216  1  0.010900  0.067100  0.201600  1.0  -0.1605
  C  C217  1  0.928500  0.179300  0.208700  1.0  0.237
  C  C218  1  0.056100  0.207300  0.243200  1.0  0.2102
  C  C219  1  0.842300  0.169300  0.112100  1.0  0.2593
  C  C220  1  0.891200  0.085000  0.087600  1.0  -0.1758
  C  C221  1  0.943300  0.104100  0.052500  1.0  0.0337
  C  C222  1  0.943300  0.213100  0.042000  1.0  -0.2015
  C  C223  1  0.888300  0.297700  0.068100  1.0  0.2015
  C  C224  1  0.005100  0.239900  0.004700  1.0  0.6577
  S  S225  1  0.337900  0.333260  0.172290  1.0  0.0432
  S  S226  1  0.310410  0.448150  0.124700  1.0  0.0584
  S  S227  1  0.406110  0.875610  0.126620  1.0  0.0583
  S  S228  1  0.391810  0.990350  0.079540  1.0  0.0419
  S  S229  1  0.222500  0.861760  0.841150  1.0  -0.0022
  S  S230  1  0.213430  0.750450  0.806970  1.0  0.0712
  S  S231  1  0.333260  0.337900  0.672290  1.0  0.0427
  S  S232  1  0.448150  0.310410  0.624700  1.0  0.0573
  S  S233  1  0.875610  0.406110  0.626620  1.0  0.0614
  S  S234  1  0.990350  0.391810  0.579540  1.0  0.0442
  S  S235  1  0.861760  0.222500  0.341150  1.0  -0.003
  S  S236  1  0.750450  0.213430  0.306970  1.0  0.0719
  S  S237  1  0.666740  0.662100  0.327710  1.0  0.0443
  S  S238  1  0.551850  0.689590  0.375300  1.0  0.0601
  S  S239  1  0.124390  0.593890  0.373380  1.0  0.0613
  S  S240  1  0.009650  0.608190  0.420460  1.0  0.0432
  S  S241  1  0.138240  0.777500  0.658850  1.0  -0.0042
  S  S242  1  0.249550  0.786570  0.693030  1.0  0.0712
  S  S243  1  0.662100  0.666740  0.827710  1.0  0.0438
  S  S244  1  0.689590  0.551850  0.875300  1.0  0.0578
  S  S245  1  0.593890  0.124390  0.873380  1.0  0.0597
  S  S246  1  0.608190  0.009650  0.920460  1.0  0.0411
  S  S247  1  0.777500  0.138240  0.158850  1.0  -0.0044
  S  S248  1  0.786570  0.249550  0.193030  1.0  0.0719
  N  N249  1  0.494900  0.196500  0.118680  1.0  -0.4103
  N  N250  1  0.479500  0.478100  0.154560  1.0  -0.385
  N  N251  1  0.240700  0.202300  0.065010  1.0  -0.4111
  N  N252  1  0.269000  0.774600  0.157300  1.0  -0.3804
  N  N253  1  0.049200  0.751400  0.771080  1.0  -0.4206
  N  N254  1  0.163700  0.724900  0.896160  1.0  -0.3832
  N  N255  1  0.196500  0.494900  0.618680  1.0  -0.4093
  N  N256  1  0.478100  0.479500  0.654560  1.0  -0.3858
  N  N257  1  0.202300  0.240700  0.565010  1.0  -0.4149
  N  N258  1  0.774600  0.269000  0.657300  1.0  -0.3852
  N  N259  1  0.751400  0.049200  0.271080  1.0  -0.4227
  N  N260  1  0.724900  0.163700  0.396160  1.0  -0.3838
  N  N261  1  0.803500  0.505100  0.381320  1.0  -0.4058
  N  N262  1  0.521900  0.520500  0.345440  1.0  -0.3876
  N  N263  1  0.797700  0.759300  0.434990  1.0  -0.4111
  N  N264  1  0.225400  0.731000  0.342700  1.0  -0.3828
  N  N265  1  0.248600  0.950800  0.728920  1.0  -0.4229
  N  N266  1  0.275100  0.836300  0.603840  1.0  -0.3835
  N  N267  1  0.505100  0.803500  0.881320  1.0  -0.4069
  N  N268  1  0.520500  0.521900  0.845440  1.0  -0.385
  N  N269  1  0.759300  0.797700  0.934990  1.0  -0.4086
  N  N270  1  0.731000  0.225400  0.842700  1.0  -0.3816
  N  N271  1  0.950800  0.248600  0.228920  1.0  -0.4212
  N  N272  1  0.836300  0.275100  0.103840  1.0  -0.3823
  O  O273  1  0.764600  0.803800  0.147360  1.0  -0.6991
  O  O274  1  0.744000  0.875200  0.085670  1.0  -0.6422
  O  O275  1  0.720900  0.604100  0.151890  1.0  -0.7089
  O  O276  1  0.714900  0.657300  0.088430  1.0  -0.7062
  O  O277  1  0.001200  0.674400  0.156700  1.0  -0.6563
  O  O278  1  0.989100  0.726900  0.093000  1.0  -0.6306
  O  O279  1  0.967800  0.472800  0.150480  1.0  -0.6716
  O  O280  1  0.969700  0.521500  0.086550  1.0  -0.6815
  O  O281  1  0.667300  0.046500  0.749880  1.0  -0.4936
  O  O282  1  0.724800  0.867600  0.732470  1.0  -0.7084
  O  O283  1  0.924600  0.842200  0.014880  1.0  -0.583
  O  O284  1  0.012100  0.657700  0.006530  1.0  -0.6105
  O  O285  1  0.803800  0.764600  0.647360  1.0  -0.6975
  O  O286  1  0.875200  0.744000  0.585670  1.0  -0.6368
  O  O287  1  0.604100  0.720900  0.651890  1.0  -0.706
  O  O288  1  0.657300  0.714900  0.588430  1.0  -0.7068
  O  O289  1  0.674400  0.001200  0.656700  1.0  -0.6581
  O  O290  1  0.726900  0.989100  0.593000  1.0  -0.6311
  O  O291  1  0.472800  0.967800  0.650480  1.0  -0.6716
  O  O292  1  0.521500  0.969700  0.586550  1.0  -0.6796
  O  O293  1  0.046500  0.667300  0.249880  1.0  -0.4924
  O  O294  1  0.867600  0.724800  0.232470  1.0  -0.7082
  O  O295  1  0.842200  0.924600  0.514880  1.0  -0.581
  O  O296  1  0.657700  0.012100  0.506530  1.0  -0.6128
  O  O297  1  0.196200  0.235400  0.352640  1.0  -0.6977
  O  O298  1  0.124800  0.256000  0.414330  1.0  -0.6355
  O  O299  1  0.395900  0.279100  0.348110  1.0  -0.7065
  O  O300  1  0.342700  0.285100  0.411570  1.0  -0.7094
  O  O301  1  0.325600  0.998800  0.343300  1.0  -0.6578
  O  O302  1  0.273100  0.010900  0.407000  1.0  -0.6311
  O  O303  1  0.527200  0.032200  0.349520  1.0  -0.6719
  O  O304  1  0.478500  0.030300  0.413450  1.0  -0.6818
  O  O305  1  0.953500  0.332700  0.750120  1.0  -0.4936
  O  O306  1  0.132400  0.275200  0.767530  1.0  -0.7091
  O  O307  1  0.157800  0.075400  0.485120  1.0  -0.5811
  O  O308  1  0.342300  0.987900  0.493470  1.0  -0.6141
  O  O309  1  0.235400  0.196200  0.852640  1.0  -0.7006
  O  O310  1  0.256000  0.124800  0.914330  1.0  -0.6386
  O  O311  1  0.279100  0.395900  0.848110  1.0  -0.7079
  O  O312  1  0.285100  0.342700  0.911570  1.0  -0.7081
  O  O313  1  0.998800  0.325600  0.843300  1.0  -0.6567
  O  O314  1  0.010900  0.273100  0.907000  1.0  -0.63
  O  O315  1  0.032200  0.527200  0.849520  1.0  -0.6712
  O  O316  1  0.030300  0.478500  0.913450  1.0  -0.6824
  O  O317  1  0.332700  0.953500  0.250120  1.0  -0.4896
  O  O318  1  0.275200  0.132400  0.267530  1.0  -0.7107
  O  O319  1  0.075400  0.157800  0.985120  1.0  -0.5821
  O  O320  1  0.987900  0.342300  0.993470  1.0  -0.6119
