# generated using pymatgen
data_CePH11C7NO5
_symmetry_space_group_name_H-M   'P 1'
_cell_length_a   5.69060000
_cell_length_b   12.80000000
_cell_length_c   21.55000000
_cell_angle_alpha   90.00000000
_cell_angle_beta   95.39200000
_cell_angle_gamma   90.00000000
_symmetry_Int_Tables_number   1
_chemical_formula_structural   CePH11C7NO5
_chemical_formula_sum   'Ce4 P4 H44 C28 N4 O20'
_cell_volume   1562.74935213
_cell_formula_units_Z   4
loop_
 _symmetry_equiv_pos_site_id
 _symmetry_equiv_pos_as_xyz
  1  'x, y, z'
loop_
 _atom_site_type_symbol
 _atom_site_label
 _atom_site_symmetry_multiplicity
 _atom_site_fract_x
 _atom_site_fract_y
 _atom_site_fract_z
 _atom_site_occupancy
 _atom_site_charge
  Ce  Ce1  1  0.631550  0.143760  0.969000  1.0  2.2677
  Ce  Ce2  1  0.368450  0.643760  0.531000  1.0  2.2687
  Ce  Ce3  1  0.368450  0.856240  0.031000  1.0  2.2627
  Ce  Ce4  1  0.631550  0.356240  0.469000  1.0  2.2692
  P  P5  1  0.904600  0.025000  0.084040  1.0  1.6007
  P  P6  1  0.095400  0.525000  0.415960  1.0  1.6
  P  P7  1  0.095400  0.975000  0.915960  1.0  1.6005
  P  P8  1  0.904600  0.475000  0.584040  1.0  1.6012
  H  H9  1  0.734600  0.979800  0.174800  1.0  0.1604
  H  H10  1  0.667300  0.094800  0.156400  1.0  0.1252
  H  H11  1  0.742400  0.114900  0.273100  1.0  0.047
  H  H12  1  0.844500  0.001300  0.278800  1.0  0.0666
  H  H13  1  0.197500  0.062100  0.328700  1.0  0.0771
  H  H14  1  0.990400  0.104900  0.364600  1.0  0.0781
  H  H15  1  0.009800  0.267600  0.316100  1.0  0.1039
  H  H16  1  0.276700  0.301000  0.245300  1.0  0.0756
  H  H17  1  0.373200  0.186500  0.251800  1.0  0.0677
  H  H18  1  0.114400  0.199100  0.161000  1.0  0.0759
  H  H19  1  0.912100  0.239600  0.199600  1.0  0.0372
  H  H20  1  0.265400  0.479800  0.325200  1.0  0.1601
  H  H21  1  0.332700  0.594800  0.343600  1.0  0.1248
  H  H22  1  0.257600  0.614900  0.226900  1.0  0.055
  H  H23  1  0.155500  0.501300  0.221200  1.0  0.0664
  H  H24  1  0.802500  0.562100  0.171300  1.0  0.076
  H  H25  1  0.009600  0.604900  0.135400  1.0  0.0769
  H  H26  1  0.990200  0.767600  0.183900  1.0  0.1044
  H  H27  1  0.723300  0.801000  0.254700  1.0  0.0754
  H  H28  1  0.626800  0.686500  0.248200  1.0  0.0676
  H  H29  1  0.885600  0.699100  0.339000  1.0  0.0755
  H  H30  1  0.087900  0.739600  0.300400  1.0  0.0392
  H  H31  1  0.265400  0.020200  0.825200  1.0  0.1596
  H  H32  1  0.332700  0.905200  0.843600  1.0  0.1239
  H  H33  1  0.257600  0.885100  0.726900  1.0  0.0534
  H  H34  1  0.155500  0.998700  0.721200  1.0  0.0689
  H  H35  1  0.802500  0.937900  0.671300  1.0  0.0761
  H  H36  1  0.009600  0.895100  0.635400  1.0  0.0775
  H  H37  1  0.990200  0.732400  0.683900  1.0  0.1042
  H  H38  1  0.723300  0.699000  0.754700  1.0  0.0759
  H  H39  1  0.626800  0.813500  0.748200  1.0  0.0678
  H  H40  1  0.885600  0.800900  0.839000  1.0  0.0758
  H  H41  1  0.087900  0.760400  0.800400  1.0  0.0413
  H  H42  1  0.734600  0.520200  0.674800  1.0  0.16
  H  H43  1  0.667300  0.405200  0.656400  1.0  0.1273
  H  H44  1  0.742400  0.385100  0.773100  1.0  0.0467
  H  H45  1  0.844500  0.498700  0.778800  1.0  0.0676
  H  H46  1  0.197500  0.437900  0.828700  1.0  0.0761
  H  H47  1  0.990400  0.395100  0.864600  1.0  0.0775
  H  H48  1  0.009800  0.232400  0.816100  1.0  0.104
  H  H49  1  0.276700  0.199000  0.745300  1.0  0.0747
  H  H50  1  0.373200  0.313500  0.751800  1.0  0.0681
  H  H51  1  0.114400  0.300900  0.661000  1.0  0.0753
  H  H52  1  0.912100  0.260400  0.699600  1.0  0.0373
  C  C53  1  0.797100  0.045500  0.161100  1.0  -0.4068
  C  C54  1  0.885000  0.073800  0.272400  1.0  0.0366
  C  C55  1  0.063000  0.108800  0.325700  1.0  -0.1501
  C  C56  1  0.148000  0.221800  0.315900  1.0  -0.1686
  C  C57  1  0.233000  0.229200  0.252900  1.0  -0.1468
  C  C58  1  0.049000  0.194000  0.200800  1.0  0.0259
  C  C59  1  0.323000  0.256900  0.367000  1.0  0.7196
  C  C60  1  0.202900  0.545500  0.338900  1.0  -0.4058
  C  C61  1  0.115000  0.573800  0.227600  1.0  0.0374
  C  C62  1  0.937000  0.608800  0.174300  1.0  -0.1497
  C  C63  1  0.852000  0.721800  0.184100  1.0  -0.1684
  C  C64  1  0.767000  0.729200  0.247100  1.0  -0.1475
  C  C65  1  0.951000  0.694000  0.299200  1.0  0.0258
  C  C66  1  0.677000  0.756900  0.133000  1.0  0.7186
  C  C67  1  0.202900  0.954500  0.838900  1.0  -0.4055
  C  C68  1  0.115000  0.926200  0.727600  1.0  0.0381
  C  C69  1  0.937000  0.891200  0.674300  1.0  -0.1498
  C  C70  1  0.852000  0.778200  0.684100  1.0  -0.167
  C  C71  1  0.767000  0.770800  0.747100  1.0  -0.1471
  C  C72  1  0.951000  0.806000  0.799200  1.0  0.0266
  C  C73  1  0.677000  0.743100  0.633000  1.0  0.7186
  C  C74  1  0.797100  0.454500  0.661100  1.0  -0.4062
  C  C75  1  0.885000  0.426200  0.772400  1.0  0.0359
  C  C76  1  0.063000  0.391200  0.825700  1.0  -0.1514
  C  C77  1  0.148000  0.278200  0.815900  1.0  -0.1671
  C  C78  1  0.233000  0.270800  0.752900  1.0  -0.1478
  C  C79  1  0.049000  0.306000  0.700800  1.0  0.0261
  C  C80  1  0.323000  0.243100  0.867000  1.0  0.7184
  N  N81  1  0.974000  0.084500  0.210900  1.0  -0.2746
  N  N82  1  0.026000  0.584500  0.289100  1.0  -0.2755
  N  N83  1  0.026000  0.915500  0.789100  1.0  -0.2755
  N  N84  1  0.974000  0.415500  0.710900  1.0  -0.2739
  O  O85  1  0.684500  0.981700  0.046000  1.0  -1.0618
  O  O86  1  0.958400  0.129100  0.055000  1.0  -0.9722
  O  O87  1  0.109100  0.952200  0.092100  1.0  -0.9157
  O  O88  1  0.298600  0.235900  0.423200  1.0  -0.7727
  O  O89  1  0.499000  0.311800  0.354900  1.0  -0.6989
  O  O90  1  0.315500  0.481700  0.454000  1.0  -1.063
  O  O91  1  0.041600  0.629100  0.445000  1.0  -0.9714
  O  O92  1  0.890900  0.452200  0.407900  1.0  -0.9146
  O  O93  1  0.701400  0.735900  0.076800  1.0  -0.7722
  O  O94  1  0.501000  0.811800  0.145100  1.0  -0.6989
  O  O95  1  0.315500  0.018300  0.954000  1.0  -1.0623
  O  O96  1  0.041600  0.870900  0.945000  1.0  -0.973
  O  O97  1  0.890900  0.047800  0.907900  1.0  -0.9152
  O  O98  1  0.701400  0.764100  0.576800  1.0  -0.7742
  O  O99  1  0.501000  0.688200  0.645100  1.0  -0.6987
  O  O100  1  0.684500  0.518300  0.546000  1.0  -1.0626
  O  O101  1  0.958400  0.370900  0.555000  1.0  -0.972
  O  O102  1  0.109100  0.547800  0.592100  1.0  -0.9162
  O  O103  1  0.298600  0.264100  0.923200  1.0  -0.7733
  O  O104  1  0.499000  0.188200  0.854900  1.0  -0.6988
