# generated using pymatgen
data_SmPH11C7NO5
_symmetry_space_group_name_H-M   'P 1'
_cell_length_a   5.54620000
_cell_length_b   13.34300000
_cell_length_c   21.16400000
_cell_angle_alpha   90.00000000
_cell_angle_beta   96.51600000
_cell_angle_gamma   90.00000000
_symmetry_Int_Tables_number   1
_chemical_formula_structural   SmPH11C7NO5
_chemical_formula_sum   'Sm4 P4 H44 C28 N4 O20'
_cell_volume   1556.08104093
_cell_formula_units_Z   4
loop_
 _symmetry_equiv_pos_site_id
 _symmetry_equiv_pos_as_xyz
  1  'x, y, z'
loop_
 _atom_site_type_symbol
 _atom_site_label
 _atom_site_symmetry_multiplicity
 _atom_site_fract_x
 _atom_site_fract_y
 _atom_site_fract_z
 _atom_site_occupancy
 _atom_site_charge
  Sm  Sm1  1  0.626670  0.132560  0.972250  1.0  2.3085
  Sm  Sm2  1  0.373330  0.632560  0.527750  1.0  2.3079
  Sm  Sm3  1  0.373330  0.867440  0.027750  1.0  2.308
  Sm  Sm4  1  0.626670  0.367440  0.472250  1.0  2.3092
  P  P5  1  0.915900  0.023300  0.087110  1.0  1.6305
  P  P6  1  0.084100  0.523300  0.412890  1.0  1.6327
  P  P7  1  0.084100  0.976700  0.912890  1.0  1.6315
  P  P8  1  0.915900  0.476700  0.587110  1.0  1.6326
  H  H9  1  0.771800  0.972100  0.180300  1.0  0.1643
  H  H10  1  0.677700  0.080000  0.162600  1.0  0.1189
  H  H11  1  0.764600  0.093000  0.280200  1.0  0.0384
  H  H12  1  0.906500  0.991300  0.285500  1.0  0.0661
  H  H13  1  0.028000  0.093200  0.369800  1.0  0.0786
  H  H14  1  0.244700  0.068100  0.331100  1.0  0.0744
  H  H15  1  0.988800  0.251200  0.325700  1.0  0.0998
  H  H16  1  0.210000  0.307800  0.247900  1.0  0.0797
  H  H17  1  0.371600  0.211100  0.252400  1.0  0.0713
  H  H18  1  0.090300  0.194000  0.162600  1.0  0.0809
  H  H19  1  0.874200  0.218900  0.201700  1.0  0.0346
  H  H20  1  0.228200  0.472100  0.319700  1.0  0.1643
  H  H21  1  0.322300  0.580000  0.337400  1.0  0.117
  H  H22  1  0.235400  0.593000  0.219800  1.0  0.035
  H  H23  1  0.093500  0.491300  0.214500  1.0  0.0657
  H  H24  1  0.972000  0.593200  0.130200  1.0  0.0784
  H  H25  1  0.755300  0.568100  0.168900  1.0  0.0759
  H  H26  1  0.011200  0.751200  0.174300  1.0  0.0998
  H  H27  1  0.790000  0.807800  0.252100  1.0  0.0791
  H  H28  1  0.628400  0.711100  0.247600  1.0  0.0706
  H  H29  1  0.909700  0.694000  0.337400  1.0  0.0843
  H  H30  1  0.125800  0.718900  0.298300  1.0  0.0351
  H  H31  1  0.228200  0.027900  0.819700  1.0  0.1641
  H  H32  1  0.322300  0.920000  0.837400  1.0  0.1169
  H  H33  1  0.235400  0.907000  0.719800  1.0  0.0351
  H  H34  1  0.093500  0.008700  0.714500  1.0  0.0674
  H  H35  1  0.972000  0.906800  0.630200  1.0  0.079
  H  H36  1  0.755300  0.931900  0.668900  1.0  0.0748
  H  H37  1  0.011200  0.748800  0.674300  1.0  0.0998
  H  H38  1  0.790000  0.692200  0.752100  1.0  0.0795
  H  H39  1  0.628400  0.788900  0.747600  1.0  0.0711
  H  H40  1  0.909700  0.806000  0.837400  1.0  0.0846
  H  H41  1  0.125800  0.781100  0.798300  1.0  0.0351
  H  H42  1  0.771800  0.527900  0.680300  1.0  0.1642
  H  H43  1  0.677700  0.420000  0.662600  1.0  0.119
  H  H44  1  0.764600  0.407000  0.780200  1.0  0.0386
  H  H45  1  0.906500  0.508700  0.785500  1.0  0.0663
  H  H46  1  0.028000  0.406800  0.869800  1.0  0.0782
  H  H47  1  0.244700  0.431900  0.831100  1.0  0.0741
  H  H48  1  0.988800  0.248800  0.825700  1.0  0.1005
  H  H49  1  0.210000  0.192200  0.747900  1.0  0.079
  H  H50  1  0.371600  0.288900  0.752400  1.0  0.0718
  H  H51  1  0.090300  0.306000  0.662600  1.0  0.0803
  H  H52  1  0.874200  0.281100  0.701700  1.0  0.036
  C  C53  1  0.820000  0.037400  0.166100  1.0  -0.4253
  C  C54  1  0.923000  0.062700  0.278500  1.0  0.0468
  C  C55  1  0.092000  0.104300  0.329600  1.0  -0.141
  C  C56  1  0.143000  0.216800  0.322800  1.0  -0.1548
  C  C57  1  0.209000  0.236100  0.255500  1.0  -0.1456
  C  C58  1  0.030000  0.185500  0.203600  1.0  0.0271
  C  C59  1  0.323000  0.261800  0.373800  1.0  0.7094
  C  C60  1  0.180000  0.537400  0.333900  1.0  -0.4252
  C  C61  1  0.077000  0.562700  0.221500  1.0  0.0462
  C  C62  1  0.908000  0.604300  0.170400  1.0  -0.137
  C  C63  1  0.857000  0.716800  0.177200  1.0  -0.1511
  C  C64  1  0.791000  0.736100  0.244500  1.0  -0.1461
  C  C65  1  0.970000  0.685500  0.296400  1.0  0.0278
  C  C66  1  0.677000  0.761800  0.126200  1.0  0.7088
  C  C67  1  0.180000  0.962600  0.833900  1.0  -0.4238
  C  C68  1  0.077000  0.937300  0.721500  1.0  0.0453
  C  C69  1  0.908000  0.895700  0.670400  1.0  -0.1377
  C  C70  1  0.857000  0.783200  0.677200  1.0  -0.1519
  C  C71  1  0.791000  0.763900  0.744500  1.0  -0.1455
  C  C72  1  0.970000  0.814500  0.796400  1.0  0.0272
  C  C73  1  0.677000  0.738200  0.626200  1.0  0.7092
  C  C74  1  0.820000  0.462600  0.666100  1.0  -0.4241
  C  C75  1  0.923000  0.437300  0.778500  1.0  0.0456
  C  C76  1  0.092000  0.395700  0.829600  1.0  -0.1416
  C  C77  1  0.143000  0.283200  0.822800  1.0  -0.1583
  C  C78  1  0.209000  0.263900  0.755500  1.0  -0.1448
  C  C79  1  0.030000  0.314500  0.703600  1.0  0.0273
  C  C80  1  0.323000  0.238200  0.873800  1.0  0.7088
  N  N81  1  0.996000  0.078600  0.214800  1.0  -0.262
  N  N82  1  0.004000  0.578600  0.285200  1.0  -0.2623
  N  N83  1  0.004000  0.921400  0.785200  1.0  -0.2628
  N  N84  1  0.996000  0.421400  0.714800  1.0  -0.2618
  O  O85  1  0.686500  0.982900  0.044900  1.0  -1.1241
  O  O86  1  0.962600  0.123900  0.058100  1.0  -0.9819
  O  O87  1  0.128200  0.953900  0.089800  1.0  -0.9262
  O  O88  1  0.296000  0.243500  0.431000  1.0  -0.7813
  O  O89  1  0.498000  0.314500  0.360300  1.0  -0.6922
  O  O90  1  0.313500  0.482900  0.455100  1.0  -1.126
  O  O91  1  0.037400  0.623900  0.441900  1.0  -0.9791
  O  O92  1  0.871800  0.453900  0.410200  1.0  -0.926
  O  O93  1  0.704000  0.743500  0.069000  1.0  -0.7793
  O  O94  1  0.502000  0.814500  0.139700  1.0  -0.6906
  O  O95  1  0.313500  0.017100  0.955100  1.0  -1.1262
  O  O96  1  0.037400  0.876100  0.941900  1.0  -0.9788
  O  O97  1  0.871800  0.046100  0.910200  1.0  -0.9263
  O  O98  1  0.704000  0.756500  0.569000  1.0  -0.7814
  O  O99  1  0.502000  0.685500  0.639700  1.0  -0.6903
  O  O100  1  0.686500  0.517100  0.544900  1.0  -1.1244
  O  O101  1  0.962600  0.376100  0.558100  1.0  -0.9799
  O  O102  1  0.128200  0.546100  0.589800  1.0  -0.9265
  O  O103  1  0.296000  0.256500  0.931000  1.0  -0.7822
  O  O104  1  0.498000  0.185500  0.860300  1.0  -0.6923
