# generated using pymatgen
data_PrPH11C7NO5
_symmetry_space_group_name_H-M   'P 1'
_cell_length_a   5.60680000
_cell_length_b   13.38200000
_cell_length_c   21.19200000
_cell_angle_alpha   90.00000000
_cell_angle_beta   95.89200000
_cell_angle_gamma   90.00000000
_symmetry_Int_Tables_number   1
_chemical_formula_structural   PrPH11C7NO5
_chemical_formula_sum   'Pr4 P4 H44 C28 N4 O20'
_cell_volume   1581.64002085
_cell_formula_units_Z   4
loop_
 _symmetry_equiv_pos_site_id
 _symmetry_equiv_pos_as_xyz
  1  'x, y, z'
loop_
 _atom_site_type_symbol
 _atom_site_label
 _atom_site_symmetry_multiplicity
 _atom_site_fract_x
 _atom_site_fract_y
 _atom_site_fract_z
 _atom_site_occupancy
 _atom_site_charge
  Pr  Pr1  1  0.629690  0.135960  0.971050  1.0  2.193
  Pr  Pr2  1  0.370310  0.635960  0.528950  1.0  2.1934
  Pr  Pr3  1  0.370310  0.864040  0.028950  1.0  2.1918
  Pr  Pr4  1  0.629690  0.364040  0.471050  1.0  2.1947
  P  P5  1  0.910400  0.023030  0.086610  1.0  1.6029
  P  P6  1  0.089600  0.523030  0.413390  1.0  1.6022
  P  P7  1  0.089600  0.976970  0.913390  1.0  1.6025
  P  P8  1  0.910400  0.476970  0.586610  1.0  1.6031
  H  H9  1  0.756900  0.976000  0.179600  1.0  0.1621
  H  H10  1  0.672700  0.084400  0.161000  1.0  0.1253
  H  H11  1  0.758000  0.104400  0.279600  1.0  0.0373
  H  H12  1  0.880300  0.999000  0.285800  1.0  0.0673
  H  H13  1  0.026300  0.100600  0.370600  1.0  0.0824
  H  H14  1  0.235700  0.070200  0.330700  1.0  0.0771
  H  H15  1  0.994800  0.256800  0.321400  1.0  0.1059
  H  H16  1  0.242500  0.302200  0.245700  1.0  0.0802
  H  H17  1  0.370400  0.197900  0.251400  1.0  0.0709
  H  H18  1  0.085500  0.197700  0.161300  1.0  0.0838
  H  H19  1  0.880900  0.225500  0.203500  1.0  0.0379
  H  H20  1  0.243100  0.476000  0.320400  1.0  0.1616
  H  H21  1  0.327300  0.584400  0.339000  1.0  0.1269
  H  H22  1  0.242000  0.604400  0.220400  1.0  0.0368
  H  H23  1  0.119700  0.499000  0.214200  1.0  0.0669
  H  H24  1  0.973700  0.600600  0.129400  1.0  0.0817
  H  H25  1  0.764300  0.570200  0.169300  1.0  0.0781
  H  H26  1  0.005200  0.756800  0.178600  1.0  0.1062
  H  H27  1  0.757500  0.802200  0.254300  1.0  0.0801
  H  H28  1  0.629600  0.697900  0.248600  1.0  0.072
  H  H29  1  0.914500  0.697700  0.338700  1.0  0.0833
  H  H30  1  0.119100  0.725500  0.296500  1.0  0.0376
  H  H31  1  0.243100  0.024000  0.820400  1.0  0.1614
  H  H32  1  0.327300  0.915600  0.839000  1.0  0.1268
  H  H33  1  0.242000  0.895600  0.720400  1.0  0.037
  H  H34  1  0.119700  0.001000  0.714200  1.0  0.0684
  H  H35  1  0.973700  0.899400  0.629400  1.0  0.0822
  H  H36  1  0.764300  0.929800  0.669300  1.0  0.0779
  H  H37  1  0.005200  0.743200  0.678600  1.0  0.106
  H  H38  1  0.757500  0.697800  0.754300  1.0  0.0809
  H  H39  1  0.629600  0.802100  0.748600  1.0  0.0718
  H  H40  1  0.914500  0.802300  0.838700  1.0  0.0836
  H  H41  1  0.119100  0.774500  0.796500  1.0  0.0376
  H  H42  1  0.756900  0.524000  0.679600  1.0  0.1618
  H  H43  1  0.672700  0.415600  0.661000  1.0  0.1255
  H  H44  1  0.758000  0.395600  0.779600  1.0  0.0372
  H  H45  1  0.880300  0.501000  0.785800  1.0  0.0679
  H  H46  1  0.026300  0.399400  0.870600  1.0  0.0818
  H  H47  1  0.235700  0.429800  0.830700  1.0  0.0773
  H  H48  1  0.994800  0.243200  0.821400  1.0  0.1059
  H  H49  1  0.242500  0.197800  0.745700  1.0  0.08
  H  H50  1  0.370400  0.302100  0.751400  1.0  0.0708
  H  H51  1  0.085500  0.302300  0.661300  1.0  0.0833
  H  H52  1  0.880900  0.274500  0.703500  1.0  0.037
  C  C53  1  0.810500  0.040200  0.165100  1.0  -0.4166
  C  C54  1  0.908600  0.069300  0.278200  1.0  0.0528
  C  C55  1  0.088800  0.108700  0.329900  1.0  -0.145
  C  C56  1  0.144500  0.219500  0.319700  1.0  -0.1582
  C  C57  1  0.219000  0.231800  0.253900  1.0  -0.1513
  C  C58  1  0.030000  0.189200  0.202800  1.0  0.0274
  C  C59  1  0.325700  0.261700  0.370400  1.0  0.7198
  C  C60  1  0.189500  0.540200  0.334900  1.0  -0.4181
  C  C61  1  0.091400  0.569300  0.221800  1.0  0.0534
  C  C62  1  0.911200  0.608700  0.170100  1.0  -0.1457
  C  C63  1  0.855500  0.719500  0.180300  1.0  -0.1573
  C  C64  1  0.781000  0.731800  0.246100  1.0  -0.1505
  C  C65  1  0.970000  0.689200  0.297200  1.0  0.0272
  C  C66  1  0.674300  0.761700  0.129600  1.0  0.7189
  C  C67  1  0.189500  0.959800  0.834900  1.0  -0.418
  C  C68  1  0.091400  0.930700  0.721800  1.0  0.0532
  C  C69  1  0.911200  0.891300  0.670100  1.0  -0.1457
  C  C70  1  0.855500  0.780500  0.680300  1.0  -0.1566
  C  C71  1  0.781000  0.768200  0.746100  1.0  -0.15
  C  C72  1  0.970000  0.810800  0.797200  1.0  0.0279
  C  C73  1  0.674300  0.738300  0.629600  1.0  0.7191
  C  C74  1  0.810500  0.459800  0.665100  1.0  -0.4164
  C  C75  1  0.908600  0.430700  0.778200  1.0  0.0518
  C  C76  1  0.088800  0.391300  0.829900  1.0  -0.1453
  C  C77  1  0.144500  0.280500  0.819700  1.0  -0.157
  C  C78  1  0.219000  0.268200  0.753900  1.0  -0.1518
  C  C79  1  0.030000  0.310800  0.702800  1.0  0.0279
  C  C80  1  0.325700  0.238300  0.870400  1.0  0.7193
  N  N81  1  0.989700  0.081300  0.214700  1.0  -0.2553
  N  N82  1  0.010300  0.581300  0.285300  1.0  -0.256
  N  N83  1  0.010300  0.918700  0.785300  1.0  -0.2557
  N  N84  1  0.989700  0.418700  0.714700  1.0  -0.2548
  O  O85  1  0.685700  0.982600  0.047000  1.0  -1.0751
  O  O86  1  0.961600  0.123100  0.057400  1.0  -0.9712
  O  O87  1  0.120100  0.952500  0.092600  1.0  -0.914
  O  O88  1  0.301900  0.243000  0.428200  1.0  -0.7751
  O  O89  1  0.494900  0.314800  0.356800  1.0  -0.6648
  O  O90  1  0.314300  0.482600  0.453000  1.0  -1.0747
  O  O91  1  0.038400  0.623100  0.442600  1.0  -0.9712
  O  O92  1  0.879900  0.452500  0.407400  1.0  -0.9135
  O  O93  1  0.698100  0.743000  0.071800  1.0  -0.7756
  O  O94  1  0.505100  0.814800  0.143200  1.0  -0.6642
  O  O95  1  0.314300  0.017400  0.953000  1.0  -1.075
  O  O96  1  0.038400  0.876900  0.942600  1.0  -0.9717
  O  O97  1  0.879900  0.047500  0.907400  1.0  -0.9137
  O  O98  1  0.698100  0.757000  0.571800  1.0  -0.7763
  O  O99  1  0.505100  0.685200  0.643200  1.0  -0.6646
  O  O100  1  0.685700  0.517400  0.547000  1.0  -1.076
  O  O101  1  0.961600  0.376900  0.557400  1.0  -0.9703
  O  O102  1  0.120100  0.547500  0.592600  1.0  -0.9136
  O  O103  1  0.301900  0.257000  0.928200  1.0  -0.7752
  O  O104  1  0.494900  0.185200  0.856800  1.0  -0.6644
