# generated using pymatgen
data_NdPH11C7NO5
_symmetry_space_group_name_H-M   'P 1'
_cell_length_a   5.58710000
_cell_length_b   13.42400000
_cell_length_c   21.15700000
_cell_angle_alpha   90.00000000
_cell_angle_beta   96.14800000
_cell_angle_gamma   90.00000000
_symmetry_Int_Tables_number   1
_chemical_formula_structural   NdPH11C7NO5
_chemical_formula_sum   'Nd4 P4 H44 C28 N4 O20'
_cell_volume   1577.67465910
_cell_formula_units_Z   4
loop_
 _symmetry_equiv_pos_site_id
 _symmetry_equiv_pos_as_xyz
  1  'x, y, z'
loop_
 _atom_site_type_symbol
 _atom_site_label
 _atom_site_symmetry_multiplicity
 _atom_site_fract_x
 _atom_site_fract_y
 _atom_site_fract_z
 _atom_site_occupancy
 _atom_site_charge
  Nd  Nd1  1  0.628540  0.134450  0.971510  1.0  2.3047
  Nd  Nd2  1  0.371460  0.634450  0.528490  1.0  2.3046
  Nd  Nd3  1  0.371460  0.865550  0.028490  1.0  2.3015
  Nd  Nd4  1  0.628540  0.365550  0.471510  1.0  2.3052
  P  P5  1  0.912200  0.023070  0.086800  1.0  1.6204
  P  P6  1  0.087800  0.523070  0.413200  1.0  1.6201
  P  P7  1  0.087800  0.976930  0.913200  1.0  1.6203
  P  P8  1  0.912200  0.476930  0.586800  1.0  1.6207
  H  H9  1  0.764700  0.974500  0.179900  1.0  0.1608
  H  H10  1  0.674300  0.081800  0.161500  1.0  0.1231
  H  H11  1  0.760100  0.100600  0.280600  1.0  0.0381
  H  H12  1  0.889400  0.996800  0.286400  1.0  0.0647
  H  H13  1  0.033500  0.099100  0.371300  1.0  0.0765
  H  H14  1  0.243100  0.071000  0.330900  1.0  0.0726
  H  H15  1  0.992400  0.254800  0.322500  1.0  0.105
  H  H16  1  0.236200  0.303300  0.245600  1.0  0.0778
  H  H17  1  0.370500  0.200500  0.250800  1.0  0.0681
  H  H18  1  0.080700  0.198300  0.161300  1.0  0.0819
  H  H19  1  0.876500  0.223800  0.204300  1.0  0.0331
  H  H20  1  0.235300  0.474500  0.320100  1.0  0.1604
  H  H21  1  0.325700  0.581800  0.338500  1.0  0.125
  H  H22  1  0.239900  0.600600  0.219400  1.0  0.0365
  H  H23  1  0.110600  0.496800  0.213600  1.0  0.0638
  H  H24  1  0.966500  0.599100  0.128700  1.0  0.0756
  H  H25  1  0.756900  0.571000  0.169100  1.0  0.074
  H  H26  1  0.007600  0.754800  0.177500  1.0  0.1052
  H  H27  1  0.763800  0.803300  0.254400  1.0  0.0774
  H  H28  1  0.629500  0.700500  0.249200  1.0  0.068
  H  H29  1  0.919300  0.698300  0.338700  1.0  0.0816
  H  H30  1  0.123500  0.723800  0.295700  1.0  0.0305
  H  H31  1  0.235300  0.025500  0.820100  1.0  0.1603
  H  H32  1  0.325700  0.918200  0.838500  1.0  0.125
  H  H33  1  0.239900  0.899400  0.719400  1.0  0.037
  H  H34  1  0.110600  0.003200  0.713600  1.0  0.0653
  H  H35  1  0.966500  0.900900  0.628700  1.0  0.0762
  H  H36  1  0.756900  0.929000  0.669100  1.0  0.0738
  H  H37  1  0.007600  0.745200  0.677500  1.0  0.1049
  H  H38  1  0.763800  0.696700  0.754400  1.0  0.0777
  H  H39  1  0.629500  0.799500  0.749200  1.0  0.0681
  H  H40  1  0.919300  0.801700  0.838700  1.0  0.0821
  H  H41  1  0.123500  0.776200  0.795700  1.0  0.0305
  H  H42  1  0.764700  0.525500  0.679900  1.0  0.1605
  H  H43  1  0.674300  0.418200  0.661500  1.0  0.1232
  H  H44  1  0.760100  0.399400  0.780600  1.0  0.0381
  H  H45  1  0.889400  0.503200  0.786400  1.0  0.0653
  H  H46  1  0.033500  0.400900  0.871300  1.0  0.0763
  H  H47  1  0.243100  0.429000  0.830900  1.0  0.0726
  H  H48  1  0.992400  0.245200  0.822500  1.0  0.1053
  H  H49  1  0.236200  0.196700  0.745600  1.0  0.0763
  H  H50  1  0.370500  0.299500  0.750800  1.0  0.0684
  H  H51  1  0.080700  0.301700  0.661300  1.0  0.0814
  H  H52  1  0.876500  0.276200  0.704300  1.0  0.0329
  C  C53  1  0.814900  0.038900  0.165300  1.0  -0.4151
  C  C54  1  0.913200  0.067200  0.279000  1.0  0.0502
  C  C55  1  0.093900  0.108000  0.330400  1.0  -0.1431
  C  C56  1  0.144000  0.218800  0.320400  1.0  -0.165
  C  C57  1  0.216800  0.232800  0.253700  1.0  -0.1466
  C  C58  1  0.028300  0.189100  0.203200  1.0  0.0282
  C  C59  1  0.326000  0.260900  0.371700  1.0  0.7093
  C  C60  1  0.185100  0.538900  0.334700  1.0  -0.4157
  C  C61  1  0.086800  0.567200  0.221000  1.0  0.0502
  C  C62  1  0.906100  0.608000  0.169600  1.0  -0.1441
  C  C63  1  0.856000  0.718800  0.179600  1.0  -0.1647
  C  C64  1  0.783200  0.732800  0.246300  1.0  -0.1466
  C  C65  1  0.971700  0.689100  0.296800  1.0  0.0286
  C  C66  1  0.674000  0.760900  0.128300  1.0  0.7093
  C  C67  1  0.185100  0.961100  0.834700  1.0  -0.4154
  C  C68  1  0.086800  0.932800  0.721000  1.0  0.0501
  C  C69  1  0.906100  0.892000  0.669600  1.0  -0.1439
  C  C70  1  0.856000  0.781200  0.679600  1.0  -0.1643
  C  C71  1  0.783200  0.767200  0.746300  1.0  -0.1462
  C  C72  1  0.971700  0.810900  0.796800  1.0  0.0292
  C  C73  1  0.674000  0.739100  0.628300  1.0  0.7096
  C  C74  1  0.814900  0.461100  0.665300  1.0  -0.4148
  C  C75  1  0.913200  0.432800  0.779000  1.0  0.0491
  C  C76  1  0.093900  0.392000  0.830400  1.0  -0.1437
  C  C77  1  0.144000  0.281200  0.820400  1.0  -0.1643
  C  C78  1  0.216800  0.267200  0.753700  1.0  -0.147
  C  C79  1  0.028300  0.310900  0.703200  1.0  0.0282
  C  C80  1  0.326000  0.239100  0.871700  1.0  0.7087
  N  N81  1  0.994200  0.081200  0.215100  1.0  -0.2679
  N  N82  1  0.005800  0.581200  0.284900  1.0  -0.2677
  N  N83  1  0.005800  0.918800  0.784900  1.0  -0.267
  N  N84  1  0.994200  0.418800  0.715100  1.0  -0.2667
  O  O85  1  0.685800  0.982600  0.046480  1.0  -1.0983
  O  O86  1  0.963200  0.123300  0.057400  1.0  -0.9895
  O  O87  1  0.122700  0.952400  0.091900  1.0  -0.9245
  O  O88  1  0.299200  0.244400  0.429400  1.0  -0.7904
  O  O89  1  0.494800  0.315100  0.357900  1.0  -0.6729
  O  O90  1  0.314200  0.482600  0.453520  1.0  -1.0997
  O  O91  1  0.036800  0.623300  0.442600  1.0  -0.9882
  O  O92  1  0.877300  0.452400  0.408100  1.0  -0.9238
  O  O93  1  0.700800  0.744400  0.070600  1.0  -0.7898
  O  O94  1  0.505200  0.815100  0.142100  1.0  -0.6726
  O  O95  1  0.314200  0.017400  0.953520  1.0  -1.0995
  O  O96  1  0.036800  0.876700  0.942600  1.0  -0.9886
  O  O97  1  0.877300  0.047600  0.908100  1.0  -0.9238
  O  O98  1  0.700800  0.755600  0.570600  1.0  -0.7913
  O  O99  1  0.505200  0.684900  0.642100  1.0  -0.6719
  O  O100  1  0.685800  0.517400  0.546480  1.0  -1.0991
  O  O101  1  0.963200  0.376700  0.557400  1.0  -0.9891
  O  O102  1  0.122700  0.547600  0.591900  1.0  -0.924
  O  O103  1  0.299200  0.255600  0.929400  1.0  -0.7906
  O  O104  1  0.494800  0.184900  0.857900  1.0  -0.6718
