# generated using pymatgen
data_GdPH11C7NO5
_symmetry_space_group_name_H-M   'P 1'
_cell_length_a   5.53400000
_cell_length_b   13.43600000
_cell_length_c   20.89100000
_cell_angle_alpha   90.00000000
_cell_angle_beta   96.15900000
_cell_angle_gamma   90.00000000
_symmetry_Int_Tables_number   1
_chemical_formula_structural   GdPH11C7NO5
_chemical_formula_sum   'Gd4 P4 H44 C28 N4 O20'
_cell_volume   1544.38069925
_cell_formula_units_Z   4
loop_
 _symmetry_equiv_pos_site_id
 _symmetry_equiv_pos_as_xyz
  1  'x, y, z'
loop_
 _atom_site_type_symbol
 _atom_site_label
 _atom_site_symmetry_multiplicity
 _atom_site_fract_x
 _atom_site_fract_y
 _atom_site_fract_z
 _atom_site_occupancy
 _atom_site_charge
  Gd  Gd1  1  0.626240  0.131650  0.972310  1.0  2.2239
  Gd  Gd2  1  0.373760  0.631650  0.527690  1.0  2.2244
  Gd  Gd3  1  0.373760  0.868350  0.027690  1.0  2.2196
  Gd  Gd4  1  0.626240  0.368350  0.472310  1.0  2.2248
  P  P5  1  0.913600  0.022300  0.086450  1.0  1.623
  P  P6  1  0.086400  0.522300  0.413550  1.0  1.623
  P  P7  1  0.086400  0.977700  0.913550  1.0  1.623
  P  P8  1  0.913600  0.477700  0.586450  1.0  1.6233
  H  H9  1  0.770700  0.973800  0.181500  1.0  0.1581
  H  H10  1  0.679100  0.081100  0.163300  1.0  0.1294
  H  H11  1  0.766300  0.096600  0.281800  1.0  0.0404
  H  H12  1  0.905900  0.994900  0.288200  1.0  0.068
  H  H13  1  0.036300  0.098100  0.373100  1.0  0.081
  H  H14  1  0.251500  0.073200  0.332700  1.0  0.0722
  H  H15  1  0.986800  0.253500  0.324800  1.0  0.1054
  H  H16  1  0.226900  0.304000  0.247400  1.0  0.078
  H  H17  1  0.368400  0.202700  0.252800  1.0  0.0727
  H  H18  1  0.079000  0.198600  0.161800  1.0  0.0811
  H  H19  1  0.869500  0.220700  0.205000  1.0  0.042
  H  H20  1  0.229300  0.473800  0.318500  1.0  0.1588
  H  H21  1  0.320900  0.581100  0.336700  1.0  0.1298
  H  H22  1  0.233700  0.596600  0.218200  1.0  0.0386
  H  H23  1  0.094100  0.494900  0.211800  1.0  0.0672
  H  H24  1  0.963700  0.598100  0.126900  1.0  0.0806
  H  H25  1  0.748500  0.573200  0.167300  1.0  0.0723
  H  H26  1  0.013200  0.753500  0.175200  1.0  0.1057
  H  H27  1  0.773100  0.804000  0.252600  1.0  0.0775
  H  H28  1  0.631600  0.702700  0.247200  1.0  0.0717
  H  H29  1  0.921000  0.698600  0.338200  1.0  0.0802
  H  H30  1  0.130500  0.720700  0.295000  1.0  0.0402
  H  H31  1  0.229300  0.026200  0.818500  1.0  0.1569
  H  H32  1  0.320900  0.918900  0.836700  1.0  0.1294
  H  H33  1  0.233700  0.903400  0.718200  1.0  0.0387
  H  H34  1  0.094100  0.005100  0.711800  1.0  0.0686
  H  H35  1  0.963700  0.901900  0.626900  1.0  0.0813
  H  H36  1  0.748500  0.926800  0.667300  1.0  0.0718
  H  H37  1  0.013200  0.746500  0.675200  1.0  0.1054
  H  H38  1  0.773100  0.696000  0.752600  1.0  0.0775
  H  H39  1  0.631600  0.797300  0.747200  1.0  0.0715
  H  H40  1  0.921000  0.801400  0.838200  1.0  0.0807
  H  H41  1  0.130500  0.779300  0.795000  1.0  0.04
  H  H42  1  0.770700  0.526200  0.681500  1.0  0.1588
  H  H43  1  0.679100  0.418900  0.663300  1.0  0.1289
  H  H44  1  0.766300  0.403400  0.781800  1.0  0.0405
  H  H45  1  0.905900  0.505100  0.788200  1.0  0.068
  H  H46  1  0.036300  0.401900  0.873100  1.0  0.0808
  H  H47  1  0.251500  0.426800  0.832700  1.0  0.0724
  H  H48  1  0.986800  0.246500  0.824800  1.0  0.1055
  H  H49  1  0.226900  0.196000  0.747400  1.0  0.0765
  H  H50  1  0.368400  0.297300  0.752800  1.0  0.0725
  H  H51  1  0.079000  0.301400  0.661800  1.0  0.0807
  H  H52  1  0.869500  0.279300  0.705000  1.0  0.0425
  C  C53  1  0.821000  0.038200  0.166700  1.0  -0.4171
  C  C54  1  0.924000  0.065600  0.280400  1.0  0.0538
  C  C55  1  0.098000  0.108300  0.331800  1.0  -0.1453
  C  C56  1  0.142000  0.219500  0.322700  1.0  -0.1521
  C  C57  1  0.211000  0.233400  0.255700  1.0  -0.1444
  C  C58  1  0.026000  0.188300  0.204100  1.0  0.023
  C  C59  1  0.322000  0.264000  0.374700  1.0  0.7043
  C  C60  1  0.179000  0.538200  0.333333  1.0  -0.4172
  C  C61  1  0.076000  0.565600  0.219600  1.0  0.0538
  C  C62  1  0.902000  0.608300  0.168200  1.0  -0.1455
  C  C63  1  0.858000  0.719500  0.177300  1.0  -0.1518
  C  C64  1  0.789000  0.733400  0.244300  1.0  -0.1452
  C  C65  1  0.974000  0.688300  0.295900  1.0  0.0234
  C  C66  1  0.678000  0.764000  0.125300  1.0  0.7035
  C  C67  1  0.179000  0.961800  0.833300  1.0  -0.4154
  C  C68  1  0.076000  0.934400  0.719600  1.0  0.0537
  C  C69  1  0.902000  0.891700  0.668200  1.0  -0.1457
  C  C70  1  0.858000  0.780500  0.677300  1.0  -0.1522
  C  C71  1  0.789000  0.766600  0.744300  1.0  -0.1455
  C  C72  1  0.974000  0.811700  0.795900  1.0  0.0238
  C  C73  1  0.678000  0.736000  0.625300  1.0  0.7039
  C  C74  1  0.821000  0.461800  0.666667  1.0  -0.4162
  C  C75  1  0.924000  0.434400  0.780400  1.0  0.0528
  C  C76  1  0.098000  0.391700  0.831800  1.0  -0.1458
  C  C77  1  0.142000  0.280500  0.822700  1.0  -0.1515
  C  C78  1  0.211000  0.266600  0.755700  1.0  -0.1448
  C  C79  1  0.026000  0.311700  0.704100  1.0  0.0224
  C  C80  1  0.322000  0.236000  0.874700  1.0  0.7043
  N  N81  1  0.002100  0.079900  0.216500  1.0  -0.2668
  N  N82  1  0.997900  0.579900  0.283500  1.0  -0.2673
  N  N83  1  0.997900  0.920100  0.783500  1.0  -0.2662
  N  N84  1  0.002100  0.420100  0.716500  1.0  -0.2657
  O  O85  1  0.682100  0.981300  0.045600  1.0  -1.0944
  O  O86  1  0.959200  0.122400  0.057300  1.0  -0.971
  O  O87  1  0.127300  0.953600  0.090300  1.0  -0.9168
  O  O88  1  0.297600  0.247800  0.433100  1.0  -0.761
  O  O89  1  0.498100  0.316900  0.359700  1.0  -0.6836
  O  O90  1  0.317900  0.481300  0.454400  1.0  -1.096
  O  O91  1  0.040800  0.622400  0.442700  1.0  -0.9701
  O  O92  1  0.872700  0.453600  0.409700  1.0  -0.917
  O  O93  1  0.702400  0.747800  0.066900  1.0  -0.7602
  O  O94  1  0.501900  0.816900  0.140300  1.0  -0.683
  O  O95  1  0.317900  0.018700  0.954400  1.0  -1.0964
  O  O96  1  0.040800  0.877600  0.942700  1.0  -0.9702
  O  O97  1  0.872700  0.046400  0.909700  1.0  -0.9171
  O  O98  1  0.702400  0.752200  0.566900  1.0  -0.7608
  O  O99  1  0.501900  0.683100  0.640300  1.0  -0.6823
  O  O100  1  0.682100  0.518700  0.545600  1.0  -1.0943
  O  O101  1  0.959200  0.377600  0.557300  1.0  -0.9708
  O  O102  1  0.127300  0.546400  0.590300  1.0  -0.9167
  O  O103  1  0.297600  0.252200  0.933100  1.0  -0.7619
  O  O104  1  0.498100  0.183100  0.859700  1.0  -0.6821
