# generated using pymatgen
data_YPH11C7NO5
_symmetry_space_group_name_H-M   'P 1'
_cell_length_a   5.52340000
_cell_length_b   13.34900000
_cell_length_c   20.58600000
_cell_angle_alpha   90.00000000
_cell_angle_beta   95.29000000
_cell_angle_gamma   90.00000000
_symmetry_Int_Tables_number   1
_chemical_formula_structural   YPH11C7NO5
_chemical_formula_sum   'Y4 P4 H44 C28 N4 O20'
_cell_volume   1511.37941096
_cell_formula_units_Z   4
loop_
 _symmetry_equiv_pos_site_id
 _symmetry_equiv_pos_as_xyz
  1  'x, y, z'
loop_
 _atom_site_type_symbol
 _atom_site_label
 _atom_site_symmetry_multiplicity
 _atom_site_fract_x
 _atom_site_fract_y
 _atom_site_fract_z
 _atom_site_occupancy
 _atom_site_charge
  Y  Y1  1  0.626400  0.131750  0.972100  1.0  2.1345
  Y  Y2  1  0.373600  0.631750  0.527900  1.0  2.1373
  Y  Y3  1  0.373600  0.868250  0.027900  1.0  2.1344
  Y  Y4  1  0.626400  0.368250  0.472100  1.0  2.1373
  P  P5  1  0.908400  0.020470  0.085100  1.0  1.5943
  P  P6  1  0.091600  0.520470  0.414900  1.0  1.5946
  P  P7  1  0.091600  0.979530  0.914900  1.0  1.5949
  P  P8  1  0.908400  0.479530  0.585100  1.0  1.5933
  H  H9  1  0.765200  0.971800  0.182600  1.0  0.1612
  H  H10  1  0.666400  0.078400  0.163200  1.0  0.1306
  H  H11  1  0.756600  0.104100  0.285400  1.0  0.0401
  H  H12  1  0.884000  0.999000  0.291100  1.0  0.0675
  H  H13  1  0.038300  0.102100  0.377500  1.0  0.0815
  H  H14  1  0.247400  0.073500  0.334200  1.0  0.0754
  H  H15  1  0.990200  0.257100  0.326000  1.0  0.1031
  H  H16  1  0.230200  0.307100  0.246100  1.0  0.0792
  H  H17  1  0.373500  0.205600  0.251300  1.0  0.0744
  H  H18  1  0.090700  0.198200  0.161200  1.0  0.0778
  H  H19  1  0.879800  0.226100  0.204000  1.0  0.0379
  H  H20  1  0.234800  0.471800  0.317400  1.0  0.1611
  H  H21  1  0.333600  0.578400  0.336800  1.0  0.1307
  H  H22  1  0.243400  0.604100  0.214600  1.0  0.0403
  H  H23  1  0.116000  0.499000  0.208900  1.0  0.0668
  H  H24  1  0.961700  0.602100  0.122500  1.0  0.0811
  H  H25  1  0.752600  0.573500  0.165800  1.0  0.0763
  H  H26  1  0.009800  0.757100  0.174000  1.0  0.1033
  H  H27  1  0.769800  0.807100  0.253900  1.0  0.0789
  H  H28  1  0.626500  0.705600  0.248700  1.0  0.0733
  H  H29  1  0.909300  0.698200  0.338800  1.0  0.0765
  H  H30  1  0.120200  0.726100  0.296000  1.0  0.0358
  H  H31  1  0.234800  0.028200  0.817400  1.0  0.1605
  H  H32  1  0.333600  0.921600  0.836800  1.0  0.131
  H  H33  1  0.243400  0.895900  0.714600  1.0  0.0403
  H  H34  1  0.116000  0.001000  0.708900  1.0  0.0684
  H  H35  1  0.961700  0.897900  0.622500  1.0  0.0814
  H  H36  1  0.752600  0.926500  0.665800  1.0  0.0759
  H  H37  1  0.009800  0.742900  0.674000  1.0  0.1031
  H  H38  1  0.769800  0.692900  0.753900  1.0  0.0803
  H  H39  1  0.626500  0.794400  0.748700  1.0  0.0734
  H  H40  1  0.909300  0.801800  0.838800  1.0  0.0767
  H  H41  1  0.120200  0.773900  0.796000  1.0  0.0357
  H  H42  1  0.765200  0.528200  0.682600  1.0  0.16
  H  H43  1  0.666400  0.421600  0.663200  1.0  0.1305
  H  H44  1  0.756600  0.395900  0.785400  1.0  0.0396
  H  H45  1  0.884000  0.501000  0.791100  1.0  0.068
  H  H46  1  0.038300  0.397900  0.877500  1.0  0.0811
  H  H47  1  0.247400  0.426500  0.834200  1.0  0.0755
  H  H48  1  0.990200  0.242900  0.826000  1.0  0.1031
  H  H49  1  0.230200  0.192900  0.746100  1.0  0.0785
  H  H50  1  0.373500  0.294400  0.751300  1.0  0.0751
  H  H51  1  0.090700  0.301800  0.661200  1.0  0.077
  H  H52  1  0.879800  0.273900  0.704000  1.0  0.0378
  C  C53  1  0.811100  0.036900  0.166600  1.0  -0.4161
  C  C54  1  0.910000  0.069600  0.283000  1.0  0.0454
  C  C55  1  0.096700  0.110700  0.334900  1.0  -0.1522
  C  C56  1  0.144200  0.221600  0.323200  1.0  -0.1597
  C  C57  1  0.215700  0.236000  0.254700  1.0  -0.1453
  C  C58  1  0.032800  0.190400  0.204000  1.0  0.0348
  C  C59  1  0.327900  0.266200  0.374900  1.0  0.7016
  C  C60  1  0.188900  0.536900  0.333400  1.0  -0.4155
  C  C61  1  0.090000  0.569600  0.217000  1.0  0.045
  C  C62  1  0.903300  0.610700  0.165100  1.0  -0.1524
  C  C63  1  0.855800  0.721600  0.176800  1.0  -0.1589
  C  C64  1  0.784300  0.736000  0.245300  1.0  -0.1455
  C  C65  1  0.967200  0.690400  0.296000  1.0  0.0353
  C  C66  1  0.672100  0.766200  0.125100  1.0  0.6997
  C  C67  1  0.188900  0.963100  0.833400  1.0  -0.4151
  C  C68  1  0.090000  0.930400  0.717000  1.0  0.045
  C  C69  1  0.903300  0.889300  0.665100  1.0  -0.1525
  C  C70  1  0.855800  0.778400  0.676800  1.0  -0.1582
  C  C71  1  0.784300  0.764000  0.745300  1.0  -0.1451
  C  C72  1  0.967200  0.809600  0.796000  1.0  0.0361
  C  C73  1  0.672100  0.733800  0.625100  1.0  0.7002
  C  C74  1  0.811100  0.463100  0.666667  1.0  -0.4144
  C  C75  1  0.910000  0.430400  0.783000  1.0  0.0445
  C  C76  1  0.096700  0.389300  0.834900  1.0  -0.1526
  C  C77  1  0.144200  0.278400  0.823200  1.0  -0.1588
  C  C78  1  0.215700  0.264000  0.754700  1.0  -0.1461
  C  C79  1  0.032800  0.309600  0.704000  1.0  0.0352
  C  C80  1  0.327900  0.233800  0.874900  1.0  0.701
  N  N81  1  0.991500  0.082500  0.216400  1.0  -0.269
  N  N82  1  0.008500  0.582500  0.283600  1.0  -0.2695
  N  N83  1  0.008500  0.917500  0.783600  1.0  -0.2692
  N  N84  1  0.991500  0.417500  0.716400  1.0  -0.2683
  O  O85  1  0.679800  0.979900  0.045500  1.0  -1.0458
  O  O86  1  0.957500  0.121900  0.054100  1.0  -0.9515
  O  O87  1  0.122600  0.950400  0.090700  1.0  -0.9022
  O  O88  1  0.302700  0.248800  0.434200  1.0  -0.7438
  O  O89  1  0.495100  0.321000  0.359400  1.0  -0.655
  O  O90  1  0.320200  0.479900  0.454500  1.0  -1.046
  O  O91  1  0.042500  0.621900  0.445900  1.0  -0.9491
  O  O92  1  0.877400  0.450400  0.409300  1.0  -0.9029
  O  O93  1  0.697300  0.748800  0.065800  1.0  -0.7419
  O  O94  1  0.504900  0.821000  0.140600  1.0  -0.6554
  O  O95  1  0.320200  0.020100  0.954500  1.0  -1.046
  O  O96  1  0.042500  0.878100  0.945900  1.0  -0.9468
  O  O97  1  0.877400  0.049600  0.909300  1.0  -0.9024
  O  O98  1  0.697300  0.751200  0.565800  1.0  -0.7439
  O  O99  1  0.504900  0.679000  0.640600  1.0  -0.6554
  O  O100  1  0.679800  0.520100  0.545500  1.0  -1.0467
  O  O101  1  0.957500  0.378100  0.554100  1.0  -0.9486
  O  O102  1  0.122600  0.549600  0.590700  1.0  -0.9023
  O  O103  1  0.302700  0.251200  0.934200  1.0  -0.7452
  O  O104  1  0.495100  0.179000  0.859400  1.0  -0.6553
