# generated using pymatgen
data_EuPH11C7NO5
_symmetry_space_group_name_H-M   'P 1'
_cell_length_a   5.53130000
_cell_length_b   13.39600000
_cell_length_c   20.93400000
_cell_angle_alpha   90.00000000
_cell_angle_beta   96.17700000
_cell_angle_gamma   90.00000000
_symmetry_Int_Tables_number   1
_chemical_formula_structural   EuPH11C7NO5
_chemical_formula_sum   'Eu4 P4 H44 C28 N4 O20'
_cell_volume   1542.14714490
_cell_formula_units_Z   4
loop_
 _symmetry_equiv_pos_site_id
 _symmetry_equiv_pos_as_xyz
  1  'x, y, z'
loop_
 _atom_site_type_symbol
 _atom_site_label
 _atom_site_symmetry_multiplicity
 _atom_site_fract_x
 _atom_site_fract_y
 _atom_site_fract_z
 _atom_site_occupancy
 _atom_site_charge
  Eu  Eu1  1  0.626770  0.132150  0.972370  1.0  2.185
  Eu  Eu2  1  0.373230  0.632150  0.527630  1.0  2.1842
  Eu  Eu3  1  0.373230  0.867850  0.027630  1.0  2.1818
  Eu  Eu4  1  0.626770  0.367850  0.472370  1.0  2.1847
  P  P5  1  0.913100  0.022300  0.086590  1.0  1.6142
  P  P6  1  0.086900  0.522300  0.413410  1.0  1.6141
  P  P7  1  0.086900  0.977700  0.913410  1.0  1.614
  P  P8  1  0.913100  0.477700  0.586590  1.0  1.6146
  H  H9  1  0.771800  0.971500  0.181600  1.0  0.159
  H  H10  1  0.674100  0.078400  0.163500  1.0  0.1258
  H  H11  1  0.762100  0.098700  0.281600  1.0  0.0423
  H  H12  1  0.896100  0.995300  0.287800  1.0  0.0735
  H  H13  1  0.037000  0.097500  0.372200  1.0  0.0739
  H  H14  1  0.248500  0.071600  0.330800  1.0  0.0742
  H  H15  1  0.987700  0.252400  0.324400  1.0  0.1015
  H  H16  1  0.369300  0.205100  0.250200  1.0  0.0697
  H  H17  1  0.221600  0.305400  0.245700  1.0  0.0768
  H  H18  1  0.073100  0.198200  0.161800  1.0  0.0884
  H  H19  1  0.868300  0.220200  0.206300  1.0  0.0605
  H  H20  1  0.228200  0.471500  0.318400  1.0  0.1586
  H  H21  1  0.325900  0.578400  0.336500  1.0  0.1247
  H  H22  1  0.237900  0.598700  0.218400  1.0  0.0408
  H  H23  1  0.103900  0.495300  0.212200  1.0  0.0726
  H  H24  1  0.963000  0.597500  0.127800  1.0  0.0735
  H  H25  1  0.751500  0.571600  0.169200  1.0  0.0767
  H  H26  1  0.012300  0.752400  0.175600  1.0  0.1019
  H  H27  1  0.630700  0.705100  0.249800  1.0  0.0693
  H  H28  1  0.778400  0.805400  0.254300  1.0  0.076
  H  H29  1  0.926900  0.698200  0.338200  1.0  0.0883
  H  H30  1  0.131700  0.720200  0.293700  1.0  0.0588
  H  H31  1  0.228200  0.028500  0.818400  1.0  0.1591
  H  H32  1  0.325900  0.921600  0.836500  1.0  0.1245
  H  H33  1  0.237900  0.901300  0.718400  1.0  0.0411
  H  H34  1  0.103900  0.004700  0.712200  1.0  0.0742
  H  H35  1  0.963000  0.902500  0.627800  1.0  0.0745
  H  H36  1  0.751500  0.928400  0.669200  1.0  0.0756
  H  H37  1  0.012300  0.747600  0.675600  1.0  0.1016
  H  H38  1  0.630700  0.794900  0.749800  1.0  0.0698
  H  H39  1  0.778400  0.694600  0.754300  1.0  0.076
  H  H40  1  0.926900  0.801800  0.838200  1.0  0.0888
  H  H41  1  0.131700  0.779800  0.793700  1.0  0.0595
  H  H42  1  0.771800  0.528500  0.681600  1.0  0.1588
  H  H43  1  0.674100  0.421600  0.663500  1.0  0.1254
  H  H44  1  0.762100  0.401300  0.781600  1.0  0.0424
  H  H45  1  0.896100  0.504700  0.787800  1.0  0.0743
  H  H46  1  0.037000  0.402500  0.872200  1.0  0.0738
  H  H47  1  0.248500  0.428400  0.830800  1.0  0.0734
  H  H48  1  0.987700  0.247600  0.824400  1.0  0.1016
  H  H49  1  0.369300  0.294900  0.750200  1.0  0.07
  H  H50  1  0.221600  0.194600  0.745700  1.0  0.0751
  H  H51  1  0.073100  0.301800  0.661800  1.0  0.0881
  H  H52  1  0.868300  0.279800  0.706300  1.0  0.0598
  C  C53  1  0.818000  0.036600  0.166700  1.0  -0.4088
  C  C54  1  0.918000  0.066000  0.280000  1.0  0.0175
  C  C55  1  0.096000  0.107600  0.330700  1.0  -0.1248
  C  C56  1  0.143000  0.217900  0.321700  1.0  -0.1626
  C  C57  1  0.211000  0.234400  0.253900  1.0  -0.1475
  C  C58  1  0.024000  0.187700  0.204400  1.0  0.0253
  C  C59  1  0.326000  0.263000  0.373400  1.0  0.7044
  C  C60  1  0.182000  0.536600  0.333333  1.0  -0.4078
  C  C61  1  0.082000  0.566000  0.220000  1.0  0.0172
  C  C62  1  0.904000  0.607600  0.169300  1.0  -0.1255
  C  C63  1  0.857000  0.717900  0.178300  1.0  -0.1626
  C  C64  1  0.789000  0.734400  0.246100  1.0  -0.1476
  C  C65  1  0.976000  0.687700  0.295600  1.0  0.0257
  C  C66  1  0.674000  0.763000  0.126600  1.0  0.7024
  C  C67  1  0.182000  0.963400  0.833300  1.0  -0.4068
  C  C68  1  0.082000  0.934000  0.720000  1.0  0.0171
  C  C69  1  0.904000  0.892400  0.669300  1.0  -0.1249
  C  C70  1  0.857000  0.782100  0.678300  1.0  -0.162
  C  C71  1  0.789000  0.765600  0.746100  1.0  -0.1474
  C  C72  1  0.976000  0.812300  0.795600  1.0  0.026
  C  C73  1  0.674000  0.737000  0.626600  1.0  0.7027
  C  C74  1  0.818000  0.463400  0.666667  1.0  -0.4072
  C  C75  1  0.918000  0.434000  0.780000  1.0  0.0162
  C  C76  1  0.096000  0.392400  0.830700  1.0  -0.1252
  C  C77  1  0.143000  0.282100  0.821700  1.0  -0.1611
  C  C78  1  0.211000  0.265600  0.753900  1.0  -0.1478
  C  C79  1  0.024000  0.312300  0.704400  1.0  0.0253
  C  C80  1  0.326000  0.237000  0.873400  1.0  0.7036
  N  N81  1  0.998000  0.079700  0.215700  1.0  -0.2732
  N  N82  1  0.002000  0.579700  0.284300  1.0  -0.2724
  N  N83  1  0.002000  0.920300  0.784300  1.0  -0.2738
  N  N84  1  0.998000  0.420300  0.715700  1.0  -0.2693
  O  O85  1  0.683500  0.982300  0.045500  1.0  -1.0968
  O  O86  1  0.961300  0.122000  0.057200  1.0  -0.967
  O  O87  1  0.126700  0.953100  0.090000  1.0  -0.9269
  O  O88  1  0.296500  0.246400  0.432400  1.0  -0.7432
  O  O89  1  0.497300  0.316500  0.359800  1.0  -0.6363
  O  O90  1  0.316500  0.482300  0.454500  1.0  -1.0988
  O  O91  1  0.038700  0.622000  0.442800  1.0  -0.9664
  O  O92  1  0.873300  0.453100  0.410000  1.0  -0.9263
  O  O93  1  0.703500  0.746400  0.067600  1.0  -0.7442
  O  O94  1  0.502700  0.816500  0.140200  1.0  -0.6381
  O  O95  1  0.316500  0.017700  0.954500  1.0  -1.0992
  O  O96  1  0.038700  0.878000  0.942800  1.0  -0.9663
  O  O97  1  0.873300  0.046900  0.910000  1.0  -0.9262
  O  O98  1  0.703500  0.753600  0.567600  1.0  -0.7459
  O  O99  1  0.502700  0.683500  0.640200  1.0  -0.6388
  O  O100  1  0.683500  0.517700  0.545500  1.0  -1.097
  O  O101  1  0.961300  0.378000  0.557200  1.0  -0.9666
  O  O102  1  0.126700  0.546900  0.590000  1.0  -0.9267
  O  O103  1  0.296500  0.253600  0.932400  1.0  -0.7437
  O  O104  1  0.497300  0.183500  0.859800  1.0  -0.6376
