# generated using pymatgen
data_Zn2H22C33N6O7
_symmetry_space_group_name_H-M   'P 1'
_cell_length_a   6.18020000
_cell_length_b   23.31270000
_cell_length_c   29.42180000
_cell_angle_alpha   90.00000000
_cell_angle_beta   90.00000000
_cell_angle_gamma   95.66300000
_symmetry_Int_Tables_number   1
_chemical_formula_structural   Zn2H22C33N6O7
_chemical_formula_sum   'Zn8 H88 C132 N24 O28'
_cell_volume   4218.32056683
_cell_formula_units_Z   4
loop_
 _symmetry_equiv_pos_site_id
 _symmetry_equiv_pos_as_xyz
  1  'x, y, z'
loop_
 _atom_site_type_symbol
 _atom_site_label
 _atom_site_symmetry_multiplicity
 _atom_site_fract_x
 _atom_site_fract_y
 _atom_site_fract_z
 _atom_site_occupancy
 _atom_site_charge
  Zn  Zn1  1  0.524530  0.730770  0.923750  1.0  0.8707
  Zn  Zn2  1  0.479720  0.752740  0.539100  1.0  0.9719
  Zn  Zn3  1  0.475470  0.769230  0.423750  1.0  0.8712
  Zn  Zn4  1  0.520280  0.747260  0.039100  1.0  0.972
  Zn  Zn5  1  0.475470  0.269230  0.076250  1.0  0.8721
  Zn  Zn6  1  0.520280  0.247260  0.460900  1.0  0.9707
  Zn  Zn7  1  0.524530  0.230770  0.576250  1.0  0.8713
  Zn  Zn8  1  0.479720  0.252740  0.960900  1.0  0.9708
  H  H9  1  0.470400  0.710100  0.753300  1.0  0.0775
  H  H10  1  0.808000  0.782700  0.760000  1.0  0.1228
  H  H11  1  0.996500  0.770200  0.827400  1.0  0.1016
  H  H12  1  0.122200  0.714100  0.635300  1.0  0.1153
  H  H13  1  0.918400  0.715000  0.569400  1.0  0.0869
  H  H14  1  0.499400  0.807100  0.629200  1.0  0.0813
  H  H15  1  0.680400  0.805900  0.697400  1.0  0.1214
  H  H16  1  0.776700  0.371800  0.977100  1.0  0.0685
  H  H17  1  0.214900  0.511200  0.901600  1.0  0.1283
  H  H18  1  0.346000  0.422800  0.917100  1.0  0.1093
  H  H19  1  0.559900  0.528600  0.964900  1.0  0.1028
  H  H20  1  0.426900  0.616500  0.960300  1.0  0.0788
  H  H21  1  0.928800  0.678400  0.888100  1.0  0.0757
  H  H22  1  0.083100  0.592200  0.892800  1.0  0.1297
  H  H23  1  0.983800  0.102200  0.939200  1.0  0.0769
  H  H24  1  0.372100  0.945300  0.947500  1.0  0.1145
  H  H25  1  0.547500  0.036600  0.958000  1.0  0.094
  H  H26  1  0.703900  0.938100  0.895100  1.0  0.1312
  H  H27  1  0.518100  0.848000  0.890700  1.0  0.0768
  H  H28  1  0.971200  0.779600  0.959300  1.0  0.079
  H  H29  1  0.169800  0.867500  0.966000  1.0  0.1197
  H  H30  1  0.277000  0.716000  0.978000  1.0  0.4398
  H  H31  1  0.529600  0.789900  0.253300  1.0  0.0792
  H  H32  1  0.192000  0.717300  0.260000  1.0  0.1229
  H  H33  1  0.003500  0.729800  0.327400  1.0  0.1021
  H  H34  1  0.877800  0.785900  0.135300  1.0  0.1153
  H  H35  1  0.081600  0.785000  0.069400  1.0  0.0866
  H  H36  1  0.500600  0.692900  0.129200  1.0  0.0818
  H  H37  1  0.319600  0.694100  0.197400  1.0  0.1217
  H  H38  1  0.223300  0.128200  0.477100  1.0  0.0687
  H  H39  1  0.785100  0.988800  0.401600  1.0  0.1277
  H  H40  1  0.654000  0.077200  0.417100  1.0  0.1082
  H  H41  1  0.440100  0.971400  0.464900  1.0  0.1024
  H  H42  1  0.573100  0.883500  0.460300  1.0  0.0792
  H  H43  1  0.071200  0.821600  0.388100  1.0  0.0761
  H  H44  1  0.916900  0.907800  0.392800  1.0  0.1301
  H  H45  1  0.016200  0.397800  0.439200  1.0  0.0768
  H  H46  1  0.627900  0.554700  0.447500  1.0  0.1146
  H  H47  1  0.452500  0.463400  0.458000  1.0  0.0934
  H  H48  1  0.296100  0.561900  0.395100  1.0  0.1306
  H  H49  1  0.481900  0.652000  0.390700  1.0  0.0764
  H  H50  1  0.028800  0.720400  0.459300  1.0  0.0791
  H  H51  1  0.830200  0.632500  0.466000  1.0  0.1195
  H  H52  1  0.723000  0.784000  0.478000  1.0  0.44
  H  H53  1  0.529600  0.289900  0.246700  1.0  0.0793
  H  H54  1  0.192000  0.217300  0.240000  1.0  0.1229
  H  H55  1  0.003500  0.229800  0.172600  1.0  0.1018
  H  H56  1  0.877800  0.285900  0.364700  1.0  0.1152
  H  H57  1  0.081600  0.285000  0.430600  1.0  0.0869
  H  H58  1  0.500600  0.192900  0.370800  1.0  0.082
  H  H59  1  0.319600  0.194100  0.302600  1.0  0.1211
  H  H60  1  0.223300  0.628200  0.022900  1.0  0.0694
  H  H61  1  0.785100  0.488800  0.098400  1.0  0.1273
  H  H62  1  0.654000  0.577200  0.082900  1.0  0.108
  H  H63  1  0.440100  0.471400  0.035100  1.0  0.1024
  H  H64  1  0.573100  0.383500  0.039700  1.0  0.079
  H  H65  1  0.071200  0.321600  0.111900  1.0  0.0764
  H  H66  1  0.916900  0.407800  0.107200  1.0  0.1292
  H  H67  1  0.016200  0.897800  0.060800  1.0  0.077
  H  H68  1  0.627900  0.054700  0.052500  1.0  0.1148
  H  H69  1  0.452500  0.963400  0.042000  1.0  0.0953
  H  H70  1  0.296100  0.061900  0.104900  1.0  0.1306
  H  H71  1  0.481900  0.152000  0.109300  1.0  0.0773
  H  H72  1  0.028800  0.220400  0.040700  1.0  0.079
  H  H73  1  0.830200  0.132500  0.034000  1.0  0.1195
  H  H74  1  0.723000  0.284000  0.022000  1.0  0.4401
  H  H75  1  0.470400  0.210100  0.746700  1.0  0.0776
  H  H76  1  0.808000  0.282700  0.740000  1.0  0.1231
  H  H77  1  0.996500  0.270200  0.672600  1.0  0.1019
  H  H78  1  0.122200  0.214100  0.864700  1.0  0.1153
  H  H79  1  0.918400  0.215000  0.930600  1.0  0.0873
  H  H80  1  0.499400  0.307100  0.870800  1.0  0.0816
  H  H81  1  0.680400  0.305900  0.802600  1.0  0.1211
  H  H82  1  0.776700  0.871800  0.522900  1.0  0.0691
  H  H83  1  0.214900  0.011200  0.598400  1.0  0.1274
  H  H84  1  0.346000  0.922800  0.582900  1.0  0.1092
  H  H85  1  0.559900  0.028600  0.535100  1.0  0.1026
  H  H86  1  0.426900  0.116500  0.539700  1.0  0.0788
  H  H87  1  0.928800  0.178400  0.611900  1.0  0.0761
  H  H88  1  0.083100  0.092200  0.607200  1.0  0.1295
  H  H89  1  0.983800  0.602200  0.560800  1.0  0.0768
  H  H90  1  0.372100  0.445300  0.552500  1.0  0.1145
  H  H91  1  0.547500  0.536600  0.542000  1.0  0.0956
  H  H92  1  0.703900  0.438100  0.604900  1.0  0.1308
  H  H93  1  0.518100  0.348000  0.609300  1.0  0.0765
  H  H94  1  0.971200  0.279600  0.540700  1.0  0.0787
  H  H95  1  0.169800  0.367500  0.534000  1.0  0.1195
  H  H96  1  0.277000  0.216000  0.522000  1.0  0.44
  C  C97  1  0.393600  0.734600  0.838900  1.0  0.6627
  C  C98  1  0.257400  0.740000  0.797600  1.0  -0.2084
  C  C99  1  0.332900  0.725000  0.754900  1.0  0.2089
  C  C100  1  0.034100  0.752100  0.719300  1.0  0.2375
  C  C101  1  0.945100  0.767500  0.759500  1.0  -0.1732
  C  C102  1  0.057300  0.760700  0.799100  1.0  0.0342
  C  C103  1  0.920100  0.757200  0.675200  1.0  0.0538
  C  C104  1  0.990800  0.732000  0.635200  1.0  -0.151
  C  C105  1  0.869900  0.733300  0.595850  1.0  0.1747
  C  C106  1  0.624500  0.786600  0.631000  1.0  0.1671
  C  C107  1  0.732100  0.786500  0.671800  1.0  -0.2079
  C  C108  1  0.156300  0.331900  0.963500  1.0  0.6538
  C  C109  1  0.076900  0.388700  0.950710  1.0  -0.2141
  C  C110  1  0.870500  0.401300  0.963000  1.0  0.1965
  C  C111  1  0.926900  0.493000  0.934700  1.0  0.2284
  C  C112  1  0.129500  0.482600  0.918500  1.0  -0.172
  C  C113  1  0.205500  0.430300  0.927200  1.0  0.0365
  C  C114  1  0.839000  0.550000  0.929900  1.0  0.0633
  C  C115  1  0.641200  0.559200  0.949200  1.0  -0.1651
  C  C116  1  0.561400  0.611400  0.946000  1.0  0.1578
  C  C117  1  0.853700  0.647400  0.904400  1.0  0.186
  C  C118  1  0.946700  0.595900  0.906800  1.0  -0.2023
  C  C119  1  0.399200  0.138600  0.957800  1.0  0.6577
  C  C120  1  0.282000  0.079500  0.950700  1.0  -0.1998
  C  C121  1  0.065700  0.069900  0.941000  1.0  0.2019
  C  C122  1  0.077200  0.971500  0.938000  1.0  0.2344
  C  C123  1  0.292300  0.978000  0.946100  1.0  -0.1835
  C  C124  1  0.395400  0.032000  0.952400  1.0  0.0451
  C  C125  1  0.959000  0.913300  0.932400  1.0  0.0735
  C  C126  1  0.761700  0.906100  0.909000  1.0  -0.1842
  C  C127  1  0.653200  0.852200  0.906300  1.0  0.1576
  C  C128  1  0.916000  0.812400  0.946200  1.0  0.1821
  C  C129  1  0.034500  0.864700  0.950400  1.0  -0.1849
  C  C130  1  0.606400  0.765400  0.338900  1.0  0.6621
  C  C131  1  0.742600  0.760000  0.297600  1.0  -0.21
  C  C132  1  0.667100  0.775000  0.254900  1.0  0.2096
  C  C133  1  0.965900  0.747900  0.219300  1.0  0.2375
  C  C134  1  0.054900  0.732500  0.259500  1.0  -0.1745
  C  C135  1  0.942700  0.739300  0.299100  1.0  0.0348
  C  C136  1  0.079900  0.742800  0.175200  1.0  0.0534
  C  C137  1  0.009200  0.768000  0.135200  1.0  -0.1521
  C  C138  1  0.130100  0.766700  0.095850  1.0  0.1753
  C  C139  1  0.375500  0.713400  0.131000  1.0  0.1668
  C  C140  1  0.267900  0.713500  0.171800  1.0  -0.2078
  C  C141  1  0.843700  0.168100  0.463500  1.0  0.6532
  C  C142  1  0.923100  0.111300  0.450710  1.0  -0.2138
  C  C143  1  0.129500  0.098700  0.463000  1.0  0.1959
  C  C144  1  0.073100  0.007000  0.434700  1.0  0.2279
  C  C145  1  0.870500  0.017400  0.418500  1.0  -0.1751
  C  C146  1  0.794500  0.069700  0.427200  1.0  0.0387
  C  C147  1  0.161000  0.950000  0.429900  1.0  0.0647
  C  C148  1  0.358800  0.940800  0.449200  1.0  -0.1649
  C  C149  1  0.438600  0.888600  0.446000  1.0  0.1563
  C  C150  1  0.146300  0.852600  0.404400  1.0  0.1855
  C  C151  1  0.053300  0.904100  0.406800  1.0  -0.2017
  C  C152  1  0.600800  0.361400  0.457800  1.0  0.6588
  C  C153  1  0.718000  0.420500  0.450700  1.0  -0.2026
  C  C154  1  0.934300  0.430100  0.441000  1.0  0.2021
  C  C155  1  0.922800  0.528500  0.438000  1.0  0.2345
  C  C156  1  0.707700  0.522000  0.446100  1.0  -0.1817
  C  C157  1  0.604600  0.468000  0.452400  1.0  0.0447
  C  C158  1  0.041000  0.586700  0.432400  1.0  0.0732
  C  C159  1  0.238300  0.593900  0.409000  1.0  -0.1856
  C  C160  1  0.346800  0.647800  0.406300  1.0  0.1569
  C  C161  1  0.084000  0.687600  0.446200  1.0  0.1826
  C  C162  1  0.965500  0.635300  0.450400  1.0  -0.185
  C  C163  1  0.606400  0.265400  0.161100  1.0  0.6625
  C  C164  1  0.742600  0.260000  0.202400  1.0  -0.2119
  C  C165  1  0.667100  0.275000  0.245100  1.0  0.2099
  C  C166  1  0.965900  0.247900  0.280700  1.0  0.2376
  C  C167  1  0.054900  0.232500  0.240500  1.0  -0.1747
  C  C168  1  0.942700  0.239300  0.200900  1.0  0.0327
  C  C169  1  0.079900  0.242800  0.324800  1.0  0.0525
  C  C170  1  0.009200  0.268000  0.364800  1.0  -0.1525
  C  C171  1  0.130100  0.266700  0.404150  1.0  0.1751
  C  C172  1  0.375500  0.213400  0.369000  1.0  0.167
  C  C173  1  0.267900  0.213500  0.328200  1.0  -0.2086
  C  C174  1  0.843700  0.668100  0.036500  1.0  0.6525
  C  C175  1  0.923100  0.611300  0.049290  1.0  -0.2137
  C  C176  1  0.129500  0.598700  0.037000  1.0  0.1964
  C  C177  1  0.073100  0.507000  0.065300  1.0  0.2318
  C  C178  1  0.870500  0.517400  0.081500  1.0  -0.1815
  C  C179  1  0.794500  0.569700  0.072800  1.0  0.0352
  C  C180  1  0.161000  0.450000  0.070100  1.0  0.0651
  C  C181  1  0.358800  0.440800  0.050800  1.0  -0.1643
  C  C182  1  0.438600  0.388600  0.054000  1.0  0.1567
  C  C183  1  0.146300  0.352600  0.095600  1.0  0.1863
  C  C184  1  0.053300  0.404100  0.093200  1.0  -0.203
  C  C185  1  0.600800  0.861400  0.042200  1.0  0.6587
  C  C186  1  0.718000  0.920500  0.049300  1.0  -0.1889
  C  C187  1  0.934300  0.930100  0.059000  1.0  0.2039
  C  C188  1  0.922800  0.028500  0.062000  1.0  0.2336
  C  C189  1  0.707700  0.022000  0.053900  1.0  -0.1801
  C  C190  1  0.604600  0.968000  0.047600  1.0  0.0424
  C  C191  1  0.041000  0.086700  0.067600  1.0  0.0776
  C  C192  1  0.238300  0.093900  0.091000  1.0  -0.1853
  C  C193  1  0.346800  0.147800  0.093700  1.0  0.1573
  C  C194  1  0.084000  0.187600  0.053800  1.0  0.1831
  C  C195  1  0.965500  0.135300  0.049600  1.0  -0.1845
  C  C196  1  0.393600  0.234600  0.661100  1.0  0.6629
  C  C197  1  0.257400  0.240000  0.702400  1.0  -0.2109
  C  C198  1  0.332900  0.225000  0.745100  1.0  0.2101
  C  C199  1  0.034100  0.252100  0.780700  1.0  0.2372
  C  C200  1  0.945100  0.267500  0.740500  1.0  -0.1733
  C  C201  1  0.057300  0.260700  0.700900  1.0  0.0323
  C  C202  1  0.920100  0.257200  0.824800  1.0  0.0533
  C  C203  1  0.990800  0.232000  0.864800  1.0  -0.1517
  C  C204  1  0.869900  0.233300  0.904150  1.0  0.175
  C  C205  1  0.624500  0.286600  0.869000  1.0  0.1675
  C  C206  1  0.732100  0.286500  0.828200  1.0  -0.2083
  C  C207  1  0.156300  0.831900  0.536500  1.0  0.6531
  C  C208  1  0.076900  0.888700  0.549290  1.0  -0.2129
  C  C209  1  0.870500  0.901300  0.537000  1.0  0.1969
  C  C210  1  0.926900  0.993000  0.565300  1.0  0.2312
  C  C211  1  0.129500  0.982600  0.581500  1.0  -0.1774
  C  C212  1  0.205500  0.930300  0.572800  1.0  0.0357
  C  C213  1  0.839000  0.050000  0.570100  1.0  0.0659
  C  C214  1  0.641200  0.059200  0.550800  1.0  -0.1647
  C  C215  1  0.561400  0.111400  0.554000  1.0  0.1578
  C  C216  1  0.853700  0.147400  0.595600  1.0  0.1863
  C  C217  1  0.946700  0.095900  0.593200  1.0  -0.2026
  C  C218  1  0.399200  0.638600  0.542200  1.0  0.6576
  C  C219  1  0.282000  0.579500  0.549300  1.0  -0.1882
  C  C220  1  0.065700  0.569900  0.559000  1.0  0.2031
  C  C221  1  0.077200  0.471500  0.562000  1.0  0.2341
  C  C222  1  0.292300  0.478000  0.553900  1.0  -0.1815
  C  C223  1  0.395400  0.532000  0.547600  1.0  0.0435
  C  C224  1  0.959000  0.413300  0.567600  1.0  0.0761
  C  C225  1  0.761700  0.406100  0.591000  1.0  -0.1859
  C  C226  1  0.653200  0.352200  0.593700  1.0  0.1572
  C  C227  1  0.916000  0.312400  0.553800  1.0  0.1825
  C  C228  1  0.034500  0.364700  0.549600  1.0  -0.1844
  N  N229  1  0.225400  0.730100  0.716900  1.0  -0.4063
  N  N230  1  0.685300  0.759600  0.593680  1.0  -0.3602
  N  N231  1  0.795500  0.452300  0.956060  1.0  -0.3938
  N  N232  1  0.664700  0.655800  0.923580  1.0  -0.331
  N  N233  1  0.962500  0.017600  0.933900  1.0  -0.4109
  N  N234  1  0.725500  0.805200  0.924240  1.0  -0.342
  N  N235  1  0.774600  0.769900  0.216900  1.0  -0.4062
  N  N236  1  0.314700  0.740400  0.093680  1.0  -0.3597
  N  N237  1  0.204500  0.047700  0.456060  1.0  -0.3942
  N  N238  1  0.335300  0.844200  0.423580  1.0  -0.3309
  N  N239  1  0.037500  0.482400  0.433900  1.0  -0.4113
  N  N240  1  0.274500  0.694800  0.424240  1.0  -0.3425
  N  N241  1  0.774600  0.269900  0.283100  1.0  -0.4055
  N  N242  1  0.314700  0.240400  0.406320  1.0  -0.3592
  N  N243  1  0.204500  0.547700  0.043940  1.0  -0.3943
  N  N244  1  0.335300  0.344200  0.076420  1.0  -0.3305
  N  N245  1  0.037500  0.982400  0.066100  1.0  -0.4109
  N  N246  1  0.274500  0.194800  0.075760  1.0  -0.3427
  N  N247  1  0.225400  0.230100  0.783100  1.0  -0.4052
  N  N248  1  0.685300  0.259600  0.906320  1.0  -0.3597
  N  N249  1  0.795500  0.952300  0.543940  1.0  -0.3947
  N  N250  1  0.664700  0.155800  0.576420  1.0  -0.3307
  N  N251  1  0.962500  0.517600  0.566100  1.0  -0.4117
  N  N252  1  0.725500  0.305200  0.575760  1.0  -0.3424
  O  O253  1  0.300600  0.739600  0.877200  1.0  -0.6021
  O  O254  1  0.587700  0.726000  0.834960  1.0  -0.5958
  O  O255  1  0.055000  0.301110  0.992120  1.0  -0.5695
  O  O256  1  0.328400  0.320130  0.943330  1.0  -0.6164
  O  O257  1  0.286400  0.181450  0.951880  1.0  -0.6052
  O  O258  1  0.592800  0.143100  0.968150  1.0  -0.5677
  O  O259  1  0.382900  0.728500  0.982000  1.0  -0.9432
  O  O260  1  0.699400  0.760400  0.377200  1.0  -0.6016
  O  O261  1  0.412300  0.774000  0.334960  1.0  -0.596
  O  O262  1  0.945000  0.198890  0.492120  1.0  -0.5699
  O  O263  1  0.671600  0.179870  0.443330  1.0  -0.6156
  O  O264  1  0.713600  0.318550  0.451880  1.0  -0.6044
  O  O265  1  0.407200  0.356900  0.468150  1.0  -0.5677
  O  O266  1  0.617100  0.771500  0.482000  1.0  -0.9434
  O  O267  1  0.699400  0.260400  0.122800  1.0  -0.6014
  O  O268  1  0.412300  0.274000  0.165040  1.0  -0.5958
  O  O269  1  0.945000  0.698890  0.007880  1.0  -0.5702
  O  O270  1  0.671600  0.679870  0.056670  1.0  -0.6158
  O  O271  1  0.713600  0.818550  0.048120  1.0  -0.6057
  O  O272  1  0.407200  0.856900  0.031850  1.0  -0.5674
  O  O273  1  0.617100  0.271500  0.018000  1.0  -0.9432
  O  O274  1  0.300600  0.239600  0.622800  1.0  -0.6023
  O  O275  1  0.587700  0.226000  0.665040  1.0  -0.5957
  O  O276  1  0.055000  0.801110  0.507880  1.0  -0.5699
  O  O277  1  0.328400  0.820130  0.556670  1.0  -0.6164
  O  O278  1  0.286400  0.681450  0.548120  1.0  -0.6064
  O  O279  1  0.592800  0.643100  0.531850  1.0  -0.5677
  O  O280  1  0.382900  0.228500  0.518000  1.0  -0.9429
