# generated using pymatgen
data_In8H255C256(NO4)16
_symmetry_space_group_name_H-M   'P 1'
_cell_length_a   28.26700000
_cell_length_b   23.52500000
_cell_length_c   22.97530000
_cell_angle_alpha   74.86350000
_cell_angle_beta   53.45310000
_cell_angle_gamma   51.68350000
_symmetry_Int_Tables_number   1
_chemical_formula_structural   In8H255C256(NO4)16
_chemical_formula_sum   'In8 H255 C256 N16 O64'
_cell_volume   9487.52196514
_cell_formula_units_Z   1
loop_
 _symmetry_equiv_pos_site_id
 _symmetry_equiv_pos_as_xyz
  1  'x, y, z'
loop_
 _atom_site_type_symbol
 _atom_site_label
 _atom_site_symmetry_multiplicity
 _atom_site_fract_x
 _atom_site_fract_y
 _atom_site_fract_z
 _atom_site_occupancy
 _atom_site_charge
  In  In1  1  0.489700  0.757220  0.495210  1.0  1.5326
  In  In2  1  0.753770  0.492640  0.760500  1.0  1.5167
  In  In3  1  0.504030  0.242230  0.510700  1.0  1.5524
  In  In4  1  0.239650  0.507530  0.245330  1.0  1.5411
  In  In5  1  0.628740  0.632450  0.123840  1.0  1.5046
  In  In6  1  0.115800  0.121120  0.631320  1.0  1.5228
  In  In7  1  0.365770  0.371400  0.881220  1.0  1.5043
  In  In8  1  0.879200  0.881530  0.374120  1.0  1.5141
  H  H9  1  0.306750  0.776720  0.508390  1.0  0.1121
  H  H10  1  0.265270  0.738160  0.469670  1.0  0.1056
  H  H11  1  0.491500  0.562050  0.309950  1.0  0.1101
  H  H12  1  0.531640  0.603410  0.347790  1.0  0.1048
  H  H13  1  0.445570  0.575170  0.249480  1.0  0.1173
  H  H14  1  0.408580  0.530120  0.211130  1.0  0.1174
  H  H15  1  0.201800  0.625230  0.423430  1.0  0.108
  H  H16  1  0.241580  0.663830  0.464810  1.0  0.1089
  H  H17  1  0.776580  0.371350  0.074460  1.0  0.107
  H  H18  1  0.815300  0.251350  0.112530  1.0  0.1116
  H  H19  1  0.667510  0.356830  0.339200  1.0  0.1229
  H  H20  1  0.626240  0.475620  0.300300  1.0  0.1125
  H  H21  1  0.873680  0.149340  0.149290  1.0  0.1156
  H  H22  1  0.911180  0.030440  0.189870  1.0  0.1164
  H  H23  1  0.716880  0.137510  0.408740  1.0  0.1108
  H  H24  1  0.675110  0.256810  0.369100  1.0  0.1236
  H  H25  1  0.744840  0.314860  0.911720  1.0  0.1062
  H  H26  1  0.705050  0.273670  0.030210  1.0  0.1166
  H  H27  1  0.594830  0.486740  0.135980  1.0  0.1206
  H  H28  1  0.632580  0.527090  0.017280  1.0  0.109
  H  H29  1  0.533530  0.458450  0.237260  1.0  0.1101
  H  H30  1  0.492810  0.419610  0.355830  1.0  0.1159
  H  H31  1  0.662150  0.193450  0.249010  1.0  0.0996
  H  H32  1  0.704110  0.232120  0.129240  1.0  0.109
  H  H33  1  0.368030  0.776070  0.290770  1.0  0.1085
  H  H34  1  0.248280  0.813520  0.334050  1.0  0.1118
  H  H35  1  0.351910  0.681900  0.138550  1.0  0.1117
  H  H36  1  0.471260  0.640320  0.099780  1.0  0.1047
  H  H37  1  0.145580  0.876200  0.339110  1.0  0.1151
  H  H38  1  0.027100  0.911970  0.380480  1.0  0.1159
  H  H39  1  0.136340  0.720240  0.243390  1.0  0.1032
  H  H40  1  0.255440  0.680270  0.204660  1.0  0.1093
  H  H41  1  0.493610  0.908360  0.312730  1.0  0.1117
  H  H42  1  0.454640  0.027340  0.271550  1.0  0.114
  H  H43  1  0.312040  0.134480  0.496040  1.0  0.111
  H  H44  1  0.348680  0.015800  0.536420  1.0  0.1124
  H  H45  1  0.248520  0.231490  0.456430  1.0  0.1102
  H  H46  1  0.210250  0.351530  0.418710  1.0  0.127
  H  H47  1  0.412260  0.247310  0.202600  1.0  0.1062
  H  H48  1  0.453670  0.127450  0.242060  1.0  0.1155
  H  H49  1  0.066190  0.287590  0.775020  1.0  0.1092
  H  H50  1  0.104440  0.330860  0.813260  1.0  0.1184
  H  H51  1  0.328760  0.136670  0.679550  1.0  0.1228
  H  H52  1  0.290150  0.098160  0.637660  1.0  0.1129
  H  H53  1  0.138710  0.340310  0.873100  1.0  0.1191
  H  H54  1  0.179890  0.381260  0.909460  1.0  0.1134
  H  H55  1  0.401530  0.236220  0.723850  1.0  0.1073
  H  H56  1  0.361650  0.198240  0.682590  1.0  0.1243
  H  H57  1  0.905630  0.494670  0.788020  1.0  0.109
  H  H58  1  0.024580  0.456190  0.748640  1.0  0.1129
  H  H59  1  0.131220  0.315750  0.558190  1.0  0.1138
  H  H60  1  0.012500  0.352000  0.600360  1.0  0.1064
  H  H61  1  0.228770  0.251870  0.563350  1.0  0.1144
  H  H62  1  0.348790  0.213440  0.519610  1.0  0.1156
  H  H63  1  0.244200  0.413990  0.640670  1.0  0.1034
  H  H64  1  0.124410  0.455590  0.679400  1.0  0.1152
  H  H65  1  0.283430  0.072740  0.371130  1.0  0.1091
  H  H66  1  0.326550  0.111200  0.251430  1.0  0.1184
  H  H67  1  0.131630  0.335160  0.354990  1.0  0.1263
  H  H68  1  0.092960  0.296400  0.474040  1.0  0.1122
  H  H69  1  0.333870  0.145390  0.148340  1.0  0.1157
  H  H70  1  0.374520  0.186330  0.029610  1.0  0.1137
  H  H71  1  0.231820  0.407880  0.138060  1.0  0.1145
  H  H72  1  0.194210  0.367890  0.257370  1.0  0.126
  H  H73  1  0.685290  0.215770  0.508020  1.0  0.1128
  H  H74  1  0.726250  0.255580  0.546300  1.0  0.1158
  H  H75  1  0.502180  0.446780  0.685290  1.0  0.1089
  H  H76  1  0.461940  0.404370  0.649190  1.0  0.1097
  H  H77  1  0.540790  0.441320  0.749840  1.0  0.114
  H  H78  1  0.578700  0.485040  0.788210  1.0  0.1281
  H  H79  1  0.795480  0.364670  0.587220  1.0  0.103
  H  H80  1  0.756030  0.325640  0.545870  1.0  0.1135
  H  H81  1  0.224500  0.631300  0.930410  1.0  0.1122
  H  H82  1  0.186280  0.751450  0.892010  1.0  0.1117
  H  H83  1  0.317650  0.648550  0.668300  1.0  0.1096
  H  H84  1  0.359220  0.529260  0.706800  1.0  0.1128
  H  H85  1  0.122620  0.854230  0.857630  1.0  0.1131
  H  H86  1  0.085370  0.973110  0.816610  1.0  0.1188
  H  H87  1  0.276630  0.864820  0.596580  1.0  0.1068
  H  H88  1  0.317940  0.745510  0.636690  1.0  0.108
  H  H89  1  0.218500  0.690650  0.094920  1.0  0.1084
  H  H90  1  0.256860  0.731870  0.976220  1.0  0.1126
  H  H91  1  0.436710  0.505640  0.867700  1.0  0.11
  H  H92  1  0.394980  0.465680  0.986430  1.0  0.1111
  H  H93  1  0.431200  0.547400  0.771640  1.0  0.1123
  H  H94  1  0.475230  0.584810  0.651530  1.0  0.1193
  H  H95  1  0.364460  0.798310  0.754290  1.0  0.1122
  H  H96  1  0.325920  0.758960  0.874060  1.0  0.1138
  H  H97  1  0.626100  0.228300  0.713700  1.0  0.1124
  H  H98  1  0.746500  0.188900  0.670240  1.0  0.1183
  H  H99  1  0.643970  0.323150  0.863260  1.0  0.1155
  H  H100  1  0.524290  0.365580  0.902640  1.0  0.1141
  H  H101  1  0.849370  0.125140  0.666450  1.0  0.1174
  H  H102  1  0.968390  0.087990  0.625720  1.0  0.1171
  H  H103  1  0.860210  0.282980  0.757140  1.0  0.1042
  H  H104  1  0.740990  0.323610  0.795560  1.0  0.1122
  H  H105  1  0.490960  0.092230  0.694130  1.0  0.1087
  H  H106  1  0.529970  0.973530  0.735330  1.0  0.1112
  H  H107  1  0.688190  0.864730  0.508900  1.0  0.1093
  H  H108  1  0.650820  0.983580  0.469060  1.0  0.1128
  H  H109  1  0.746980  0.768930  0.551400  1.0  0.112
  H  H110  1  0.785580  0.649090  0.589220  1.0  0.1242
  H  H111  1  0.578370  0.751670  0.801340  1.0  0.1084
  H  H112  1  0.536730  0.871260  0.761700  1.0  0.1113
  H  H113  1  0.927700  0.714930  0.231920  1.0  0.1084
  H  H114  1  0.889340  0.671950  0.193700  1.0  0.1181
  H  H115  1  0.664880  0.865650  0.328610  1.0  0.1136
  H  H116  1  0.703680  0.903710  0.370490  1.0  0.1114
  H  H117  1  0.855290  0.661320  0.134970  1.0  0.1107
  H  H118  1  0.814260  0.620700  0.098180  1.0  0.1139
  H  H119  1  0.591720  0.769070  0.280940  1.0  0.1095
  H  H120  1  0.631380  0.806350  0.323220  1.0  0.1222
  H  H121  1  0.087890  0.505830  0.217270  1.0  0.1124
  H  H122  1  0.968910  0.544730  0.256400  1.0  0.1118
  H  H123  1  0.862470  0.684090  0.447600  1.0  0.1087
  H  H124  1  0.981170  0.647670  0.405540  1.0  0.1099
  H  H125  1  0.764130  0.747420  0.444590  1.0  0.1052
  H  H126  1  0.644460  0.785640  0.487610  1.0  0.1262
  H  H127  1  0.749910  0.586810  0.363000  1.0  0.1033
  H  H128  1  0.869520  0.545500  0.324330  1.0  0.1116
  H  H129  1  0.710660  0.930330  0.634240  1.0  0.1188
  H  H130  1  0.667260  0.891330  0.753850  1.0  0.1141
  H  H131  1  0.862080  0.667480  0.650020  1.0  0.1149
  H  H132  1  0.901200  0.706650  0.530990  1.0  0.1101
  H  H133  1  0.664070  0.856210  0.855740  1.0  0.1165
  H  H134  1  0.623820  0.815270  0.974450  1.0  0.1111
  H  H135  1  0.759190  0.595380  0.866690  1.0  0.1133
  H  H136  1  0.796480  0.635690  0.747330  1.0  0.1114
  H  H137  1  0.844840  0.494830  0.030590  1.0  0.1005
  H  H138  1  0.887880  0.387300  0.972580  1.0  0.1096
  H  H139  1  0.934320  0.408910  0.883690  1.0  0.1147
  H  H140  1  0.834570  0.467530  0.944570  1.0  0.1267
  H  H141  1  0.927840  0.521170  0.879050  1.0  0.11
  H  H142  1  0.882950  0.571860  0.964130  1.0  0.11
  H  H143  1  0.828600  0.576330  0.943450  1.0  0.1251
  H  H144  1  0.662520  0.562090  0.285560  1.0  0.0858
  H  H145  1  0.694240  0.461120  0.352250  1.0  0.1211
  H  H146  1  0.634440  0.549220  0.407450  1.0  0.116
  H  H147  1  0.731190  0.491500  0.368830  1.0  0.1105
  H  H148  1  0.783110  0.519550  0.178420  1.0  0.1121
  H  H149  1  0.782130  0.443370  0.218770  1.0  0.1133
  H  H150  1  0.819110  0.475370  0.233340  1.0  0.111
  H  H151  1  0.502440  0.854810  0.118510  1.0  0.0964
  H  H152  1  0.468910  0.840970  0.244830  1.0  0.1283
  H  H153  1  0.391980  0.897590  0.237880  1.0  0.1036
  H  H154  1  0.412240  0.940460  0.265780  1.0  0.1174
  H  H155  1  0.582210  0.887220  0.079250  1.0  0.114
  H  H156  1  0.582210  0.829330  0.148260  1.0  0.1172
  H  H157  1  0.529720  0.927500  0.172710  1.0  0.1115
  H  H158  1  0.564520  0.656740  0.986380  1.0  0.0973
  H  H159  1  0.548810  0.622280  0.913600  1.0  0.1149
  H  H160  1  0.496490  0.716680  0.903890  1.0  0.115
  H  H161  1  0.461560  0.689570  0.993510  1.0  0.1128
  H  H162  1  0.450680  0.778220  0.044950  1.0  0.1075
  H  H163  1  0.484980  0.808410  0.956840  1.0  0.1199
  H  H164  1  0.529670  0.776260  0.002260  1.0  0.1034
  H  H165  1  0.987110  0.206480  0.839130  1.0  0.0983
  H  H166  1  0.852010  0.362800  0.894540  1.0  0.1217
  H  H167  1  0.894350  0.302210  0.817470  1.0  0.1032
  H  H168  1  0.942800  0.329810  0.813420  1.0  0.1103
  H  H169  1  0.914490  0.181300  0.953900  1.0  0.1167
  H  H170  1  0.876570  0.215710  0.900960  1.0  0.1118
  H  H171  1  0.835870  0.275680  0.977730  1.0  0.1237
  H  H172  1  0.280470  0.988930  0.666130  1.0  0.0859
  H  H173  1  0.402240  0.909640  0.638140  1.0  0.113
  H  H174  1  0.363720  0.909610  0.734890  1.0  0.1082
  H  H175  1  0.346350  0.993540  0.697770  1.0  0.1208
  H  H176  1  0.228270  0.972940  0.822970  1.0  0.1139
  H  H177  1  0.173480  0.018000  0.786910  1.0  0.1149
  H  H178  1  0.212960  0.056320  0.785160  1.0  0.1067
  H  H179  1  0.213020  0.004490  0.444220  1.0  0.105
  H  H180  1  0.337400  0.942330  0.401170  1.0  0.1145
  H  H181  1  0.357160  0.855490  0.389720  1.0  0.1235
  H  H182  1  0.294670  0.908810  0.480740  1.0  0.1119
  H  H183  1  0.256000  0.857040  0.416840  1.0  0.1108
  H  H184  1  0.169420  0.944550  0.443020  1.0  0.1152
  H  H185  1  0.195420  0.912100  0.506490  1.0  0.1103
  H  H186  1  0.984920  0.286140  0.564060  1.0  0.0884
  H  H187  1  0.903160  0.370980  0.493930  1.0  0.1234
  H  H188  1  0.987510  0.353620  0.463130  1.0  0.1186
  H  H189  1  0.904500  0.408410  0.551630  1.0  0.1114
  H  H190  1  0.967570  0.235340  0.475840  1.0  0.1111
  H  H191  1  0.013810  0.179640  0.520390  1.0  0.1117
  H  H192  1  0.051110  0.220150  0.444830  1.0  0.1048
  H  H193  1  0.055480  0.562210  0.035910  1.0  0.0987
  H  H194  1  0.110330  0.614100  0.029610  1.0  0.1065
  H  H195  1  0.162710  0.533080  0.057740  1.0  0.121
  H  H196  1  0.063100  0.594020  0.119340  1.0  0.1168
  H  H197  1  0.165260  0.426400  0.059840  1.0  0.1166
  H  H198  1  0.107500  0.434230  0.042190  1.0  0.1078
  H  H199  1  0.066240  0.483570  0.126110  1.0  0.1095
  H  H200  1  0.294970  0.411460  0.704180  1.0  0.0898
  H  H201  1  0.299320  0.539670  0.650650  1.0  0.1206
  H  H202  1  0.261840  0.509080  0.635350  1.0  0.1121
  H  H203  1  0.358700  0.451240  0.596220  1.0  0.1131
  H  H204  1  0.210730  0.482410  0.825720  1.0  0.1144
  H  H205  1  0.174300  0.526270  0.771160  1.0  0.1144
  H  H206  1  0.211990  0.558190  0.784510  1.0  0.1037
  H  H207  1  0.597000  0.082960  0.786640  1.0  0.1045
  H  H208  1  0.511010  0.177460  0.721690  1.0  0.1245
  H  H209  1  0.597920  0.086280  0.681390  1.0  0.1061
  H  H210  1  0.592120  0.163080  0.694770  1.0  0.1044
  H  H211  1  0.489470  0.088120  0.883870  1.0  0.1119
  H  H212  1  0.531390  0.044590  0.796170  1.0  0.1158
  H  H213  1  0.448760  0.139050  0.833610  1.0  0.1118
  H  H214  1  0.407660  0.297870  0.089440  1.0  0.081
  H  H215  1  0.535400  0.303410  0.007990  1.0  0.117
  H  H216  1  0.506670  0.264780  0.090980  1.0  0.1118
  H  H217  1  0.447860  0.361840  0.092490  1.0  0.1135
  H  H218  1  0.476890  0.215080  0.980810  1.0  0.115
  H  H219  1  0.522820  0.177860  0.025870  1.0  0.1135
  H  H220  1  0.552630  0.216990  0.943450  1.0  0.1036
  H  H221  1  0.031860  0.739390  0.100310  1.0  0.0899
  H  H222  1  0.134460  0.649490  0.110470  1.0  0.11
  H  H223  1  0.047550  0.677080  0.195630  1.0  0.1068
  H  H224  1  0.091530  0.714400  0.184180  1.0  0.1077
  H  H225  1  0.053880  0.830310  0.052240  1.0  0.1181
  H  H226  1  0.138080  0.739930  0.026480  1.0  0.1198
  H  H227  1  0.094750  0.804990  0.100540  1.0  0.1083
  H  H228  1  0.784820  0.053640  0.205940  1.0  0.1035
  H  H229  1  0.733600  0.011410  0.320630  1.0  0.1213
  H  H230  1  0.693250  0.999130  0.290710  1.0  0.1122
  H  H231  1  0.664380  0.089230  0.307740  1.0  0.1105
  H  H232  1  0.876030  0.939720  0.121240  1.0  0.1061
  H  H233  1  0.818780  0.910090  0.181610  1.0  0.1105
  H  H234  1  0.858390  0.924250  0.210860  1.0  0.1354
  H  H235  1  0.841450  0.034010  0.567000  1.0  0.0992
  H  H236  1  0.736590  0.035340  0.621880  1.0  0.1126
  H  H237  1  0.737920  0.061420  0.540160  1.0  0.116
  H  H238  1  0.718600  0.122860  0.597720  1.0  0.117
  H  H239  1  0.841760  0.061270  0.432060  1.0  0.1125
  H  H240  1  0.911910  0.038680  0.438560  1.0  0.0955
  H  H241  1  0.821790  0.124570  0.488090  1.0  0.1102
  H  H242  1  0.088270  0.700680  0.414610  1.0  0.081
  H  H243  1  0.088600  0.594720  0.454440  1.0  0.1138
  H  H244  1  0.004480  0.650600  0.541980  1.0  0.1187
  H  H245  1  0.088360  0.632480  0.513570  1.0  0.1077
  H  H246  1  0.942210  0.783870  0.559210  1.0  0.1046
  H  H247  1  0.981350  0.823190  0.483690  1.0  0.1176
  H  H248  1  0.025580  0.767800  0.530130  1.0  0.1167
  H  H249  1  0.433370  0.335470  0.012210  1.0  0.0901
  H  H250  1  0.747740  0.040530  0.178090  1.0  0.1003
  H  H251  1  0.860310  0.974180  0.514600  1.0  0.1009
  H  H252  1  0.698120  0.589800  0.300510  1.0  0.0896
  H  H253  1  0.519580  0.171260  0.824170  1.0  0.1023
  H  H254  1  0.331270  0.439150  0.717920  1.0  0.0947
  H  H255  1  0.010250  0.716800  0.439760  1.0  0.0889
  H  H256  1  0.991540  0.800430  0.169610  1.0  0.0907
  H  H257  1  0.453700  0.947150  0.140220  1.0  0.1011
  H  H258  1  0.906720  0.301390  0.591110  1.0  0.088
  H  H259  1  0.948420  0.263410  0.911000  1.0  0.0857
  H  H260  1  0.938040  0.443110  0.969610  1.0  0.0996
  H  H261  1  0.148540  0.508780  0.973630  1.0  0.1018
  H  H262  1  0.295950  0.910860  0.702510  1.0  0.0857
  H  H263  1  0.271240  0.951350  0.360660  1.0  0.0875
  C  C264  1  0.448670  0.717880  0.454490  1.0  0.5761
  C  C265  1  0.422950  0.693520  0.430920  1.0  -0.1078
  C  C266  1  0.347620  0.729860  0.464820  1.0  -0.1112
  C  C267  1  0.323760  0.706900  0.442750  1.0  -0.1295
  C  C268  1  0.374220  0.646170  0.386050  1.0  -0.0178
  C  C269  1  0.449830  0.609710  0.352670  1.0  -0.1273
  C  C270  1  0.473440  0.633090  0.374600  1.0  -0.1169
  C  C271  1  0.348630  0.621450  0.361540  1.0  -0.0251
  C  C272  1  0.393660  0.583710  0.289640  1.0  -0.1303
  C  C273  1  0.371640  0.558930  0.266870  1.0  -0.1256
  C  C274  1  0.302160  0.573230  0.314140  1.0  -0.0988
  C  C275  1  0.255760  0.612840  0.385290  1.0  -0.1075
  C  C276  1  0.278760  0.635680  0.408850  1.0  -0.1154
  C  C277  1  0.278380  0.547780  0.288810  1.0  0.5997
  C  C278  1  0.672150  0.508990  0.160680  1.0  0.5376
  C  C279  1  0.697850  0.434070  0.184010  1.0  -0.0925
  C  C280  1  0.752280  0.368620  0.132470  1.0  -0.1123
  C  C281  1  0.775150  0.298950  0.154870  1.0  -0.1097
  C  C282  1  0.745600  0.291310  0.230000  1.0  -0.0288
  C  C283  1  0.691600  0.357610  0.281110  1.0  -0.1223
  C  C284  1  0.667880  0.427070  0.258660  1.0  -0.1332
  C  C285  1  0.770320  0.215800  0.254940  1.0  -0.0215
  C  C286  1  0.837210  0.148960  0.206020  1.0  -0.101
  C  C287  1  0.859650  0.079750  0.229470  1.0  -0.1066
  C  C288  1  0.816840  0.074070  0.303020  1.0  -0.1095
  C  C289  1  0.750810  0.139900  0.351920  1.0  -0.1237
  C  C290  1  0.727560  0.208980  0.328600  1.0  -0.1249
  C  C291  1  0.840470  0.000730  0.329460  1.0  0.5469
  C  C292  1  0.886070  0.433010  0.941930  1.0  -0.0208
  C  C293  1  0.881500  0.539640  0.938230  1.0  -0.04
  C  C294  1  0.690290  0.509440  0.358620  1.0  -0.0359
  C  C295  1  0.775590  0.492700  0.227710  1.0  -0.0183
  C  C296  1  0.715500  0.450840  0.881190  1.0  0.5878
  C  C297  1  0.691910  0.424740  0.954580  1.0  -0.1075
  C  C298  1  0.711860  0.352850  0.960570  1.0  -0.1004
  C  C299  1  0.689150  0.328950  0.029490  1.0  -0.1213
  C  C300  1  0.646170  0.375640  0.095670  1.0  -0.0333
  C  C301  1  0.626560  0.447870  0.088660  1.0  -0.1324
  C  C302  1  0.648700  0.471680  0.019850  1.0  -0.1015
  C  C303  1  0.621710  0.349830  0.170740  1.0  -0.0275
  C  C304  1  0.562540  0.400530  0.237570  1.0  -0.1208
  C  C305  1  0.538690  0.377940  0.306790  1.0  -0.1037
  C  C306  1  0.573140  0.303090  0.312970  1.0  -0.1049
  C  C307  1  0.633070  0.251660  0.247000  1.0  -0.1123
  C  C308  1  0.656890  0.274410  0.177470  1.0  -0.1262
  C  C309  1  0.546790  0.279670  0.387710  1.0  0.5744
  C  C310  1  0.504900  0.678110  0.166500  1.0  0.5686
  C  C311  1  0.429970  0.705050  0.191510  1.0  -0.0959
  C  C312  1  0.364990  0.755220  0.257180  1.0  -0.1233
  C  C313  1  0.295570  0.777320  0.281720  1.0  -0.1218
  C  C314  1  0.287810  0.751510  0.240740  1.0  -0.0229
  C  C315  1  0.353380  0.702670  0.173780  1.0  -0.1291
  C  C316  1  0.422760  0.679290  0.150380  1.0  -0.1179
  C  C317  1  0.212810  0.774670  0.267280  1.0  -0.0305
  C  C318  1  0.145620  0.840080  0.318090  1.0  -0.1082
  C  C319  1  0.076730  0.861480  0.341710  1.0  -0.0939
  C  C320  1  0.071800  0.819180  0.314870  1.0  -0.1034
  C  C321  1  0.138100  0.754170  0.264710  1.0  -0.1245
  C  C322  1  0.206940  0.731890  0.241890  1.0  -0.1093
  C  C323  1  0.998600  0.842490  0.338070  1.0  0.5594
  C  C324  1  0.437110  0.893500  0.229290  1.0  -0.0378
  C  C325  1  0.547780  0.884310  0.137710  1.0  -0.0372
  C  C326  1  0.511790  0.680080  0.940620  1.0  -0.0682
  C  C327  1  0.500840  0.767990  0.991340  1.0  -0.0297
  C  C328  1  0.448210  0.878280  0.454010  1.0  0.5753
  C  C329  1  0.424340  0.951910  0.428290  1.0  -0.0599
  C  C330  1  0.453740  0.957500  0.353290  1.0  -0.125
  C  C331  1  0.431630  0.026450  0.329500  1.0  -0.1266
  C  C332  1  0.379800  0.092920  0.379550  1.0  -0.0164
  C  C333  1  0.350810  0.086510  0.454740  1.0  -0.1151
  C  C334  1  0.372290  0.017720  0.478450  1.0  -0.1093
  C  C335  1  0.355550  0.167880  0.354070  1.0  -0.0231
  C  C336  1  0.286570  0.233650  0.401910  1.0  -0.1329
  C  C337  1  0.263770  0.303100  0.379580  1.0  -0.077
  C  C338  1  0.308130  0.310050  0.307440  1.0  -0.107
  C  C339  1  0.376390  0.244720  0.258640  1.0  -0.1099
  C  C340  1  0.399940  0.175250  0.281560  1.0  -0.1222
  C  C341  1  0.282830  0.384710  0.283670  1.0  0.6027
  C  C342  1  0.152000  0.164130  0.675620  1.0  0.5743
  C  C343  1  0.174900  0.189400  0.702480  1.0  -0.1049
  C  C344  1  0.123750  0.254420  0.753640  1.0  -0.1063
  C  C345  1  0.146190  0.278940  0.776290  1.0  -0.1122
  C  C346  1  0.220800  0.238420  0.750210  1.0  -0.0287
  C  C347  1  0.271280  0.171970  0.700470  1.0  -0.1239
  C  C348  1  0.248940  0.148710  0.676580  1.0  -0.1232
  C  C349  1  0.245920  0.264690  0.774070  1.0  -0.031
  C  C350  1  0.196280  0.317410  0.838260  1.0  -0.0766
  C  C351  1  0.220040  0.340840  0.860070  1.0  -0.0968
  C  C352  1  0.294570  0.311870  0.819530  1.0  -0.0995
  C  C353  1  0.344070  0.259570  0.756060  1.0  -0.1343
  C  C354  1  0.320520  0.237060  0.733200  1.0  -0.1179
  C  C355  1  0.321240  0.335120  0.842770  1.0  0.5331
  C  C356  1  0.904680  0.314790  0.850350  1.0  -0.0272
  C  C357  1  0.888310  0.230070  0.931070  1.0  -0.0289
  C  C358  1  0.353290  0.942400  0.693950  1.0  -0.0336
  C  C359  1  0.222480  0.004070  0.779200  1.0  -0.0213
  C  C360  1  0.875230  0.450170  0.721930  1.0  0.5828
  C  C361  1  0.948950  0.426330  0.697570  1.0  -0.0597
  C  C362  1  0.954670  0.455310  0.737790  1.0  -0.1221
  C  C363  1  0.023600  0.433530  0.714420  1.0  -0.133
  C  C364  1  0.089940  0.382390  0.649190  1.0  -0.0194
  C  C365  1  0.083380  0.353900  0.609120  1.0  -0.1234
  C  C366  1  0.014590  0.375100  0.633040  1.0  -0.1114
  C  C367  1  0.164950  0.358200  0.623790  1.0  -0.0235
  C  C368  1  0.230830  0.289600  0.578370  1.0  -0.1319
  C  C369  1  0.300300  0.266690  0.554190  1.0  -0.0738
  C  C370  1  0.307140  0.310540  0.575940  1.0  -0.1054
  C  C371  1  0.241720  0.378470  0.622440  1.0  -0.1227
  C  C372  1  0.172260  0.402140  0.645280  1.0  -0.1345
  C  C373  1  0.381700  0.285110  0.550880  1.0  0.5925
  C  C374  1  0.159090  0.158070  0.508140  1.0  0.5608
  C  C375  1  0.184580  0.181230  0.433190  1.0  -0.0553
  C  C376  1  0.249980  0.130250  0.368160  1.0  -0.1186
  C  C377  1  0.274440  0.152800  0.298600  1.0  -0.1117
  C  C378  1  0.233590  0.227340  0.290640  1.0  -0.0277
  C  C379  1  0.167010  0.277720  0.356340  1.0  -0.1278
  C  C380  1  0.143700  0.255280  0.425790  1.0  -0.1275
  C  C381  1  0.259650  0.252440  0.215360  1.0  -0.0386
  C  C382  1  0.311550  0.202830  0.148260  1.0  -0.1022
  C  C383  1  0.334820  0.226460  0.079180  1.0  -0.1034
  C  C384  1  0.306550  0.300820  0.073940  1.0  -0.1133
  C  C385  1  0.254880  0.350400  0.140090  1.0  -0.1292
  C  C386  1  0.232530  0.326900  0.209090  1.0  -0.1119
  C  C387  1  0.329870  0.327180  0.000600  1.0  0.5288
  C  C388  1  0.313430  0.911980  0.422420  1.0  -0.033
  C  C389  1  0.216560  0.913840  0.447390  1.0  -0.0295
  C  C390  1  0.936810  0.360010  0.511580  1.0  -0.0335
  C  C391  1  0.999220  0.229140  0.493770  1.0  -0.0242
  C  C392  1  0.544430  0.282050  0.551980  1.0  0.5922
  C  C393  1  0.569900  0.306660  0.575620  1.0  -0.0966
  C  C394  1  0.644740  0.266250  0.547050  1.0  -0.1041
  C  C395  1  0.668420  0.289860  0.568700  1.0  -0.1269
  C  C396  1  0.618370  0.355410  0.619390  1.0  -0.0215
  C  C397  1  0.543360  0.395620  0.647500  1.0  -0.1274
  C  C398  1  0.519770  0.371550  0.626360  1.0  -0.1096
  C  C399  1  0.643700  0.380960  0.643490  1.0  -0.0269
  C  C400  1  0.595590  0.426350  0.712090  1.0  -0.1258
  C  C401  1  0.617970  0.450600  0.734900  1.0  -0.0798
  C  C402  1  0.690340  0.429100  0.690850  1.0  -0.1044
  C  C403  1  0.739280  0.382750  0.622850  1.0  -0.1148
  C  C404  1  0.716370  0.359720  0.599350  1.0  -0.1188
  C  C405  1  0.714460  0.453920  0.716420  1.0  0.6006
  C  C406  1  0.321750  0.494840  0.844900  1.0  0.568
  C  C407  1  0.295370  0.569810  0.821930  1.0  -0.0508
  C  C408  1  0.245200  0.634620  0.873000  1.0  -0.1219
  C  C409  1  0.222670  0.704240  0.850580  1.0  -0.1171
  C  C410  1  0.248110  0.712340  0.776160  1.0  -0.0278
  C  C411  1  0.297240  0.646880  0.725670  1.0  -0.1163
  C  C412  1  0.320880  0.577380  0.747950  1.0  -0.1225
  C  C413  1  0.224070  0.787570  0.751250  1.0  -0.0303
  C  C414  1  0.158340  0.854540  0.800520  1.0  -0.1003
  C  C415  1  0.136160  0.923610  0.776840  1.0  -0.1036
  C  C416  1  0.178050  0.928850  0.702750  1.0  -0.1089
  C  C417  1  0.243200  0.862760  0.653660  1.0  -0.1305
  C  C418  1  0.266230  0.793820  0.677210  1.0  -0.1159
  C  C419  1  0.154440  0.002050  0.676080  1.0  0.5617
  C  C420  1  0.110810  0.569130  0.060990  1.0  -0.0226
  C  C421  1  0.111600  0.464750  0.066590  1.0  -0.041
  C  C422  1  0.303010  0.491290  0.645050  1.0  -0.0309
  C  C423  1  0.218140  0.508910  0.776260  1.0  -0.0321
  C  C424  1  0.278680  0.548820  0.124430  1.0  0.5783
  C  C425  1  0.303100  0.574470  0.050810  1.0  -0.0952
  C  C426  1  0.265980  0.649730  0.045500  1.0  -0.1209
  C  C427  1  0.288980  0.673470  0.976550  1.0  -0.1308
  C  C428  1  0.350950  0.622970  0.909680  1.0  -0.0213
  C  C429  1  0.388190  0.547470  0.915880  1.0  -0.1282
  C  C430  1  0.364530  0.523920  0.984740  1.0  -0.1104
  C  C431  1  0.376110  0.648320  0.834600  1.0  -0.0308
  C  C432  1  0.418570  0.601190  0.769190  1.0  -0.1258
  C  C433  1  0.442910  0.623350  0.699660  1.0  -0.0728
  C  C434  1  0.424090  0.694720  0.692310  1.0  -0.0988
  C  C435  1  0.380360  0.742890  0.757240  1.0  -0.1018
  C  C436  1  0.357570  0.720030  0.826720  1.0  -0.1198
  C  C437  1  0.449370  0.718510  0.617700  1.0  0.5916
  C  C438  1  0.489400  0.327560  0.837480  1.0  0.5364
  C  C439  1  0.564580  0.300710  0.811760  1.0  -0.0985
  C  C440  1  0.629440  0.249430  0.746690  1.0  -0.1129
  C  C441  1  0.699290  0.226230  0.722000  1.0  -0.1167
  C  C442  1  0.707570  0.252240  0.762170  1.0  -0.0297
  C  C443  1  0.642110  0.302350  0.828460  1.0  -0.1276
  C  C444  1  0.572400  0.326510  0.852110  1.0  -0.1364
  C  C445  1  0.782910  0.228060  0.735640  1.0  -0.0281
  C  C446  1  0.849820  0.161510  0.686400  1.0  -0.1078
  C  C447  1  0.918920  0.139450  0.663120  1.0  -0.1007
  C  C448  1  0.924150  0.182400  0.688700  1.0  -0.1027
  C  C449  1  0.858120  0.248480  0.737140  1.0  -0.1307
  C  C450  1  0.789250  0.271230  0.759670  1.0  -0.1308
  C  C451  1  0.997160  0.159140  0.666120  1.0  0.5582
  C  C452  1  0.562720  0.138120  0.718650  1.0  -0.0323
  C  C453  1  0.501830  0.097410  0.827920  1.0  -0.0372
  C  C454  1  0.487690  0.306460  0.058830  1.0  -0.0274
  C  C455  1  0.504130  0.222310  0.995380  1.0  -0.0155
  C  C456  1  0.544230  0.121480  0.552120  1.0  0.5863
  C  C457  1  0.567880  0.047960  0.577890  1.0  -0.1082
  C  C458  1  0.534440  0.042750  0.653180  1.0  -0.1297
  C  C459  1  0.556730  0.973810  0.676900  1.0  -0.1382
  C  C460  1  0.613000  0.906880  0.626350  1.0  -0.0214
  C  C461  1  0.645870  0.912970  0.550810  1.0  -0.1219
  C  C462  1  0.623990  0.981850  0.527310  1.0  -0.0853
  C  C463  1  0.637520  0.831890  0.651770  1.0  -0.0278
  C  C464  1  0.707990  0.766570  0.605050  1.0  -0.117
  C  C465  1  0.730940  0.697160  0.627430  1.0  -0.0793
  C  C466  1  0.685150  0.689820  0.698460  1.0  -0.1071
  C  C467  1  0.615340  0.754640  0.746160  1.0  -0.0944
  C  C468  1  0.591690  0.824020  0.723150  1.0  -0.1164
  C  C469  1  0.710520  0.615250  0.722230  1.0  0.6021
  C  C470  1  0.842230  0.838370  0.331080  1.0  0.5355
  C  C471  1  0.819030  0.812900  0.304890  1.0  -0.088
  C  C472  1  0.870090  0.748040  0.253570  1.0  -0.1284
  C  C473  1  0.847540  0.723710  0.230910  1.0  -0.1086
  C  C474  1  0.772860  0.764220  0.257210  1.0  -0.0387
  C  C475  1  0.722430  0.830360  0.307360  1.0  -0.1161
  C  C476  1  0.744900  0.853410  0.331260  1.0  -0.1095
  C  C477  1  0.747670  0.738290  0.233050  1.0  -0.0439
  C  C478  1  0.797550  0.684930  0.169290  1.0  -0.1121
  C  C479  1  0.773900  0.661680  0.147170  1.0  -0.1013
  C  C480  1  0.699250  0.691490  0.186890  1.0  -0.1227
  C  C481  1  0.649410  0.744650  0.249740  1.0  -0.1421
  C  C482  1  0.672850  0.766880  0.273040  1.0  -0.1098
  C  C483  1  0.672830  0.668320  0.163270  1.0  0.5281
  C  C484  1  0.081140  0.696410  0.155470  1.0  -0.0287
  C  C485  1  0.084650  0.784310  0.073680  1.0  -0.0379
  C  C486  1  0.712440  0.030440  0.286100  1.0  -0.0389
  C  C487  1  0.833780  0.944880  0.179530  1.0  -0.0249
  C  C488  1  0.118430  0.549410  0.283930  1.0  0.585
  C  C489  1  0.044690  0.573520  0.308120  1.0  -0.1197
  C  C490  1  0.038870  0.545030  0.267610  1.0  -0.1236
  C  C491  1  0.969900  0.567070  0.290870  1.0  -0.132
  C  C492  1  0.903600  0.617940  0.356310  1.0  -0.0232
  C  C493  1  0.910250  0.646090  0.396560  1.0  -0.1264
  C  C494  1  0.979080  0.624720  0.372700  1.0  -0.1097
  C  C495  1  0.828600  0.642080  0.381720  1.0  -0.0263
  C  C496  1  0.762480  0.710090  0.428240  1.0  -0.1353
  C  C497  1  0.693140  0.732860  0.452180  1.0  -0.0729
  C  C498  1  0.686590  0.689380  0.429400  1.0  -0.1067
  C  C499  1  0.752180  0.622030  0.382010  1.0  -0.1165
  C  C500  1  0.821540  0.598550  0.359200  1.0  -0.13
  C  C501  1  0.612110  0.714560  0.454550  1.0  0.5891
  C  C502  1  0.835780  0.845100  0.497400  1.0  0.5761
  C  C503  1  0.809800  0.821860  0.572170  1.0  -0.0567
  C  C504  1  0.744080  0.872740  0.637140  1.0  -0.123
  C  C505  1  0.719450  0.849940  0.706530  1.0  -0.1226
  C  C506  1  0.760380  0.775320  0.714230  1.0  -0.0215
  C  C507  1  0.826940  0.725000  0.648600  1.0  -0.1334
  C  C508  1  0.850440  0.747660  0.579330  1.0  -0.1186
  C  C509  1  0.734530  0.750100  0.789290  1.0  -0.0311
  C  C510  1  0.684800  0.799200  0.856110  1.0  -0.1138
  C  C511  1  0.661900  0.775530  0.925090  1.0  -0.0924
  C  C512  1  0.688380  0.701590  0.930470  1.0  -0.0496
  C  C513  1  0.737740  0.652490  0.864540  1.0  -0.1219
  C  C514  1  0.759830  0.676100  0.795580  1.0  -0.1132
  C  C515  1  0.665310  0.675490  0.003890  1.0  0.5667
  C  C516  1  0.751670  0.064390  0.575140  1.0  -0.0148
  C  C517  1  0.852230  0.065650  0.469690  1.0  -0.0398
  C  C518  1  0.055850  0.643440  0.494360  1.0  -0.0293
  C  C519  1  0.994750  0.774100  0.510990  1.0  -0.0251
  N  N520  1  0.888160  0.476360  0.974780  1.0  -0.0565
  N  N521  1  0.702520  0.544320  0.293100  1.0  -0.0272
  N  N522  1  0.484200  0.895820  0.152200  1.0  -0.05
  N  N523  1  0.550040  0.692970  0.952660  1.0  -0.236
  N  N524  1  0.937680  0.250820  0.881650  1.0  -0.0605
  N  N525  1  0.288090  0.959770  0.706350  1.0  -0.032
  N  N526  1  0.251860  0.950440  0.416150  1.0  -0.0405
  N  N527  1  0.955230  0.294120  0.545930  1.0  -0.0385
  N  N528  1  0.105940  0.527600  0.029670  1.0  -0.0579
  N  N529  1  0.290960  0.456900  0.710870  1.0  -0.0373
  N  N530  1  0.547310  0.123200  0.791790  1.0  -0.0809
  N  N531  1  0.452350  0.294610  0.040790  1.0  -0.039
  N  N532  1  0.041790  0.757330  0.126370  1.0  -0.0437
  N  N533  1  0.769180  0.022000  0.209250  1.0  -0.0778
  N  N534  1  0.830270  0.029780  0.532970  1.0  -0.0565
  N  N535  1  0.039110  0.708750  0.459070  1.0  -0.0302
  O  O536  1  0.407110  0.769440  0.505860  1.0  -0.5963
  O  O537  1  0.514620  0.689480  0.426100  1.0  -0.5954
  O  O538  1  0.320970  0.499330  0.233980  1.0  -0.5782
  O  O539  1  0.213270  0.572320  0.318640  1.0  -0.5969
  O  O540  1  0.698600  0.520510  0.095520  1.0  -0.6142
  O  O541  1  0.620650  0.569360  0.203940  1.0  -0.5921
  O  O542  1  0.809100  0.993000  0.395680  1.0  -0.6032
  O  O543  1  0.894270  0.938660  0.288960  1.0  -0.5789
  O  O544  1  0.761520  0.410230  0.819820  1.0  -0.5996
  O  O545  1  0.691970  0.516280  0.872260  1.0  -0.5911
  O  O546  1  0.493590  0.322910  0.448110  1.0  -0.5877
  O  O547  1  0.574700  0.214460  0.398990  1.0  -0.5946
  O  O548  1  0.516920  0.701960  0.195590  1.0  -0.589
  O  O549  1  0.564880  0.627980  0.113010  1.0  -0.5941
  O  O550  1  0.990820  0.812170  0.309870  1.0  -0.5938
  O  O551  1  0.936550  0.895280  0.387880  1.0  -0.5862
  O  O552  1  0.499090  0.816900  0.412510  1.0  -0.5967
  O  O553  1  0.420710  0.869130  0.519980  1.0  -0.5928
  O  O554  1  0.228780  0.445380  0.326380  1.0  -0.5881
  O  O555  1  0.312070  0.395630  0.218530  1.0  -0.6032
  O  O556  1  0.087000  0.193580  0.699250  1.0  -0.6041
  O  O557  1  0.195590  0.109980  0.626120  1.0  -0.5829
  O  O558  1  0.387550  0.306830  0.812430  1.0  -0.6009
  O  O559  1  0.280740  0.385140  0.895310  1.0  -0.5812
  O  O560  1  0.814040  0.501130  0.773960  1.0  -0.6041
  O  O561  1  0.865740  0.422870  0.692840  1.0  -0.5881
  O  O562  1  0.442590  0.231850  0.500690  1.0  -0.5798
  O  O563  1  0.392200  0.313580  0.577320  1.0  -0.5977
  O  O564  1  0.189010  0.093040  0.519840  1.0  -0.6037
  O  O565  1  0.104280  0.201340  0.568290  1.0  -0.5887
  O  O566  1  0.302220  0.393410  0.992720  1.0  -0.599
  O  O567  1  0.379210  0.286490  0.938620  1.0  -0.5838
  O  O568  1  0.586150  0.228750  0.502450  1.0  -0.602
  O  O569  1  0.478630  0.311950  0.578290  1.0  -0.6008
  O  O570  1  0.671950  0.502910  0.770810  1.0  -0.5926
  O  O571  1  0.779870  0.428040  0.687340  1.0  -0.5835
  O  O572  1  0.297500  0.483060  0.909960  1.0  -0.6014
  O  O573  1  0.371480  0.434740  0.801370  1.0  -0.5876
  O  O574  1  0.184970  0.009630  0.609710  1.0  -0.5958
  O  O575  1  0.101430  0.064170  0.716600  1.0  -0.5823
  O  O576  1  0.227200  0.590370  0.185840  1.0  -0.6026
  O  O577  1  0.307070  0.482840  0.133490  1.0  -0.5872
  O  O578  1  0.498670  0.675820  0.556990  1.0  -0.5846
  O  O579  1  0.423910  0.783760  0.606960  1.0  -0.5975
  O  O580  1  0.477270  0.304480  0.807820  1.0  -0.6038
  O  O581  1  0.429450  0.376350  0.892250  1.0  -0.587
  O  O582  1  0.004270  0.190170  0.694470  1.0  -0.5909
  O  O583  1  0.059510  0.106040  0.616800  1.0  -0.5881
  O  O584  1  0.494580  0.182830  0.593560  1.0  -0.5951
  O  O585  1  0.570960  0.130490  0.486120  1.0  -0.6069
  O  O586  1  0.767000  0.554770  0.679920  1.0  -0.5896
  O  O587  1  0.678850  0.604290  0.786950  1.0  -0.5975
  O  O588  1  0.907260  0.808430  0.307670  1.0  -0.5959
  O  O589  1  0.799010  0.893340  0.379460  1.0  -0.5864
  O  O590  1  0.606600  0.696130  0.193830  1.0  -0.6012
  O  O591  1  0.713450  0.619000  0.110040  1.0  -0.5791
  O  O592  1  0.179700  0.498420  0.231920  1.0  -0.6017
  O  O593  1  0.127780  0.576770  0.313110  1.0  -0.5843
  O  O594  1  0.551270  0.768390  0.504020  1.0  -0.5898
  O  O595  1  0.601580  0.685310  0.429030  1.0  -0.601
  O  O596  1  0.807350  0.910250  0.485800  1.0  -0.6057
  O  O597  1  0.889480  0.801600  0.437250  1.0  -0.5915
  O  O598  1  0.691340  0.609560  0.012310  1.0  -0.6075
  O  O599  1  0.617570  0.716340  0.065550  1.0  -0.5803
