# generated using pymatgen
data_InH16(C7O2)4
_symmetry_space_group_name_H-M   'P 1'
_cell_length_a   12.25100000
_cell_length_b   18.63100000
_cell_length_c   20.97600000
_cell_angle_alpha   90.00000000
_cell_angle_beta   90.00000000
_cell_angle_gamma   90.00000000
_symmetry_Int_Tables_number   1
_chemical_formula_structural   InH16(C7O2)4
_chemical_formula_sum   'In4 H64 C112 O32'
_cell_volume   4787.73803986
_cell_formula_units_Z   4
loop_
 _symmetry_equiv_pos_site_id
 _symmetry_equiv_pos_as_xyz
  1  'x, y, z'
loop_
 _atom_site_type_symbol
 _atom_site_label
 _atom_site_symmetry_multiplicity
 _atom_site_fract_x
 _atom_site_fract_y
 _atom_site_fract_z
 _atom_site_occupancy
 _atom_site_charge
  In  In1  1  0.750000  0.000000  0.373400  1.0  1.5179
  In  In2  1  0.250000  0.500000  0.873400  1.0  1.5181
  In  In3  1  0.750000  0.500000  0.126600  1.0  1.5186
  In  In4  1  0.250000  0.000000  0.626600  1.0  1.5187
  H  H5  1  0.019700  0.087100  0.526500  1.0  0.1052
  H  H6  1  0.092500  0.163700  0.600000  1.0  0.1256
  H  H7  1  0.818300  0.273100  0.589000  1.0  0.12
  H  H8  1  0.740900  0.192900  0.520200  1.0  0.1208
  H  H9  1  0.172600  0.261100  0.618200  1.0  0.1289
  H  H10  1  0.253200  0.335100  0.692600  1.0  0.12
  H  H11  1  0.961400  0.389500  0.760900  1.0  0.1191
  H  H12  1  0.877400  0.311600  0.690200  1.0  0.1342
  H  H13  1  0.480300  0.912900  0.526500  1.0  0.1053
  H  H14  1  0.407500  0.836300  0.600000  1.0  0.1254
  H  H15  1  0.681700  0.726900  0.589000  1.0  0.1197
  H  H16  1  0.759100  0.807100  0.520200  1.0  0.118
  H  H17  1  0.327400  0.738900  0.618200  1.0  0.1293
  H  H18  1  0.246800  0.664900  0.692600  1.0  0.122
  H  H19  1  0.538600  0.610500  0.760900  1.0  0.1195
  H  H20  1  0.622600  0.688400  0.690200  1.0  0.1329
  H  H21  1  0.519700  0.412900  0.026500  1.0  0.1053
  H  H22  1  0.592500  0.336300  0.100000  1.0  0.1258
  H  H23  1  0.318300  0.226900  0.089000  1.0  0.1199
  H  H24  1  0.240900  0.307100  0.020200  1.0  0.1203
  H  H25  1  0.672600  0.238900  0.118200  1.0  0.1293
  H  H26  1  0.753200  0.164900  0.192600  1.0  0.1202
  H  H27  1  0.461400  0.110500  0.260900  1.0  0.1192
  H  H28  1  0.377400  0.188400  0.190200  1.0  0.1341
  H  H29  1  0.980300  0.587100  0.026500  1.0  0.105
  H  H30  1  0.907500  0.663700  0.100000  1.0  0.125
  H  H31  1  0.181700  0.773100  0.089000  1.0  0.121
  H  H32  1  0.259100  0.692900  0.020200  1.0  0.1186
  H  H33  1  0.827400  0.761100  0.118200  1.0  0.129
  H  H34  1  0.746800  0.835100  0.192600  1.0  0.1219
  H  H35  1  0.038600  0.889500  0.260900  1.0  0.1198
  H  H36  1  0.122600  0.811600  0.190200  1.0  0.1335
  H  H37  1  0.480300  0.587100  0.973500  1.0  0.1049
  H  H38  1  0.407500  0.663700  0.900000  1.0  0.125
  H  H39  1  0.681700  0.773100  0.911000  1.0  0.1205
  H  H40  1  0.759100  0.692900  0.979800  1.0  0.1182
  H  H41  1  0.327400  0.761100  0.881800  1.0  0.1296
  H  H42  1  0.246800  0.835100  0.807400  1.0  0.1211
  H  H43  1  0.538600  0.889500  0.739100  1.0  0.1205
  H  H44  1  0.622600  0.811600  0.809800  1.0  0.1337
  H  H45  1  0.019700  0.412900  0.973500  1.0  0.1051
  H  H46  1  0.092500  0.336300  0.900000  1.0  0.1256
  H  H47  1  0.818300  0.226900  0.911000  1.0  0.1207
  H  H48  1  0.740900  0.307100  0.979800  1.0  0.1201
  H  H49  1  0.172600  0.238900  0.881800  1.0  0.1293
  H  H50  1  0.253200  0.164900  0.807400  1.0  0.1203
  H  H51  1  0.961400  0.110500  0.739100  1.0  0.1196
  H  H52  1  0.877400  0.188400  0.809800  1.0  0.1342
  H  H53  1  0.980300  0.912900  0.473500  1.0  0.1049
  H  H54  1  0.907500  0.836300  0.400000  1.0  0.1253
  H  H55  1  0.181700  0.726900  0.411000  1.0  0.1199
  H  H56  1  0.259100  0.807100  0.479800  1.0  0.1177
  H  H57  1  0.827400  0.738900  0.381800  1.0  0.1298
  H  H58  1  0.746800  0.664900  0.307400  1.0  0.1214
  H  H59  1  0.038600  0.610500  0.239100  1.0  0.12
  H  H60  1  0.122600  0.688400  0.309800  1.0  0.1333
  H  H61  1  0.519700  0.087100  0.473500  1.0  0.1053
  H  H62  1  0.592500  0.163700  0.400000  1.0  0.1255
  H  H63  1  0.318300  0.273100  0.411000  1.0  0.1202
  H  H64  1  0.240900  0.192900  0.479800  1.0  0.1205
  H  H65  1  0.672600  0.261100  0.381800  1.0  0.129
  H  H66  1  0.753200  0.335100  0.307400  1.0  0.1197
  H  H67  1  0.461400  0.389500  0.239100  1.0  0.12
  H  H68  1  0.377400  0.311600  0.309800  1.0  0.1345
  C  C69  1  0.823900  0.084500  0.465600  1.0  0.7206
  C  C70  1  0.871100  0.132300  0.515100  1.0  -0.0222
  C  C71  1  0.977500  0.125500  0.540300  1.0  -0.0327
  C  C72  1  0.022800  0.171600  0.583900  1.0  -0.1953
  C  C73  1  0.965700  0.226500  0.602000  1.0  0.1125
  C  C74  1  0.859300  0.233600  0.576400  1.0  -0.0899
  C  C75  1  0.812100  0.186500  0.534400  1.0  -0.1121
  C  C76  1  0.016100  0.276700  0.647600  1.0  -0.0003
  C  C77  1  0.129800  0.285700  0.647600  1.0  -0.1339
  C  C78  1  0.177500  0.331000  0.691100  1.0  -0.0305
  C  C79  1  0.114600  0.370300  0.732600  1.0  -0.1356
  C  C80  1  0.003400  0.363000  0.732500  1.0  -0.0366
  C  C81  1  0.953000  0.316400  0.690200  1.0  -0.1035
  C  C82  1  0.165200  0.419300  0.780800  1.0  0.7005
  C  C83  1  0.676100  0.915500  0.465600  1.0  0.7202
  C  C84  1  0.628900  0.867700  0.515100  1.0  -0.023
  C  C85  1  0.522500  0.874500  0.540300  1.0  -0.0344
  C  C86  1  0.477200  0.828400  0.583900  1.0  -0.1955
  C  C87  1  0.534300  0.773500  0.602000  1.0  0.1114
  C  C88  1  0.640700  0.766400  0.576400  1.0  -0.0903
  C  C89  1  0.687900  0.813500  0.534400  1.0  -0.1114
  C  C90  1  0.483900  0.723300  0.647600  1.0  -0.0008
  C  C91  1  0.370200  0.714300  0.647600  1.0  -0.1351
  C  C92  1  0.322500  0.669000  0.691100  1.0  -0.0321
  C  C93  1  0.385400  0.629700  0.732600  1.0  -0.1368
  C  C94  1  0.496600  0.637000  0.732500  1.0  -0.0365
  C  C95  1  0.547000  0.683600  0.690200  1.0  -0.1019
  C  C96  1  0.334800  0.580700  0.780800  1.0  0.7005
  C  C97  1  0.323900  0.415500  0.965600  1.0  0.7206
  C  C98  1  0.371100  0.367700  0.015100  1.0  -0.0222
  C  C99  1  0.477500  0.374500  0.040300  1.0  -0.0348
  C  C100  1  0.522800  0.328400  0.083900  1.0  -0.195
  C  C101  1  0.465700  0.273500  0.102000  1.0  0.1109
  C  C102  1  0.359300  0.266400  0.076400  1.0  -0.0887
  C  C103  1  0.312100  0.313500  0.034400  1.0  -0.1118
  C  C104  1  0.516100  0.223300  0.147600  1.0  -0.0036
  C  C105  1  0.629800  0.214300  0.147600  1.0  -0.1354
  C  C106  1  0.677500  0.169000  0.191100  1.0  -0.0324
  C  C107  1  0.614600  0.129700  0.232600  1.0  -0.1357
  C  C108  1  0.503400  0.137000  0.232500  1.0  -0.0365
  C  C109  1  0.453000  0.183600  0.190200  1.0  -0.1027
  C  C110  1  0.665200  0.080700  0.280800  1.0  0.7006
  C  C111  1  0.176100  0.584500  0.965600  1.0  0.72
  C  C112  1  0.128900  0.632300  0.015100  1.0  -0.0224
  C  C113  1  0.022500  0.625500  0.040300  1.0  -0.0321
  C  C114  1  0.977200  0.671600  0.083900  1.0  -0.1957
  C  C115  1  0.034300  0.726500  0.102000  1.0  0.1124
  C  C116  1  0.140700  0.733600  0.076400  1.0  -0.0902
  C  C117  1  0.187900  0.686500  0.034400  1.0  -0.1116
  C  C118  1  0.983900  0.776700  0.147600  1.0  -0.0031
  C  C119  1  0.870200  0.785700  0.147600  1.0  -0.1376
  C  C120  1  0.822500  0.831000  0.191100  1.0  -0.0336
  C  C121  1  0.885400  0.870300  0.232600  1.0  -0.1361
  C  C122  1  0.996600  0.863000  0.232500  1.0  -0.0363
  C  C123  1  0.047000  0.816400  0.190200  1.0  -0.1044
  C  C124  1  0.834800  0.919300  0.280800  1.0  0.7001
  C  C125  1  0.676100  0.584500  0.034400  1.0  0.7204
  C  C126  1  0.628900  0.632300  0.984900  1.0  -0.0228
  C  C127  1  0.522500  0.625500  0.959700  1.0  -0.0323
  C  C128  1  0.477200  0.671600  0.916100  1.0  -0.1964
  C  C129  1  0.534300  0.726500  0.898000  1.0  0.1121
  C  C130  1  0.640700  0.733600  0.923600  1.0  -0.0912
  C  C131  1  0.687900  0.686500  0.965600  1.0  -0.1115
  C  C132  1  0.483900  0.776700  0.852400  1.0  -0.0024
  C  C133  1  0.370200  0.785700  0.852400  1.0  -0.1383
  C  C134  1  0.322500  0.831000  0.808900  1.0  -0.0332
  C  C135  1  0.385400  0.870300  0.767400  1.0  -0.1361
  C  C136  1  0.496600  0.863000  0.767500  1.0  -0.0363
  C  C137  1  0.547000  0.816400  0.809800  1.0  -0.1035
  C  C138  1  0.334800  0.919300  0.719200  1.0  0.7009
  C  C139  1  0.823900  0.415500  0.034400  1.0  0.7209
  C  C140  1  0.871100  0.367700  0.984900  1.0  -0.0235
  C  C141  1  0.977500  0.374500  0.959700  1.0  -0.036
  C  C142  1  0.022800  0.328400  0.916100  1.0  -0.195
  C  C143  1  0.965700  0.273500  0.898000  1.0  0.1112
  C  C144  1  0.859300  0.266400  0.923600  1.0  -0.0889
  C  C145  1  0.812100  0.313500  0.965600  1.0  -0.1117
  C  C146  1  0.016100  0.223300  0.852400  1.0  -0.0033
  C  C147  1  0.129800  0.214300  0.852400  1.0  -0.136
  C  C148  1  0.177500  0.169000  0.808900  1.0  -0.0314
  C  C149  1  0.114600  0.129700  0.767400  1.0  -0.1359
  C  C150  1  0.003400  0.137000  0.767500  1.0  -0.0362
  C  C151  1  0.953000  0.183600  0.809800  1.0  -0.1034
  C  C152  1  0.165200  0.080700  0.719200  1.0  0.7014
  C  C153  1  0.176100  0.915500  0.534400  1.0  0.7204
  C  C154  1  0.128900  0.867700  0.484900  1.0  -0.0238
  C  C155  1  0.022500  0.874500  0.459700  1.0  -0.0355
  C  C156  1  0.977200  0.828400  0.416100  1.0  -0.1961
  C  C157  1  0.034300  0.773500  0.398000  1.0  0.1112
  C  C158  1  0.140700  0.766400  0.423600  1.0  -0.0905
  C  C159  1  0.187900  0.813500  0.465600  1.0  -0.1113
  C  C160  1  0.983900  0.723300  0.352400  1.0  -0.0002
  C  C161  1  0.870200  0.714300  0.352400  1.0  -0.1366
  C  C162  1  0.822500  0.669000  0.308900  1.0  -0.0311
  C  C163  1  0.885400  0.629700  0.267400  1.0  -0.1369
  C  C164  1  0.996600  0.637000  0.267500  1.0  -0.0363
  C  C165  1  0.047000  0.683600  0.309800  1.0  -0.1017
  C  C166  1  0.834800  0.580700  0.219200  1.0  0.7012
  C  C167  1  0.323900  0.084500  0.534400  1.0  0.7209
  C  C168  1  0.371100  0.132300  0.484900  1.0  -0.0229
  C  C169  1  0.477500  0.125500  0.459700  1.0  -0.0327
  C  C170  1  0.522800  0.171600  0.416100  1.0  -0.1955
  C  C171  1  0.465700  0.226500  0.398000  1.0  0.1124
  C  C172  1  0.359300  0.233600  0.423600  1.0  -0.0904
  C  C173  1  0.312100  0.186500  0.465600  1.0  -0.1121
  C  C174  1  0.516100  0.276700  0.352400  1.0  0.0003
  C  C175  1  0.629800  0.285700  0.352400  1.0  -0.1348
  C  C176  1  0.677500  0.331000  0.308900  1.0  -0.0309
  C  C177  1  0.614600  0.370300  0.267400  1.0  -0.1354
  C  C178  1  0.503400  0.363000  0.267500  1.0  -0.0365
  C  C179  1  0.453000  0.316400  0.309800  1.0  -0.1038
  C  C180  1  0.665200  0.419300  0.219200  1.0  0.7009
  O  O181  1  0.887200  0.047050  0.432600  1.0  -0.5786
  O  O182  1  0.722500  0.081400  0.455900  1.0  -0.614
  O  O183  1  0.106000  0.457800  0.814400  1.0  -0.5862
  O  O184  1  0.266500  0.420000  0.788800  1.0  -0.5863
  O  O185  1  0.612800  0.952950  0.432600  1.0  -0.5786
  O  O186  1  0.777500  0.918600  0.455900  1.0  -0.6146
  O  O187  1  0.394000  0.542200  0.814400  1.0  -0.5867
  O  O188  1  0.233500  0.580000  0.788800  1.0  -0.5879
  O  O189  1  0.387200  0.452950  0.932600  1.0  -0.5785
  O  O190  1  0.222500  0.418600  0.955900  1.0  -0.6139
  O  O191  1  0.606000  0.042200  0.314400  1.0  -0.5867
  O  O192  1  0.766500  0.080000  0.288800  1.0  -0.5859
  O  O193  1  0.112800  0.547050  0.932600  1.0  -0.579
  O  O194  1  0.277500  0.581400  0.955900  1.0  -0.6146
  O  O195  1  0.894000  0.957800  0.314400  1.0  -0.5862
  O  O196  1  0.733500  0.920000  0.288800  1.0  -0.5884
  O  O197  1  0.612800  0.547050  0.067400  1.0  -0.579
  O  O198  1  0.777500  0.581400  0.044100  1.0  -0.6153
  O  O199  1  0.394000  0.957800  0.685600  1.0  -0.5852
  O  O200  1  0.233500  0.920000  0.711200  1.0  -0.5894
  O  O201  1  0.887200  0.452950  0.067400  1.0  -0.5773
  O  O202  1  0.722500  0.418600  0.044100  1.0  -0.6149
  O  O203  1  0.106000  0.042200  0.685600  1.0  -0.5863
  O  O204  1  0.266500  0.080000  0.711200  1.0  -0.5866
  O  O205  1  0.112800  0.952950  0.567400  1.0  -0.5785
  O  O206  1  0.277500  0.918600  0.544100  1.0  -0.6154
  O  O207  1  0.894000  0.542200  0.185600  1.0  -0.5857
  O  O208  1  0.733500  0.580000  0.211200  1.0  -0.589
  O  O209  1  0.387200  0.047050  0.567400  1.0  -0.5777
  O  O210  1  0.222500  0.081400  0.544100  1.0  -0.6148
  O  O211  1  0.606000  0.457800  0.185600  1.0  -0.586
  O  O212  1  0.766500  0.420000  0.211200  1.0  -0.5874
