# generated using pymatgen
data_CuH8C12N3O2
_symmetry_space_group_name_H-M   'P 1'
_cell_length_a   17.32450000
_cell_length_b   17.32450000
_cell_length_c   33.93960000
_cell_angle_alpha   90.00000000
_cell_angle_beta   90.00000000
_cell_angle_gamma   90.00000000
_symmetry_Int_Tables_number   1
_chemical_formula_structural   CuH8C12N3O2
_chemical_formula_sum   'Cu24 H192 C288 N72 O48'
_cell_volume   10186.57385516
_cell_formula_units_Z   24
loop_
 _symmetry_equiv_pos_site_id
 _symmetry_equiv_pos_as_xyz
  1  'x, y, z'
loop_
 _atom_site_type_symbol
 _atom_site_label
 _atom_site_symmetry_multiplicity
 _atom_site_fract_x
 _atom_site_fract_y
 _atom_site_fract_z
 _atom_site_occupancy
 _atom_site_charge
  Cu  Cu1  1  0.085130  0.507570  0.615210  1.0  0.3285
  Cu  Cu2  1  0.158390  0.364180  0.567110  1.0  0.3841
  Cu  Cu3  1  0.082970  0.512180  0.522000  1.0  0.34
  Cu  Cu4  1  0.585130  0.007570  0.115210  1.0  0.3285
  Cu  Cu5  1  0.658390  0.864180  0.067110  1.0  0.3841
  Cu  Cu6  1  0.582970  0.012180  0.022000  1.0  0.34
  Cu  Cu7  1  0.914870  0.492430  0.615210  1.0  0.3307
  Cu  Cu8  1  0.841610  0.635820  0.567110  1.0  0.3888
  Cu  Cu9  1  0.917030  0.487820  0.522000  1.0  0.3404
  Cu  Cu10  1  0.414870  0.992430  0.115210  1.0  0.3307
  Cu  Cu11  1  0.341610  0.135820  0.067110  1.0  0.3888
  Cu  Cu12  1  0.417030  0.987820  0.022000  1.0  0.3404
  Cu  Cu13  1  0.507570  0.914870  0.384790  1.0  0.3299
  Cu  Cu14  1  0.364180  0.841610  0.432890  1.0  0.3873
  Cu  Cu15  1  0.512180  0.917030  0.478000  1.0  0.3404
  Cu  Cu16  1  0.007570  0.414870  0.884790  1.0  0.3299
  Cu  Cu17  1  0.864180  0.341610  0.932890  1.0  0.3873
  Cu  Cu18  1  0.012180  0.417030  0.978000  1.0  0.3404
  Cu  Cu19  1  0.492430  0.085130  0.384790  1.0  0.3298
  Cu  Cu20  1  0.635820  0.158390  0.432890  1.0  0.3835
  Cu  Cu21  1  0.487820  0.082970  0.478000  1.0  0.3394
  Cu  Cu22  1  0.992430  0.585130  0.884790  1.0  0.3298
  Cu  Cu23  1  0.135820  0.658390  0.932890  1.0  0.3835
  Cu  Cu24  1  0.987820  0.582970  0.978000  1.0  0.3394
  H  H25  1  0.207200  0.235200  0.994000  1.0  0.1387
  H  H26  1  0.276100  0.286800  0.979700  1.0  0.1419
  H  H27  1  0.273200  0.257800  0.023400  1.0  0.1463
  H  H28  1  0.094200  0.513900  0.698900  1.0  0.1214
  H  H29  1  0.140500  0.470000  0.731600  1.0  0.1123
  H  H30  1  0.056600  0.443600  0.720700  1.0  0.1236
  H  H31  1  0.994400  0.696700  0.656000  1.0  0.1342
  H  H32  1  0.076800  0.732800  0.651300  1.0  0.1339
  H  H33  1  0.067800  0.644900  0.661100  1.0  0.135
  H  H34  1  0.048400  0.235000  0.804600  1.0  0.0977
  H  H35  1  0.080900  0.193300  0.868000  1.0  0.107
  H  H36  1  0.408700  0.298600  0.768100  1.0  0.1107
  H  H37  1  0.218600  0.227000  0.612100  1.0  0.157
  H  H38  1  0.228500  0.205500  0.656600  1.0  0.1426
  H  H39  1  0.290400  0.257100  0.635600  1.0  0.1371
  H  H40  1  0.191400  0.953600  0.572800  1.0  0.0857
  H  H41  1  0.053800  0.657300  0.479800  1.0  0.1441
  H  H42  1  0.049400  0.744300  0.492400  1.0  0.1362
  H  H43  1  0.973800  0.694900  0.489600  1.0  0.1305
  H  H44  1  0.439800  0.256200  0.831900  1.0  0.1019
  H  H45  1  0.822100  0.912800  0.571300  1.0  0.1072
  H  H46  1  0.427400  0.040800  0.909500  1.0  0.1243
  H  H47  1  0.347700  0.998000  0.909300  1.0  0.1406
  H  H48  1  0.411900  0.973600  0.939400  1.0  0.1515
  H  H49  1  0.707200  0.735200  0.494000  1.0  0.1387
  H  H50  1  0.776100  0.786800  0.479700  1.0  0.1419
  H  H51  1  0.773200  0.757800  0.523400  1.0  0.1463
  H  H52  1  0.594200  0.013900  0.198900  1.0  0.1214
  H  H53  1  0.640500  0.970000  0.231600  1.0  0.1123
  H  H54  1  0.556600  0.943600  0.220700  1.0  0.1236
  H  H55  1  0.494400  0.196700  0.156000  1.0  0.1342
  H  H56  1  0.576800  0.232800  0.151300  1.0  0.1339
  H  H57  1  0.567800  0.144900  0.161100  1.0  0.135
  H  H58  1  0.548400  0.735000  0.304600  1.0  0.0977
  H  H59  1  0.580900  0.693300  0.368000  1.0  0.107
  H  H60  1  0.908700  0.798600  0.268100  1.0  0.1107
  H  H61  1  0.718600  0.727000  0.112100  1.0  0.157
  H  H62  1  0.728500  0.705500  0.156600  1.0  0.1426
  H  H63  1  0.790400  0.757100  0.135600  1.0  0.1371
  H  H64  1  0.691400  0.453600  0.072800  1.0  0.0857
  H  H65  1  0.553800  0.157300  0.979800  1.0  0.1441
  H  H66  1  0.549400  0.244300  0.992400  1.0  0.1362
  H  H67  1  0.473800  0.194900  0.989600  1.0  0.1305
  H  H68  1  0.939800  0.756200  0.331900  1.0  0.1019
  H  H69  1  0.322100  0.412800  0.071300  1.0  0.1072
  H  H70  1  0.927400  0.540800  0.409500  1.0  0.1243
  H  H71  1  0.847700  0.498000  0.409300  1.0  0.1406
  H  H72  1  0.911900  0.473600  0.439400  1.0  0.1515
  H  H73  1  0.792800  0.764800  0.994000  1.0  0.1363
  H  H74  1  0.723900  0.713200  0.979700  1.0  0.1415
  H  H75  1  0.726800  0.742200  0.023400  1.0  0.1454
  H  H76  1  0.905800  0.486100  0.698900  1.0  0.1204
  H  H77  1  0.859500  0.530000  0.731600  1.0  0.1124
  H  H78  1  0.943400  0.556400  0.720700  1.0  0.1244
  H  H79  1  0.005600  0.303300  0.656000  1.0  0.1348
  H  H80  1  0.923200  0.267200  0.651300  1.0  0.1345
  H  H81  1  0.932200  0.355100  0.661100  1.0  0.1345
  H  H82  1  0.951600  0.765000  0.804600  1.0  0.0967
  H  H83  1  0.919100  0.806700  0.868000  1.0  0.1064
  H  H84  1  0.591300  0.701400  0.768100  1.0  0.1105
  H  H85  1  0.781400  0.773000  0.612100  1.0  0.1563
  H  H86  1  0.771500  0.794500  0.656600  1.0  0.1429
  H  H87  1  0.709600  0.742900  0.635600  1.0  0.138
  H  H88  1  0.808600  0.046400  0.572800  1.0  0.0851
  H  H89  1  0.946200  0.342700  0.479800  1.0  0.144
  H  H90  1  0.950600  0.255700  0.492400  1.0  0.1351
  H  H91  1  0.026200  0.305100  0.489600  1.0  0.1315
  H  H92  1  0.560200  0.743800  0.831900  1.0  0.1035
  H  H93  1  0.177900  0.087200  0.571300  1.0  0.1074
  H  H94  1  0.572600  0.959200  0.909500  1.0  0.1246
  H  H95  1  0.652300  0.002000  0.909300  1.0  0.1415
  H  H96  1  0.588100  0.026400  0.939400  1.0  0.1513
  H  H97  1  0.292800  0.264800  0.494000  1.0  0.1363
  H  H98  1  0.223900  0.213200  0.479700  1.0  0.1415
  H  H99  1  0.226800  0.242200  0.523400  1.0  0.1454
  H  H100  1  0.405800  0.986100  0.198900  1.0  0.1204
  H  H101  1  0.359500  0.030000  0.231600  1.0  0.1124
  H  H102  1  0.443400  0.056400  0.220700  1.0  0.1244
  H  H103  1  0.505600  0.803300  0.156000  1.0  0.1348
  H  H104  1  0.423200  0.767200  0.151300  1.0  0.1345
  H  H105  1  0.432200  0.855100  0.161100  1.0  0.1345
  H  H106  1  0.451600  0.265000  0.304600  1.0  0.0967
  H  H107  1  0.419100  0.306700  0.368000  1.0  0.1064
  H  H108  1  0.091300  0.201400  0.268100  1.0  0.1105
  H  H109  1  0.281400  0.273000  0.112100  1.0  0.1563
  H  H110  1  0.271500  0.294500  0.156600  1.0  0.1429
  H  H111  1  0.209600  0.242900  0.135600  1.0  0.138
  H  H112  1  0.308600  0.546400  0.072800  1.0  0.0851
  H  H113  1  0.446200  0.842700  0.979800  1.0  0.144
  H  H114  1  0.450600  0.755700  0.992400  1.0  0.1351
  H  H115  1  0.526200  0.805100  0.989600  1.0  0.1315
  H  H116  1  0.060200  0.243800  0.331900  1.0  0.1035
  H  H117  1  0.677900  0.587200  0.071300  1.0  0.1074
  H  H118  1  0.072600  0.459200  0.409500  1.0  0.1246
  H  H119  1  0.152300  0.502000  0.409300  1.0  0.1415
  H  H120  1  0.088100  0.526400  0.439400  1.0  0.1513
  H  H121  1  0.235200  0.792800  0.006000  1.0  0.1352
  H  H122  1  0.286800  0.723900  0.020300  1.0  0.143
  H  H123  1  0.257800  0.726800  0.976600  1.0  0.1424
  H  H124  1  0.513900  0.905800  0.301100  1.0  0.1214
  H  H125  1  0.470000  0.859500  0.268400  1.0  0.113
  H  H126  1  0.443600  0.943400  0.279300  1.0  0.1259
  H  H127  1  0.696700  0.005600  0.344000  1.0  0.1347
  H  H128  1  0.732800  0.923200  0.348700  1.0  0.1342
  H  H129  1  0.644900  0.932200  0.338900  1.0  0.1353
  H  H130  1  0.235000  0.951600  0.195400  1.0  0.0965
  H  H131  1  0.193300  0.919100  0.132000  1.0  0.1072
  H  H132  1  0.298600  0.591300  0.231900  1.0  0.1114
  H  H133  1  0.227000  0.781400  0.387900  1.0  0.1544
  H  H134  1  0.205500  0.771500  0.343400  1.0  0.1411
  H  H135  1  0.257100  0.709600  0.364400  1.0  0.1382
  H  H136  1  0.953600  0.808600  0.427200  1.0  0.085
  H  H137  1  0.657300  0.946200  0.520200  1.0  0.1448
  H  H138  1  0.744300  0.950600  0.507600  1.0  0.1381
  H  H139  1  0.694900  0.026200  0.510400  1.0  0.131
  H  H140  1  0.256200  0.560200  0.168100  1.0  0.103
  H  H141  1  0.912800  0.177900  0.428700  1.0  0.1068
  H  H142  1  0.040800  0.572600  0.090500  1.0  0.1264
  H  H143  1  0.998000  0.652300  0.090700  1.0  0.1427
  H  H144  1  0.973600  0.588100  0.060600  1.0  0.1486
  H  H145  1  0.735200  0.292800  0.506000  1.0  0.1352
  H  H146  1  0.786800  0.223900  0.520300  1.0  0.143
  H  H147  1  0.757800  0.226800  0.476600  1.0  0.1424
  H  H148  1  0.013900  0.405800  0.801100  1.0  0.1214
  H  H149  1  0.970000  0.359500  0.768400  1.0  0.113
  H  H150  1  0.943600  0.443400  0.779300  1.0  0.1259
  H  H151  1  0.196700  0.505600  0.844000  1.0  0.1347
  H  H152  1  0.232800  0.423200  0.848700  1.0  0.1342
  H  H153  1  0.144900  0.432200  0.838900  1.0  0.1353
  H  H154  1  0.735000  0.451600  0.695400  1.0  0.0965
  H  H155  1  0.693300  0.419100  0.632000  1.0  0.1072
  H  H156  1  0.798600  0.091300  0.731900  1.0  0.1114
  H  H157  1  0.727000  0.281400  0.887900  1.0  0.1544
  H  H158  1  0.705500  0.271500  0.843400  1.0  0.1411
  H  H159  1  0.757100  0.209600  0.864400  1.0  0.1382
  H  H160  1  0.453600  0.308600  0.927200  1.0  0.085
  H  H161  1  0.157300  0.446200  0.020200  1.0  0.1448
  H  H162  1  0.244300  0.450600  0.007600  1.0  0.1381
  H  H163  1  0.194900  0.526200  0.010400  1.0  0.131
  H  H164  1  0.756200  0.060200  0.668100  1.0  0.103
  H  H165  1  0.412800  0.677900  0.928700  1.0  0.1068
  H  H166  1  0.540800  0.072600  0.590500  1.0  0.1264
  H  H167  1  0.498000  0.152300  0.590700  1.0  0.1427
  H  H168  1  0.473600  0.088100  0.560600  1.0  0.1486
  H  H169  1  0.764800  0.207200  0.006000  1.0  0.1356
  H  H170  1  0.713200  0.276100  0.020300  1.0  0.141
  H  H171  1  0.742200  0.273200  0.976600  1.0  0.1431
  H  H172  1  0.486100  0.094200  0.301100  1.0  0.1202
  H  H173  1  0.530000  0.140500  0.268400  1.0  0.1128
  H  H174  1  0.556400  0.056600  0.279300  1.0  0.1252
  H  H175  1  0.303300  0.994400  0.344000  1.0  0.1351
  H  H176  1  0.267200  0.076800  0.348700  1.0  0.1347
  H  H177  1  0.355100  0.067800  0.338900  1.0  0.1363
  H  H178  1  0.765000  0.048400  0.195400  1.0  0.097
  H  H179  1  0.806700  0.080900  0.132000  1.0  0.1065
  H  H180  1  0.701400  0.408700  0.231900  1.0  0.1115
  H  H181  1  0.773000  0.218600  0.387900  1.0  0.1549
  H  H182  1  0.794500  0.228500  0.343400  1.0  0.1425
  H  H183  1  0.742900  0.290400  0.364400  1.0  0.1372
  H  H184  1  0.046400  0.191400  0.427200  1.0  0.085
  H  H185  1  0.342700  0.053800  0.520200  1.0  0.145
  H  H186  1  0.255700  0.049400  0.507600  1.0  0.1337
  H  H187  1  0.305100  0.973800  0.510400  1.0  0.1308
  H  H188  1  0.743800  0.439800  0.168100  1.0  0.1026
  H  H189  1  0.087200  0.822100  0.428700  1.0  0.107
  H  H190  1  0.959200  0.427400  0.090500  1.0  0.1258
  H  H191  1  0.002000  0.347700  0.090700  1.0  0.1429
  H  H192  1  0.026400  0.411900  0.060600  1.0  0.1494
  H  H193  1  0.264800  0.707200  0.506000  1.0  0.1356
  H  H194  1  0.213200  0.776100  0.520300  1.0  0.141
  H  H195  1  0.242200  0.773200  0.476600  1.0  0.1431
  H  H196  1  0.986100  0.594200  0.801100  1.0  0.1202
  H  H197  1  0.030000  0.640500  0.768400  1.0  0.1128
  H  H198  1  0.056400  0.556600  0.779300  1.0  0.1252
  H  H199  1  0.803300  0.494400  0.844000  1.0  0.1351
  H  H200  1  0.767200  0.576800  0.848700  1.0  0.1347
  H  H201  1  0.855100  0.567800  0.838900  1.0  0.1363
  H  H202  1  0.265000  0.548400  0.695400  1.0  0.097
  H  H203  1  0.306700  0.580900  0.632000  1.0  0.1065
  H  H204  1  0.201400  0.908700  0.731900  1.0  0.1115
  H  H205  1  0.273000  0.718600  0.887900  1.0  0.1549
  H  H206  1  0.294500  0.728500  0.843400  1.0  0.1425
  H  H207  1  0.242900  0.790400  0.864400  1.0  0.1372
  H  H208  1  0.546400  0.691400  0.927200  1.0  0.085
  H  H209  1  0.842700  0.553800  0.020200  1.0  0.145
  H  H210  1  0.755700  0.549400  0.007600  1.0  0.1337
  H  H211  1  0.805100  0.473800  0.010400  1.0  0.1308
  H  H212  1  0.243800  0.939800  0.668100  1.0  0.1026
  H  H213  1  0.587200  0.322100  0.928700  1.0  0.107
  H  H214  1  0.459200  0.927400  0.590500  1.0  0.1258
  H  H215  1  0.502000  0.847700  0.590700  1.0  0.1429
  H  H216  1  0.526400  0.911900  0.560600  1.0  0.1494
  C  C217  1  0.036400  0.671400  0.537800  1.0  0.1985
  C  C218  1  0.004500  0.959200  0.572000  1.0  0.0548
  C  C219  1  0.135500  0.411900  0.680600  1.0  0.2206
  C  C220  1  0.358200  0.073300  0.954800  1.0  0.2058
  C  C221  1  0.089200  0.842800  0.576600  1.0  0.4731
  C  C222  1  0.192100  0.316000  0.648700  1.0  0.1752
  C  C223  1  0.946600  0.826800  0.570000  1.0  0.4938
  C  C224  1  0.274100  0.317100  0.733800  1.0  0.5357
  C  C225  1  0.261600  0.244800  0.996600  1.0  -0.3813
  C  C226  1  0.104000  0.464400  0.710500  1.0  -0.3997
  C  C227  1  0.305700  0.173600  0.985000  1.0  0.2019
  C  C228  1  0.032100  0.716700  0.571300  1.0  0.1067
  C  C229  1  0.080400  0.928500  0.573700  1.0  -0.1129
  C  C230  1  0.316900  0.141200  0.949000  1.0  0.0514
  C  C231  1  0.255100  0.230200  0.836200  1.0  0.052
  C  C232  1  0.293600  0.285500  0.774000  1.0  -0.1177
  C  C233  1  0.217800  0.175200  0.901900  1.0  0.5962
  C  C234  1  0.046000  0.687500  0.646900  1.0  -0.3978
  C  C235  1  0.937500  0.912800  0.571500  1.0  -0.1611
  C  C236  1  0.099800  0.234200  0.812400  1.0  -0.0147
  C  C237  1  0.119400  0.208100  0.850500  1.0  -0.0397
  C  C238  1  0.196800  0.204400  0.861900  1.0  -0.1375
  C  C239  1  0.044600  0.669100  0.603900  1.0  0.1778
  C  C240  1  0.354400  0.194500  0.886500  1.0  0.5399
  C  C241  1  0.333100  0.229800  0.847600  1.0  -0.0649
  C  C242  1  0.370000  0.282800  0.785300  1.0  -0.0597
  C  C243  1  0.236400  0.245000  0.637200  1.0  -0.4036
  C  C244  1  0.142200  0.975100  0.572800  1.0  -0.0036
  C  C245  1  0.027600  0.693900  0.496300  1.0  -0.3722
  C  C246  1  0.175300  0.344400  0.685400  1.0  0.0566
  C  C247  1  0.234800  0.257300  0.798000  1.0  -0.0021
  C  C248  1  0.135700  0.283800  0.746600  1.0  0.4827
  C  C249  1  0.156200  0.258500  0.786900  1.0  -0.1678
  C  C250  1  0.388700  0.255900  0.823500  1.0  -0.0545
  C  C251  1  0.865600  0.944300  0.571800  1.0  -0.0378
  C  C252  1  0.389000  0.016300  0.925600  1.0  -0.3949
  C  C253  1  0.536400  0.171400  0.037800  1.0  0.1985
  C  C254  1  0.504500  0.459200  0.072000  1.0  0.0548
  C  C255  1  0.635500  0.911900  0.180600  1.0  0.2206
  C  C256  1  0.858200  0.573300  0.454800  1.0  0.2058
  C  C257  1  0.589200  0.342800  0.076600  1.0  0.4731
  C  C258  1  0.692100  0.816000  0.148700  1.0  0.1752
  C  C259  1  0.446600  0.326800  0.070000  1.0  0.4938
  C  C260  1  0.774100  0.817100  0.233800  1.0  0.5357
  C  C261  1  0.761600  0.744800  0.496600  1.0  -0.3813
  C  C262  1  0.604000  0.964400  0.210500  1.0  -0.3997
  C  C263  1  0.805700  0.673600  0.485000  1.0  0.2019
  C  C264  1  0.532100  0.216700  0.071300  1.0  0.1067
  C  C265  1  0.580400  0.428500  0.073700  1.0  -0.1129
  C  C266  1  0.816900  0.641200  0.449000  1.0  0.0514
  C  C267  1  0.755100  0.730200  0.336200  1.0  0.052
  C  C268  1  0.793600  0.785500  0.274000  1.0  -0.1177
  C  C269  1  0.717800  0.675200  0.401900  1.0  0.5962
  C  C270  1  0.546000  0.187500  0.146900  1.0  -0.3978
  C  C271  1  0.437500  0.412800  0.071500  1.0  -0.1611
  C  C272  1  0.599800  0.734200  0.312400  1.0  -0.0147
  C  C273  1  0.619400  0.708100  0.350500  1.0  -0.0397
  C  C274  1  0.696800  0.704400  0.361900  1.0  -0.1375
  C  C275  1  0.544600  0.169100  0.103900  1.0  0.1778
  C  C276  1  0.854400  0.694500  0.386500  1.0  0.5399
  C  C277  1  0.833100  0.729800  0.347600  1.0  -0.0649
  C  C278  1  0.870000  0.782800  0.285300  1.0  -0.0597
  C  C279  1  0.736400  0.745000  0.137200  1.0  -0.4036
  C  C280  1  0.642200  0.475100  0.072800  1.0  -0.0036
  C  C281  1  0.527600  0.193900  0.996300  1.0  -0.3722
  C  C282  1  0.675300  0.844400  0.185400  1.0  0.0566
  C  C283  1  0.734800  0.757300  0.298000  1.0  -0.0021
  C  C284  1  0.635700  0.783800  0.246600  1.0  0.4827
  C  C285  1  0.656200  0.758500  0.286900  1.0  -0.1678
  C  C286  1  0.888700  0.755900  0.323500  1.0  -0.0545
  C  C287  1  0.365600  0.444300  0.071800  1.0  -0.0378
  C  C288  1  0.889000  0.516300  0.425600  1.0  -0.3949
  C  C289  1  0.963600  0.328600  0.537800  1.0  0.1991
  C  C290  1  0.995500  0.040800  0.572000  1.0  0.0548
  C  C291  1  0.864500  0.588100  0.680600  1.0  0.2202
  C  C292  1  0.641800  0.926700  0.954800  1.0  0.205
  C  C293  1  0.910800  0.157200  0.576600  1.0  0.4726
  C  C294  1  0.807900  0.684000  0.648700  1.0  0.1733
  C  C295  1  0.053400  0.173200  0.570000  1.0  0.4946
  C  C296  1  0.725900  0.682900  0.733800  1.0  0.5342
  C  C297  1  0.738400  0.755200  0.996600  1.0  -0.3813
  C  C298  1  0.896000  0.535600  0.710500  1.0  -0.3999
  C  C299  1  0.694300  0.826400  0.985000  1.0  0.2021
  C  C300  1  0.967900  0.283300  0.571300  1.0  0.1068
  C  C301  1  0.919600  0.071500  0.573700  1.0  -0.1101
  C  C302  1  0.683100  0.858800  0.949000  1.0  0.0517
  C  C303  1  0.744900  0.769800  0.836200  1.0  0.0522
  C  C304  1  0.706400  0.714500  0.774000  1.0  -0.1192
  C  C305  1  0.782200  0.824800  0.901900  1.0  0.5968
  C  C306  1  0.954000  0.312500  0.646900  1.0  -0.3985
  C  C307  1  0.062500  0.087200  0.571500  1.0  -0.1626
  C  C308  1  0.900200  0.765800  0.812400  1.0  -0.0146
  C  C309  1  0.880600  0.791900  0.850500  1.0  -0.0389
  C  C310  1  0.803200  0.795600  0.861900  1.0  -0.136
  C  C311  1  0.955400  0.330900  0.603900  1.0  0.1772
  C  C312  1  0.645600  0.805500  0.886500  1.0  0.5379
  C  C313  1  0.666900  0.770200  0.847600  1.0  -0.0648
  C  C314  1  0.630000  0.717200  0.785300  1.0  -0.0586
  C  C315  1  0.763600  0.755000  0.637200  1.0  -0.4023
  C  C316  1  0.857800  0.024900  0.572800  1.0  -0.0058
  C  C317  1  0.972400  0.306100  0.496300  1.0  -0.3712
  C  C318  1  0.824700  0.655600  0.685400  1.0  0.0569
  C  C319  1  0.765200  0.742700  0.798000  1.0  -0.001
  C  C320  1  0.864300  0.716200  0.746600  1.0  0.4836
  C  C321  1  0.843800  0.741500  0.786900  1.0  -0.1689
  C  C322  1  0.611300  0.744100  0.823500  1.0  -0.0558
  C  C323  1  0.134400  0.055700  0.571800  1.0  -0.0375
  C  C324  1  0.611000  0.983700  0.925600  1.0  -0.3947
  C  C325  1  0.463600  0.828600  0.037800  1.0  0.1991
  C  C326  1  0.495500  0.540800  0.072000  1.0  0.0548
  C  C327  1  0.364500  0.088100  0.180600  1.0  0.2202
  C  C328  1  0.141800  0.426700  0.454800  1.0  0.205
  C  C329  1  0.410800  0.657200  0.076600  1.0  0.4726
  C  C330  1  0.307900  0.184000  0.148700  1.0  0.1733
  C  C331  1  0.553400  0.673200  0.070000  1.0  0.4946
  C  C332  1  0.225900  0.182900  0.233800  1.0  0.5342
  C  C333  1  0.238400  0.255200  0.496600  1.0  -0.3813
  C  C334  1  0.396000  0.035600  0.210500  1.0  -0.3999
  C  C335  1  0.194300  0.326400  0.485000  1.0  0.2021
  C  C336  1  0.467900  0.783300  0.071300  1.0  0.1068
  C  C337  1  0.419600  0.571500  0.073700  1.0  -0.1101
  C  C338  1  0.183100  0.358800  0.449000  1.0  0.0517
  C  C339  1  0.244900  0.269800  0.336200  1.0  0.0522
  C  C340  1  0.206400  0.214500  0.274000  1.0  -0.1192
  C  C341  1  0.282200  0.324800  0.401900  1.0  0.5968
  C  C342  1  0.454000  0.812500  0.146900  1.0  -0.3985
  C  C343  1  0.562500  0.587200  0.071500  1.0  -0.1626
  C  C344  1  0.400200  0.265800  0.312400  1.0  -0.0146
  C  C345  1  0.380600  0.291900  0.350500  1.0  -0.0389
  C  C346  1  0.303200  0.295600  0.361900  1.0  -0.136
  C  C347  1  0.455400  0.830900  0.103900  1.0  0.1772
  C  C348  1  0.145600  0.305500  0.386500  1.0  0.5379
  C  C349  1  0.166900  0.270200  0.347600  1.0  -0.0648
  C  C350  1  0.130000  0.217200  0.285300  1.0  -0.0586
  C  C351  1  0.263600  0.255000  0.137200  1.0  -0.4023
  C  C352  1  0.357800  0.524900  0.072800  1.0  -0.0058
  C  C353  1  0.472400  0.806100  0.996300  1.0  -0.3712
  C  C354  1  0.324700  0.155600  0.185400  1.0  0.0569
  C  C355  1  0.265200  0.242700  0.298000  1.0  -0.001
  C  C356  1  0.364300  0.216200  0.246600  1.0  0.4836
  C  C357  1  0.343800  0.241500  0.286900  1.0  -0.1689
  C  C358  1  0.111300  0.244100  0.323500  1.0  -0.0558
  C  C359  1  0.634400  0.555700  0.071800  1.0  -0.0375
  C  C360  1  0.111000  0.483700  0.425600  1.0  -0.3947
  C  C361  1  0.671400  0.963600  0.462200  1.0  0.1984
  C  C362  1  0.959200  0.995500  0.428000  1.0  0.0537
  C  C363  1  0.411900  0.864500  0.319400  1.0  0.2211
  C  C364  1  0.073300  0.641800  0.045200  1.0  0.2062
  C  C365  1  0.842800  0.910800  0.423400  1.0  0.4724
  C  C366  1  0.316000  0.807900  0.351300  1.0  0.1709
  C  C367  1  0.826800  0.053400  0.430000  1.0  0.4959
  C  C368  1  0.317100  0.725900  0.266200  1.0  0.5335
  C  C369  1  0.244800  0.738400  0.003400  1.0  -0.3805
  C  C370  1  0.464400  0.896000  0.289500  1.0  -0.398
  C  C371  1  0.173600  0.694300  0.015000  1.0  0.1998
  C  C372  1  0.716700  0.967900  0.428700  1.0  0.1063
  C  C373  1  0.928500  0.919600  0.426300  1.0  -0.1136
  C  C374  1  0.141200  0.683100  0.051000  1.0  0.0499
  C  C375  1  0.230200  0.744900  0.163800  1.0  0.0519
  C  C376  1  0.285500  0.706400  0.226000  1.0  -0.1194
  C  C377  1  0.175200  0.782200  0.098100  1.0  0.5984
  C  C378  1  0.687500  0.954000  0.353100  1.0  -0.3983
  C  C379  1  0.912800  0.062500  0.428500  1.0  -0.1614
  C  C380  1  0.234200  0.900200  0.187600  1.0  -0.0197
  C  C381  1  0.208100  0.880600  0.149500  1.0  -0.0365
  C  C382  1  0.204400  0.803200  0.138100  1.0  -0.1355
  C  C383  1  0.669100  0.955400  0.396100  1.0  0.1781
  C  C384  1  0.194500  0.645600  0.113500  1.0  0.5411
  C  C385  1  0.229800  0.666900  0.152400  1.0  -0.0648
  C  C386  1  0.282800  0.630000  0.214700  1.0  -0.0602
  C  C387  1  0.245000  0.763600  0.362800  1.0  -0.4011
  C  C388  1  0.975100  0.857800  0.427200  1.0  -0.005
  C  C389  1  0.693900  0.972400  0.503700  1.0  -0.3723
  C  C390  1  0.344400  0.824700  0.314600  1.0  0.0563
  C  C391  1  0.257300  0.765200  0.202000  1.0  -0.001
  C  C392  1  0.283800  0.864300  0.253400  1.0  0.4857
  C  C393  1  0.258500  0.843800  0.213100  1.0  -0.1672
  C  C394  1  0.255900  0.611300  0.176500  1.0  -0.0577
  C  C395  1  0.944300  0.134400  0.428200  1.0  -0.0376
  C  C396  1  0.016300  0.611000  0.074400  1.0  -0.3944
  C  C397  1  0.171400  0.463600  0.962200  1.0  0.1984
  C  C398  1  0.459200  0.495500  0.928000  1.0  0.0537
  C  C399  1  0.911900  0.364500  0.819400  1.0  0.2211
  C  C400  1  0.573300  0.141800  0.545200  1.0  0.2062
  C  C401  1  0.342800  0.410800  0.923400  1.0  0.4724
  C  C402  1  0.816000  0.307900  0.851300  1.0  0.1709
  C  C403  1  0.326800  0.553400  0.930000  1.0  0.4959
  C  C404  1  0.817100  0.225900  0.766200  1.0  0.5335
  C  C405  1  0.744800  0.238400  0.503400  1.0  -0.3805
  C  C406  1  0.964400  0.396000  0.789500  1.0  -0.398
  C  C407  1  0.673600  0.194300  0.515000  1.0  0.1998
  C  C408  1  0.216700  0.467900  0.928700  1.0  0.1063
  C  C409  1  0.428500  0.419600  0.926300  1.0  -0.1136
  C  C410  1  0.641200  0.183100  0.551000  1.0  0.0499
  C  C411  1  0.730200  0.244900  0.663800  1.0  0.0519
  C  C412  1  0.785500  0.206400  0.726000  1.0  -0.1194
  C  C413  1  0.675200  0.282200  0.598100  1.0  0.5984
  C  C414  1  0.187500  0.454000  0.853100  1.0  -0.3983
  C  C415  1  0.412800  0.562500  0.928500  1.0  -0.1614
  C  C416  1  0.734200  0.400200  0.687600  1.0  -0.0197
  C  C417  1  0.708100  0.380600  0.649500  1.0  -0.0365
  C  C418  1  0.704400  0.303200  0.638100  1.0  -0.1355
  C  C419  1  0.169100  0.455400  0.896100  1.0  0.1781
  C  C420  1  0.694500  0.145600  0.613500  1.0  0.5411
  C  C421  1  0.729800  0.166900  0.652400  1.0  -0.0648
  C  C422  1  0.782800  0.130000  0.714700  1.0  -0.0602
  C  C423  1  0.745000  0.263600  0.862800  1.0  -0.4011
  C  C424  1  0.475100  0.357800  0.927200  1.0  -0.005
  C  C425  1  0.193900  0.472400  0.003700  1.0  -0.3723
  C  C426  1  0.844400  0.324700  0.814600  1.0  0.0563
  C  C427  1  0.757300  0.265200  0.702000  1.0  -0.001
  C  C428  1  0.783800  0.364300  0.753400  1.0  0.4857
  C  C429  1  0.758500  0.343800  0.713100  1.0  -0.1672
  C  C430  1  0.755900  0.111300  0.676500  1.0  -0.0577
  C  C431  1  0.444300  0.634400  0.928200  1.0  -0.0376
  C  C432  1  0.516300  0.111000  0.574400  1.0  -0.3944
  C  C433  1  0.328600  0.036400  0.462200  1.0  0.1977
  C  C434  1  0.040800  0.004500  0.428000  1.0  0.0537
  C  C435  1  0.588100  0.135500  0.319400  1.0  0.2211
  C  C436  1  0.926700  0.358200  0.045200  1.0  0.2059
  C  C437  1  0.157200  0.089200  0.423400  1.0  0.4737
  C  C438  1  0.684000  0.192100  0.351300  1.0  0.1723
  C  C439  1  0.173200  0.946600  0.430000  1.0  0.4973
  C  C440  1  0.682900  0.274100  0.266200  1.0  0.5336
  C  C441  1  0.755200  0.261600  0.003400  1.0  -0.3804
  C  C442  1  0.535600  0.104000  0.289500  1.0  -0.3984
  C  C443  1  0.826400  0.305700  0.015000  1.0  0.1985
  C  C444  1  0.283300  0.032100  0.428700  1.0  0.1063
  C  C445  1  0.071500  0.080400  0.426300  1.0  -0.1105
  C  C446  1  0.858800  0.316900  0.051000  1.0  0.0503
  C  C447  1  0.769800  0.255100  0.163800  1.0  0.0524
  C  C448  1  0.714500  0.293600  0.226000  1.0  -0.1193
  C  C449  1  0.824800  0.217800  0.098100  1.0  0.5994
  C  C450  1  0.312500  0.046000  0.353100  1.0  -0.3975
  C  C451  1  0.087200  0.937500  0.428500  1.0  -0.1606
  C  C452  1  0.765800  0.099800  0.187600  1.0  -0.0165
  C  C453  1  0.791900  0.119400  0.149500  1.0  -0.0386
  C  C454  1  0.795600  0.196800  0.138100  1.0  -0.1365
  C  C455  1  0.330900  0.044600  0.396100  1.0  0.1787
  C  C456  1  0.805500  0.354400  0.113500  1.0  0.5401
  C  C457  1  0.770200  0.333100  0.152400  1.0  -0.0652
  C  C458  1  0.717200  0.370000  0.214700  1.0  -0.0588
  C  C459  1  0.755000  0.236400  0.362800  1.0  -0.4026
  C  C460  1  0.024900  0.142200  0.427200  1.0  -0.0076
  C  C461  1  0.306100  0.027600  0.503700  1.0  -0.3717
  C  C462  1  0.655600  0.175300  0.314600  1.0  0.057
  C  C463  1  0.742700  0.234800  0.202000  1.0  -0.0037
  C  C464  1  0.716200  0.135700  0.253400  1.0  0.4875
  C  C465  1  0.741500  0.156200  0.213100  1.0  -0.1685
  C  C466  1  0.744100  0.388700  0.176500  1.0  -0.0548
  C  C467  1  0.055700  0.865600  0.428200  1.0  -0.0376
  C  C468  1  0.983700  0.389000  0.074400  1.0  -0.3943
  C  C469  1  0.828600  0.536400  0.962200  1.0  0.1977
  C  C470  1  0.540800  0.504500  0.928000  1.0  0.0537
  C  C471  1  0.088100  0.635500  0.819400  1.0  0.2211
  C  C472  1  0.426700  0.858200  0.545200  1.0  0.2059
  C  C473  1  0.657200  0.589200  0.923400  1.0  0.4737
  C  C474  1  0.184000  0.692100  0.851300  1.0  0.1723
  C  C475  1  0.673200  0.446600  0.930000  1.0  0.4973
  C  C476  1  0.182900  0.774100  0.766200  1.0  0.5336
  C  C477  1  0.255200  0.761600  0.503400  1.0  -0.3804
  C  C478  1  0.035600  0.604000  0.789500  1.0  -0.3984
  C  C479  1  0.326400  0.805700  0.515000  1.0  0.1985
  C  C480  1  0.783300  0.532100  0.928700  1.0  0.1063
  C  C481  1  0.571500  0.580400  0.926300  1.0  -0.1105
  C  C482  1  0.358800  0.816900  0.551000  1.0  0.0503
  C  C483  1  0.269800  0.755100  0.663800  1.0  0.0524
  C  C484  1  0.214500  0.793600  0.726000  1.0  -0.1193
  C  C485  1  0.324800  0.717800  0.598100  1.0  0.5994
  C  C486  1  0.812500  0.546000  0.853100  1.0  -0.3975
  C  C487  1  0.587200  0.437500  0.928500  1.0  -0.1606
  C  C488  1  0.265800  0.599800  0.687600  1.0  -0.0165
  C  C489  1  0.291900  0.619400  0.649500  1.0  -0.0386
  C  C490  1  0.295600  0.696800  0.638100  1.0  -0.1365
  C  C491  1  0.830900  0.544600  0.896100  1.0  0.1787
  C  C492  1  0.305500  0.854400  0.613500  1.0  0.5401
  C  C493  1  0.270200  0.833100  0.652400  1.0  -0.0652
  C  C494  1  0.217200  0.870000  0.714700  1.0  -0.0588
  C  C495  1  0.255000  0.736400  0.862800  1.0  -0.4026
  C  C496  1  0.524900  0.642200  0.927200  1.0  -0.0076
  C  C497  1  0.806100  0.527600  0.003700  1.0  -0.3717
  C  C498  1  0.155600  0.675300  0.814600  1.0  0.057
  C  C499  1  0.242700  0.734800  0.702000  1.0  -0.0037
  C  C500  1  0.216200  0.635700  0.753400  1.0  0.4875
  C  C501  1  0.241500  0.656200  0.713100  1.0  -0.1685
  C  C502  1  0.244100  0.888700  0.676500  1.0  -0.0548
  C  C503  1  0.555700  0.365600  0.928200  1.0  -0.0376
  C  C504  1  0.483700  0.889000  0.574400  1.0  -0.3943
  N  N505  1  0.126900  0.424500  0.641670  1.0  -0.225
  N  N506  1  0.160400  0.364500  0.622300  1.0  -0.2357
  N  N507  1  0.370900  0.066700  0.993400  1.0  -0.2778
  N  N508  1  0.050700  0.598500  0.549450  1.0  -0.3073
  N  N509  1  0.054700  0.597200  0.590420  1.0  -0.3287
  N  N510  1  0.337700  0.127800  0.012400  1.0  -0.2159
  N  N511  1  0.295700  0.170900  0.910700  1.0  -0.2763
  N  N512  1  0.022200  0.798600  0.572300  1.0  -0.255
  N  N513  1  0.195600  0.311200  0.722800  1.0  -0.2783
  N  N514  1  0.626900  0.924500  0.141670  1.0  -0.225
  N  N515  1  0.660400  0.864500  0.122300  1.0  -0.2357
  N  N516  1  0.870900  0.566700  0.493400  1.0  -0.2778
  N  N517  1  0.550700  0.098500  0.049450  1.0  -0.3073
  N  N518  1  0.554700  0.097200  0.090420  1.0  -0.3287
  N  N519  1  0.837700  0.627800  0.512400  1.0  -0.2159
  N  N520  1  0.795700  0.670900  0.410700  1.0  -0.2763
  N  N521  1  0.522200  0.298600  0.072300  1.0  -0.255
  N  N522  1  0.695600  0.811200  0.222800  1.0  -0.2783
  N  N523  1  0.873100  0.575500  0.641670  1.0  -0.2258
  N  N524  1  0.839600  0.635500  0.622300  1.0  -0.2363
  N  N525  1  0.629100  0.933300  0.993400  1.0  -0.2804
  N  N526  1  0.949300  0.401500  0.549450  1.0  -0.307
  N  N527  1  0.945300  0.402800  0.590420  1.0  -0.3278
  N  N528  1  0.662300  0.872200  0.012400  1.0  -0.2169
  N  N529  1  0.704300  0.829100  0.910700  1.0  -0.2742
  N  N530  1  0.977800  0.201400  0.572300  1.0  -0.2547
  N  N531  1  0.804400  0.688800  0.722800  1.0  -0.278
  N  N532  1  0.373100  0.075500  0.141670  1.0  -0.2258
  N  N533  1  0.339600  0.135500  0.122300  1.0  -0.2363
  N  N534  1  0.129100  0.433300  0.493400  1.0  -0.2804
  N  N535  1  0.449300  0.901500  0.049450  1.0  -0.307
  N  N536  1  0.445300  0.902800  0.090420  1.0  -0.3278
  N  N537  1  0.162300  0.372200  0.512400  1.0  -0.2169
  N  N538  1  0.204300  0.329100  0.410700  1.0  -0.2742
  N  N539  1  0.477800  0.701400  0.072300  1.0  -0.2547
  N  N540  1  0.304400  0.188800  0.222800  1.0  -0.278
  N  N541  1  0.424500  0.873100  0.358330  1.0  -0.2261
  N  N542  1  0.364500  0.839600  0.377700  1.0  -0.2359
  N  N543  1  0.066700  0.629100  0.006600  1.0  -0.2807
  N  N544  1  0.598500  0.949300  0.450550  1.0  -0.312
  N  N545  1  0.597200  0.945300  0.409580  1.0  -0.3329
  N  N546  1  0.127800  0.662300  0.987600  1.0  -0.2183
  N  N547  1  0.170900  0.704300  0.089300  1.0  -0.2746
  N  N548  1  0.798600  0.977800  0.427700  1.0  -0.2562
  N  N549  1  0.311200  0.804400  0.277200  1.0  -0.2797
  N  N550  1  0.924500  0.373100  0.858330  1.0  -0.2261
  N  N551  1  0.864500  0.339600  0.877700  1.0  -0.2359
  N  N552  1  0.566700  0.129100  0.506600  1.0  -0.2807
  N  N553  1  0.098500  0.449300  0.950550  1.0  -0.312
  N  N554  1  0.097200  0.445300  0.909580  1.0  -0.3329
  N  N555  1  0.627800  0.162300  0.487600  1.0  -0.2183
  N  N556  1  0.670900  0.204300  0.589300  1.0  -0.2746
  N  N557  1  0.298600  0.477800  0.927700  1.0  -0.2562
  N  N558  1  0.811200  0.304400  0.777200  1.0  -0.2797
  N  N559  1  0.575500  0.126900  0.358330  1.0  -0.2258
  N  N560  1  0.635500  0.160400  0.377700  1.0  -0.2346
  N  N561  1  0.933300  0.370900  0.006600  1.0  -0.2826
  N  N562  1  0.401500  0.050700  0.450550  1.0  -0.3103
  N  N563  1  0.402800  0.054700  0.409580  1.0  -0.3337
  N  N564  1  0.872200  0.337700  0.987600  1.0  -0.2197
  N  N565  1  0.829100  0.295700  0.089300  1.0  -0.2758
  N  N566  1  0.201400  0.022200  0.427700  1.0  -0.2567
  N  N567  1  0.688800  0.195600  0.277200  1.0  -0.2786
  N  N568  1  0.075500  0.626900  0.858330  1.0  -0.2258
  N  N569  1  0.135500  0.660400  0.877700  1.0  -0.2346
  N  N570  1  0.433300  0.870900  0.506600  1.0  -0.2826
  N  N571  1  0.901500  0.550700  0.950550  1.0  -0.3103
  N  N572  1  0.902800  0.554700  0.909580  1.0  -0.3337
  N  N573  1  0.372200  0.837700  0.487600  1.0  -0.2197
  N  N574  1  0.329100  0.795700  0.589300  1.0  -0.2758
  N  N575  1  0.701400  0.522200  0.927700  1.0  -0.2567
  N  N576  1  0.188800  0.695600  0.777200  1.0  -0.2786
  O  O577  1  0.070800  0.281200  0.734210  1.0  -0.5139
  O  O578  1  0.891700  0.784900  0.566200  1.0  -0.5414
  O  O579  1  0.150500  0.812800  0.582400  1.0  -0.5192
  O  O580  1  0.421400  0.188900  0.896300  1.0  -0.5249
  O  O581  1  0.168700  0.155000  0.925100  1.0  -0.4576
  O  O582  1  0.322300  0.343800  0.712100  1.0  -0.45
  O  O583  1  0.570800  0.781200  0.234210  1.0  -0.5139
  O  O584  1  0.391700  0.284900  0.066200  1.0  -0.5414
  O  O585  1  0.650500  0.312800  0.082400  1.0  -0.5192
  O  O586  1  0.921400  0.688900  0.396300  1.0  -0.5249
  O  O587  1  0.668700  0.655000  0.425100  1.0  -0.4576
  O  O588  1  0.822300  0.843800  0.212100  1.0  -0.45
  O  O589  1  0.929200  0.718800  0.734210  1.0  -0.513
  O  O590  1  0.108300  0.215100  0.566200  1.0  -0.5413
  O  O591  1  0.849500  0.187200  0.582400  1.0  -0.519
  O  O592  1  0.578600  0.811100  0.896300  1.0  -0.5247
  O  O593  1  0.831300  0.845000  0.925100  1.0  -0.4599
  O  O594  1  0.677700  0.656200  0.712100  1.0  -0.4492
  O  O595  1  0.429200  0.218800  0.234210  1.0  -0.513
  O  O596  1  0.608300  0.715100  0.066200  1.0  -0.5413
  O  O597  1  0.349500  0.687200  0.082400  1.0  -0.519
  O  O598  1  0.078600  0.311100  0.396300  1.0  -0.5247
  O  O599  1  0.331300  0.345000  0.425100  1.0  -0.4599
  O  O600  1  0.177700  0.156200  0.212100  1.0  -0.4492
  O  O601  1  0.281200  0.929200  0.265790  1.0  -0.5106
  O  O602  1  0.784900  0.108300  0.433800  1.0  -0.5426
  O  O603  1  0.812800  0.849500  0.417600  1.0  -0.5185
  O  O604  1  0.188900  0.578600  0.103700  1.0  -0.5188
  O  O605  1  0.155000  0.831300  0.074900  1.0  -0.4608
  O  O606  1  0.343800  0.677700  0.287900  1.0  -0.4479
  O  O607  1  0.781200  0.429200  0.765790  1.0  -0.5106
  O  O608  1  0.284900  0.608300  0.933800  1.0  -0.5426
  O  O609  1  0.312800  0.349500  0.917600  1.0  -0.5185
  O  O610  1  0.688900  0.078600  0.603700  1.0  -0.5188
  O  O611  1  0.655000  0.331300  0.574900  1.0  -0.4608
  O  O612  1  0.843800  0.177700  0.787900  1.0  -0.4479
  O  O613  1  0.718800  0.070800  0.265790  1.0  -0.5106
  O  O614  1  0.215100  0.891700  0.433800  1.0  -0.5426
  O  O615  1  0.187200  0.150500  0.417600  1.0  -0.5197
  O  O616  1  0.811100  0.421400  0.103700  1.0  -0.5208
  O  O617  1  0.845000  0.168700  0.074900  1.0  -0.461
  O  O618  1  0.656200  0.322300  0.287900  1.0  -0.4499
  O  O619  1  0.218800  0.570800  0.765790  1.0  -0.5106
  O  O620  1  0.715100  0.391700  0.933800  1.0  -0.5426
  O  O621  1  0.687200  0.650500  0.917600  1.0  -0.5197
  O  O622  1  0.311100  0.921400  0.603700  1.0  -0.5208
  O  O623  1  0.345000  0.668700  0.574900  1.0  -0.461
  O  O624  1  0.156200  0.822300  0.787900  1.0  -0.4499
