# generated using pymatgen
data_AgH10C10SN4
_symmetry_space_group_name_H-M   'P 1'
_cell_length_a   10.71080000
_cell_length_b   13.26160000
_cell_length_c   20.79260000
_cell_angle_alpha   90.00000000
_cell_angle_beta   92.50340000
_cell_angle_gamma   90.00000000
_symmetry_Int_Tables_number   1
_chemical_formula_structural   AgH10C10SN4
_chemical_formula_sum   'Ag8 H80 C80 S8 N32'
_cell_volume   2950.61100792
_cell_formula_units_Z   8
loop_
 _symmetry_equiv_pos_site_id
 _symmetry_equiv_pos_as_xyz
  1  'x, y, z'
loop_
 _atom_site_type_symbol
 _atom_site_label
 _atom_site_symmetry_multiplicity
 _atom_site_fract_x
 _atom_site_fract_y
 _atom_site_fract_z
 _atom_site_occupancy
 _atom_site_charge
  Ag  Ag1  1  0.194700  0.190070  0.069070  1.0  0.317
  Ag  Ag2  1  0.098970  0.994140  0.401100  1.0  0.2887
  Ag  Ag3  1  0.305300  0.690070  0.930930  1.0  0.3197
  Ag  Ag4  1  0.401030  0.494140  0.598900  1.0  0.2883
  Ag  Ag5  1  0.805290  0.809930  0.930930  1.0  0.3196
  Ag  Ag6  1  0.901030  0.005860  0.598900  1.0  0.2889
  Ag  Ag7  1  0.694700  0.309930  0.069070  1.0  0.3174
  Ag  Ag8  1  0.598970  0.505860  0.401100  1.0  0.2885
  H  H9  1  0.319000  0.041000  0.182100  1.0  0.0503
  H  H10  1  0.278000  0.969500  0.281200  1.0  0.0497
  H  H11  1  0.002000  0.157600  0.299900  1.0  0.0578
  H  H12  1  0.937000  0.265300  0.212300  1.0  0.111
  H  H13  1  0.055000  0.319000  0.186900  1.0  0.113
  H  H14  1  0.815000  0.128800  0.151300  1.0  0.1128
  H  H15  1  0.930000  0.068100  0.129300  1.0  0.1262
  H  H16  1  0.887000  0.950500  0.043900  1.0  0.0669
  H  H17  1  0.611000  0.994000  0.921800  1.0  0.0475
  H  H18  1  0.586000  0.155400  0.964400  1.0  0.0755
  H  H19  1  0.948000  0.162700  0.716400  1.0  0.0543
  H  H20  1  0.082000  0.285100  0.757100  1.0  0.0772
  H  H21  1  0.286000  0.250800  0.608600  1.0  0.0541
  H  H22  1  0.160000  0.040500  0.550600  1.0  0.1063
  H  H23  1  0.232000  0.135900  0.524300  1.0  0.1104
  H  H24  1  0.984000  0.260700  0.420300  1.0  0.1234
  H  H25  1  0.128000  0.243500  0.424200  1.0  0.1153
  H  H26  1  0.253000  0.358400  0.484500  1.0  0.0711
  H  H27  1  0.105000  0.527400  0.620100  1.0  0.064
  H  H28  1  0.914000  0.443000  0.599300  1.0  0.0481
  H  H29  1  0.181000  0.541000  0.817900  1.0  0.0502
  H  H30  1  0.222000  0.469500  0.718800  1.0  0.0504
  H  H31  1  0.498000  0.657600  0.700100  1.0  0.0589
  H  H32  1  0.563000  0.765300  0.787700  1.0  0.1116
  H  H33  1  0.445000  0.819000  0.813100  1.0  0.1122
  H  H34  1  0.685000  0.628800  0.848700  1.0  0.111
  H  H35  1  0.570000  0.568100  0.870700  1.0  0.125
  H  H36  1  0.613000  0.450500  0.956100  1.0  0.0669
  H  H37  1  0.889000  0.494000  0.078200  1.0  0.0476
  H  H38  1  0.914000  0.655400  0.035600  1.0  0.0744
  H  H39  1  0.552000  0.662700  0.283600  1.0  0.0542
  H  H40  1  0.418000  0.785100  0.242900  1.0  0.0768
  H  H41  1  0.214000  0.750800  0.391400  1.0  0.055
  H  H42  1  0.340000  0.540500  0.449400  1.0  0.106
  H  H43  1  0.268000  0.635900  0.475700  1.0  0.1109
  H  H44  1  0.516000  0.760700  0.579700  1.0  0.1253
  H  H45  1  0.372000  0.743500  0.575800  1.0  0.1156
  H  H46  1  0.247000  0.858400  0.515500  1.0  0.0705
  H  H47  1  0.395000  0.027400  0.379900  1.0  0.0642
  H  H48  1  0.586000  0.943000  0.400700  1.0  0.0488
  H  H49  1  0.681000  0.959000  0.817900  1.0  0.0504
  H  H50  1  0.722000  0.030500  0.718800  1.0  0.0502
  H  H51  1  0.998000  0.842400  0.700100  1.0  0.0584
  H  H52  1  0.063000  0.734700  0.787700  1.0  0.1118
  H  H53  1  0.945000  0.681000  0.813100  1.0  0.1123
  H  H54  1  0.185000  0.871200  0.848700  1.0  0.1105
  H  H55  1  0.070000  0.931900  0.870700  1.0  0.1251
  H  H56  1  0.113000  0.049500  0.956100  1.0  0.0673
  H  H57  1  0.389000  0.006000  0.078200  1.0  0.0477
  H  H58  1  0.414000  0.844600  0.035600  1.0  0.0743
  H  H59  1  0.052000  0.837300  0.283600  1.0  0.0538
  H  H60  1  0.918000  0.714900  0.242900  1.0  0.0774
  H  H61  1  0.714000  0.749200  0.391400  1.0  0.0549
  H  H62  1  0.840000  0.959500  0.449400  1.0  0.1072
  H  H63  1  0.768000  0.864100  0.475700  1.0  0.111
  H  H64  1  0.016000  0.739300  0.579700  1.0  0.1255
  H  H65  1  0.872000  0.756500  0.575800  1.0  0.1155
  H  H66  1  0.747000  0.641600  0.515500  1.0  0.0714
  H  H67  1  0.895000  0.472600  0.379900  1.0  0.064
  H  H68  1  0.086000  0.557000  0.400700  1.0  0.0488
  H  H69  1  0.819000  0.459000  0.182100  1.0  0.051
  H  H70  1  0.778000  0.530500  0.281200  1.0  0.0495
  H  H71  1  0.502000  0.342400  0.299900  1.0  0.0578
  H  H72  1  0.437000  0.234700  0.212300  1.0  0.1116
  H  H73  1  0.555000  0.181000  0.186900  1.0  0.1138
  H  H74  1  0.315000  0.371200  0.151300  1.0  0.1126
  H  H75  1  0.430000  0.431900  0.129300  1.0  0.1253
  H  H76  1  0.387000  0.549500  0.043900  1.0  0.0667
  H  H77  1  0.111000  0.506000  0.921800  1.0  0.0474
  H  H78  1  0.086000  0.344600  0.964400  1.0  0.0745
  H  H79  1  0.448000  0.337300  0.716400  1.0  0.0539
  H  H80  1  0.582000  0.214900  0.757100  1.0  0.077
  H  H81  1  0.786000  0.249200  0.608600  1.0  0.0542
  H  H82  1  0.660000  0.459500  0.550600  1.0  0.1069
  H  H83  1  0.732000  0.364100  0.524300  1.0  0.111
  H  H84  1  0.484000  0.239300  0.420300  1.0  0.1234
  H  H85  1  0.628000  0.256500  0.424200  1.0  0.1152
  H  H86  1  0.753000  0.141600  0.484500  1.0  0.0699
  H  H87  1  0.605000  0.972600  0.620100  1.0  0.0642
  H  H88  1  0.414000  0.057000  0.599300  1.0  0.0486
  C  C89  1  0.253600  0.067100  0.205410  1.0  0.1211
  C  C90  1  0.231200  0.025250  0.264560  1.0  0.0942
  C  C91  1  0.069100  0.134670  0.275100  1.0  0.0674
  C  C92  1  0.089940  0.175210  0.214940  1.0  0.1662
  C  C93  1  0.008100  0.258120  0.187660  1.0  -0.268
  C  C94  1  0.873600  0.118330  0.116450  1.0  -0.2516
  C  C95  1  0.802080  0.085960  0.056340  1.0  0.1632
  C  C96  1  0.824300  0.992300  0.029020  1.0  0.1478
  C  C97  1  0.662300  0.017250  0.956620  1.0  0.0827
  C  C98  1  0.643400  0.112940  0.981370  1.0  0.1095
  C  C99  1  0.012500  0.183030  0.693970  1.0  0.1207
  C  C100  1  0.095800  0.254710  0.718570  1.0  0.1264
  C  C101  1  0.213620  0.234340  0.631730  1.0  0.06
  C  C102  1  0.130210  0.164190  0.605610  1.0  0.1643
  C  C103  1  0.153430  0.112710  0.542870  1.0  -0.2768
  C  C104  1  0.053200  0.247490  0.448900  1.0  -0.2777
  C  C105  1  0.066170  0.329300  0.498450  1.0  0.1462
  C  C106  1  0.180190  0.377820  0.510060  1.0  0.0589
  C  C107  1  0.096200  0.475130  0.587400  1.0  0.0982
  C  C108  1  0.981900  0.427150  0.575530  1.0  0.1171
  C  C109  1  0.246400  0.567100  0.794590  1.0  0.1228
  C  C110  1  0.268800  0.525250  0.735440  1.0  0.093
  C  C111  1  0.430900  0.634670  0.724900  1.0  0.0656
  C  C112  1  0.410060  0.675210  0.785060  1.0  0.1668
  C  C113  1  0.491900  0.758120  0.812340  1.0  -0.2678
  C  C114  1  0.626400  0.618330  0.883550  1.0  -0.25
  C  C115  1  0.697920  0.585960  0.943660  1.0  0.1621
  C  C116  1  0.675700  0.492300  0.970980  1.0  0.1486
  C  C117  1  0.837700  0.517250  0.043380  1.0  0.0833
  C  C118  1  0.856600  0.612940  0.018630  1.0  0.1096
  C  C119  1  0.487500  0.683030  0.306030  1.0  0.1195
  C  C120  1  0.404200  0.754710  0.281430  1.0  0.1274
  C  C121  1  0.286380  0.734340  0.368270  1.0  0.06
  C  C122  1  0.369790  0.664190  0.394390  1.0  0.1645
  C  C123  1  0.346570  0.612710  0.457130  1.0  -0.2746
  C  C124  1  0.446800  0.747490  0.551100  1.0  -0.2772
  C  C125  1  0.433830  0.829300  0.501550  1.0  0.146
  C  C126  1  0.319810  0.877820  0.489940  1.0  0.0593
  C  C127  1  0.403800  0.975130  0.412600  1.0  0.098
  C  C128  1  0.518100  0.927150  0.424470  1.0  0.1165
  C  C129  1  0.746400  0.932900  0.794590  1.0  0.1223
  C  C130  1  0.768800  0.974750  0.735440  1.0  0.0926
  C  C131  1  0.930900  0.865330  0.724900  1.0  0.0656
  C  C132  1  0.910060  0.824790  0.785060  1.0  0.1671
  C  C133  1  0.991900  0.741880  0.812340  1.0  -0.267
  C  C134  1  0.126400  0.881670  0.883550  1.0  -0.25
  C  C135  1  0.197920  0.914040  0.943660  1.0  0.161
  C  C136  1  0.175700  0.007700  0.970980  1.0  0.1483
  C  C137  1  0.337700  0.982750  0.043380  1.0  0.0827
  C  C138  1  0.356600  0.887060  0.018630  1.0  0.109
  C  C139  1  0.987500  0.816970  0.306030  1.0  0.1194
  C  C140  1  0.904200  0.745290  0.281430  1.0  0.1273
  C  C141  1  0.786380  0.765660  0.368270  1.0  0.0598
  C  C142  1  0.869790  0.835810  0.394390  1.0  0.1657
  C  C143  1  0.846570  0.887290  0.457130  1.0  -0.2745
  C  C144  1  0.946800  0.752510  0.551100  1.0  -0.2775
  C  C145  1  0.933830  0.670700  0.501550  1.0  0.146
  C  C146  1  0.819810  0.622180  0.489940  1.0  0.0596
  C  C147  1  0.903800  0.524870  0.412600  1.0  0.0994
  C  C148  1  0.018100  0.572850  0.424470  1.0  0.1164
  C  C149  1  0.753600  0.432900  0.205410  1.0  0.1216
  C  C150  1  0.731200  0.474750  0.264560  1.0  0.0937
  C  C151  1  0.569100  0.365330  0.275100  1.0  0.0675
  C  C152  1  0.589940  0.324790  0.214940  1.0  0.1666
  C  C153  1  0.508100  0.241880  0.187660  1.0  -0.2656
  C  C154  1  0.373600  0.381670  0.116450  1.0  -0.2514
  C  C155  1  0.302080  0.414040  0.056340  1.0  0.1619
  C  C156  1  0.324300  0.507700  0.029020  1.0  0.1478
  C  C157  1  0.162300  0.482750  0.956620  1.0  0.0826
  C  C158  1  0.143400  0.387060  0.981370  1.0  0.1092
  C  C159  1  0.512500  0.316970  0.693970  1.0  0.12
  C  C160  1  0.595800  0.245290  0.718570  1.0  0.1263
  C  C161  1  0.713620  0.265660  0.631730  1.0  0.0599
  C  C162  1  0.630210  0.335810  0.605610  1.0  0.1648
  C  C163  1  0.653430  0.387290  0.542870  1.0  -0.2764
  C  C164  1  0.553200  0.252510  0.448900  1.0  -0.2772
  C  C165  1  0.566170  0.170700  0.498450  1.0  0.1463
  C  C166  1  0.680190  0.122180  0.510060  1.0  0.0589
  C  C167  1  0.596200  0.024870  0.587400  1.0  0.0997
  C  C168  1  0.481900  0.072850  0.575530  1.0  0.117
  S  S169  1  0.956850  0.236400  0.104170  1.0  0.1134
  S  S170  1  0.023880  0.123820  0.483660  1.0  0.0842
  S  S171  1  0.543150  0.736400  0.895830  1.0  0.1146
  S  S172  1  0.476120  0.623820  0.516340  1.0  0.0857
  S  S173  1  0.043150  0.763600  0.895830  1.0  0.1149
  S  S174  1  0.976120  0.876180  0.516340  1.0  0.0846
  S  S175  1  0.456850  0.263600  0.104170  1.0  0.1142
  S  S176  1  0.523880  0.376180  0.483660  1.0  0.0844
  N  N177  1  0.183940  0.141700  0.180230  1.0  -0.3882
  N  N178  1  0.139380  0.059430  0.300210  1.0  -0.3561
  N  N179  1  0.713220  0.147240  0.031610  1.0  -0.3648
  N  N180  1  0.753910  0.956940  0.979280  1.0  -0.357
  N  N181  1  0.028290  0.138050  0.637120  1.0  -0.4091
  N  N182  1  0.197180  0.281500  0.687440  1.0  -0.4239
  N  N183  1  0.965730  0.353920  0.531980  1.0  -0.5086
  N  N184  1  0.196800  0.449820  0.554990  1.0  -0.403
  N  N185  1  0.316060  0.641700  0.819770  1.0  -0.3889
  N  N186  1  0.360620  0.559430  0.699790  1.0  -0.3595
  N  N187  1  0.786780  0.647240  0.968390  1.0  -0.3655
  N  N188  1  0.746090  0.456940  0.020720  1.0  -0.3585
  N  N189  1  0.471710  0.638050  0.362880  1.0  -0.4086
  N  N190  1  0.302820  0.781500  0.312560  1.0  -0.421
  N  N191  1  0.534270  0.853920  0.468020  1.0  -0.509
  N  N192  1  0.303200  0.949820  0.445010  1.0  -0.4036
  N  N193  1  0.816060  0.858300  0.819770  1.0  -0.3887
  N  N194  1  0.860620  0.940570  0.699790  1.0  -0.3587
  N  N195  1  0.286780  0.852760  0.968390  1.0  -0.3626
  N  N196  1  0.246090  0.043060  0.020720  1.0  -0.3576
  N  N197  1  0.971710  0.861950  0.362880  1.0  -0.4104
  N  N198  1  0.802820  0.718500  0.312560  1.0  -0.4226
  N  N199  1  0.034270  0.646080  0.468020  1.0  -0.5135
  N  N200  1  0.803200  0.550180  0.445010  1.0  -0.4042
  N  N201  1  0.683940  0.358300  0.180230  1.0  -0.389
  N  N202  1  0.639380  0.440570  0.300210  1.0  -0.3565
  N  N203  1  0.213220  0.352760  0.031610  1.0  -0.362
  N  N204  1  0.253910  0.543060  0.979280  1.0  -0.3575
  N  N205  1  0.528290  0.361950  0.637120  1.0  -0.409
  N  N206  1  0.697180  0.218500  0.687440  1.0  -0.4233
  N  N207  1  0.465730  0.146080  0.531980  1.0  -0.5127
  N  N208  1  0.696800  0.050180  0.554990  1.0  -0.4022
