# generated using pymatgen
data_CeH9(C2O)6
_symmetry_space_group_name_H-M   'P 1'
_cell_length_a   8.58200000
_cell_length_b   10.95600000
_cell_length_c   11.21700000
_cell_angle_alpha   64.17000000
_cell_angle_beta   79.98000000
_cell_angle_gamma   73.43100000
_symmetry_Int_Tables_number   1
_chemical_formula_structural   CeH9(C2O)6
_chemical_formula_sum   'Ce2 H18 C24 O12'
_cell_volume   908.36868251
_cell_formula_units_Z   2
loop_
 _symmetry_equiv_pos_site_id
 _symmetry_equiv_pos_as_xyz
  1  'x, y, z'
loop_
 _atom_site_type_symbol
 _atom_site_label
 _atom_site_symmetry_multiplicity
 _atom_site_fract_x
 _atom_site_fract_y
 _atom_site_fract_z
 _atom_site_occupancy
 _atom_site_charge
  Ce  Ce1  1  0.748000  0.502660  0.003240  1.0  2.2563
  Ce  Ce2  1  0.252000  0.497340  0.996760  1.0  2.2566
  H  H3  1  0.093000  0.109100  0.515900  1.0  0.1256
  H  H4  1  0.763300  0.068500  0.827400  1.0  0.1138
  H  H5  1  0.751700  0.448100  0.521000  1.0  0.1201
  H  H6  1  0.117900  0.328200  0.355600  1.0  0.1444
  H  H7  1  0.015900  0.466000  0.373900  1.0  0.1666
  H  H8  1  0.058200  0.874900  0.674500  1.0  0.1353
  H  H9  1  0.933100  0.856700  0.801200  1.0  0.1255
  H  H10  1  0.517800  0.411200  0.681900  1.0  0.1455
  H  H11  1  0.527700  0.266200  0.809100  1.0  0.1484
  H  H12  1  0.907000  0.890900  0.484100  1.0  0.1251
  H  H13  1  0.236700  0.931500  0.172600  1.0  0.1125
  H  H14  1  0.248300  0.551900  0.479000  1.0  0.1211
  H  H15  1  0.882100  0.671800  0.644400  1.0  0.1446
  H  H16  1  0.984100  0.534000  0.626100  1.0  0.1666
  H  H17  1  0.941800  0.125100  0.325500  1.0  0.1335
  H  H18  1  0.066900  0.143300  0.198800  1.0  0.1272
  H  H19  1  0.482200  0.588800  0.318100  1.0  0.1442
  H  H20  1  0.472300  0.733800  0.190900  1.0  0.1474
  C  C21  1  0.933700  0.291500  0.501800  1.0  0.1565
  C  C22  1  0.001400  0.150000  0.558600  1.0  -0.2323
  C  C23  1  0.933000  0.066000  0.681600  1.0  0.1242
  C  C24  1  0.804700  0.125000  0.743000  1.0  -0.1904
  C  C25  1  0.731100  0.268400  0.684500  1.0  0.1475
  C  C26  1  0.799000  0.350800  0.562200  1.0  -0.2342
  C  C27  1  0.006200  0.380700  0.368400  1.0  -0.3857
  C  C28  1  0.916400  0.425400  0.246000  1.0  0.6989
  C  C29  1  0.015900  0.908200  0.745700  1.0  -0.3571
  C  C30  1  0.158000  0.874300  0.832300  1.0  0.8004
  C  C31  1  0.590400  0.336100  0.750500  1.0  -0.387
  C  C32  1  0.640200  0.397900  0.832600  1.0  0.7848
  C  C33  1  0.066300  0.708500  0.498200  1.0  0.1561
  C  C34  1  0.998600  0.850000  0.441400  1.0  -0.2357
  C  C35  1  0.067000  0.934000  0.318400  1.0  0.1197
  C  C36  1  0.195300  0.875000  0.257000  1.0  -0.1916
  C  C37  1  0.268900  0.731600  0.315500  1.0  0.1502
  C  C38  1  0.201000  0.649200  0.437800  1.0  -0.2329
  C  C39  1  0.993800  0.619300  0.631600  1.0  -0.3848
  C  C40  1  0.083600  0.574600  0.754000  1.0  0.7063
  C  C41  1  0.984100  0.091800  0.254300  1.0  -0.3618
  C  C42  1  0.842000  0.125700  0.167700  1.0  0.7993
  C  C43  1  0.409600  0.663900  0.249500  1.0  -0.3876
  C  C44  1  0.359800  0.602100  0.167400  1.0  0.7747
  O  O45  1  0.754100  0.447500  0.249400  1.0  -0.6344
  O  O46  1  0.991900  0.456900  0.130600  1.0  -0.8631
  O  O47  1  0.221600  0.743500  0.884100  1.0  -0.8056
  O  O48  1  0.193400  0.960600  0.853900  1.0  -0.5533
  O  O49  1  0.782600  0.415600  0.822500  1.0  -0.6525
  O  O50  1  0.528800  0.443200  0.907700  1.0  -0.905
  O  O51  1  0.245900  0.552500  0.750600  1.0  -0.637
  O  O52  1  0.008100  0.543100  0.869400  1.0  -0.8565
  O  O53  1  0.778400  0.256500  0.115900  1.0  -0.7951
  O  O54  1  0.806600  0.039400  0.146100  1.0  -0.5383
  O  O55  1  0.217400  0.584400  0.177500  1.0  -0.6509
  O  O56  1  0.471200  0.556800  0.092300  1.0  -0.9061
