# generated using pymatgen
data_La2H18C24O13
_symmetry_space_group_name_H-M   'P 1'
_cell_length_a   11.85700000
_cell_length_b   12.55400000
_cell_length_c   12.51500000
_cell_angle_alpha   119.12000000
_cell_angle_beta   98.44000000
_cell_angle_gamma   108.27000000
_symmetry_Int_Tables_number   1
_chemical_formula_structural   La2H18C24O13
_chemical_formula_sum   'La4 H36 C48 O26'
_cell_volume   1441.27691450
_cell_formula_units_Z   2
loop_
 _symmetry_equiv_pos_site_id
 _symmetry_equiv_pos_as_xyz
  1  'x, y, z'
loop_
 _atom_site_type_symbol
 _atom_site_label
 _atom_site_symmetry_multiplicity
 _atom_site_fract_x
 _atom_site_fract_y
 _atom_site_fract_z
 _atom_site_occupancy
 _atom_site_charge
  La  La1  1  0.479750  0.011030  0.177950  1.0  2.2197
  La  La2  1  0.802850  0.235930  0.756100  1.0  2.1971
  La  La3  1  0.520250  0.988970  0.822050  1.0  2.2199
  La  La4  1  0.197150  0.764070  0.243900  1.0  2.1968
  H  H5  1  0.566400  0.519000  0.696200  1.0  0.1112
  H  H6  1  0.877500  0.844700  0.009700  1.0  0.1242
  H  H7  1  0.917800  0.588000  0.678200  1.0  0.1316
  H  H8  1  0.593400  0.395400  0.482800  1.0  0.1607
  H  H9  1  0.731600  0.408200  0.481700  1.0  0.1557
  H  H10  1  0.672700  0.791700  0.032700  1.0  0.1542
  H  H11  1  0.551800  0.652200  0.917500  1.0  0.1274
  H  H12  1  0.072700  0.918800  0.974000  1.0  0.1736
  H  H13  1  0.087200  0.824200  0.839700  1.0  0.1684
  H  H14  1  0.406400  0.203100  0.556100  1.0  0.1116
  H  H15  1  0.343100  0.451100  0.873900  1.0  0.1282
  H  H16  1  0.152000  0.346500  0.516100  1.0  0.1264
  H  H17  1  0.164500  0.181500  0.322800  1.0  0.1437
  H  H18  1  0.312900  0.225800  0.346600  1.0  0.1391
  H  H19  1  0.506300  0.395600  0.909500  1.0  0.1388
  H  H20  1  0.581000  0.386500  0.811700  1.0  0.1557
  H  H21  1  0.220400  0.570900  0.856400  1.0  0.1439
  H  H22  1  0.152000  0.536700  0.715500  1.0  0.1388
  H  H23  1  0.433600  0.481000  0.303800  1.0  0.1112
  H  H24  1  0.122500  0.155300  0.990300  1.0  0.1237
  H  H25  1  0.082200  0.412000  0.321800  1.0  0.1306
  H  H26  1  0.406600  0.604600  0.517200  1.0  0.1599
  H  H27  1  0.268400  0.591800  0.518300  1.0  0.1548
  H  H28  1  0.327300  0.208300  0.967300  1.0  0.1541
  H  H29  1  0.448200  0.347800  0.082500  1.0  0.1288
  H  H30  1  0.927300  0.081200  0.026000  1.0  0.1746
  H  H31  1  0.912800  0.175800  0.160300  1.0  0.1676
  H  H32  1  0.593600  0.796900  0.443900  1.0  0.1124
  H  H33  1  0.656900  0.548900  0.126100  1.0  0.1278
  H  H34  1  0.848000  0.653500  0.483900  1.0  0.1268
  H  H35  1  0.835500  0.818500  0.677200  1.0  0.1432
  H  H36  1  0.687100  0.774200  0.653400  1.0  0.1387
  H  H37  1  0.493700  0.604400  0.090500  1.0  0.1388
  H  H38  1  0.419000  0.613500  0.188300  1.0  0.156
  H  H39  1  0.779600  0.429100  0.143600  1.0  0.1443
  H  H40  1  0.848000  0.463300  0.284500  1.0  0.1392
  C  C41  1  0.733500  0.533200  0.666800  1.0  0.1483
  C  C42  1  0.656200  0.572300  0.736400  1.0  -0.1855
  C  C43  1  0.709000  0.689000  0.864600  1.0  0.1241
  C  C44  1  0.840700  0.766700  0.921800  1.0  -0.1738
  C  C45  1  0.918900  0.731900  0.852400  1.0  0.1481
  C  C46  1  0.864600  0.613800  0.725300  1.0  -0.1613
  C  C47  1  0.673200  0.402600  0.529800  1.0  -0.3813
  C  C48  1  0.643000  0.274500  0.526900  1.0  0.7793
  C  C49  1  0.623800  0.733600  0.937200  1.0  -0.3564
  C  C50  1  0.572000  0.811900  0.900100  1.0  0.7542
  C  C51  1  0.060200  0.825100  0.911200  1.0  -0.4154
  C  C52  1  0.149900  0.796800  0.981500  1.0  0.8194
  C  C53  1  0.272200  0.259400  0.512700  1.0  0.1166
  C  C54  1  0.363300  0.255900  0.593600  1.0  -0.1555
  C  C55  1  0.392100  0.329000  0.729100  1.0  0.1309
  C  C56  1  0.327000  0.404500  0.782500  1.0  -0.2047
  C  C57  1  0.238700  0.413000  0.704300  1.0  0.1354
  C  C58  1  0.211900  0.340700  0.569900  1.0  -0.1884
  C  C59  1  0.241300  0.180600  0.365200  1.0  -0.3578
  C  C60  1  0.218100  0.034500  0.307800  1.0  0.7903
  C  C61  1  0.501100  0.338300  0.818200  1.0  -0.3729
  C  C62  1  0.496400  0.205900  0.793500  1.0  0.8027
  C  C63  1  0.168100  0.496100  0.763400  1.0  -0.3553
  C  C64  1  0.043200  0.404100  0.754000  1.0  0.771
  C  C65  1  0.266500  0.466800  0.333200  1.0  0.147
  C  C66  1  0.343800  0.427700  0.263600  1.0  -0.1815
  C  C67  1  0.291000  0.311000  0.135400  1.0  0.1241
  C  C68  1  0.159300  0.233300  0.078200  1.0  -0.1731
  C  C69  1  0.081100  0.268100  0.147600  1.0  0.1475
  C  C70  1  0.135400  0.386200  0.274700  1.0  -0.1679
  C  C71  1  0.326800  0.597400  0.470200  1.0  -0.3811
  C  C72  1  0.357000  0.725500  0.473100  1.0  0.7893
  C  C73  1  0.376200  0.266400  0.062800  1.0  -0.3574
  C  C74  1  0.428000  0.188100  0.099900  1.0  0.7541
  C  C75  1  0.939800  0.174900  0.088800  1.0  -0.4158
  C  C76  1  0.850100  0.203200  0.018500  1.0  0.8202
  C  C77  1  0.727800  0.740600  0.487300  1.0  0.1175
  C  C78  1  0.636700  0.744100  0.406400  1.0  -0.1558
  C  C79  1  0.607900  0.671000  0.270900  1.0  0.1308
  C  C80  1  0.673000  0.595500  0.217500  1.0  -0.2062
  C  C81  1  0.761300  0.587000  0.295700  1.0  0.1346
  C  C82  1  0.788100  0.659300  0.430100  1.0  -0.1866
  C  C83  1  0.758700  0.819400  0.634800  1.0  -0.3595
  C  C84  1  0.781900  0.965500  0.692200  1.0  0.7911
  C  C85  1  0.498900  0.661700  0.181800  1.0  -0.3718
  C  C86  1  0.503600  0.794100  0.206500  1.0  0.803
  C  C87  1  0.831900  0.503900  0.236600  1.0  -0.3552
  C  C88  1  0.956800  0.595900  0.246000  1.0  0.7694
  O  O89  1  0.592600  0.161500  0.415800  1.0  -0.7036
  O  O90  1  0.668500  0.283000  0.632280  1.0  -0.6493
  O  O91  1  0.572400  0.802000  0.796500  1.0  -0.6637
  O  O92  1  0.529000  0.886700  0.976800  1.0  -0.8335
  O  O93  1  0.266600  0.853500  0.997100  1.0  -0.6976
  O  O94  1  0.109800  0.726700  0.024300  1.0  -0.6872
  O  O95  1  0.305000  0.999800  0.278200  1.0  -0.8216
  O  O96  1  0.115900  0.950200  0.294000  1.0  -0.6491
  O  O97  1  0.394900  0.110900  0.764900  1.0  -0.6308
  O  O98  1  0.601700  0.198300  0.812400  1.0  -0.7892
  O  O99  1  0.940300  0.360900  0.667100  1.0  -0.677
  O  O100  1  0.043300  0.368200  0.833600  1.0  -0.6956
  O  O101  1  0.425600  0.975000  0.466800  1.0  -0.6573
  O  O102  1  0.407400  0.838500  0.584200  1.0  -0.712
  O  O103  1  0.331500  0.717000  0.367720  1.0  -0.6489
  O  O104  1  0.427600  0.198000  0.203500  1.0  -0.6628
  O  O105  1  0.471000  0.113300  0.023200  1.0  -0.8352
  O  O106  1  0.733400  0.146500  0.002900  1.0  -0.697
  O  O107  1  0.890200  0.273300  0.975700  1.0  -0.689
  O  O108  1  0.695000  0.000200  0.721800  1.0  -0.8231
  O  O109  1  0.884100  0.049800  0.706000  1.0  -0.6506
  O  O110  1  0.605100  0.889100  0.235100  1.0  -0.6307
  O  O111  1  0.398300  0.801700  0.187600  1.0  -0.7874
  O  O112  1  0.059700  0.639100  0.332900  1.0  -0.6794
  O  O113  1  0.956700  0.631800  0.166400  1.0  -0.6985
  O  O114  1  0.574400  0.025000  0.533200  1.0  -0.658
