# generated using pymatgen
data_PrH9(C2O)6
_symmetry_space_group_name_H-M   'P 1'
_cell_length_a   8.54100000
_cell_length_b   10.90900000
_cell_length_c   11.19800000
_cell_angle_alpha   64.15300000
_cell_angle_beta   79.90200000
_cell_angle_gamma   73.71100000
_symmetry_Int_Tables_number   1
_chemical_formula_structural   PrH9(C2O)6
_chemical_formula_sum   'Pr2 H18 C24 O12'
_cell_volume   899.59082949
_cell_formula_units_Z   2
loop_
 _symmetry_equiv_pos_site_id
 _symmetry_equiv_pos_as_xyz
  1  'x, y, z'
loop_
 _atom_site_type_symbol
 _atom_site_label
 _atom_site_symmetry_multiplicity
 _atom_site_fract_x
 _atom_site_fract_y
 _atom_site_fract_z
 _atom_site_occupancy
 _atom_site_charge
  Pr  Pr1  1  0.751920  0.497040  0.496580  1.0  2.1769
  Pr  Pr2  1  0.248080  0.502960  0.503420  1.0  2.1799
  H  H3  1  0.749600  0.552700  0.977100  1.0  0.1187
  H  H4  1  0.406800  0.889500  0.987600  1.0  0.1219
  H  H5  1  0.735600  0.933600  0.675200  1.0  0.1152
  H  H6  1  0.965700  0.744100  0.684400  1.0  0.1584
  H  H7  1  0.984400  0.597600  0.811100  1.0  0.153
  H  H8  1  0.378500  0.670000  0.144700  1.0  0.1407
  H  H9  1  0.480500  0.531400  0.126700  1.0  0.1622
  H  H10  1  0.565300  0.141400  0.705200  1.0  0.1371
  H  H11  1  0.434100  0.122400  0.828600  1.0  0.1413
  H  H12  1  0.250400  0.447300  0.022900  1.0  0.1176
  H  H13  1  0.593200  0.110500  0.012400  1.0  0.1233
  H  H14  1  0.264400  0.066400  0.324800  1.0  0.1166
  H  H15  1  0.034300  0.255900  0.315600  1.0  0.16
  H  H16  1  0.015600  0.402400  0.188900  1.0  0.1529
  H  H17  1  0.621500  0.330000  0.855300  1.0  0.1403
  H  H18  1  0.519500  0.468600  0.873300  1.0  0.1608
  H  H19  1  0.434700  0.858600  0.294800  1.0  0.1343
  H  H20  1  0.565900  0.877600  0.171400  1.0  0.1417
  C  C21  1  0.767600  0.733200  0.815000  1.0  0.1663
  C  C22  1  0.700900  0.650000  0.937100  1.0  -0.2295
  C  C23  1  0.566300  0.705600  0.000800  1.0  0.1487
  C  C24  1  0.497600  0.849600  0.943200  1.0  -0.2388
  C  C25  1  0.561300  0.934900  0.821100  1.0  0.1615
  C  C26  1  0.693300  0.875700  0.759000  1.0  -0.2224
  C  C27  1  0.907500  0.670500  0.744700  1.0  -0.4119
  C  C28  1  0.862100  0.604900  0.663200  1.0  0.8069
  C  C29  1  0.490400  0.617300  0.131800  1.0  -0.3863
  C  C30  1  0.584800  0.574300  0.253800  1.0  0.791
  C  C31  1  0.479800  0.090100  0.756900  1.0  -0.3911
  C  C32  1  0.345800  0.130900  0.666500  1.0  0.7838
  C  C33  1  0.232400  0.266800  0.185000  1.0  0.1655
  C  C34  1  0.299100  0.350000  0.062900  1.0  -0.2342
  C  C35  1  0.433700  0.294400  0.999200  1.0  0.1487
  C  C36  1  0.502400  0.150400  0.056800  1.0  -0.2341
  C  C37  1  0.438700  0.065100  0.178900  1.0  0.1634
  C  C38  1  0.306700  0.124300  0.241000  1.0  -0.2224
  C  C39  1  0.092500  0.329500  0.255300  1.0  -0.4108
  C  C40  1  0.137900  0.395100  0.336800  1.0  0.8114
  C  C41  1  0.509600  0.382700  0.868200  1.0  -0.3858
  C  C42  1  0.415200  0.425700  0.746200  1.0  0.797
  C  C43  1  0.520200  0.909900  0.243100  1.0  -0.3914
  C  C44  1  0.654200  0.869100  0.333500  1.0  0.7848
  O  O45  1  0.969500  0.562900  0.588400  1.0  -0.8666
  O  O46  1  0.718000  0.592400  0.673500  1.0  -0.6389
  O  O47  1  0.734500  0.563500  0.244000  1.0  -0.6279
  O  O48  1  0.503300  0.547900  0.366200  1.0  -0.9067
  O  O49  1  0.276000  0.259400  0.615100  1.0  -0.779
  O  O50  1  0.305400  0.038500  0.650100  1.0  -0.589
  O  O51  1  0.030500  0.437100  0.411600  1.0  -0.8691
  O  O52  1  0.282000  0.407600  0.326500  1.0  -0.6403
  O  O53  1  0.265500  0.436500  0.756000  1.0  -0.6279
  O  O54  1  0.496700  0.452100  0.633800  1.0  -0.9043
  O  O55  1  0.724000  0.740600  0.384900  1.0  -0.7816
  O  O56  1  0.694600  0.961500  0.349900  1.0  -0.592
