# generated using pymatgen
data_CeH9(C2O)6
_symmetry_space_group_name_H-M   'P 1'
_cell_length_a   11.81200000
_cell_length_b   12.44400000
_cell_length_c   12.52200000
_cell_angle_alpha   118.94900000
_cell_angle_beta   108.30000000
_cell_angle_gamma   98.38700000
_symmetry_Int_Tables_number   1
_chemical_formula_structural   CeH9(C2O)6
_chemical_formula_sum   'Ce4 H36 C48 O24'
_cell_volume   1427.51080518
_cell_formula_units_Z   4
loop_
 _symmetry_equiv_pos_site_id
 _symmetry_equiv_pos_as_xyz
  1  'x, y, z'
loop_
 _atom_site_type_symbol
 _atom_site_label
 _atom_site_symmetry_multiplicity
 _atom_site_fract_x
 _atom_site_fract_y
 _atom_site_fract_z
 _atom_site_occupancy
 _atom_site_charge
  Ce  Ce1  1  0.521690  0.822240  0.990150  1.0  2.3142
  Ce  Ce2  1  0.802700  0.756670  0.236040  1.0  2.271
  Ce  Ce3  1  0.478310  0.177760  0.009850  1.0  2.3139
  Ce  Ce4  1  0.197300  0.243330  0.763960  1.0  2.271
  H  H5  1  0.407200  0.555200  0.205000  1.0  0.1142
  H  H6  1  0.151300  0.510200  0.344300  1.0  0.1243
  H  H7  1  0.342100  0.873000  0.447600  1.0  0.1139
  H  H8  1  0.508200  0.908400  0.395100  1.0  0.1318
  H  H9  1  0.581400  0.808300  0.383200  1.0  0.1398
  H  H10  1  0.310000  0.345000  0.222900  1.0  0.134
  H  H11  1  0.161100  0.321900  0.177100  1.0  0.131
  H  H12  1  0.153000  0.718100  0.538500  1.0  0.127
  H  H13  1  0.220800  0.858400  0.569700  1.0  0.136
  H  H14  1  0.434600  0.303500  0.482400  1.0  0.1019
  H  H15  1  0.123400  0.991800  0.162500  1.0  0.1154
  H  H16  1  0.087900  0.327400  0.419300  1.0  0.117
  H  H17  1  0.273600  0.521800  0.591800  1.0  0.145
  H  H18  1  0.412000  0.518100  0.606000  1.0  0.1491
  H  H19  1  0.445200  0.079800  0.345400  1.0  0.1319
  H  H20  1  0.323100  0.967500  0.205600  1.0  0.1545
  H  H21  1  0.925400  0.032500  0.083500  1.0  0.1576
  H  H22  1  0.912100  0.166400  0.182700  1.0  0.1454
  H  H23  1  0.592800  0.444800  0.795000  1.0  0.113
  H  H24  1  0.848700  0.489800  0.655700  1.0  0.125
  H  H25  1  0.657900  0.127000  0.552400  1.0  0.1147
  H  H26  1  0.491800  0.091600  0.604900  1.0  0.1326
  H  H27  1  0.418600  0.191700  0.616800  1.0  0.138
  H  H28  1  0.690000  0.655000  0.777100  1.0  0.1347
  H  H29  1  0.838900  0.678100  0.822900  1.0  0.1312
  H  H30  1  0.847000  0.281900  0.461500  1.0  0.1264
  H  H31  1  0.779200  0.141600  0.430300  1.0  0.1354
  H  H32  1  0.565400  0.696500  0.517600  1.0  0.1009
  H  H33  1  0.876600  0.008200  0.837500  1.0  0.1147
  H  H34  1  0.912100  0.672600  0.580700  1.0  0.1177
  H  H35  1  0.726400  0.478200  0.408200  1.0  0.1447
  H  H36  1  0.588000  0.481900  0.394000  1.0  0.1485
  H  H37  1  0.554800  0.920200  0.654600  1.0  0.1315
  H  H38  1  0.676900  0.032500  0.794400  1.0  0.152
  H  H39  1  0.074600  0.967500  0.916500  1.0  0.1585
  H  H40  1  0.087900  0.833600  0.817300  1.0  0.1442
  C  C41  1  0.391800  0.727600  0.328800  1.0  0.1599
  C  C42  1  0.362900  0.593000  0.256600  1.0  -0.22
  C  C43  1  0.270600  0.512600  0.258400  1.0  0.1608
  C  C44  1  0.210100  0.565000  0.338100  1.0  -0.1868
  C  C45  1  0.237300  0.703900  0.411500  1.0  0.1494
  C  C46  1  0.326300  0.781300  0.402300  1.0  -0.2391
  C  C47  1  0.501600  0.816400  0.336500  1.0  -0.3919
  C  C48  1  0.496500  0.794000  0.205800  1.0  0.805
  C  C49  1  0.239000  0.364800  0.177700  1.0  -0.3781
  C  C50  1  0.217800  0.308900  0.033500  1.0  0.7913
  C  C51  1  0.168300  0.764900  0.496200  1.0  -0.3658
  C  C52  1  0.042300  0.754100  0.403100  1.0  0.7389
  C  C53  1  0.269800  0.334500  0.468700  1.0  0.1604
  C  C54  1  0.344600  0.264300  0.428900  1.0  -0.2171
  C  C55  1  0.291600  0.136000  0.311100  1.0  0.1413
  C  C56  1  0.161100  0.080900  0.238500  1.0  -0.217
  C  C57  1  0.082200  0.149900  0.271700  1.0  0.1445
  C  C58  1  0.139900  0.278800  0.391700  1.0  -0.2154
  C  C59  1  0.331100  0.472500  0.598600  1.0  -0.424
  C  C60  1  0.358800  0.476000  0.726600  1.0  0.8115
  C  C61  1  0.373800  0.062900  0.264900  1.0  -0.3939
  C  C62  1  0.428400  0.100000  0.187700  1.0  0.8053
  C  C63  1  0.938600  0.092900  0.178100  1.0  -0.3893
  C  C64  1  0.848100  0.018700  0.204500  1.0  0.8088
  C  C65  1  0.608200  0.272400  0.671200  1.0  0.1593
  C  C66  1  0.637100  0.407000  0.743400  1.0  -0.2172
  C  C67  1  0.729400  0.487400  0.741600  1.0  0.1585
  C  C68  1  0.789900  0.435000  0.661900  1.0  -0.1994
  C  C69  1  0.762700  0.296100  0.588500  1.0  0.1502
  C  C70  1  0.673700  0.218700  0.597700  1.0  -0.2363
  C  C71  1  0.498400  0.183600  0.663500  1.0  -0.3923
  C  C72  1  0.503500  0.206000  0.794200  1.0  0.8033
  C  C73  1  0.761000  0.635200  0.822300  1.0  -0.3688
  C  C74  1  0.782200  0.691100  0.966500  1.0  0.7887
  C  C75  1  0.831700  0.235100  0.503800  1.0  -0.3655
  C  C76  1  0.957700  0.245900  0.596900  1.0  0.7385
  C  C77  1  0.730200  0.665500  0.531300  1.0  0.16
  C  C78  1  0.655400  0.735700  0.571100  1.0  -0.22
  C  C79  1  0.708400  0.864000  0.688900  1.0  0.1426
  C  C80  1  0.838900  0.919100  0.761500  1.0  -0.2197
  C  C81  1  0.917800  0.850100  0.728300  1.0  0.145
  C  C82  1  0.860100  0.721200  0.608300  1.0  -0.2058
  C  C83  1  0.668900  0.527500  0.401400  1.0  -0.4257
  C  C84  1  0.641200  0.524000  0.273400  1.0  0.8375
  C  C85  1  0.626200  0.937100  0.735100  1.0  -0.3942
  C  C86  1  0.571600  0.900000  0.812300  1.0  0.8048
  C  C87  1  0.061400  0.907100  0.821900  1.0  -0.3888
  C  C88  1  0.151900  0.981300  0.795500  1.0  0.8103
  O  O89  1  0.397000  0.767600  0.112300  1.0  -0.6391
  O  O90  1  0.603100  0.813700  0.198900  1.0  -0.8717
  O  O91  1  0.115100  0.293500  0.946200  1.0  -0.6689
  O  O92  1  0.304400  0.276900  0.998900  1.0  -0.8387
  O  O93  1  0.041900  0.835600  0.369100  1.0  -0.7156
  O  O94  1  0.937800  0.664800  0.356700  1.0  -0.7121
  O  O95  1  0.409200  0.585000  0.841600  1.0  -0.7914
  O  O96  1  0.331400  0.368700  0.719200  1.0  -0.753
  O  O97  1  0.426400  0.203000  0.192700  1.0  -0.6925
  O  O98  1  0.472100  0.022800  0.113600  1.0  -0.8658
  O  O99  1  0.733100  0.002200  0.143500  1.0  -0.7474
  O  O100  1  0.889800  0.975200  0.274200  1.0  -0.712
  O  O101  1  0.603000  0.232400  0.887700  1.0  -0.6389
  O  O102  1  0.396900  0.186300  0.801100  1.0  -0.8704
  O  O103  1  0.884900  0.706500  0.053800  1.0  -0.6666
  O  O104  1  0.695600  0.723100  0.001100  1.0  -0.8396
  O  O105  1  0.958100  0.164400  0.630900  1.0  -0.7147
  O  O106  1  0.062200  0.335200  0.643300  1.0  -0.7148
  O  O107  1  0.590800  0.415000  0.158400  1.0  -0.7894
  O  O108  1  0.668600  0.631300  0.280800  1.0  -0.7441
  O  O109  1  0.573600  0.797000  0.807300  1.0  -0.6939
  O  O110  1  0.527900  0.977200  0.886400  1.0  -0.8664
  O  O111  1  0.266900  0.997800  0.856500  1.0  -0.7466
  O  O112  1  0.110200  0.024800  0.725800  1.0  -0.7142
