# generated using pymatgen
data_LaH9(C2O)6
_symmetry_space_group_name_H-M   'P 1'
_cell_length_a   8.61800000
_cell_length_b   11.02800000
_cell_length_c   11.12600000
_cell_angle_alpha   64.06000000
_cell_angle_beta   80.57000000
_cell_angle_gamma   73.21000000
_symmetry_Int_Tables_number   1
_chemical_formula_structural   LaH9(C2O)6
_chemical_formula_sum   'La2 H18 C24 O12'
_cell_volume   909.47705493
_cell_formula_units_Z   2
loop_
 _symmetry_equiv_pos_site_id
 _symmetry_equiv_pos_as_xyz
  1  'x, y, z'
loop_
 _atom_site_type_symbol
 _atom_site_label
 _atom_site_symmetry_multiplicity
 _atom_site_fract_x
 _atom_site_fract_y
 _atom_site_fract_z
 _atom_site_occupancy
 _atom_site_charge
  La  La1  1  0.753480  0.493660  0.998580  1.0  2.1638
  La  La2  1  0.246520  0.506340  0.001420  1.0  2.1643
  H  H3  1  0.745900  0.552400  0.474100  1.0  0.1194
  H  H4  1  0.405200  0.889400  0.483900  1.0  0.1145
  H  H5  1  0.740400  0.934500  0.178000  1.0  0.1166
  H  H6  1  0.987700  0.600400  0.310400  1.0  0.147
  H  H7  1  0.962600  0.744900  0.180800  1.0  0.1434
  H  H8  1  0.377100  0.668400  0.638400  1.0  0.1319
  H  H9  1  0.482100  0.532500  0.618500  1.0  0.1553
  H  H10  1  0.439000  0.121200  0.330100  1.0  0.1398
  H  H11  1  0.569800  0.139400  0.207800  1.0  0.1298
  H  H12  1  0.254100  0.447600  0.525900  1.0  0.1188
  H  H13  1  0.594800  0.110600  0.516100  1.0  0.1173
  H  H14  1  0.259600  0.065500  0.822000  1.0  0.1173
  H  H15  1  0.012300  0.399600  0.689600  1.0  0.1489
  H  H16  1  0.037400  0.255100  0.819200  1.0  0.1431
  H  H17  1  0.622900  0.331600  0.361600  1.0  0.1324
  H  H18  1  0.517900  0.467500  0.381500  1.0  0.1538
  H  H19  1  0.561000  0.878800  0.669900  1.0  0.142
  H  H20  1  0.430200  0.860600  0.792200  1.0  0.1302
  C  C21  1  0.766100  0.735000  0.315100  1.0  0.1461
  C  C22  1  0.698900  0.649700  0.435200  1.0  -0.2202
  C  C23  1  0.563900  0.707000  0.497400  1.0  0.158
  C  C24  1  0.496700  0.850000  0.440600  1.0  -0.2283
  C  C25  1  0.562000  0.936400  0.320600  1.0  0.1704
  C  C26  1  0.695600  0.876800  0.259800  1.0  -0.2119
  C  C27  1  0.908300  0.671500  0.243700  1.0  -0.409
  C  C28  1  0.859600  0.604800  0.167300  1.0  0.8149
  C  C29  1  0.489000  0.616900  0.626200  1.0  -0.3847
  C  C30  1  0.581700  0.572600  0.749500  1.0  0.8064
  C  C31  1  0.484500  0.089900  0.257900  1.0  -0.3952
  C  C32  1  0.350000  0.132200  0.163100  1.0  0.7849
  C  C33  1  0.233900  0.265000  0.684900  1.0  0.147
  C  C34  1  0.301100  0.350300  0.564800  1.0  -0.2224
  C  C35  1  0.436100  0.293000  0.502600  1.0  0.158
  C  C36  1  0.503300  0.150000  0.559400  1.0  -0.2193
  C  C37  1  0.438000  0.063600  0.679400  1.0  0.1705
  C  C38  1  0.304400  0.123200  0.740200  1.0  -0.2117
  C  C39  1  0.091700  0.328500  0.756300  1.0  -0.4093
  C  C40  1  0.140400  0.395200  0.832700  1.0  0.829
  C  C41  1  0.511000  0.383100  0.373800  1.0  -0.3852
  C  C42  1  0.418300  0.427400  0.250500  1.0  0.7947
  C  C43  1  0.515500  0.910100  0.742100  1.0  -0.3962
  C  C44  1  0.650000  0.867800  0.836900  1.0  0.7905
  O  O45  1  0.719200  0.591000  0.177000  1.0  -0.6239
  O  O46  1  0.968100  0.562200  0.091300  1.0  -0.8882
  O  O47  1  0.502200  0.548400  0.862900  1.0  -0.879
  O  O48  1  0.731200  0.557900  0.743600  1.0  -0.627
  O  O49  1  0.277800  0.259800  0.118100  1.0  -0.7868
  O  O50  1  0.316600  0.045800  0.136100  1.0  -0.5873
  O  O51  1  0.280800  0.409000  0.823000  1.0  -0.6248
  O  O52  1  0.031900  0.437800  0.908700  1.0  -0.8911
  O  O53  1  0.497800  0.451600  0.137100  1.0  -0.8875
  O  O54  1  0.268800  0.442100  0.256400  1.0  -0.6263
  O  O55  1  0.722200  0.740200  0.881900  1.0  -0.7893
  O  O56  1  0.683400  0.954200  0.863900  1.0  -0.5953
