# generated using pymatgen
data_PrH9(C2O)6
_symmetry_space_group_name_H-M   'P 1'
_cell_length_a   11.78100000
_cell_length_b   12.41600000
_cell_length_c   12.50300000
_cell_angle_alpha   118.87000000
_cell_angle_beta   108.30000000
_cell_angle_gamma   98.42000000
_symmetry_Int_Tables_number   1
_chemical_formula_structural   PrH9(C2O)6
_chemical_formula_sum   'Pr4 H36 C48 O24'
_cell_volume   1419.51111930
_cell_formula_units_Z   4
loop_
 _symmetry_equiv_pos_site_id
 _symmetry_equiv_pos_as_xyz
  1  'x, y, z'
loop_
 _atom_site_type_symbol
 _atom_site_label
 _atom_site_symmetry_multiplicity
 _atom_site_fract_x
 _atom_site_fract_y
 _atom_site_fract_z
 _atom_site_occupancy
 _atom_site_charge
  Pr  Pr1  1  0.977820  0.677790  0.509600  1.0  2.2501
  Pr  Pr2  1  0.697840  0.743420  0.264850  1.0  2.1911
  Pr  Pr3  1  0.022180  0.322210  0.490400  1.0  2.251
  Pr  Pr4  1  0.302160  0.256580  0.735150  1.0  2.1914
  H  H5  1  0.096800  0.945800  0.301000  1.0  0.1175
  H  H6  1  0.350400  0.985800  0.156000  1.0  0.1153
  H  H7  1  0.157400  0.626100  0.049500  1.0  0.1117
  H  H8  1  0.993700  0.590100  0.105500  1.0  0.1321
  H  H9  1  0.918800  0.688700  0.114100  1.0  0.1363
  H  H10  1  0.343600  0.179900  0.326300  1.0  0.1319
  H  H11  1  0.194700  0.158700  0.279900  1.0  0.135
  H  H12  1  0.281400  0.643500  0.930600  1.0  0.1354
  H  H13  1  0.351300  0.785500  0.965900  1.0  0.1279
  H  H14  1  0.938100  0.804900  0.978400  1.0  0.1082
  H  H15  1  0.587600  0.828100  0.918500  1.0  0.1136
  H  H16  1  0.622200  0.492700  0.657800  1.0  0.1182
  H  H17  1  0.951400  0.584300  0.848000  1.0  0.1318
  H  H18  1  0.829100  0.468300  0.710200  1.0  0.1491
  H  H19  1  0.774300  0.023400  0.095700  1.0  0.1492
  H  H20  1  0.913300  0.020500  0.109700  1.0  0.1507
  H  H21  1  0.411700  0.668400  0.684800  1.0  0.1548
  H  H22  1  0.426900  0.535900  0.585900  1.0  0.1539
  H  H23  1  0.903200  0.054200  0.699000  1.0  0.1179
  H  H24  1  0.649600  0.014200  0.844000  1.0  0.1156
  H  H25  1  0.842600  0.373900  0.950500  1.0  0.1117
  H  H26  1  0.006300  0.409900  0.894500  1.0  0.1308
  H  H27  1  0.081200  0.311300  0.885900  1.0  0.1378
  H  H28  1  0.656400  0.820100  0.673700  1.0  0.1309
  H  H29  1  0.805300  0.841300  0.720100  1.0  0.132
  H  H30  1  0.718600  0.356500  0.069400  1.0  0.1358
  H  H31  1  0.648700  0.214500  0.034100  1.0  0.1285
  H  H32  1  0.061900  0.195100  0.021600  1.0  0.1076
  H  H33  1  0.412400  0.171900  0.081500  1.0  0.1144
  H  H34  1  0.377800  0.507300  0.342200  1.0  0.1155
  H  H35  1  0.048600  0.415700  0.152000  1.0  0.132
  H  H36  1  0.170900  0.531700  0.289800  1.0  0.1482
  H  H37  1  0.225700  0.976600  0.904300  1.0  0.1479
  H  H38  1  0.086700  0.979500  0.890300  1.0  0.1496
  H  H39  1  0.588300  0.331600  0.315200  1.0  0.1539
  H  H40  1  0.573100  0.464100  0.414100  1.0  0.1555
  C  C41  1  0.108100  0.770600  0.172000  1.0  0.1559
  C  C42  1  0.139200  0.907700  0.246900  1.0  -0.2067
  C  C43  1  0.231000  0.988700  0.243500  1.0  0.1615
  C  C44  1  0.290700  0.931800  0.162600  1.0  -0.2162
  C  C45  1  0.264300  0.796300  0.090700  1.0  0.1428
  C  C46  1  0.174400  0.718200  0.097300  1.0  -0.2331
  C  C47  1  0.998900  0.681900  0.162700  1.0  -0.3831
  C  C48  1  0.002300  0.705800  0.294800  1.0  0.8003
  C  C49  1  0.264700  0.137800  0.325200  1.0  -0.3735
  C  C50  1  0.284700  0.193200  0.468300  1.0  0.7826
  C  C51  1  0.334400  0.736500  0.005800  1.0  -0.3496
  C  C52  1  0.459200  0.744900  0.098400  1.0  0.7436
  C  C53  1  0.792100  0.637900  0.813200  1.0  0.1496
  C  C54  1  0.847500  0.765600  0.928200  1.0  -0.2172
  C  C55  1  0.771500  0.837700  0.971600  1.0  0.1593
  C  C56  1  0.639900  0.779300  0.891300  1.0  -0.2347
  C  C57  1  0.581600  0.653400  0.773700  1.0  0.1312
  C  C58  1  0.659900  0.580800  0.736000  1.0  -0.1947
  C  C59  1  0.878100  0.564100  0.766800  1.0  -0.3895
  C  C60  1  0.928200  0.598000  0.686700  1.0  0.8059
  C  C61  1  0.832100  0.973900  0.101600  1.0  -0.4149
  C  C62  1  0.859900  0.975100  0.229800  1.0  0.8268
  C  C63  1  0.439000  0.595300  0.680200  1.0  -0.4063
  C  C64  1  0.348500  0.519700  0.703600  1.0  0.8234
  C  C65  1  0.891900  0.229400  0.828000  1.0  0.1576
  C  C66  1  0.860800  0.092300  0.753100  1.0  -0.2106
  C  C67  1  0.769000  0.011300  0.756500  1.0  0.1637
  C  C68  1  0.709300  0.068200  0.837400  1.0  -0.2133
  C  C69  1  0.735700  0.203700  0.909300  1.0  0.144
  C  C70  1  0.825600  0.281800  0.902700  1.0  -0.2372
  C  C71  1  0.001100  0.318100  0.837300  1.0  -0.3829
  C  C72  1  0.997700  0.294200  0.705200  1.0  0.8015
  C  C73  1  0.735300  0.862200  0.674800  1.0  -0.3788
  C  C74  1  0.715300  0.806800  0.531700  1.0  0.7847
  C  C75  1  0.665600  0.263500  0.994200  1.0  -0.3491
  C  C76  1  0.540800  0.255100  0.901600  1.0  0.7434
  C  C77  1  0.207900  0.362100  0.186800  1.0  0.1489
  C  C78  1  0.152500  0.234400  0.071800  1.0  -0.2202
  C  C79  1  0.228500  0.162300  0.028400  1.0  0.159
  C  C80  1  0.360100  0.220700  0.108700  1.0  -0.2307
  C  C81  1  0.418400  0.346600  0.226300  1.0  0.1309
  C  C82  1  0.340100  0.419200  0.264000  1.0  -0.1966
  C  C83  1  0.121900  0.435900  0.233200  1.0  -0.3898
  C  C84  1  0.071800  0.402000  0.313300  1.0  0.8
  C  C85  1  0.167900  0.026100  0.898400  1.0  -0.4163
  C  C86  1  0.140100  0.024900  0.770200  1.0  0.8284
  C  C87  1  0.561000  0.404700  0.319800  1.0  -0.4062
  C  C88  1  0.651500  0.480300  0.296400  1.0  0.8232
  O  O89  1  0.104900  0.733200  0.390700  1.0  -0.6575
  O  O90  1  0.897800  0.689100  0.304800  1.0  -0.8556
  O  O91  1  0.196200  0.223400  0.502900  1.0  -0.8232
  O  O92  1  0.386300  0.205200  0.554100  1.0  -0.652
  O  O93  1  0.458800  0.662600  0.130600  1.0  -0.6861
  O  O94  1  0.561600  0.834800  0.144200  1.0  -0.6915
  O  O95  1  0.972100  0.520900  0.611400  1.0  -0.8667
  O  O96  1  0.924400  0.700600  0.691200  1.0  -0.684
  O  O97  1  0.831700  0.868200  0.219600  1.0  -0.7374
  O  O98  1  0.910600  0.086500  0.344500  1.0  -0.7877
  O  O99  1  0.231000  0.501800  0.643900  1.0  -0.7208
  O  O100  1  0.389200  0.474100  0.773000  1.0  -0.7109
  O  O101  1  0.895100  0.266800  0.609300  1.0  -0.6562
  O  O102  1  0.102200  0.310900  0.695200  1.0  -0.8542
  O  O103  1  0.803800  0.776600  0.497100  1.0  -0.8244
  O  O104  1  0.613700  0.794800  0.445900  1.0  -0.6517
  O  O105  1  0.541200  0.337400  0.869400  1.0  -0.687
  O  O106  1  0.438400  0.165200  0.855800  1.0  -0.6875
  O  O107  1  0.027900  0.479100  0.388600  1.0  -0.8658
  O  O108  1  0.075600  0.299400  0.308800  1.0  -0.6867
  O  O109  1  0.168300  0.131800  0.780400  1.0  -0.7357
  O  O110  1  0.089400  0.913500  0.655500  1.0  -0.7862
  O  O111  1  0.769000  0.498200  0.356100  1.0  -0.7177
  O  O112  1  0.610800  0.525900  0.227000  1.0  -0.7123
