# generated using pymatgen
data_Cu3H16C36(NO2)4
_symmetry_space_group_name_H-M   'P 1'
_cell_length_a   18.61500000
_cell_length_b   18.61500000
_cell_length_c   22.42910000
_cell_angle_alpha   114.51800000
_cell_angle_beta   114.51800000
_cell_angle_gamma   90.00000000
_symmetry_Int_Tables_number   1
_chemical_formula_structural   Cu3H16C36(NO2)4
_chemical_formula_sum   'Cu12 H64 C144 N16 O32'
_cell_volume   6292.92178021
_cell_formula_units_Z   4
loop_
 _symmetry_equiv_pos_site_id
 _symmetry_equiv_pos_as_xyz
  1  'x, y, z'
loop_
 _atom_site_type_symbol
 _atom_site_label
 _atom_site_symmetry_multiplicity
 _atom_site_fract_x
 _atom_site_fract_y
 _atom_site_fract_z
 _atom_site_occupancy
 _atom_site_charge
  Cu  Cu1  1  0.506230  0.939750  0.445200  1.0  0.9281
  Cu  Cu2  1  0.938970  0.505450  0.445200  1.0  0.936
  Cu  Cu3  1  0.939750  0.938970  0.445200  1.0  0.9443
  Cu  Cu4  1  0.505450  0.506230  0.445200  1.0  0.9399
  Cu  Cu5  1  0.493770  0.060250  0.554800  1.0  0.9266
  Cu  Cu6  1  0.061030  0.494550  0.554800  1.0  0.9354
  Cu  Cu7  1  0.060250  0.061030  0.554800  1.0  0.9438
  Cu  Cu8  1  0.494550  0.493770  0.554800  1.0  0.941
  Cu  Cu9  1  0.712400  0.001300  0.000000  1.0  0.5224
  Cu  Cu10  1  0.287600  0.998700  0.000000  1.0  0.5205
  Cu  Cu11  1  0.001300  0.287600  0.000000  1.0  0.5196
  Cu  Cu12  1  0.998700  0.712400  0.000000  1.0  0.5219
  H  H13  1  0.493100  0.761600  0.515400  1.0  0.1171
  H  H14  1  0.566500  0.744400  0.711800  1.0  0.1342
  H  H15  1  0.572300  0.967000  0.715800  1.0  0.1303
  H  H16  1  0.456100  0.820200  0.757600  1.0  0.1306
  H  H17  1  0.719700  0.933700  0.758200  1.0  0.1316
  H  H18  1  0.420400  0.839700  0.859800  1.0  0.1472
  H  H19  1  0.859300  0.021100  0.852800  1.0  0.176
  H  H20  1  0.022300  0.753800  0.515400  1.0  0.1167
  H  H21  1  0.145300  0.967400  0.711800  1.0  0.1325
  H  H22  1  0.143500  0.748800  0.715800  1.0  0.1293
  H  H23  1  0.301500  0.937400  0.757600  1.0  0.1312
  H  H24  1  0.038500  0.824500  0.758200  1.0  0.1285
  H  H25  1  0.439400  0.020100  0.859800  1.0  0.1453
  H  H26  1  0.993500  0.831700  0.852800  1.0  0.1807
  H  H27  1  0.761600  0.022300  0.515400  1.0  0.1167
  H  H28  1  0.744400  0.145300  0.711800  1.0  0.1329
  H  H29  1  0.967000  0.143500  0.715800  1.0  0.1302
  H  H30  1  0.820200  0.301500  0.757600  1.0  0.1308
  H  H31  1  0.933700  0.038500  0.758200  1.0  0.1317
  H  H32  1  0.839700  0.439400  0.859800  1.0  0.144
  H  H33  1  0.021100  0.993500  0.852800  1.0  0.1748
  H  H34  1  0.753800  0.493100  0.515400  1.0  0.1165
  H  H35  1  0.967400  0.566500  0.711800  1.0  0.1321
  H  H36  1  0.748800  0.572300  0.715800  1.0  0.1294
  H  H37  1  0.937400  0.456100  0.757600  1.0  0.1319
  H  H38  1  0.824500  0.719700  0.758200  1.0  0.1316
  H  H39  1  0.020100  0.420400  0.859800  1.0  0.1459
  H  H40  1  0.831700  0.859300  0.852800  1.0  0.1764
  H  H41  1  0.506900  0.238400  0.484600  1.0  0.1173
  H  H42  1  0.433500  0.255600  0.288200  1.0  0.1338
  H  H43  1  0.427700  0.033000  0.284200  1.0  0.1301
  H  H44  1  0.543900  0.179800  0.242400  1.0  0.1301
  H  H45  1  0.280300  0.066300  0.241800  1.0  0.1306
  H  H46  1  0.579600  0.160300  0.140200  1.0  0.1479
  H  H47  1  0.140700  0.978900  0.147200  1.0  0.1755
  H  H48  1  0.977700  0.246200  0.484600  1.0  0.1166
  H  H49  1  0.854700  0.032600  0.288200  1.0  0.1335
  H  H50  1  0.856500  0.251200  0.284200  1.0  0.1292
  H  H51  1  0.698500  0.062600  0.242400  1.0  0.1305
  H  H52  1  0.961500  0.175500  0.241800  1.0  0.1279
  H  H53  1  0.560600  0.979900  0.140200  1.0  0.1456
  H  H54  1  0.006500  0.168300  0.147200  1.0  0.1805
  H  H55  1  0.238400  0.977700  0.484600  1.0  0.1174
  H  H56  1  0.255600  0.854700  0.288200  1.0  0.1324
  H  H57  1  0.033000  0.856500  0.284200  1.0  0.1302
  H  H58  1  0.179800  0.698500  0.242400  1.0  0.1298
  H  H59  1  0.066300  0.961500  0.241800  1.0  0.1315
  H  H60  1  0.160300  0.560600  0.140200  1.0  0.1437
  H  H61  1  0.978900  0.006500  0.147200  1.0  0.1752
  H  H62  1  0.246200  0.506900  0.484600  1.0  0.117
  H  H63  1  0.032600  0.433500  0.288200  1.0  0.1314
  H  H64  1  0.251200  0.427700  0.284200  1.0  0.129
  H  H65  1  0.062600  0.543900  0.242400  1.0  0.1316
  H  H66  1  0.175500  0.280300  0.241800  1.0  0.1312
  H  H67  1  0.979900  0.579600  0.140200  1.0  0.1481
  H  H68  1  0.168300  0.140700  0.147200  1.0  0.1765
  H  H69  1  0.498700  0.907800  0.000000  1.0  0.1157
  H  H70  1  0.943600  0.080200  0.000000  1.0  0.128
  H  H71  1  0.501300  0.092200  0.000000  1.0  0.1163
  H  H72  1  0.056400  0.919800  0.000000  1.0  0.1266
  H  H73  1  0.907800  0.501300  0.000000  1.0  0.1152
  H  H74  1  0.080200  0.056400  0.000000  1.0  0.1285
  H  H75  1  0.092200  0.498700  0.000000  1.0  0.1144
  H  H76  1  0.919800  0.943600  0.000000  1.0  0.1282
  C  C77  1  0.517200  0.922000  0.574400  1.0  0.6548
  C  C78  1  0.512700  0.654600  0.575800  1.0  0.4692
  C  C79  1  0.531200  0.868600  0.610400  1.0  -0.1131
  C  C80  1  0.513400  0.786600  0.567400  1.0  -0.0211
  C  C81  1  0.528400  0.743700  0.608600  1.0  0.0081
  C  C82  1  0.558500  0.776900  0.687200  1.0  -0.0816
  C  C83  1  0.574700  0.861900  0.724000  1.0  0.0465
  C  C84  1  0.561700  0.909700  0.689200  1.0  -0.1318
  C  C85  1  0.613200  0.902700  0.806800  1.0  -0.1016
  C  C86  1  0.691900  0.946600  0.844600  1.0  0.0153
  C  C87  1  0.568900  0.894600  0.843000  1.0  0.137
  C  C88  1  0.489800  0.850700  0.809000  1.0  -0.0826
  C  C89  1  0.739100  0.956800  0.810000  1.0  -0.0701
  C  C90  1  0.821100  0.024700  0.932400  1.0  0.0077
  C  C91  1  0.542000  0.909100  0.931600  1.0  0.2448
  C  C92  1  0.470200  0.860500  0.864600  1.0  -0.1525
  C  C93  1  0.818200  0.005300  0.862200  1.0  -0.0861
  C  C94  1  0.057200  0.652400  0.574400  1.0  0.6552
  C  C95  1  0.063100  0.921200  0.575800  1.0  0.4702
  C  C96  1  0.079200  0.741800  0.610400  1.0  -0.1115
  C  C97  1  0.054000  0.780800  0.567400  1.0  -0.0189
  C  C98  1  0.080200  0.864900  0.608600  1.0  0.0103
  C  C99  1  0.128700  0.910300  0.687200  1.0  -0.0811
  C  C100  1  0.149300  0.862100  0.724000  1.0  0.0481
  C  C101  1  0.127500  0.779500  0.689200  1.0  -0.1316
  C  C102  1  0.193600  0.904100  0.806800  1.0  -0.1023
  C  C103  1  0.152700  0.898000  0.844600  1.0  0.0143
  C  C104  1  0.274100  0.948400  0.843000  1.0  0.1385
  C  C105  1  0.319200  0.958300  0.809000  1.0  -0.0799
  C  C106  1  0.070900  0.853200  0.810000  1.0  -0.0719
  C  C107  1  0.111300  0.907700  0.932400  1.0  0.0079
  C  C108  1  0.389600  0.022500  0.931600  1.0  0.2395
  C  C109  1  0.394400  0.004100  0.864600  1.0  -0.1501
  C  C110  1  0.044000  0.856900  0.862200  1.0  -0.0911
  C  C111  1  0.922000  0.057200  0.574400  1.0  0.6539
  C  C112  1  0.654600  0.063100  0.575800  1.0  0.4691
  C  C113  1  0.868600  0.079200  0.610400  1.0  -0.1109
  C  C114  1  0.786600  0.054000  0.567400  1.0  -0.0186
  C  C115  1  0.743700  0.080200  0.608600  1.0  0.0088
  C  C116  1  0.776900  0.128700  0.687200  1.0  -0.0816
  C  C117  1  0.861900  0.149300  0.724000  1.0  0.0362
  C  C118  1  0.909700  0.127500  0.689200  1.0  -0.132
  C  C119  1  0.902700  0.193600  0.806800  1.0  -0.1022
  C  C120  1  0.946600  0.152700  0.844600  1.0  0.0154
  C  C121  1  0.894600  0.274100  0.843000  1.0  0.1345
  C  C122  1  0.850700  0.319200  0.809000  1.0  -0.0838
  C  C123  1  0.956800  0.070900  0.810000  1.0  -0.0731
  C  C124  1  0.024700  0.111300  0.932400  1.0  0.0085
  C  C125  1  0.909100  0.389600  0.931600  1.0  0.2418
  C  C126  1  0.860500  0.394400  0.864600  1.0  -0.1492
  C  C127  1  0.005300  0.044000  0.862200  1.0  -0.0888
  C  C128  1  0.652400  0.517200  0.574400  1.0  0.6556
  C  C129  1  0.921200  0.512700  0.575800  1.0  0.4684
  C  C130  1  0.741800  0.531200  0.610400  1.0  -0.1139
  C  C131  1  0.780800  0.513400  0.567400  1.0  -0.0194
  C  C132  1  0.864900  0.528400  0.608600  1.0  0.0094
  C  C133  1  0.910300  0.558500  0.687200  1.0  -0.0849
  C  C134  1  0.862100  0.574700  0.724000  1.0  0.048
  C  C135  1  0.779500  0.561700  0.689200  1.0  -0.1302
  C  C136  1  0.904100  0.613200  0.806800  1.0  -0.1024
  C  C137  1  0.898000  0.691900  0.844600  1.0  0.0134
  C  C138  1  0.948400  0.568900  0.843000  1.0  0.135
  C  C139  1  0.958300  0.489800  0.809000  1.0  -0.0823
  C  C140  1  0.853200  0.739100  0.810000  1.0  -0.0707
  C  C141  1  0.907700  0.821100  0.932400  1.0  0.0083
  C  C142  1  0.022500  0.542000  0.931600  1.0  0.2448
  C  C143  1  0.004100  0.470200  0.864600  1.0  -0.1519
  C  C144  1  0.856900  0.818200  0.862200  1.0  -0.0882
  C  C145  1  0.482800  0.078000  0.425600  1.0  0.6541
  C  C146  1  0.487300  0.345400  0.424200  1.0  0.4706
  C  C147  1  0.468800  0.131400  0.389600  1.0  -0.1144
  C  C148  1  0.486600  0.213400  0.432600  1.0  -0.0201
  C  C149  1  0.471600  0.256300  0.391400  1.0  0.0076
  C  C150  1  0.441500  0.223100  0.312800  1.0  -0.0833
  C  C151  1  0.425300  0.138100  0.276000  1.0  0.0473
  C  C152  1  0.438300  0.090300  0.310800  1.0  -0.132
  C  C153  1  0.386800  0.097300  0.193200  1.0  -0.1012
  C  C154  1  0.308100  0.053400  0.155400  1.0  0.0161
  C  C155  1  0.431100  0.105400  0.157000  1.0  0.1374
  C  C156  1  0.510200  0.149300  0.191000  1.0  -0.0839
  C  C157  1  0.260900  0.043200  0.190000  1.0  -0.0687
  C  C158  1  0.178900  0.975300  0.067600  1.0  0.0086
  C  C159  1  0.458000  0.090900  0.068400  1.0  0.2449
  C  C160  1  0.529800  0.139500  0.135400  1.0  -0.1516
  C  C161  1  0.181800  0.994700  0.137800  1.0  -0.0853
  C  C162  1  0.942800  0.347600  0.425600  1.0  0.6555
  C  C163  1  0.936900  0.078800  0.424200  1.0  0.4706
  C  C164  1  0.920800  0.258200  0.389600  1.0  -0.1119
  C  C165  1  0.946000  0.219200  0.432600  1.0  -0.0184
  C  C166  1  0.919800  0.135100  0.391400  1.0  0.009
  C  C167  1  0.871300  0.089700  0.312800  1.0  -0.0804
  C  C168  1  0.850700  0.137900  0.276000  1.0  0.0479
  C  C169  1  0.872500  0.220500  0.310800  1.0  -0.1333
  C  C170  1  0.806400  0.095900  0.193200  1.0  -0.1033
  C  C171  1  0.847300  0.102000  0.155400  1.0  0.0145
  C  C172  1  0.725900  0.051600  0.157000  1.0  0.1403
  C  C173  1  0.680800  0.041700  0.191000  1.0  -0.08
  C  C174  1  0.929100  0.146800  0.190000  1.0  -0.0729
  C  C175  1  0.888700  0.092300  0.067600  1.0  0.0082
  C  C176  1  0.610400  0.977500  0.068400  1.0  0.239
  C  C177  1  0.605600  0.995900  0.135400  1.0  -0.1539
  C  C178  1  0.956000  0.143100  0.137800  1.0  -0.0904
  C  C179  1  0.078000  0.942800  0.425600  1.0  0.6542
  C  C180  1  0.345400  0.936900  0.424200  1.0  0.4684
  C  C181  1  0.131400  0.920800  0.389600  1.0  -0.1116
  C  C182  1  0.213400  0.946000  0.432600  1.0  -0.0177
  C  C183  1  0.256300  0.919800  0.391400  1.0  0.0072
  C  C184  1  0.223100  0.871300  0.312800  1.0  -0.0815
  C  C185  1  0.138100  0.850700  0.276000  1.0  0.037
  C  C186  1  0.090300  0.872500  0.310800  1.0  -0.1312
  C  C187  1  0.097300  0.806400  0.193200  1.0  -0.1023
  C  C188  1  0.053400  0.847300  0.155400  1.0  0.0147
  C  C189  1  0.105400  0.725900  0.157000  1.0  0.1359
  C  C190  1  0.149300  0.680800  0.191000  1.0  -0.0807
  C  C191  1  0.043200  0.929100  0.190000  1.0  -0.071
  C  C192  1  0.975300  0.888700  0.067600  1.0  0.0088
  C  C193  1  0.090900  0.610400  0.068400  1.0  0.243
  C  C194  1  0.139500  0.605600  0.135400  1.0  -0.1507
  C  C195  1  0.994700  0.956000  0.137800  1.0  -0.0902
  C  C196  1  0.347600  0.482800  0.425600  1.0  0.654
  C  C197  1  0.078800  0.487300  0.424200  1.0  0.4698
  C  C198  1  0.258200  0.468800  0.389600  1.0  -0.1158
  C  C199  1  0.219200  0.486600  0.432600  1.0  -0.0197
  C  C200  1  0.135100  0.471600  0.391400  1.0  0.0087
  C  C201  1  0.089700  0.441500  0.312800  1.0  -0.0839
  C  C202  1  0.137900  0.425300  0.276000  1.0  0.0483
  C  C203  1  0.220500  0.438300  0.310800  1.0  -0.1297
  C  C204  1  0.095900  0.386800  0.193200  1.0  -0.1013
  C  C205  1  0.102000  0.308100  0.155400  1.0  0.0157
  C  C206  1  0.051600  0.431100  0.157000  1.0  0.1337
  C  C207  1  0.041700  0.510200  0.191000  1.0  -0.0826
  C  C208  1  0.146800  0.260900  0.190000  1.0  -0.0696
  C  C209  1  0.092300  0.178900  0.067600  1.0  0.0086
  C  C210  1  0.977500  0.458000  0.068400  1.0  0.2463
  C  C211  1  0.995900  0.529800  0.135400  1.0  -0.1543
  C  C212  1  0.143100  0.181800  0.137800  1.0  -0.0875
  C  C213  1  0.545100  0.929000  0.000000  1.0  -0.0944
  C  C214  1  0.894000  0.068100  0.000000  1.0  -0.0841
  C  C215  1  0.454900  0.071000  0.000000  1.0  -0.0935
  C  C216  1  0.106000  0.931900  0.000000  1.0  -0.0819
  C  C217  1  0.929000  0.454900  0.000000  1.0  -0.0926
  C  C218  1  0.068100  0.106000  0.000000  1.0  -0.0831
  C  C219  1  0.071000  0.545100  0.000000  1.0  -0.0879
  C  C220  1  0.931900  0.894000  0.000000  1.0  -0.0841
  N  N221  1  0.600300  0.928400  0.920000  1.0  -0.3737
  N  N222  1  0.745600  0.990900  0.920600  1.0  -0.2378
  N  N223  1  0.319700  0.991600  0.920000  1.0  -0.3713
  N  N224  1  0.175000  0.929700  0.920600  1.0  -0.24
  N  N225  1  0.928400  0.319700  0.920000  1.0  -0.3701
  N  N226  1  0.990900  0.175000  0.920600  1.0  -0.239
  N  N227  1  0.991600  0.600300  0.920000  1.0  -0.3701
  N  N228  1  0.929700  0.745600  0.920600  1.0  -0.23
  N  N229  1  0.399700  0.071600  0.080000  1.0  -0.3707
  N  N230  1  0.254400  0.009100  0.079400  1.0  -0.2389
  N  N231  1  0.680300  0.008400  0.080000  1.0  -0.3719
  N  N232  1  0.825000  0.070300  0.079400  1.0  -0.2393
  N  N233  1  0.071600  0.680300  0.080000  1.0  -0.3703
  N  N234  1  0.009100  0.825000  0.079400  1.0  -0.2392
  N  N235  1  0.008400  0.399700  0.080000  1.0  -0.3702
  N  N236  1  0.070300  0.254400  0.079400  1.0  -0.234
  O  O237  1  0.511700  0.884300  0.507200  1.0  -0.5951
  O  O238  1  0.504600  0.990900  0.599600  1.0  -0.5571
  O  O239  1  0.510400  0.604800  0.598800  1.0  -0.5797
  O  O240  1  0.516800  0.619700  0.507200  1.0  -0.6002
  O  O241  1  0.995500  0.622900  0.507200  1.0  -0.5939
  O  O242  1  0.095000  0.608700  0.599600  1.0  -0.5571
  O  O243  1  0.088400  0.994000  0.598800  1.0  -0.5787
  O  O244  1  0.990400  0.887500  0.507200  1.0  -0.5981
  O  O245  1  0.884300  0.995500  0.507200  1.0  -0.5949
  O  O246  1  0.990900  0.095000  0.599600  1.0  -0.5578
  O  O247  1  0.604800  0.088400  0.598800  1.0  -0.5785
  O  O248  1  0.619700  0.990400  0.507200  1.0  -0.5978
  O  O249  1  0.622900  0.511700  0.507200  1.0  -0.5944
  O  O250  1  0.608700  0.504600  0.599600  1.0  -0.5564
  O  O251  1  0.994000  0.510400  0.598800  1.0  -0.5777
  O  O252  1  0.887500  0.516800  0.507200  1.0  -0.5958
  O  O253  1  0.488300  0.115700  0.492800  1.0  -0.594
  O  O254  1  0.495400  0.009100  0.400400  1.0  -0.5563
  O  O255  1  0.489600  0.395200  0.401200  1.0  -0.5778
  O  O256  1  0.483200  0.380300  0.492800  1.0  -0.5996
  O  O257  1  0.004500  0.377100  0.492800  1.0  -0.5908
  O  O258  1  0.905000  0.391300  0.400400  1.0  -0.556
  O  O259  1  0.911600  0.006000  0.401200  1.0  -0.5765
  O  O260  1  0.009600  0.112500  0.492800  1.0  -0.5976
  O  O261  1  0.115700  0.004500  0.492800  1.0  -0.593
  O  O262  1  0.009100  0.905000  0.400400  1.0  -0.557
  O  O263  1  0.395200  0.911600  0.401200  1.0  -0.577
  O  O264  1  0.380300  0.009600  0.492800  1.0  -0.598
  O  O265  1  0.377100  0.488300  0.492800  1.0  -0.5927
  O  O266  1  0.391300  0.495400  0.400400  1.0  -0.5562
  O  O267  1  0.006000  0.489600  0.401200  1.0  -0.5756
  O  O268  1  0.112500  0.483200  0.492800  1.0  -0.598
