# generated using pymatgen
data_NaCu2H4(C3O4)2
_symmetry_space_group_name_H-M   'P 1'
_cell_length_a   12.56500000
_cell_length_b   10.59430000
_cell_length_c   10.75560000
_cell_angle_alpha   90.00000000
_cell_angle_beta   90.00000000
_cell_angle_gamma   90.00000000
_symmetry_Int_Tables_number   1
_chemical_formula_structural   NaCu2H4(C3O4)2
_chemical_formula_sum   'Na4 Cu8 H16 C24 O32'
_cell_volume   1431.75728695
_cell_formula_units_Z   4
loop_
 _symmetry_equiv_pos_site_id
 _symmetry_equiv_pos_as_xyz
  1  'x, y, z'
loop_
 _atom_site_type_symbol
 _atom_site_label
 _atom_site_symmetry_multiplicity
 _atom_site_fract_x
 _atom_site_fract_y
 _atom_site_fract_z
 _atom_site_occupancy
 _atom_site_charge
  Na  Na1  1  0.980300  0.750000  0.670900  1.0  0.9505
  Na  Na2  1  0.519700  0.250000  0.170900  1.0  0.9499
  Na  Na3  1  0.019700  0.250000  0.329100  1.0  0.9484
  Na  Na4  1  0.480300  0.750000  0.829100  1.0  0.949
  Cu  Cu5  1  0.736060  0.250000  0.730970  1.0  0.9169
  Cu  Cu6  1  0.763940  0.750000  0.230970  1.0  0.9167
  Cu  Cu7  1  0.263940  0.750000  0.269030  1.0  0.9162
  Cu  Cu8  1  0.236060  0.250000  0.769030  1.0  0.9165
  Cu  Cu9  1  0.500000  0.000000  0.000000  1.0  0.7482
  Cu  Cu10  1  0.000000  0.000000  0.500000  1.0  0.7482
  Cu  Cu11  1  0.500000  0.500000  0.000000  1.0  0.7482
  Cu  Cu12  1  0.000000  0.500000  0.500000  1.0  0.7482
  H  H13  1  0.663900  0.936900  0.624400  1.0  0.1763
  H  H14  1  0.732100  0.863400  0.721700  1.0  0.1407
  H  H15  1  0.836100  0.063100  0.124400  1.0  0.1752
  H  H16  1  0.767900  0.136600  0.221700  1.0  0.1405
  H  H17  1  0.336100  0.436900  0.375600  1.0  0.1759
  H  H18  1  0.267900  0.363400  0.278300  1.0  0.1404
  H  H19  1  0.163900  0.563100  0.875600  1.0  0.177
  H  H20  1  0.232100  0.636600  0.778300  1.0  0.1405
  H  H21  1  0.336100  0.063100  0.375600  1.0  0.1758
  H  H22  1  0.267900  0.136600  0.278300  1.0  0.1406
  H  H23  1  0.163900  0.936900  0.875600  1.0  0.1771
  H  H24  1  0.232100  0.863400  0.778300  1.0  0.1405
  H  H25  1  0.663900  0.563100  0.624400  1.0  0.1763
  H  H26  1  0.732100  0.636600  0.721700  1.0  0.1406
  H  H27  1  0.836100  0.436900  0.124400  1.0  0.1753
  H  H28  1  0.767900  0.363400  0.221700  1.0  0.1405
  C  C29  1  0.809400  0.011000  0.647800  1.0  0.7248
  C  C30  1  0.711900  0.947300  0.694300  1.0  -0.543
  C  C31  1  0.648600  0.009200  0.800200  1.0  0.7406
  C  C32  1  0.690600  0.989000  0.147800  1.0  0.7249
  C  C33  1  0.788100  0.052700  0.194300  1.0  -0.5425
  C  C34  1  0.851400  0.990800  0.300200  1.0  0.7534
  C  C35  1  0.190600  0.511000  0.352200  1.0  0.7252
  C  C36  1  0.288100  0.447300  0.305700  1.0  -0.5426
  C  C37  1  0.351400  0.509200  0.199800  1.0  0.7532
  C  C38  1  0.309400  0.489000  0.852200  1.0  0.7251
  C  C39  1  0.211900  0.552700  0.805700  1.0  -0.5416
  C  C40  1  0.148600  0.490800  0.699800  1.0  0.7379
  C  C41  1  0.190600  0.989000  0.352200  1.0  0.7257
  C  C42  1  0.288100  0.052700  0.305700  1.0  -0.5421
  C  C43  1  0.351400  0.990800  0.199800  1.0  0.7528
  C  C44  1  0.309400  0.011000  0.852200  1.0  0.7249
  C  C45  1  0.211900  0.947300  0.805700  1.0  -0.5435
  C  C46  1  0.148600  0.009200  0.699800  1.0  0.7531
  C  C47  1  0.809400  0.489000  0.647800  1.0  0.7248
  C  C48  1  0.711900  0.552700  0.694300  1.0  -0.5419
  C  C49  1  0.648600  0.490800  0.800200  1.0  0.7374
  C  C50  1  0.690600  0.511000  0.147800  1.0  0.7246
  C  C51  1  0.788100  0.447300  0.194300  1.0  -0.5422
  C  C52  1  0.851400  0.509200  0.300200  1.0  0.7536
  O  O53  1  0.822700  0.125200  0.650100  1.0  -0.5949
  O  O54  1  0.876600  0.936600  0.599600  1.0  -0.6844
  O  O55  1  0.652600  0.126100  0.817100  1.0  -0.6156
  O  O56  1  0.589500  0.560300  0.861900  1.0  -0.6592
  O  O57  1  0.677300  0.874800  0.150100  1.0  -0.5945
  O  O58  1  0.623400  0.063400  0.099600  1.0  -0.6832
  O  O59  1  0.847400  0.873900  0.317100  1.0  -0.6141
  O  O60  1  0.910500  0.439700  0.361900  1.0  -0.6621
  O  O61  1  0.177300  0.625200  0.349900  1.0  -0.5949
  O  O62  1  0.123400  0.436600  0.400400  1.0  -0.683
  O  O63  1  0.347400  0.626100  0.182900  1.0  -0.6162
  O  O64  1  0.410500  0.060300  0.138100  1.0  -0.6612
  O  O65  1  0.322700  0.374800  0.849900  1.0  -0.5945
  O  O66  1  0.376600  0.563400  0.900400  1.0  -0.6841
  O  O67  1  0.152600  0.373900  0.682900  1.0  -0.6159
  O  O68  1  0.089500  0.939700  0.638100  1.0  -0.6587
  O  O69  1  0.177300  0.874800  0.349900  1.0  -0.594
  O  O70  1  0.123400  0.063400  0.400400  1.0  -0.6842
  O  O71  1  0.347400  0.873900  0.182900  1.0  -0.6153
  O  O72  1  0.410500  0.439700  0.138100  1.0  -0.6609
  O  O73  1  0.322700  0.125200  0.849900  1.0  -0.5943
  O  O74  1  0.376600  0.936600  0.900400  1.0  -0.6847
  O  O75  1  0.152600  0.126100  0.682900  1.0  -0.6159
  O  O76  1  0.089500  0.560300  0.638100  1.0  -0.6588
  O  O77  1  0.822700  0.374800  0.650100  1.0  -0.5945
  O  O78  1  0.876600  0.563400  0.599600  1.0  -0.6841
  O  O79  1  0.652600  0.373900  0.817100  1.0  -0.615
  O  O80  1  0.589500  0.939700  0.861900  1.0  -0.6587
  O  O81  1  0.677300  0.625200  0.150100  1.0  -0.5951
  O  O82  1  0.623400  0.436600  0.099600  1.0  -0.6834
  O  O83  1  0.847400  0.626100  0.317100  1.0  -0.6157
  O  O84  1  0.910500  0.060300  0.361900  1.0  -0.6615
