# generated using pymatgen
data_K2CdH6C16(NO6)2
_symmetry_space_group_name_H-M   'P 1'
_cell_length_a   10.18600000
_cell_length_b   10.18600000
_cell_length_c   24.36700000
_cell_angle_alpha   90.00000000
_cell_angle_beta   90.00000000
_cell_angle_gamma   90.00000000
_symmetry_Int_Tables_number   1
_chemical_formula_structural   K2CdH6C16(NO6)2
_chemical_formula_sum   'K8 Cd4 H24 C64 N8 O48'
_cell_volume   2528.18824073
_cell_formula_units_Z   4
loop_
 _symmetry_equiv_pos_site_id
 _symmetry_equiv_pos_as_xyz
  1  'x, y, z'
loop_
 _atom_site_type_symbol
 _atom_site_label
 _atom_site_symmetry_multiplicity
 _atom_site_fract_x
 _atom_site_fract_y
 _atom_site_fract_z
 _atom_site_occupancy
 _atom_site_charge
  K  K1  1  0.534600  0.820700  0.911100  1.0  0.9266
  K  K2  1  0.796400  0.888340  0.910410  1.0  0.9684
  K  K3  1  0.465400  0.179300  0.411100  1.0  0.9277
  K  K4  1  0.203600  0.111660  0.410410  1.0  0.9685
  K  K5  1  0.179300  0.534600  0.161100  1.0  0.9288
  K  K6  1  0.111660  0.796400  0.160410  1.0  0.9699
  K  K7  1  0.820700  0.465400  0.661100  1.0  0.9276
  K  K8  1  0.888340  0.203600  0.660410  1.0  0.9698
  Cd  Cd9  1  0.097650  0.761300  0.000900  1.0  1.0458
  Cd  Cd10  1  0.902350  0.238700  0.500900  1.0  1.0444
  Cd  Cd11  1  0.238700  0.097650  0.250900  1.0  1.0446
  Cd  Cd12  1  0.761300  0.902350  0.750900  1.0  1.0447
  H  H13  1  0.073300  0.462200  0.847200  1.0  0.1268
  H  H14  1  0.077600  0.061700  0.847600  1.0  0.1211
  H  H15  1  0.093500  0.264500  0.991900  1.0  0.1236
  H  H16  1  0.796700  0.749600  0.157000  1.0  0.1121
  H  H17  1  0.395200  0.744600  0.151900  1.0  0.0759
  H  H18  1  0.604300  0.754300  0.011700  1.0  0.1308
  H  H19  1  0.926700  0.537800  0.347200  1.0  0.127
  H  H20  1  0.922400  0.938300  0.347600  1.0  0.1209
  H  H21  1  0.906500  0.735500  0.491900  1.0  0.1244
  H  H22  1  0.203300  0.250400  0.657000  1.0  0.1118
  H  H23  1  0.604800  0.255400  0.651900  1.0  0.0754
  H  H24  1  0.395700  0.245700  0.511700  1.0  0.1308
  H  H25  1  0.537800  0.073300  0.097200  1.0  0.1271
  H  H26  1  0.938300  0.077600  0.097600  1.0  0.1212
  H  H27  1  0.735500  0.093500  0.241900  1.0  0.1245
  H  H28  1  0.250400  0.796700  0.407000  1.0  0.1115
  H  H29  1  0.255400  0.395200  0.401900  1.0  0.0759
  H  H30  1  0.245700  0.604300  0.261700  1.0  0.1303
  H  H31  1  0.462200  0.926700  0.597200  1.0  0.1274
  H  H32  1  0.061700  0.922400  0.597600  1.0  0.1207
  H  H33  1  0.264500  0.906500  0.741900  1.0  0.1244
  H  H34  1  0.749600  0.203300  0.907000  1.0  0.1117
  H  H35  1  0.744600  0.604800  0.901900  1.0  0.0763
  H  H36  1  0.754300  0.395700  0.761700  1.0  0.1306
  C  C37  1  0.090700  0.508800  0.956100  1.0  0.6962
  C  C38  1  0.085600  0.380500  0.923700  1.0  -0.1117
  C  C39  1  0.075800  0.380900  0.867100  1.0  -0.066
  C  C40  1  0.073500  0.263500  0.840800  1.0  0.0365
  C  C41  1  0.081100  0.142000  0.868200  1.0  -0.0992
  C  C42  1  0.089600  0.142000  0.923500  1.0  -0.1024
  C  C43  1  0.091600  0.263100  0.952500  1.0  -0.0093
  C  C44  1  0.099600  0.013200  0.953900  1.0  0.7117
  C  C45  1  0.851200  0.754300  0.049600  1.0  0.6995
  C  C46  1  0.720900  0.748500  0.078900  1.0  -0.142
  C  C47  1  0.716600  0.745700  0.136300  1.0  -0.0506
  C  C48  1  0.596400  0.742100  0.163000  1.0  0.1391
  C  C49  1  0.478100  0.744500  0.133100  1.0  -0.033
  C  C50  1  0.481000  0.745800  0.075500  1.0  -0.1652
  C  C51  1  0.602100  0.749000  0.049000  1.0  0.0532
  C  C52  1  0.355000  0.753100  0.043100  1.0  0.7399
  C  C53  1  0.909300  0.491200  0.456100  1.0  0.6981
  C  C54  1  0.914400  0.619500  0.423700  1.0  -0.111
  C  C55  1  0.924200  0.619100  0.367100  1.0  -0.0653
  C  C56  1  0.926500  0.736500  0.340800  1.0  0.0356
  C  C57  1  0.918900  0.858000  0.368200  1.0  -0.0976
  C  C58  1  0.910400  0.858000  0.423500  1.0  -0.0997
  C  C59  1  0.908400  0.736900  0.452500  1.0  -0.0102
  C  C60  1  0.900400  0.986800  0.453900  1.0  0.7098
  C  C61  1  0.148800  0.245700  0.549600  1.0  0.6996
  C  C62  1  0.279100  0.251500  0.578900  1.0  -0.1417
  C  C63  1  0.283400  0.254300  0.636300  1.0  -0.0518
  C  C64  1  0.403600  0.257900  0.663000  1.0  0.1381
  C  C65  1  0.521900  0.255500  0.633100  1.0  -0.033
  C  C66  1  0.519000  0.254200  0.575500  1.0  -0.164
  C  C67  1  0.397900  0.251000  0.549000  1.0  0.0521
  C  C68  1  0.645000  0.246900  0.543100  1.0  0.7397
  C  C69  1  0.491200  0.090700  0.206100  1.0  0.6918
  C  C70  1  0.619500  0.085600  0.173700  1.0  -0.1092
  C  C71  1  0.619100  0.075800  0.117100  1.0  -0.0644
  C  C72  1  0.736500  0.073500  0.090800  1.0  0.0363
  C  C73  1  0.858000  0.081100  0.118200  1.0  -0.0986
  C  C74  1  0.858000  0.089600  0.173500  1.0  -0.0994
  C  C75  1  0.736900  0.091600  0.202500  1.0  -0.0104
  C  C76  1  0.986800  0.099600  0.203900  1.0  0.7067
  C  C77  1  0.245700  0.851200  0.299600  1.0  0.7005
  C  C78  1  0.251500  0.720900  0.328900  1.0  -0.1446
  C  C79  1  0.254300  0.716600  0.386300  1.0  -0.0494
  C  C80  1  0.257900  0.596400  0.413000  1.0  0.1376
  C  C81  1  0.255500  0.478100  0.383100  1.0  -0.0332
  C  C82  1  0.254200  0.481000  0.325500  1.0  -0.1647
  C  C83  1  0.251000  0.602100  0.299000  1.0  0.0534
  C  C84  1  0.246900  0.355000  0.293100  1.0  0.7392
  C  C85  1  0.508800  0.909300  0.706100  1.0  0.6931
  C  C86  1  0.380500  0.914400  0.673700  1.0  -0.1097
  C  C87  1  0.380900  0.924200  0.617100  1.0  -0.0617
  C  C88  1  0.263500  0.926500  0.590800  1.0  0.0352
  C  C89  1  0.142000  0.918900  0.618200  1.0  -0.0987
  C  C90  1  0.142000  0.910400  0.673500  1.0  -0.0992
  C  C91  1  0.263100  0.908400  0.702500  1.0  -0.0093
  C  C92  1  0.013200  0.900400  0.703900  1.0  0.705
  C  C93  1  0.754300  0.148800  0.799600  1.0  0.7018
  C  C94  1  0.748500  0.279100  0.828900  1.0  -0.1456
  C  C95  1  0.745700  0.283400  0.886300  1.0  -0.0499
  C  C96  1  0.742100  0.403600  0.913000  1.0  0.1382
  C  C97  1  0.744500  0.521900  0.883100  1.0  -0.0335
  C  C98  1  0.745800  0.519000  0.825500  1.0  -0.1626
  C  C99  1  0.749000  0.397900  0.799000  1.0  0.052
  C  C100  1  0.753100  0.645000  0.793100  1.0  0.7395
  N  N101  1  0.059800  0.258900  0.780900  1.0  0.5621
  N  N102  1  0.590200  0.736200  0.220700  1.0  0.6703
  N  N103  1  0.940200  0.741100  0.280900  1.0  0.5605
  N  N104  1  0.409800  0.263800  0.720700  1.0  0.6726
  N  N105  1  0.741100  0.059800  0.030900  1.0  0.5598
  N  N106  1  0.263800  0.590200  0.470700  1.0  0.6762
  N  N107  1  0.258900  0.940200  0.530900  1.0  0.5609
  N  N108  1  0.736200  0.409800  0.970700  1.0  0.6751
  O  O109  1  0.098500  0.509900  0.005700  1.0  -0.6367
  O  O110  1  0.087400  0.615800  0.928400  1.0  -0.5911
  O  O111  1  0.137700  0.012400  0.001800  1.0  -0.6178
  O  O112  1  0.066000  0.912100  0.929700  1.0  -0.6585
  O  O113  1  0.045800  0.364000  0.755600  1.0  -0.5828
  O  O114  1  0.058800  0.157000  0.757800  1.0  -0.5688
  O  O115  1  0.852800  0.758300  0.000500  1.0  -0.6487
  O  O116  1  0.954200  0.755200  0.078300  1.0  -0.6931
  O  O117  1  0.357700  0.743100  0.993300  1.0  -0.6507
  O  O118  1  0.250600  0.761800  0.069800  1.0  -0.6671
  O  O119  1  0.493500  0.689300  0.244300  1.0  -0.4893
  O  O120  1  0.683100  0.753000  0.246500  1.0  -0.359
  O  O121  1  0.901500  0.490100  0.505700  1.0  -0.6384
  O  O122  1  0.912600  0.384200  0.428400  1.0  -0.5912
  O  O123  1  0.862300  0.987600  0.501800  1.0  -0.6175
  O  O124  1  0.934000  0.087900  0.429700  1.0  -0.6572
  O  O125  1  0.954200  0.636000  0.255600  1.0  -0.5821
  O  O126  1  0.941200  0.843000  0.257800  1.0  -0.5693
  O  O127  1  0.147200  0.241700  0.500500  1.0  -0.6495
  O  O128  1  0.045800  0.244800  0.578300  1.0  -0.6956
  O  O129  1  0.642300  0.256900  0.493300  1.0  -0.6512
  O  O130  1  0.749400  0.238200  0.569800  1.0  -0.6652
  O  O131  1  0.506500  0.310700  0.744300  1.0  -0.4884
  O  O132  1  0.316900  0.247000  0.746500  1.0  -0.3591
  O  O133  1  0.490100  0.098500  0.255700  1.0  -0.6353
  O  O134  1  0.384200  0.087400  0.178400  1.0  -0.5882
  O  O135  1  0.987600  0.137700  0.251800  1.0  -0.6194
  O  O136  1  0.087900  0.066000  0.179700  1.0  -0.6556
  O  O137  1  0.636000  0.045800  0.005600  1.0  -0.5812
  O  O138  1  0.843000  0.058800  0.007800  1.0  -0.5692
  O  O139  1  0.241700  0.852800  0.250500  1.0  -0.6491
  O  O140  1  0.244800  0.954200  0.328300  1.0  -0.6965
  O  O141  1  0.256900  0.357700  0.243300  1.0  -0.6513
  O  O142  1  0.238200  0.250600  0.319800  1.0  -0.6668
  O  O143  1  0.310700  0.493500  0.494300  1.0  -0.4908
  O  O144  1  0.247000  0.683100  0.496500  1.0  -0.36
  O  O145  1  0.509900  0.901500  0.755700  1.0  -0.6358
  O  O146  1  0.615800  0.912600  0.678400  1.0  -0.5881
  O  O147  1  0.012400  0.862300  0.751800  1.0  -0.6173
  O  O148  1  0.912100  0.934000  0.679700  1.0  -0.6547
  O  O149  1  0.364000  0.954200  0.505600  1.0  -0.5813
  O  O150  1  0.157000  0.941200  0.507800  1.0  -0.5697
  O  O151  1  0.758300  0.147200  0.750500  1.0  -0.6499
  O  O152  1  0.755200  0.045800  0.828300  1.0  -0.6935
  O  O153  1  0.743100  0.642300  0.743300  1.0  -0.6509
  O  O154  1  0.761800  0.749400  0.819800  1.0  -0.6658
  O  O155  1  0.689300  0.506500  0.994300  1.0  -0.4896
  O  O156  1  0.753000  0.316900  0.996500  1.0  -0.3594
