# generated using pymatgen
data_UH3(C2O)4
_symmetry_space_group_name_H-M   'P 1'
_cell_length_a   15.82740000
_cell_length_b   9.62210000
_cell_length_c   20.20220000
_cell_angle_alpha   90.00000000
_cell_angle_beta   96.85500000
_cell_angle_gamma   90.00000000
_symmetry_Int_Tables_number   1
_chemical_formula_structural   UH3(C2O)4
_chemical_formula_sum   'U8 H24 C64 O32'
_cell_volume   3054.65635133
_cell_formula_units_Z   8
loop_
 _symmetry_equiv_pos_site_id
 _symmetry_equiv_pos_as_xyz
  1  'x, y, z'
loop_
 _atom_site_type_symbol
 _atom_site_label
 _atom_site_symmetry_multiplicity
 _atom_site_fract_x
 _atom_site_fract_y
 _atom_site_fract_z
 _atom_site_occupancy
 _atom_site_charge
  U  U1  1  0.284120  0.531750  0.492310  1.0  1.4496
  U  U2  1  0.114390  0.783300  0.724360  1.0  1.6977
  U  U3  1  0.715880  0.031750  0.007690  1.0  1.448
  U  U4  1  0.885610  0.283300  0.775640  1.0  1.6963
  U  U5  1  0.715880  0.468250  0.507690  1.0  1.4481
  U  U6  1  0.885610  0.216700  0.275640  1.0  1.6979
  U  U7  1  0.284120  0.968250  0.992310  1.0  1.4496
  U  U8  1  0.114390  0.716700  0.224360  1.0  1.6954
  H  H9  1  0.546200  0.655600  0.640500  1.0  0.1034
  H  H10  1  0.412500  0.867300  0.808100  1.0  0.1039
  H  H11  1  0.559200  0.865900  0.814700  1.0  0.0947
  H  H12  1  0.669700  0.593200  0.669300  1.0  0.0935
  H  H13  1  0.836900  0.901100  0.807800  1.0  0.0998
  H  H14  1  0.690900  0.911700  0.802100  1.0  0.0953
  H  H15  1  0.453800  0.155600  0.859500  1.0  0.1025
  H  H16  1  0.587500  0.367300  0.691900  1.0  0.1037
  H  H17  1  0.440800  0.365900  0.685300  1.0  0.0945
  H  H18  1  0.330300  0.093200  0.830700  1.0  0.0942
  H  H19  1  0.163100  0.401100  0.692200  1.0  0.1004
  H  H20  1  0.309100  0.411700  0.697900  1.0  0.0952
  H  H21  1  0.453800  0.344400  0.359500  1.0  0.1024
  H  H22  1  0.587500  0.132700  0.191900  1.0  0.1039
  H  H23  1  0.440800  0.134100  0.185300  1.0  0.0946
  H  H24  1  0.330300  0.406800  0.330700  1.0  0.094
  H  H25  1  0.163100  0.098900  0.192200  1.0  0.0999
  H  H26  1  0.309100  0.088300  0.197900  1.0  0.0954
  H  H27  1  0.546200  0.844400  0.140500  1.0  0.1032
  H  H28  1  0.412500  0.632700  0.308100  1.0  0.1038
  H  H29  1  0.559200  0.634100  0.314700  1.0  0.0947
  H  H30  1  0.669700  0.906800  0.169300  1.0  0.0939
  H  H31  1  0.836900  0.598900  0.307800  1.0  0.0999
  H  H32  1  0.690900  0.588300  0.302100  1.0  0.0956
  C  C33  1  0.569400  0.757900  0.728600  1.0  0.0094
  C  C34  1  0.519100  0.699600  0.674500  1.0  -0.1143
  C  C35  1  0.430100  0.703400  0.668200  1.0  -0.0524
  C  C36  1  0.390100  0.767200  0.718800  1.0  -0.1468
  C  C37  1  0.439400  0.825500  0.773500  1.0  -0.0695
  C  C38  1  0.526700  0.822900  0.777700  1.0  -0.1238
  C  C39  1  0.383900  0.645700  0.605600  1.0  0.6741
  C  C40  1  0.294900  0.772000  0.717400  1.0  0.6751
  C  C41  1  0.663600  0.753000  0.734100  1.0  -0.0107
  C  C42  1  0.703600  0.656900  0.696900  1.0  -0.1311
  C  C43  1  0.792100  0.651200  0.699000  1.0  -0.0744
  C  C44  1  0.842100  0.745500  0.740400  1.0  -0.1264
  C  C45  1  0.803000  0.839700  0.778900  1.0  -0.0557
  C  C46  1  0.716300  0.845300  0.775900  1.0  -0.1291
  C  C47  1  0.826400  0.542300  0.656800  1.0  0.7156
  C  C48  1  0.936500  0.756600  0.736500  1.0  0.6927
  C  C49  1  0.430600  0.257900  0.771400  1.0  0.0098
  C  C50  1  0.480900  0.199600  0.825500  1.0  -0.1147
  C  C51  1  0.569900  0.203400  0.831800  1.0  -0.0535
  C  C52  1  0.609900  0.267200  0.781200  1.0  -0.1458
  C  C53  1  0.560600  0.325500  0.726500  1.0  -0.0696
  C  C54  1  0.473300  0.322900  0.722300  1.0  -0.1234
  C  C55  1  0.616100  0.145700  0.894400  1.0  0.6712
  C  C56  1  0.705100  0.272000  0.782600  1.0  0.6742
  C  C57  1  0.336400  0.253000  0.765900  1.0  -0.0109
  C  C58  1  0.296400  0.156900  0.803100  1.0  -0.1319
  C  C59  1  0.207900  0.151200  0.801000  1.0  -0.0757
  C  C60  1  0.157900  0.245500  0.759600  1.0  -0.1262
  C  C61  1  0.197000  0.339700  0.721100  1.0  -0.0555
  C  C62  1  0.283700  0.345300  0.724100  1.0  -0.127
  C  C63  1  0.173600  0.042300  0.843200  1.0  0.7142
  C  C64  1  0.063500  0.256600  0.763500  1.0  0.6921
  C  C65  1  0.430600  0.242100  0.271400  1.0  0.0097
  C  C66  1  0.480900  0.300400  0.325500  1.0  -0.1151
  C  C67  1  0.569900  0.296600  0.331800  1.0  -0.054
  C  C68  1  0.609900  0.232800  0.281200  1.0  -0.1456
  C  C69  1  0.560600  0.174500  0.226500  1.0  -0.07
  C  C70  1  0.473300  0.177100  0.222300  1.0  -0.1233
  C  C71  1  0.616100  0.354300  0.394400  1.0  0.6721
  C  C72  1  0.705100  0.228000  0.282600  1.0  0.6744
  C  C73  1  0.336400  0.247000  0.265900  1.0  -0.0106
  C  C74  1  0.296400  0.343100  0.303100  1.0  -0.1316
  C  C75  1  0.207900  0.348800  0.301000  1.0  -0.0753
  C  C76  1  0.157900  0.254500  0.259600  1.0  -0.1264
  C  C77  1  0.197000  0.160300  0.221100  1.0  -0.0551
  C  C78  1  0.283700  0.154700  0.224100  1.0  -0.1266
  C  C79  1  0.173600  0.457700  0.343200  1.0  0.7117
  C  C80  1  0.063500  0.243400  0.263500  1.0  0.6923
  C  C81  1  0.569400  0.742100  0.228600  1.0  0.0092
  C  C82  1  0.519100  0.800400  0.174500  1.0  -0.1142
  C  C83  1  0.430100  0.796600  0.168200  1.0  -0.053
  C  C84  1  0.390100  0.732800  0.218800  1.0  -0.1471
  C  C85  1  0.439400  0.674500  0.273500  1.0  -0.0696
  C  C86  1  0.526700  0.677100  0.277700  1.0  -0.1235
  C  C87  1  0.383900  0.854300  0.105600  1.0  0.6741
  C  C88  1  0.294900  0.728000  0.217400  1.0  0.6754
  C  C89  1  0.663600  0.747000  0.234100  1.0  -0.0104
  C  C90  1  0.703600  0.843100  0.196900  1.0  -0.131
  C  C91  1  0.792100  0.848800  0.199000  1.0  -0.0738
  C  C92  1  0.842100  0.754500  0.240400  1.0  -0.1265
  C  C93  1  0.803000  0.660300  0.278900  1.0  -0.0557
  C  C94  1  0.716300  0.654700  0.275900  1.0  -0.1288
  C  C95  1  0.826400  0.957700  0.156800  1.0  0.7146
  C  C96  1  0.936500  0.743400  0.236500  1.0  0.6932
  O  O97  1  0.348400  0.724100  0.561200  1.0  -0.6171
  O  O98  1  0.384100  0.515000  0.595400  1.0  -0.6854
  O  O99  1  0.247400  0.703200  0.674600  1.0  -0.6423
  O  O100  1  0.264200  0.845700  0.760000  1.0  -0.6889
  O  O101  1  0.809200  0.559800  0.593100  1.0  -0.7309
  O  O102  1  0.866000  0.440200  0.680700  1.0  -0.7052
  O  O103  1  0.983700  0.822600  0.780800  1.0  -0.7036
  O  O104  1  0.967100  0.705400  0.687200  1.0  -0.6917
  O  O105  1  0.651600  0.224100  0.938800  1.0  -0.6164
  O  O106  1  0.615900  0.015000  0.904600  1.0  -0.6848
  O  O107  1  0.752600  0.203200  0.825400  1.0  -0.644
  O  O108  1  0.735800  0.345700  0.740000  1.0  -0.6902
  O  O109  1  0.190800  0.059800  0.906900  1.0  -0.7313
  O  O110  1  0.134000  0.940200  0.819300  1.0  -0.7047
  O  O111  1  0.016300  0.322600  0.719200  1.0  -0.7028
  O  O112  1  0.032900  0.205400  0.812800  1.0  -0.6923
  O  O113  1  0.651600  0.275900  0.438800  1.0  -0.6167
  O  O114  1  0.615900  0.485000  0.404600  1.0  -0.683
  O  O115  1  0.752600  0.296800  0.325400  1.0  -0.6447
  O  O116  1  0.735800  0.154300  0.240000  1.0  -0.6891
  O  O117  1  0.190800  0.440200  0.406900  1.0  -0.7314
  O  O118  1  0.134000  0.559800  0.319300  1.0  -0.7048
  O  O119  1  0.016300  0.177400  0.219200  1.0  -0.7043
  O  O120  1  0.032900  0.294600  0.312800  1.0  -0.6928
  O  O121  1  0.348400  0.775900  0.061200  1.0  -0.6161
  O  O122  1  0.384100  0.985000  0.095400  1.0  -0.6862
  O  O123  1  0.247400  0.796800  0.174600  1.0  -0.6423
  O  O124  1  0.264200  0.654300  0.260000  1.0  -0.691
  O  O125  1  0.809200  0.940200  0.093100  1.0  -0.7309
  O  O126  1  0.866000  0.059800  0.180700  1.0  -0.7052
  O  O127  1  0.983700  0.677400  0.280800  1.0  -0.7031
  O  O128  1  0.967100  0.794600  0.187200  1.0  -0.6915
