# generated using pymatgen
data_ZnH14C19N2O5
_symmetry_space_group_name_H-M   'P 1'
_cell_length_a   15.70720000
_cell_length_b   10.71300000
_cell_length_c   24.46180000
_cell_angle_alpha   90.00000000
_cell_angle_beta   94.28000000
_cell_angle_gamma   90.00000000
_symmetry_Int_Tables_number   1
_chemical_formula_structural   ZnH14C19N2O5
_chemical_formula_sum   'Zn8 H112 C152 N16 O40'
_cell_volume   4104.73814178
_cell_formula_units_Z   8
loop_
 _symmetry_equiv_pos_site_id
 _symmetry_equiv_pos_as_xyz
  1  'x, y, z'
loop_
 _atom_site_type_symbol
 _atom_site_label
 _atom_site_symmetry_multiplicity
 _atom_site_fract_x
 _atom_site_fract_y
 _atom_site_fract_z
 _atom_site_occupancy
 _atom_site_charge
  Zn  Zn1  1  0.141650  0.409200  0.068480  1.0  0.9381
  Zn  Zn2  1  0.641650  0.909200  0.068480  1.0  0.9381
  Zn  Zn3  1  0.141650  0.590800  0.568480  1.0  0.9375
  Zn  Zn4  1  0.641650  0.090800  0.568480  1.0  0.9375
  Zn  Zn5  1  0.858350  0.409200  0.431520  1.0  0.9382
  Zn  Zn6  1  0.358350  0.909200  0.431520  1.0  0.9382
  Zn  Zn7  1  0.858350  0.590800  0.931520  1.0  0.938
  Zn  Zn8  1  0.358350  0.090800  0.931520  1.0  0.938
  H  H9  1  0.309630  0.404790  0.420110  1.0  0.1077
  H  H10  1  0.426260  0.147890  0.092920  1.0  0.1035
  H  H11  1  0.411100  0.893300  0.213180  1.0  0.1133
  H  H12  1  0.224090  0.151600  0.186760  1.0  0.1138
  H  H13  1  0.102390  0.124000  0.376270  1.0  0.1199
  H  H14  1  0.071820  0.359130  0.518600  1.0  0.08
  H  H15  1  0.207580  0.923780  0.237150  1.0  0.11
  H  H16  1  0.296290  0.884490  0.269120  1.0  0.107
  H  H17  1  0.362850  0.132450  0.297760  1.0  0.1054
  H  H18  1  0.130570  0.990110  0.305500  1.0  0.1056
  H  H19  1  0.092400  0.220270  0.448090  1.0  0.1194
  H  H20  1  0.340340  0.265220  0.367920  1.0  0.0998
  H  H21  1  0.287130  0.538520  0.491040  1.0  0.0876
  H  H22  1  0.072000  0.187000  0.034000  1.0  0.3736
  H  H23  1  0.809630  0.904790  0.420110  1.0  0.1077
  H  H24  1  0.926260  0.647890  0.092920  1.0  0.1035
  H  H25  1  0.911100  0.393300  0.213180  1.0  0.1133
  H  H26  1  0.724090  0.651600  0.186760  1.0  0.1138
  H  H27  1  0.602390  0.624000  0.376270  1.0  0.1199
  H  H28  1  0.571820  0.859130  0.518600  1.0  0.08
  H  H29  1  0.707580  0.423780  0.237150  1.0  0.11
  H  H30  1  0.796290  0.384490  0.269120  1.0  0.107
  H  H31  1  0.862850  0.632450  0.297760  1.0  0.1054
  H  H32  1  0.630570  0.490110  0.305500  1.0  0.1056
  H  H33  1  0.592400  0.720270  0.448090  1.0  0.1194
  H  H34  1  0.840340  0.765220  0.367920  1.0  0.0998
  H  H35  1  0.787130  0.038520  0.491040  1.0  0.0876
  H  H36  1  0.572000  0.687000  0.034000  1.0  0.3759
  H  H37  1  0.309630  0.595210  0.920110  1.0  0.1073
  H  H38  1  0.426260  0.852110  0.592920  1.0  0.1036
  H  H39  1  0.411100  0.106700  0.713180  1.0  0.1131
  H  H40  1  0.224090  0.848400  0.686760  1.0  0.1139
  H  H41  1  0.102390  0.876000  0.876270  1.0  0.1198
  H  H42  1  0.071820  0.640870  0.018600  1.0  0.0799
  H  H43  1  0.207580  0.076220  0.737150  1.0  0.1098
  H  H44  1  0.296290  0.115510  0.769120  1.0  0.106
  H  H45  1  0.362850  0.867550  0.797760  1.0  0.1049
  H  H46  1  0.130570  0.009890  0.805500  1.0  0.1062
  H  H47  1  0.092400  0.779730  0.948090  1.0  0.1197
  H  H48  1  0.340340  0.734780  0.867920  1.0  0.0999
  H  H49  1  0.287130  0.461480  0.991040  1.0  0.0879
  H  H50  1  0.072000  0.813000  0.534000  1.0  0.3728
  H  H51  1  0.809630  0.095210  0.920110  1.0  0.1073
  H  H52  1  0.926260  0.352110  0.592920  1.0  0.1036
  H  H53  1  0.911100  0.606700  0.713180  1.0  0.1131
  H  H54  1  0.724090  0.348400  0.686760  1.0  0.1139
  H  H55  1  0.602390  0.376000  0.876270  1.0  0.1198
  H  H56  1  0.571820  0.140870  0.018600  1.0  0.0799
  H  H57  1  0.707580  0.576220  0.737150  1.0  0.1098
  H  H58  1  0.796290  0.615510  0.769120  1.0  0.106
  H  H59  1  0.862850  0.367550  0.797760  1.0  0.1049
  H  H60  1  0.630570  0.509890  0.805500  1.0  0.1062
  H  H61  1  0.592400  0.279730  0.948090  1.0  0.1197
  H  H62  1  0.840340  0.234780  0.867920  1.0  0.0999
  H  H63  1  0.787130  0.961480  0.991040  1.0  0.0879
  H  H64  1  0.572000  0.313000  0.534000  1.0  0.3751
  H  H65  1  0.690370  0.404790  0.079890  1.0  0.1072
  H  H66  1  0.573740  0.147890  0.407080  1.0  0.1031
  H  H67  1  0.588900  0.893300  0.286820  1.0  0.1127
  H  H68  1  0.775910  0.151600  0.313240  1.0  0.1136
  H  H69  1  0.897610  0.124000  0.123730  1.0  0.12
  H  H70  1  0.928180  0.359130  0.981400  1.0  0.0795
  H  H71  1  0.792420  0.923780  0.262850  1.0  0.1113
  H  H72  1  0.703710  0.884490  0.230880  1.0  0.1066
  H  H73  1  0.637150  0.132450  0.202240  1.0  0.1057
  H  H74  1  0.869430  0.990110  0.194500  1.0  0.1057
  H  H75  1  0.907600  0.220270  0.051910  1.0  0.1194
  H  H76  1  0.659660  0.265220  0.132080  1.0  0.0995
  H  H77  1  0.712870  0.538520  0.008960  1.0  0.088
  H  H78  1  0.928000  0.187000  0.466000  1.0  0.3732
  H  H79  1  0.190370  0.904790  0.079890  1.0  0.1072
  H  H80  1  0.073740  0.647890  0.407080  1.0  0.1031
  H  H81  1  0.088900  0.393300  0.286820  1.0  0.1127
  H  H82  1  0.275910  0.651600  0.313240  1.0  0.1136
  H  H83  1  0.397610  0.624000  0.123730  1.0  0.12
  H  H84  1  0.428180  0.859130  0.981400  1.0  0.0795
  H  H85  1  0.292420  0.423780  0.262850  1.0  0.1113
  H  H86  1  0.203710  0.384490  0.230880  1.0  0.1066
  H  H87  1  0.137150  0.632450  0.202240  1.0  0.1057
  H  H88  1  0.369430  0.490110  0.194500  1.0  0.1057
  H  H89  1  0.407600  0.720270  0.051910  1.0  0.1194
  H  H90  1  0.159660  0.765220  0.132080  1.0  0.0995
  H  H91  1  0.212870  0.038520  0.008960  1.0  0.088
  H  H92  1  0.428000  0.687000  0.466000  1.0  0.3755
  H  H93  1  0.690370  0.595210  0.579890  1.0  0.1074
  H  H94  1  0.573740  0.852110  0.907080  1.0  0.1036
  H  H95  1  0.588900  0.106700  0.786820  1.0  0.1137
  H  H96  1  0.775910  0.848400  0.813240  1.0  0.1138
  H  H97  1  0.897610  0.876000  0.623730  1.0  0.1206
  H  H98  1  0.928180  0.640870  0.481400  1.0  0.0796
  H  H99  1  0.792420  0.076220  0.762850  1.0  0.111
  H  H100  1  0.703710  0.115510  0.730880  1.0  0.1067
  H  H101  1  0.637150  0.867550  0.702240  1.0  0.1058
  H  H102  1  0.869430  0.009890  0.694500  1.0  0.1053
  H  H103  1  0.907600  0.779730  0.551910  1.0  0.1195
  H  H104  1  0.659660  0.734780  0.632080  1.0  0.0994
  H  H105  1  0.712870  0.461480  0.508960  1.0  0.0878
  H  H106  1  0.928000  0.813000  0.966000  1.0  0.3723
  H  H107  1  0.190370  0.095210  0.579890  1.0  0.1074
  H  H108  1  0.073740  0.352110  0.907080  1.0  0.1036
  H  H109  1  0.088900  0.606700  0.786820  1.0  0.1137
  H  H110  1  0.275910  0.348400  0.813240  1.0  0.1138
  H  H111  1  0.397610  0.376000  0.623730  1.0  0.1206
  H  H112  1  0.428180  0.140870  0.481400  1.0  0.0796
  H  H113  1  0.292420  0.576220  0.762850  1.0  0.111
  H  H114  1  0.203710  0.615510  0.730880  1.0  0.1067
  H  H115  1  0.137150  0.367550  0.702240  1.0  0.1058
  H  H116  1  0.369430  0.509890  0.694500  1.0  0.1053
  H  H117  1  0.407600  0.279730  0.551910  1.0  0.1195
  H  H118  1  0.159660  0.234780  0.632080  1.0  0.0994
  H  H119  1  0.212870  0.961480  0.508960  1.0  0.0878
  H  H120  1  0.428000  0.313000  0.966000  1.0  0.3744
  C  C121  1  0.312200  0.014500  0.206900  1.0  0.0724
  C  C122  1  0.260200  0.395000  0.439800  1.0  -0.137
  C  C123  1  0.396900  0.113500  0.122000  1.0  -0.0462
  C  C124  1  0.320100  0.166300  0.135400  1.0  -0.1409
  C  C125  1  0.219200  0.212700  0.381400  1.0  0.0479
  C  C126  1  0.388000  0.963000  0.193100  1.0  -0.128
  C  C127  1  0.276900  0.116800  0.177700  1.0  -0.124
  C  C128  1  0.156200  0.126900  0.361000  1.0  -0.1955
  C  C129  1  0.120200  0.369000  0.497900  1.0  0.1671
  C  C130  1  0.202700  0.299300  0.425400  1.0  0.0278
  C  C131  1  0.263300  0.955800  0.252800  1.0  -0.1274
  C  C132  1  0.310000  0.130500  0.314200  1.0  0.0132
  C  C133  1  0.512400  0.951300  0.135000  1.0  0.6633
  C  C134  1  0.280600  0.271700  0.102100  1.0  0.6441
  C  C135  1  0.430800  0.011000  0.150700  1.0  -0.1513
  C  C136  1  0.173200  0.047500  0.319000  1.0  0.023
  C  C137  1  0.132100  0.285900  0.456000  1.0  -0.1809
  C  C138  1  0.296000  0.209300  0.355600  1.0  -0.1223
  C  C139  1  0.246500  0.474800  0.481800  1.0  0.1454
  C  C140  1  0.812200  0.514500  0.206900  1.0  0.0724
  C  C141  1  0.760200  0.895000  0.439800  1.0  -0.137
  C  C142  1  0.896900  0.613500  0.122000  1.0  -0.0462
  C  C143  1  0.820100  0.666300  0.135400  1.0  -0.1409
  C  C144  1  0.719200  0.712700  0.381400  1.0  0.0479
  C  C145  1  0.888000  0.463000  0.193100  1.0  -0.128
  C  C146  1  0.776900  0.616800  0.177700  1.0  -0.124
  C  C147  1  0.656200  0.626900  0.361000  1.0  -0.1955
  C  C148  1  0.620200  0.869000  0.497900  1.0  0.1671
  C  C149  1  0.702700  0.799300  0.425400  1.0  0.0278
  C  C150  1  0.763300  0.455800  0.252800  1.0  -0.1274
  C  C151  1  0.810000  0.630500  0.314200  1.0  0.0132
  C  C152  1  0.012400  0.451300  0.135000  1.0  0.6633
  C  C153  1  0.780600  0.771700  0.102100  1.0  0.6441
  C  C154  1  0.930800  0.511000  0.150700  1.0  -0.1513
  C  C155  1  0.673200  0.547500  0.319000  1.0  0.023
  C  C156  1  0.632100  0.785900  0.456000  1.0  -0.1809
  C  C157  1  0.796000  0.709300  0.355600  1.0  -0.1223
  C  C158  1  0.746500  0.974800  0.481800  1.0  0.1454
  C  C159  1  0.312200  0.985500  0.706900  1.0  0.0724
  C  C160  1  0.260200  0.605000  0.939800  1.0  -0.1369
  C  C161  1  0.396900  0.886500  0.622000  1.0  -0.0452
  C  C162  1  0.320100  0.833700  0.635400  1.0  -0.1419
  C  C163  1  0.219200  0.787300  0.881400  1.0  0.0479
  C  C164  1  0.388000  0.037000  0.693100  1.0  -0.1285
  C  C165  1  0.276900  0.883200  0.677700  1.0  -0.1232
  C  C166  1  0.156200  0.873100  0.861000  1.0  -0.1953
  C  C167  1  0.120200  0.631000  0.997900  1.0  0.1672
  C  C168  1  0.202700  0.700700  0.925400  1.0  0.0278
  C  C169  1  0.263300  0.044200  0.752800  1.0  -0.126
  C  C170  1  0.310000  0.869500  0.814200  1.0  0.0135
  C  C171  1  0.512400  0.048700  0.635000  1.0  0.6631
  C  C172  1  0.280600  0.728300  0.602100  1.0  0.6445
  C  C173  1  0.430800  0.989000  0.650700  1.0  -0.1512
  C  C174  1  0.173200  0.952500  0.819000  1.0  0.0223
  C  C175  1  0.132100  0.714100  0.956000  1.0  -0.1814
  C  C176  1  0.296000  0.790700  0.855600  1.0  -0.122
  C  C177  1  0.246500  0.525200  0.981800  1.0  0.1457
  C  C178  1  0.812200  0.485500  0.706900  1.0  0.0724
  C  C179  1  0.760200  0.105000  0.939800  1.0  -0.1369
  C  C180  1  0.896900  0.386500  0.622000  1.0  -0.0452
  C  C181  1  0.820100  0.333700  0.635400  1.0  -0.1419
  C  C182  1  0.719200  0.287300  0.881400  1.0  0.0479
  C  C183  1  0.888000  0.537000  0.693100  1.0  -0.1285
  C  C184  1  0.776900  0.383200  0.677700  1.0  -0.1232
  C  C185  1  0.656200  0.373100  0.861000  1.0  -0.1953
  C  C186  1  0.620200  0.131000  0.997900  1.0  0.1672
  C  C187  1  0.702700  0.200700  0.925400  1.0  0.0278
  C  C188  1  0.763300  0.544200  0.752800  1.0  -0.126
  C  C189  1  0.810000  0.369500  0.814200  1.0  0.0135
  C  C190  1  0.012400  0.548700  0.635000  1.0  0.6631
  C  C191  1  0.780600  0.228300  0.602100  1.0  0.6445
  C  C192  1  0.930800  0.489000  0.650700  1.0  -0.1512
  C  C193  1  0.673200  0.452500  0.819000  1.0  0.0223
  C  C194  1  0.632100  0.214100  0.956000  1.0  -0.1814
  C  C195  1  0.796000  0.290700  0.855600  1.0  -0.122
  C  C196  1  0.746500  0.025200  0.981800  1.0  0.1457
  C  C197  1  0.687800  0.014500  0.293100  1.0  0.0723
  C  C198  1  0.739800  0.395000  0.060200  1.0  -0.1368
  C  C199  1  0.603100  0.113500  0.378000  1.0  -0.0452
  C  C200  1  0.679900  0.166300  0.364600  1.0  -0.1413
  C  C201  1  0.780800  0.212700  0.118600  1.0  0.0474
  C  C202  1  0.612000  0.963000  0.306900  1.0  -0.1275
  C  C203  1  0.723100  0.116800  0.322300  1.0  -0.1237
  C  C204  1  0.843800  0.126900  0.139000  1.0  -0.1953
  C  C205  1  0.879800  0.369000  0.002100  1.0  0.1659
  C  C206  1  0.797300  0.299300  0.074600  1.0  0.0279
  C  C207  1  0.736700  0.955800  0.247200  1.0  -0.1262
  C  C208  1  0.690000  0.130500  0.185800  1.0  0.0136
  C  C209  1  0.487600  0.951300  0.365000  1.0  0.6634
  C  C210  1  0.719400  0.271700  0.397900  1.0  0.6442
  C  C211  1  0.569200  0.011000  0.349300  1.0  -0.1518
  C  C212  1  0.826800  0.047500  0.181000  1.0  0.0226
  C  C213  1  0.867900  0.285900  0.044000  1.0  -0.1822
  C  C214  1  0.704000  0.209300  0.144400  1.0  -0.1197
  C  C215  1  0.753500  0.474800  0.018200  1.0  0.1451
  C  C216  1  0.187800  0.514500  0.293100  1.0  0.0723
  C  C217  1  0.239800  0.895000  0.060200  1.0  -0.1368
  C  C218  1  0.103100  0.613500  0.378000  1.0  -0.0452
  C  C219  1  0.179900  0.666300  0.364600  1.0  -0.1413
  C  C220  1  0.280800  0.712700  0.118600  1.0  0.0474
  C  C221  1  0.112000  0.463000  0.306900  1.0  -0.1275
  C  C222  1  0.223100  0.616800  0.322300  1.0  -0.1237
  C  C223  1  0.343800  0.626900  0.139000  1.0  -0.1953
  C  C224  1  0.379800  0.869000  0.002100  1.0  0.1659
  C  C225  1  0.297300  0.799300  0.074600  1.0  0.0279
  C  C226  1  0.236700  0.455800  0.247200  1.0  -0.1262
  C  C227  1  0.190000  0.630500  0.185800  1.0  0.0136
  C  C228  1  0.987600  0.451300  0.365000  1.0  0.6634
  C  C229  1  0.219400  0.771700  0.397900  1.0  0.6442
  C  C230  1  0.069200  0.511000  0.349300  1.0  -0.1518
  C  C231  1  0.326800  0.547500  0.181000  1.0  0.0226
  C  C232  1  0.367900  0.785900  0.044000  1.0  -0.1822
  C  C233  1  0.204000  0.709300  0.144400  1.0  -0.1197
  C  C234  1  0.253500  0.974800  0.018200  1.0  0.1451
  C  C235  1  0.687800  0.985500  0.793100  1.0  0.0724
  C  C236  1  0.739800  0.605000  0.560200  1.0  -0.1366
  C  C237  1  0.603100  0.886500  0.878000  1.0  -0.0441
  C  C238  1  0.679900  0.833700  0.864600  1.0  -0.1423
  C  C239  1  0.780800  0.787300  0.618600  1.0  0.0476
  C  C240  1  0.612000  0.037000  0.806900  1.0  -0.1278
  C  C241  1  0.723100  0.883200  0.822300  1.0  -0.1234
  C  C242  1  0.843800  0.873100  0.639000  1.0  -0.195
  C  C243  1  0.879800  0.631000  0.502100  1.0  0.1659
  C  C244  1  0.797300  0.700700  0.574600  1.0  0.028
  C  C245  1  0.736700  0.044200  0.747200  1.0  -0.1254
  C  C246  1  0.690000  0.869500  0.685800  1.0  0.0138
  C  C247  1  0.487600  0.048700  0.865000  1.0  0.6625
  C  C248  1  0.719400  0.728300  0.897900  1.0  0.645
  C  C249  1  0.569200  0.989000  0.849300  1.0  -0.1528
  C  C250  1  0.826800  0.952500  0.681000  1.0  0.0221
  C  C251  1  0.867900  0.714100  0.544000  1.0  -0.182
  C  C252  1  0.704000  0.790700  0.644400  1.0  -0.1196
  C  C253  1  0.753500  0.525200  0.518200  1.0  0.1453
  C  C254  1  0.187800  0.485500  0.793100  1.0  0.0724
  C  C255  1  0.239800  0.105000  0.560200  1.0  -0.1366
  C  C256  1  0.103100  0.386500  0.878000  1.0  -0.0441
  C  C257  1  0.179900  0.333700  0.864600  1.0  -0.1423
  C  C258  1  0.280800  0.287300  0.618600  1.0  0.0476
  C  C259  1  0.112000  0.537000  0.806900  1.0  -0.1278
  C  C260  1  0.223100  0.383200  0.822300  1.0  -0.1234
  C  C261  1  0.343800  0.373100  0.639000  1.0  -0.195
  C  C262  1  0.379800  0.131000  0.502100  1.0  0.1659
  C  C263  1  0.297300  0.200700  0.574600  1.0  0.028
  C  C264  1  0.236700  0.544200  0.747200  1.0  -0.1254
  C  C265  1  0.190000  0.369500  0.685800  1.0  0.0138
  C  C266  1  0.987600  0.548700  0.865000  1.0  0.6625
  C  C267  1  0.219400  0.228300  0.897900  1.0  0.645
  C  C268  1  0.069200  0.489000  0.849300  1.0  -0.1528
  C  C269  1  0.326800  0.452500  0.681000  1.0  0.0221
  C  C270  1  0.367900  0.214100  0.544000  1.0  -0.182
  C  C271  1  0.204000  0.290700  0.644400  1.0  -0.1196
  C  C272  1  0.253500  0.025200  0.518200  1.0  0.1453
  N  N273  1  0.175700  0.465200  0.510800  1.0  -0.3839
  N  N274  1  0.248900  0.049300  0.296400  1.0  0.1169
  N  N275  1  0.675700  0.965200  0.510800  1.0  -0.3839
  N  N276  1  0.748900  0.549300  0.296400  1.0  0.1169
  N  N277  1  0.175700  0.534800  0.010800  1.0  -0.3834
  N  N278  1  0.248900  0.950700  0.796400  1.0  0.1169
  N  N279  1  0.675700  0.034800  0.010800  1.0  -0.3834
  N  N280  1  0.748900  0.450700  0.796400  1.0  0.1169
  N  N281  1  0.824300  0.465200  0.989200  1.0  -0.3843
  N  N282  1  0.751100  0.049300  0.203600  1.0  0.1182
  N  N283  1  0.324300  0.965200  0.989200  1.0  -0.3843
  N  N284  1  0.251100  0.549300  0.203600  1.0  0.1182
  N  N285  1  0.824300  0.534800  0.489200  1.0  -0.3842
  N  N286  1  0.751100  0.950700  0.703600  1.0  0.1181
  N  N287  1  0.324300  0.034800  0.489200  1.0  -0.3842
  N  N288  1  0.251100  0.450700  0.703600  1.0  0.1181
  O  O289  1  0.548700  0.000800  0.096600  1.0  -0.6018
  O  O290  1  0.220200  0.328400  0.121900  1.0  -0.6094
  O  O291  1  0.307800  0.298700  0.058000  1.0  -0.5635
  O  O292  1  0.536600  0.858000  0.157700  1.0  -0.5191
  O  O293  1  0.091400  0.275800  0.018200  1.0  -0.5763
  O  O294  1  0.048700  0.500800  0.096600  1.0  -0.6018
  O  O295  1  0.720200  0.828400  0.121900  1.0  -0.6094
  O  O296  1  0.807800  0.798700  0.058000  1.0  -0.5635
  O  O297  1  0.036600  0.358000  0.157700  1.0  -0.5191
  O  O298  1  0.591400  0.775800  0.018200  1.0  -0.5763
  O  O299  1  0.548700  0.999200  0.596600  1.0  -0.602
  O  O300  1  0.220200  0.671600  0.621900  1.0  -0.6097
  O  O301  1  0.307800  0.701300  0.558000  1.0  -0.5641
  O  O302  1  0.536600  0.142000  0.657700  1.0  -0.5186
  O  O303  1  0.091400  0.724200  0.518200  1.0  -0.5763
  O  O304  1  0.048700  0.499200  0.596600  1.0  -0.602
  O  O305  1  0.720200  0.171600  0.621900  1.0  -0.6097
  O  O306  1  0.807800  0.201300  0.558000  1.0  -0.5641
  O  O307  1  0.036600  0.642000  0.657700  1.0  -0.5186
  O  O308  1  0.591400  0.224200  0.518200  1.0  -0.5763
  O  O309  1  0.451300  0.000800  0.403400  1.0  -0.6013
  O  O310  1  0.779800  0.328400  0.378100  1.0  -0.6099
  O  O311  1  0.692200  0.298700  0.442000  1.0  -0.5646
  O  O312  1  0.463400  0.858000  0.342300  1.0  -0.5205
  O  O313  1  0.908600  0.275800  0.481800  1.0  -0.5759
  O  O314  1  0.951300  0.500800  0.403400  1.0  -0.6013
  O  O315  1  0.279800  0.828400  0.378100  1.0  -0.6099
  O  O316  1  0.192200  0.798700  0.442000  1.0  -0.5646
  O  O317  1  0.963400  0.358000  0.342300  1.0  -0.5205
  O  O318  1  0.408600  0.775800  0.481800  1.0  -0.5759
  O  O319  1  0.451300  0.999200  0.903400  1.0  -0.6009
  O  O320  1  0.779800  0.671600  0.878100  1.0  -0.6102
  O  O321  1  0.692200  0.701300  0.942000  1.0  -0.5645
  O  O322  1  0.463400  0.142000  0.842300  1.0  -0.5191
  O  O323  1  0.908600  0.724200  0.981800  1.0  -0.5765
  O  O324  1  0.951300  0.499200  0.903400  1.0  -0.6009
  O  O325  1  0.279800  0.171600  0.878100  1.0  -0.6102
  O  O326  1  0.192200  0.201300  0.942000  1.0  -0.5645
  O  O327  1  0.963400  0.642000  0.842300  1.0  -0.5191
  O  O328  1  0.408600  0.224200  0.981800  1.0  -0.5765
