# generated using pymatgen
data_LaH15C24NO8
_symmetry_space_group_name_H-M   'P 1'
_cell_length_a   15.86100000
_cell_length_b   10.59900000
_cell_length_c   21.23500000
_cell_angle_alpha   90.00000000
_cell_angle_beta   106.91400000
_cell_angle_gamma   90.00000000
_symmetry_Int_Tables_number   1
_chemical_formula_structural   LaH15C24NO8
_chemical_formula_sum   'La4 H60 C96 N4 O32'
_cell_volume   3415.40963877
_cell_formula_units_Z   4
loop_
 _symmetry_equiv_pos_site_id
 _symmetry_equiv_pos_as_xyz
  1  'x, y, z'
loop_
 _atom_site_type_symbol
 _atom_site_label
 _atom_site_symmetry_multiplicity
 _atom_site_fract_x
 _atom_site_fract_y
 _atom_site_fract_z
 _atom_site_occupancy
 _atom_site_charge
  La  La1  1  0.899250  0.418340  0.047560  1.0  2.1462
  La  La2  1  0.100750  0.418340  0.452440  1.0  2.1465
  La  La3  1  0.100750  0.581660  0.952440  1.0  2.1476
  La  La4  1  0.899250  0.581660  0.547560  1.0  2.1472
  H  H5  1  0.371100  0.184100  0.521200  1.0  0.1112
  H  H6  1  0.497400  0.064400  0.563400  1.0  0.127
  H  H7  1  0.576900  0.305200  0.713100  1.0  0.1002
  H  H8  1  0.449800  0.423300  0.671500  1.0  0.1202
  H  H9  1  0.620100  0.012100  0.665100  1.0  0.1158
  H  H10  1  0.672000  0.114500  0.638500  1.0  0.1063
  H  H11  1  0.598700  0.044100  0.768000  1.0  0.1119
  H  H12  1  0.659000  0.138000  0.818100  1.0  0.0985
  H  H13  1  0.632800  0.914200  0.873700  1.0  0.1154
  H  H14  1  0.716600  0.751600  0.931100  1.0  0.1117
  H  H15  1  0.897000  0.816000  0.836900  1.0  0.1176
  H  H16  1  0.812000  0.976500  0.779200  1.0  0.111
  H  H17  1  0.790500  0.205900  0.845700  1.0  0.1108
  H  H18  1  0.732700  0.282700  0.653200  1.0  0.1136
  H  H19  1  0.928600  0.469900  0.782700  1.0  0.1188
  H  H20  1  0.628900  0.184100  0.978800  1.0  0.112
  H  H21  1  0.502600  0.064400  0.936600  1.0  0.1268
  H  H22  1  0.423100  0.305200  0.786900  1.0  0.1008
  H  H23  1  0.550200  0.423300  0.828500  1.0  0.121
  H  H24  1  0.379900  0.012100  0.834900  1.0  0.117
  H  H25  1  0.328000  0.114500  0.861500  1.0  0.1069
  H  H26  1  0.401300  0.044100  0.732000  1.0  0.11
  H  H27  1  0.341000  0.138000  0.681900  1.0  0.0972
  H  H28  1  0.367200  0.914200  0.626300  1.0  0.1149
  H  H29  1  0.283400  0.751600  0.568900  1.0  0.1114
  H  H30  1  0.103000  0.816000  0.663100  1.0  0.1176
  H  H31  1  0.188000  0.976500  0.720800  1.0  0.1102
  H  H32  1  0.209500  0.205900  0.654300  1.0  0.1112
  H  H33  1  0.267300  0.282700  0.846800  1.0  0.1136
  H  H34  1  0.071400  0.469900  0.717300  1.0  0.1185
  H  H35  1  0.628900  0.815900  0.478800  1.0  0.1118
  H  H36  1  0.502600  0.935600  0.436600  1.0  0.1265
  H  H37  1  0.423100  0.694800  0.286900  1.0  0.1003
  H  H38  1  0.550200  0.576700  0.328500  1.0  0.1205
  H  H39  1  0.379900  0.987900  0.334900  1.0  0.1203
  H  H40  1  0.328000  0.885500  0.361500  1.0  0.1067
  H  H41  1  0.401300  0.955900  0.232000  1.0  0.1102
  H  H42  1  0.341000  0.862000  0.181900  1.0  0.0972
  H  H43  1  0.367200  0.085800  0.126300  1.0  0.115
  H  H44  1  0.283400  0.248400  0.068900  1.0  0.1116
  H  H45  1  0.103000  0.184000  0.163100  1.0  0.1175
  H  H46  1  0.188000  0.023500  0.220800  1.0  0.1102
  H  H47  1  0.209500  0.794100  0.154300  1.0  0.111
  H  H48  1  0.267300  0.717300  0.346800  1.0  0.1145
  H  H49  1  0.071400  0.530100  0.217300  1.0  0.1179
  H  H50  1  0.371100  0.815900  0.021200  1.0  0.1114
  H  H51  1  0.497400  0.935600  0.063400  1.0  0.1273
  H  H52  1  0.576900  0.694800  0.213100  1.0  0.1002
  H  H53  1  0.449800  0.576700  0.171500  1.0  0.1201
  H  H54  1  0.620100  0.987900  0.165100  1.0  0.1201
  H  H55  1  0.672000  0.885500  0.138500  1.0  0.1058
  H  H56  1  0.598700  0.955900  0.268000  1.0  0.1124
  H  H57  1  0.659000  0.862000  0.318100  1.0  0.0986
  H  H58  1  0.632800  0.085800  0.373700  1.0  0.1154
  H  H59  1  0.716600  0.248400  0.431100  1.0  0.1117
  H  H60  1  0.897000  0.184000  0.336900  1.0  0.1176
  H  H61  1  0.812000  0.023500  0.279200  1.0  0.111
  H  H62  1  0.790500  0.794100  0.345700  1.0  0.1108
  H  H63  1  0.732700  0.717300  0.153200  1.0  0.1136
  H  H64  1  0.928600  0.530100  0.282700  1.0  0.1184
  C  C65  1  0.316800  0.391600  0.563700  1.0  0.7113
  C  C66  1  0.398900  0.316300  0.591800  1.0  -0.1273
  C  C67  1  0.412800  0.209100  0.559800  1.0  -0.0232
  C  C68  1  0.488700  0.137800  0.584700  1.0  -0.1148
  C  C69  1  0.551700  0.177100  0.642000  1.0  0.0643
  C  C70  1  0.536000  0.280900  0.673900  1.0  -0.1117
  C  C71  1  0.459500  0.352000  0.649100  1.0  -0.0127
  C  C72  1  0.635600  0.100800  0.667500  1.0  -0.0985
  C  C73  1  0.659000  0.073000  0.786000  1.0  -0.0908
  C  C74  1  0.714100  0.963900  0.820900  1.0  0.0821
  C  C75  1  0.686400  0.894900  0.866400  1.0  -0.1102
  C  C76  1  0.736900  0.798000  0.901200  1.0  -0.0534
  C  C77  1  0.817900  0.769300  0.892000  1.0  -0.1116
  C  C78  1  0.875700  0.669700  0.931900  1.0  0.747
  C  C79  1  0.844100  0.836200  0.845100  1.0  -0.0619
  C  C80  1  0.792900  0.932200  0.810400  1.0  -0.1055
  C  C81  1  0.919600  0.363700  0.895200  1.0  0.7668
  C  C82  1  0.868200  0.340700  0.824500  1.0  -0.1381
  C  C83  1  0.801600  0.250200  0.811100  1.0  -0.152
  C  C84  1  0.751400  0.225100  0.746900  1.0  0.1501
  C  C85  1  0.766700  0.296300  0.696400  1.0  -0.1321
  C  C86  1  0.832600  0.387800  0.709900  1.0  -0.1401
  C  C87  1  0.884100  0.409700  0.774000  1.0  0.004
  C  C88  1  0.845200  0.464300  0.654000  1.0  0.6913
  C  C89  1  0.683200  0.391600  0.936300  1.0  0.7096
  C  C90  1  0.601100  0.316300  0.908200  1.0  -0.1279
  C  C91  1  0.587200  0.209100  0.940200  1.0  -0.027
  C  C92  1  0.511300  0.137800  0.915300  1.0  -0.1154
  C  C93  1  0.448300  0.177100  0.858000  1.0  0.0662
  C  C94  1  0.464000  0.280900  0.826100  1.0  -0.1116
  C  C95  1  0.540500  0.352000  0.850900  1.0  -0.0121
  C  C96  1  0.364400  0.100800  0.832500  1.0  -0.1005
  C  C97  1  0.341000  0.073000  0.714000  1.0  -0.0918
  C  C98  1  0.285900  0.963900  0.679100  1.0  0.0825
  C  C99  1  0.313600  0.894900  0.633600  1.0  -0.1087
  C  C100  1  0.263100  0.798000  0.598800  1.0  -0.0543
  C  C101  1  0.182100  0.769300  0.608000  1.0  -0.1118
  C  C102  1  0.124300  0.669700  0.568100  1.0  0.7477
  C  C103  1  0.155900  0.836200  0.654900  1.0  -0.0626
  C  C104  1  0.207100  0.932200  0.689600  1.0  -0.1034
  C  C105  1  0.080400  0.363700  0.604800  1.0  0.766
  C  C106  1  0.131800  0.340700  0.675500  1.0  -0.1376
  C  C107  1  0.198400  0.250200  0.688900  1.0  -0.153
  C  C108  1  0.248600  0.225100  0.753100  1.0  0.1493
  C  C109  1  0.233300  0.296300  0.803600  1.0  -0.131
  C  C110  1  0.167400  0.387800  0.790100  1.0  -0.141
  C  C111  1  0.115900  0.409700  0.726000  1.0  0.0038
  C  C112  1  0.154800  0.464300  0.846000  1.0  0.6904
  C  C113  1  0.683200  0.608400  0.436300  1.0  0.7097
  C  C114  1  0.601100  0.683700  0.408200  1.0  -0.1259
  C  C115  1  0.587200  0.790900  0.440200  1.0  -0.0267
  C  C116  1  0.511300  0.862200  0.415300  1.0  -0.116
  C  C117  1  0.448300  0.822900  0.358000  1.0  0.0663
  C  C118  1  0.464000  0.719100  0.326100  1.0  -0.1106
  C  C119  1  0.540500  0.648000  0.350900  1.0  -0.0137
  C  C120  1  0.364400  0.899200  0.332500  1.0  -0.1008
  C  C121  1  0.341000  0.927000  0.214000  1.0  -0.0901
  C  C122  1  0.285900  0.036100  0.179100  1.0  0.0821
  C  C123  1  0.313600  0.105100  0.133600  1.0  -0.1093
  C  C124  1  0.263100  0.202000  0.098800  1.0  -0.0546
  C  C125  1  0.182100  0.230700  0.108000  1.0  -0.1116
  C  C126  1  0.124300  0.330300  0.068100  1.0  0.7486
  C  C127  1  0.155900  0.163800  0.154900  1.0  -0.063
  C  C128  1  0.207100  0.067800  0.189600  1.0  -0.1051
  C  C129  1  0.080400  0.636300  0.104800  1.0  0.7665
  C  C130  1  0.131800  0.659300  0.175500  1.0  -0.1376
  C  C131  1  0.198400  0.749800  0.188900  1.0  -0.1527
  C  C132  1  0.248600  0.774900  0.253100  1.0  0.1499
  C  C133  1  0.233300  0.703700  0.303600  1.0  -0.1304
  C  C134  1  0.167400  0.612200  0.290100  1.0  -0.1412
  C  C135  1  0.115900  0.590300  0.226000  1.0  0.0045
  C  C136  1  0.154800  0.535700  0.346000  1.0  0.6914
  C  C137  1  0.316800  0.608400  0.063700  1.0  0.7102
  C  C138  1  0.398900  0.683700  0.091800  1.0  -0.1299
  C  C139  1  0.412800  0.790900  0.059800  1.0  -0.0236
  C  C140  1  0.488700  0.862200  0.084700  1.0  -0.114
  C  C141  1  0.551700  0.822900  0.142000  1.0  0.0641
  C  C142  1  0.536000  0.719100  0.173900  1.0  -0.1131
  C  C143  1  0.459500  0.648000  0.149100  1.0  -0.0156
  C  C144  1  0.635600  0.899200  0.167500  1.0  -0.0974
  C  C145  1  0.659000  0.927000  0.286000  1.0  -0.0903
  C  C146  1  0.714100  0.036100  0.320900  1.0  0.0822
  C  C147  1  0.686400  0.105100  0.366400  1.0  -0.1112
  C  C148  1  0.736900  0.202000  0.401200  1.0  -0.0542
  C  C149  1  0.817900  0.230700  0.392000  1.0  -0.1121
  C  C150  1  0.875700  0.330300  0.431900  1.0  0.7479
  C  C151  1  0.844100  0.163800  0.345100  1.0  -0.0617
  C  C152  1  0.792900  0.067800  0.310400  1.0  -0.1066
  C  C153  1  0.919600  0.636300  0.395200  1.0  0.7662
  C  C154  1  0.868200  0.659300  0.324500  1.0  -0.1379
  C  C155  1  0.801600  0.749800  0.311100  1.0  -0.152
  C  C156  1  0.751400  0.774900  0.246900  1.0  0.1514
  C  C157  1  0.766700  0.703700  0.196400  1.0  -0.1327
  C  C158  1  0.832600  0.612200  0.209900  1.0  -0.1412
  C  C159  1  0.884100  0.590300  0.274000  1.0  0.0047
  C  C160  1  0.845200  0.535700  0.154000  1.0  0.6914
  N  N161  1  0.687100  0.128700  0.733400  1.0  -0.1147
  N  N162  1  0.312900  0.128700  0.766600  1.0  -0.1155
  N  N163  1  0.312900  0.871300  0.266600  1.0  -0.1156
  N  N164  1  0.687100  0.871300  0.233400  1.0  -0.1147
  O  O165  1  0.308000  0.488800  0.599100  1.0  -0.511
  O  O166  1  0.264100  0.366200  0.510700  1.0  -0.6881
  O  O167  1  0.992100  0.422300  0.906700  1.0  -0.7171
  O  O168  1  0.888900  0.323800  0.939100  1.0  -0.7068
  O  O169  1  0.955200  0.674200  0.936200  1.0  -0.7618
  O  O170  1  0.842200  0.587400  0.960700  1.0  -0.6863
  O  O171  1  0.891700  0.562900  0.665900  1.0  -0.6469
  O  O172  1  0.808800  0.428600  0.596000  1.0  -0.6321
  O  O173  1  0.692000  0.488800  0.900900  1.0  -0.512
  O  O174  1  0.735900  0.366200  0.989300  1.0  -0.6903
  O  O175  1  0.007900  0.422300  0.593300  1.0  -0.7184
  O  O176  1  0.111100  0.323800  0.560900  1.0  -0.7091
  O  O177  1  0.044800  0.674200  0.563800  1.0  -0.7612
  O  O178  1  0.157800  0.587400  0.539300  1.0  -0.6856
  O  O179  1  0.108300  0.562900  0.834100  1.0  -0.646
  O  O180  1  0.191200  0.428600  0.904000  1.0  -0.6334
  O  O181  1  0.692000  0.511200  0.400900  1.0  -0.5105
  O  O182  1  0.735900  0.633800  0.489300  1.0  -0.6899
  O  O183  1  0.007900  0.577700  0.093300  1.0  -0.719
  O  O184  1  0.111100  0.676200  0.060900  1.0  -0.7082
  O  O185  1  0.044800  0.325800  0.063800  1.0  -0.7601
  O  O186  1  0.157800  0.412600  0.039300  1.0  -0.6859
  O  O187  1  0.108300  0.437100  0.334100  1.0  -0.6456
  O  O188  1  0.191200  0.571400  0.404000  1.0  -0.6331
  O  O189  1  0.308000  0.511200  0.099100  1.0  -0.5098
  O  O190  1  0.264100  0.633800  0.010700  1.0  -0.6878
  O  O191  1  0.992100  0.577700  0.406700  1.0  -0.718
  O  O192  1  0.888900  0.676200  0.439100  1.0  -0.7074
  O  O193  1  0.955200  0.325800  0.436200  1.0  -0.7612
  O  O194  1  0.842200  0.412600  0.460700  1.0  -0.6853
  O  O195  1  0.891700  0.437100  0.165900  1.0  -0.6449
  O  O196  1  0.808800  0.571400  0.096000  1.0  -0.6317
