# generated using pymatgen
data_NdH15C24NO8
_symmetry_space_group_name_H-M   'P 1'
_cell_length_a   15.83800000
_cell_length_b   10.54800000
_cell_length_c   21.07400000
_cell_angle_alpha   90.00000000
_cell_angle_beta   107.24700000
_cell_angle_gamma   90.00000000
_symmetry_Int_Tables_number   1
_chemical_formula_structural   NdH15C24NO8
_chemical_formula_sum   'Nd4 H60 C96 N4 O32'
_cell_volume   3362.30368868
_cell_formula_units_Z   4
loop_
 _symmetry_equiv_pos_site_id
 _symmetry_equiv_pos_as_xyz
  1  'x, y, z'
loop_
 _atom_site_type_symbol
 _atom_site_label
 _atom_site_symmetry_multiplicity
 _atom_site_fract_x
 _atom_site_fract_y
 _atom_site_fract_z
 _atom_site_occupancy
 _atom_site_charge
  Nd  Nd1  1  0.399200  0.080380  0.546670  1.0  2.2829
  Nd  Nd2  1  0.600810  0.080380  0.953330  1.0  2.283
  Nd  Nd3  1  0.600810  0.919620  0.453330  1.0  2.2837
  Nd  Nd4  1  0.399200  0.919620  0.046670  1.0  2.2834
  H  H5  1  0.706400  0.704400  0.656000  1.0  0.1061
  H  H6  1  0.569300  0.973000  0.717700  1.0  0.1194
  H  H7  1  0.880900  0.511100  0.835300  1.0  0.1174
  H  H8  1  0.829100  0.611400  0.864000  1.0  0.1102
  H  H9  1  0.688500  0.475600  0.723300  1.0  0.113
  H  H10  1  0.922500  0.809700  0.788100  1.0  0.1004
  H  H11  1  0.765800  0.783900  0.848800  1.0  0.1096
  H  H12  1  0.901000  0.545900  0.732500  1.0  0.1065
  H  H13  1  0.840600  0.640300  0.681600  1.0  0.0995
  H  H14  1  0.049700  0.926900  0.829000  1.0  0.1151
  H  H15  1  0.864800  0.415000  0.626100  1.0  0.1131
  H  H16  1  0.602000  0.312900  0.664300  1.0  0.1113
  H  H17  1  0.779800  0.254200  0.566500  1.0  0.1222
  H  H18  1  0.005100  0.566300  0.938700  1.0  0.1128
  H  H19  1  0.132500  0.680900  0.979500  1.0  0.1154
  H  H20  1  0.293600  0.704400  0.844000  1.0  0.1055
  H  H21  1  0.430700  0.973000  0.782300  1.0  0.1197
  H  H22  1  0.119100  0.511100  0.664700  1.0  0.117
  H  H23  1  0.170900  0.611400  0.636000  1.0  0.1099
  H  H24  1  0.311500  0.475600  0.776700  1.0  0.1134
  H  H25  1  0.077500  0.809700  0.711900  1.0  0.0998
  H  H26  1  0.234200  0.783900  0.651200  1.0  0.1102
  H  H27  1  0.099000  0.545900  0.767500  1.0  0.1076
  H  H28  1  0.159400  0.640300  0.818400  1.0  0.1013
  H  H29  1  0.950300  0.926900  0.671000  1.0  0.1144
  H  H30  1  0.135200  0.415000  0.873900  1.0  0.1137
  H  H31  1  0.398000  0.312900  0.835700  1.0  0.1115
  H  H32  1  0.220200  0.254200  0.933500  1.0  0.1222
  H  H33  1  0.994900  0.566300  0.561300  1.0  0.1126
  H  H34  1  0.867500  0.680900  0.520500  1.0  0.1147
  H  H35  1  0.293600  0.295600  0.344000  1.0  0.1058
  H  H36  1  0.430700  0.027000  0.282300  1.0  0.1197
  H  H37  1  0.119100  0.488900  0.164700  1.0  0.1197
  H  H38  1  0.170900  0.388600  0.136000  1.0  0.1094
  H  H39  1  0.311500  0.524400  0.276700  1.0  0.1132
  H  H40  1  0.077500  0.190300  0.211900  1.0  0.0999
  H  H41  1  0.234200  0.216100  0.151200  1.0  0.1097
  H  H42  1  0.099000  0.454100  0.267500  1.0  0.108
  H  H43  1  0.159400  0.359700  0.318400  1.0  0.1017
  H  H44  1  0.950300  0.073100  0.171000  1.0  0.1141
  H  H45  1  0.135200  0.585000  0.373900  1.0  0.1136
  H  H46  1  0.398000  0.687100  0.335700  1.0  0.1116
  H  H47  1  0.220200  0.745800  0.433500  1.0  0.1223
  H  H48  1  0.994900  0.433700  0.061300  1.0  0.1128
  H  H49  1  0.867500  0.319100  0.020500  1.0  0.1149
  H  H50  1  0.706400  0.295600  0.156000  1.0  0.1059
  H  H51  1  0.569300  0.027000  0.217700  1.0  0.1194
  H  H52  1  0.880900  0.488900  0.335300  1.0  0.1198
  H  H53  1  0.829100  0.388600  0.364000  1.0  0.1098
  H  H54  1  0.688500  0.524400  0.223300  1.0  0.1128
  H  H55  1  0.922500  0.190300  0.288100  1.0  0.0995
  H  H56  1  0.765800  0.216100  0.348800  1.0  0.1099
  H  H57  1  0.901000  0.454100  0.232500  1.0  0.1061
  H  H58  1  0.840600  0.359700  0.181600  1.0  0.0995
  H  H59  1  0.049700  0.073100  0.329000  1.0  0.1145
  H  H60  1  0.864800  0.585000  0.126100  1.0  0.1129
  H  H61  1  0.602000  0.687100  0.164300  1.0  0.1113
  H  H62  1  0.779800  0.745800  0.066500  1.0  0.1222
  H  H63  1  0.005100  0.433700  0.438700  1.0  0.1125
  H  H64  1  0.132500  0.319100  0.479500  1.0  0.1154
  C  C65  1  0.577300  0.866100  0.604300  1.0  0.7742
  C  C66  1  0.748600  0.727100  0.754200  1.0  0.1551
  C  C67  1  0.630500  0.842800  0.675800  1.0  -0.1428
  C  C68  1  0.696800  0.751100  0.690600  1.0  -0.1524
  C  C69  1  0.666500  0.890400  0.791500  1.0  -0.1443
  C  C70  1  0.614100  0.912700  0.726700  1.0  0.0145
  C  C71  1  0.864800  0.599900  0.834200  1.0  -0.0643
  C  C72  1  0.706400  0.432200  0.691200  1.0  -0.0993
  C  C73  1  0.783400  0.464600  0.679000  1.0  0.0551
  C  C74  1  0.679900  0.268500  0.608300  1.0  -0.1286
  C  C75  1  0.621200  0.168400  0.568000  1.0  0.7632
  C  C76  1  0.964200  0.784300  0.827300  1.0  -0.1022
  C  C77  1  0.732200  0.798300  0.805000  1.0  -0.1382
  C  C78  1  0.948300  0.678000  0.859400  1.0  0.0767
  C  C79  1  0.103800  0.818200  0.909400  1.0  -0.1715
  C  C80  1  0.840700  0.575400  0.714200  1.0  -0.1007
  C  C81  1  0.040700  0.854800  0.851600  1.0  -0.0302
  C  C82  1  0.810900  0.395600  0.633100  1.0  -0.1139
  C  C83  1  0.653900  0.965700  0.848400  1.0  0.6904
  C  C84  1  0.184400  0.892800  0.937200  1.0  0.7172
  C  C85  1  0.654500  0.334100  0.655700  1.0  -0.0562
  C  C86  1  0.760500  0.299100  0.597500  1.0  -0.0789
  C  C87  1  0.013600  0.639600  0.916800  1.0  -0.1014
  C  C88  1  0.089800  0.708100  0.941300  1.0  -0.0297
  C  C89  1  0.422700  0.866100  0.895700  1.0  0.7752
  C  C90  1  0.251400  0.727100  0.745800  1.0  0.1561
  C  C91  1  0.369500  0.842800  0.824200  1.0  -0.1432
  C  C92  1  0.303200  0.751100  0.809400  1.0  -0.1525
  C  C93  1  0.333500  0.890400  0.708500  1.0  -0.1437
  C  C94  1  0.385900  0.912700  0.773300  1.0  0.0159
  C  C95  1  0.135200  0.599900  0.665800  1.0  -0.0629
  C  C96  1  0.293600  0.432200  0.808800  1.0  -0.1005
  C  C97  1  0.216600  0.464600  0.821000  1.0  0.0544
  C  C98  1  0.320100  0.268500  0.891700  1.0  -0.1287
  C  C99  1  0.378800  0.168400  0.932000  1.0  0.7609
  C  C100  1  0.035800  0.784300  0.672700  1.0  -0.1037
  C  C101  1  0.267800  0.798300  0.695000  1.0  -0.1383
  C  C102  1  0.051700  0.678000  0.640600  1.0  0.0726
  C  C103  1  0.896200  0.818200  0.590600  1.0  -0.1698
  C  C104  1  0.159300  0.575400  0.785800  1.0  -0.0996
  C  C105  1  0.959300  0.854800  0.648400  1.0  -0.03
  C  C106  1  0.189100  0.395600  0.866900  1.0  -0.1144
  C  C107  1  0.346100  0.965700  0.651600  1.0  0.6909
  C  C108  1  0.815600  0.892800  0.562800  1.0  0.717
  C  C109  1  0.345500  0.334100  0.844300  1.0  -0.054
  C  C110  1  0.239500  0.299100  0.902500  1.0  -0.0783
  C  C111  1  0.986400  0.639600  0.583200  1.0  -0.1007
  C  C112  1  0.910200  0.708100  0.558700  1.0  -0.0245
  C  C113  1  0.422700  0.133900  0.395700  1.0  0.7739
  C  C114  1  0.251400  0.272900  0.245800  1.0  0.1572
  C  C115  1  0.369500  0.157200  0.324200  1.0  -0.1433
  C  C116  1  0.303200  0.248900  0.309400  1.0  -0.1528
  C  C117  1  0.333500  0.109600  0.208500  1.0  -0.1449
  C  C118  1  0.385900  0.087300  0.273300  1.0  0.0157
  C  C119  1  0.135200  0.400100  0.165800  1.0  -0.0627
  C  C120  1  0.293600  0.567800  0.308800  1.0  -0.1017
  C  C121  1  0.216600  0.535400  0.321000  1.0  0.0524
  C  C122  1  0.320100  0.731500  0.391700  1.0  -0.1288
  C  C123  1  0.378800  0.831600  0.432000  1.0  0.7614
  C  C124  1  0.035800  0.215700  0.172700  1.0  -0.1039
  C  C125  1  0.267800  0.201700  0.195000  1.0  -0.1383
  C  C126  1  0.051700  0.322000  0.140600  1.0  0.0725
  C  C127  1  0.896200  0.181800  0.090600  1.0  -0.1753
  C  C128  1  0.159300  0.424600  0.285800  1.0  -0.0992
  C  C129  1  0.959300  0.145200  0.148400  1.0  -0.0322
  C  C130  1  0.189100  0.604400  0.366900  1.0  -0.1154
  C  C131  1  0.346100  0.034300  0.151600  1.0  0.6908
  C  C132  1  0.815600  0.107200  0.062800  1.0  0.7169
  C  C133  1  0.345500  0.665900  0.344300  1.0  -0.0545
  C  C134  1  0.239500  0.700900  0.402500  1.0  -0.079
  C  C135  1  0.986400  0.360400  0.083200  1.0  -0.0995
  C  C136  1  0.910200  0.291900  0.058700  1.0  -0.0239
  C  C137  1  0.577300  0.133900  0.104300  1.0  0.7743
  C  C138  1  0.748600  0.272900  0.254200  1.0  0.1562
  C  C139  1  0.630500  0.157200  0.175800  1.0  -0.1429
  C  C140  1  0.696800  0.248900  0.190600  1.0  -0.1523
  C  C141  1  0.666500  0.109600  0.291500  1.0  -0.1437
  C  C142  1  0.614100  0.087300  0.226700  1.0  0.0143
  C  C143  1  0.864800  0.400100  0.334200  1.0  -0.066
  C  C144  1  0.706400  0.567800  0.191200  1.0  -0.101
  C  C145  1  0.783400  0.535400  0.179000  1.0  0.053
  C  C146  1  0.679900  0.731500  0.108300  1.0  -0.1284
  C  C147  1  0.621200  0.831600  0.068000  1.0  0.7636
  C  C148  1  0.964200  0.215700  0.327300  1.0  -0.1007
  C  C149  1  0.732200  0.201700  0.305000  1.0  -0.1379
  C  C150  1  0.948300  0.322000  0.359400  1.0  0.0771
  C  C151  1  0.103800  0.181800  0.409400  1.0  -0.1706
  C  C152  1  0.840700  0.424600  0.214200  1.0  -0.0991
  C  C153  1  0.040700  0.145200  0.351600  1.0  -0.0312
  C  C154  1  0.810900  0.604400  0.133100  1.0  -0.1137
  C  C155  1  0.653900  0.034300  0.348400  1.0  0.6908
  C  C156  1  0.184400  0.107200  0.437200  1.0  0.7177
  C  C157  1  0.654500  0.665900  0.155700  1.0  -0.0566
  C  C158  1  0.760500  0.700900  0.097500  1.0  -0.0792
  C  C159  1  0.013600  0.360400  0.416800  1.0  -0.1005
  C  C160  1  0.089800  0.291900  0.441300  1.0  -0.0288
  N  N161  1  0.811900  0.631900  0.767200  1.0  -0.126
  N  N162  1  0.188100  0.631900  0.732800  1.0  -0.1249
  N  N163  1  0.188100  0.368100  0.232800  1.0  -0.1246
  N  N164  1  0.811900  0.368100  0.267200  1.0  -0.126
  O  O165  1  0.504600  0.922000  0.593000  1.0  -0.7049
  O  O166  1  0.654300  0.087300  0.538600  1.0  -0.7109
  O  O167  1  0.609500  0.827900  0.560300  1.0  -0.7159
  O  O168  1  0.541700  0.171700  0.565000  1.0  -0.7825
  O  O169  1  0.607000  0.065100  0.836900  1.0  -0.6388
  O  O170  1  0.689500  0.929100  0.906400  1.0  -0.669
  O  O171  1  0.239200  0.864200  0.989600  1.0  -0.6873
  O  O172  1  0.194100  0.988700  0.900700  1.0  -0.5152
  O  O173  1  0.495400  0.922000  0.907000  1.0  -0.7044
  O  O174  1  0.345700  0.087300  0.961400  1.0  -0.7109
  O  O175  1  0.390500  0.827900  0.939700  1.0  -0.7132
  O  O176  1  0.458300  0.171700  0.935000  1.0  -0.7827
  O  O177  1  0.393000  0.065100  0.663100  1.0  -0.6413
  O  O178  1  0.310500  0.929100  0.593600  1.0  -0.67
  O  O179  1  0.760800  0.864200  0.510400  1.0  -0.686
  O  O180  1  0.805900  0.988700  0.599300  1.0  -0.5137
  O  O181  1  0.495400  0.078000  0.407000  1.0  -0.7049
  O  O182  1  0.345700  0.912700  0.461400  1.0  -0.711
  O  O183  1  0.390500  0.172100  0.439700  1.0  -0.7136
  O  O184  1  0.458300  0.828300  0.435000  1.0  -0.784
  O  O185  1  0.393000  0.934900  0.163100  1.0  -0.6401
  O  O186  1  0.310500  0.070900  0.093600  1.0  -0.6697
  O  O187  1  0.760800  0.135800  0.010400  1.0  -0.6856
  O  O188  1  0.805900  0.011300  0.099300  1.0  -0.5129
  O  O189  1  0.504600  0.078000  0.093000  1.0  -0.7052
  O  O190  1  0.654300  0.912700  0.038600  1.0  -0.7112
  O  O191  1  0.609500  0.172100  0.060300  1.0  -0.7161
  O  O192  1  0.541700  0.828300  0.065000  1.0  -0.7832
  O  O193  1  0.607000  0.934900  0.336900  1.0  -0.6414
  O  O194  1  0.689500  0.070900  0.406400  1.0  -0.669
  O  O195  1  0.239200  0.135800  0.489600  1.0  -0.6869
  O  O196  1  0.194100  0.011300  0.400700  1.0  -0.5133
