# generated using pymatgen
data_SmH15C24NO8
_symmetry_space_group_name_H-M   'P 1'
_cell_length_a   15.85800000
_cell_length_b   10.52200000
_cell_length_c   20.97000000
_cell_angle_alpha   90.00000000
_cell_angle_beta   107.52000000
_cell_angle_gamma   90.00000000
_symmetry_Int_Tables_number   1
_chemical_formula_structural   SmH15C24NO8
_chemical_formula_sum   'Sm4 H60 C96 N4 O32'
_cell_volume   3336.69734252
_cell_formula_units_Z   4
loop_
 _symmetry_equiv_pos_site_id
 _symmetry_equiv_pos_as_xyz
  1  'x, y, z'
loop_
 _atom_site_type_symbol
 _atom_site_label
 _atom_site_symmetry_multiplicity
 _atom_site_fract_x
 _atom_site_fract_y
 _atom_site_fract_z
 _atom_site_occupancy
 _atom_site_charge
  Sm  Sm1  1  0.399320  0.079270  0.546080  1.0  2.2866
  Sm  Sm2  1  0.600680  0.079270  0.953920  1.0  2.2882
  Sm  Sm3  1  0.600680  0.920730  0.453920  1.0  2.2881
  Sm  Sm4  1  0.399320  0.920730  0.046080  1.0  2.2881
  H  H5  1  0.706800  0.708100  0.653800  1.0  0.1082
  H  H6  1  0.568500  0.974200  0.718200  1.0  0.1206
  H  H7  1  0.764300  0.786000  0.850500  1.0  0.1129
  H  H8  1  0.879500  0.511900  0.837500  1.0  0.1094
  H  H9  1  0.829600  0.615800  0.865700  1.0  0.1118
  H  H10  1  0.923000  0.810500  0.788000  1.0  0.0964
  H  H11  1  0.051000  0.925700  0.827900  1.0  0.1173
  H  H12  1  0.134600  0.683000  0.979800  1.0  0.1088
  H  H13  1  0.006900  0.567400  0.939800  1.0  0.1127
  H  H14  1  0.900500  0.549600  0.731600  1.0  0.1013
  H  H15  1  0.837800  0.643200  0.680900  1.0  0.094
  H  H16  1  0.687700  0.475500  0.724300  1.0  0.1063
  H  H17  1  0.601200  0.313000  0.665500  1.0  0.1135
  H  H18  1  0.777800  0.251100  0.567000  1.0  0.1114
  H  H19  1  0.861100  0.420500  0.622500  1.0  0.1087
  H  H20  1  0.293200  0.708100  0.846200  1.0  0.1067
  H  H21  1  0.431500  0.974200  0.781800  1.0  0.1208
  H  H22  1  0.235700  0.786000  0.649500  1.0  0.112
  H  H23  1  0.120500  0.511900  0.662500  1.0  0.1086
  H  H24  1  0.170400  0.615800  0.634300  1.0  0.1119
  H  H25  1  0.077000  0.810500  0.712000  1.0  0.0959
  H  H26  1  0.949000  0.925700  0.672100  1.0  0.1165
  H  H27  1  0.865400  0.683000  0.520200  1.0  0.1081
  H  H28  1  0.993100  0.567400  0.560200  1.0  0.1127
  H  H29  1  0.099500  0.549600  0.768400  1.0  0.1013
  H  H30  1  0.162200  0.643200  0.819100  1.0  0.0949
  H  H31  1  0.312300  0.475500  0.775700  1.0  0.1073
  H  H32  1  0.398800  0.313000  0.834500  1.0  0.1133
  H  H33  1  0.222200  0.251100  0.933000  1.0  0.1121
  H  H34  1  0.138900  0.420500  0.877500  1.0  0.1089
  H  H35  1  0.293200  0.291900  0.346200  1.0  0.1068
  H  H36  1  0.431500  0.025800  0.281800  1.0  0.1207
  H  H37  1  0.235700  0.214000  0.149500  1.0  0.112
  H  H38  1  0.120500  0.488100  0.162500  1.0  0.1114
  H  H39  1  0.170400  0.384200  0.134300  1.0  0.1115
  H  H40  1  0.077000  0.189500  0.212000  1.0  0.0957
  H  H41  1  0.949000  0.074300  0.172100  1.0  0.1169
  H  H42  1  0.865400  0.317000  0.020200  1.0  0.1082
  H  H43  1  0.993100  0.432600  0.060200  1.0  0.1129
  H  H44  1  0.099500  0.450400  0.268400  1.0  0.1016
  H  H45  1  0.162200  0.356800  0.319100  1.0  0.0953
  H  H46  1  0.312300  0.524500  0.275700  1.0  0.1072
  H  H47  1  0.398800  0.687000  0.334500  1.0  0.1135
  H  H48  1  0.222200  0.748900  0.433000  1.0  0.1121
  H  H49  1  0.138900  0.579500  0.377500  1.0  0.1087
  H  H50  1  0.706800  0.291900  0.153800  1.0  0.1081
  H  H51  1  0.568500  0.025800  0.218200  1.0  0.1205
  H  H52  1  0.764300  0.214000  0.350500  1.0  0.1134
  H  H53  1  0.879500  0.488100  0.337500  1.0  0.1114
  H  H54  1  0.829600  0.384200  0.365700  1.0  0.1113
  H  H55  1  0.923000  0.189500  0.288000  1.0  0.0957
  H  H56  1  0.051000  0.074300  0.327900  1.0  0.117
  H  H57  1  0.134600  0.317000  0.479800  1.0  0.1086
  H  H58  1  0.006900  0.432600  0.439800  1.0  0.1122
  H  H59  1  0.900500  0.450400  0.231600  1.0  0.1011
  H  H60  1  0.837800  0.356800  0.180900  1.0  0.0941
  H  H61  1  0.687700  0.524500  0.224300  1.0  0.1061
  H  H62  1  0.601200  0.687000  0.165500  1.0  0.1136
  H  H63  1  0.777800  0.748900  0.067000  1.0  0.1115
  H  H64  1  0.861100  0.579500  0.122500  1.0  0.108
  C  C65  1  0.748700  0.727900  0.755100  1.0  0.1428
  C  C66  1  0.696500  0.752700  0.689000  1.0  -0.157
  C  C67  1  0.629400  0.843700  0.676000  1.0  -0.1233
  C  C68  1  0.613300  0.913800  0.727200  1.0  0.0031
  C  C69  1  0.666200  0.891200  0.792000  1.0  -0.1336
  C  C70  1  0.731200  0.800200  0.806300  1.0  -0.146
  C  C71  1  0.654000  0.968300  0.849500  1.0  0.6796
  C  C72  1  0.576000  0.866500  0.604000  1.0  0.7762
  C  C73  1  0.864600  0.601500  0.835600  1.0  -0.0981
  C  C74  1  0.949500  0.678500  0.859700  1.0  0.0637
  C  C75  1  0.965200  0.784800  0.827200  1.0  -0.111
  C  C76  1  0.041700  0.854300  0.851100  1.0  -0.0355
  C  C77  1  0.104600  0.817800  0.909400  1.0  -0.1459
  C  C78  1  0.091400  0.709800  0.941400  1.0  -0.0299
  C  C79  1  0.015000  0.640500  0.917400  1.0  -0.1023
  C  C80  1  0.187300  0.893000  0.937300  1.0  0.7232
  C  C81  1  0.839700  0.577700  0.713800  1.0  -0.1064
  C  C82  1  0.783100  0.466100  0.679400  1.0  0.096
  C  C83  1  0.705500  0.432100  0.691900  1.0  -0.1007
  C  C84  1  0.653600  0.334000  0.656700  1.0  -0.0545
  C  C85  1  0.678600  0.267900  0.609400  1.0  -0.1349
  C  C86  1  0.619400  0.167900  0.569000  1.0  0.7492
  C  C87  1  0.758700  0.298100  0.597600  1.0  -0.0649
  C  C88  1  0.809200  0.398400  0.631700  1.0  -0.121
  C  C89  1  0.251300  0.727900  0.744900  1.0  0.1442
  C  C90  1  0.303500  0.752700  0.811000  1.0  -0.1562
  C  C91  1  0.370600  0.843700  0.824000  1.0  -0.1234
  C  C92  1  0.386700  0.913800  0.772800  1.0  0.0041
  C  C93  1  0.333800  0.891200  0.708000  1.0  -0.1331
  C  C94  1  0.268800  0.800200  0.693700  1.0  -0.1475
  C  C95  1  0.346000  0.968300  0.650500  1.0  0.6793
  C  C96  1  0.424000  0.866500  0.896000  1.0  0.7769
  C  C97  1  0.135400  0.601500  0.664400  1.0  -0.0985
  C  C98  1  0.050500  0.678500  0.640300  1.0  0.0582
  C  C99  1  0.034800  0.784800  0.672800  1.0  -0.1127
  C  C100  1  0.958300  0.854300  0.648900  1.0  -0.0356
  C  C101  1  0.895400  0.817800  0.590600  1.0  -0.1455
  C  C102  1  0.908600  0.709800  0.558600  1.0  -0.0278
  C  C103  1  0.985000  0.640500  0.582600  1.0  -0.1019
  C  C104  1  0.812700  0.893000  0.562700  1.0  0.7252
  C  C105  1  0.160300  0.577700  0.786200  1.0  -0.1053
  C  C106  1  0.216900  0.466100  0.820600  1.0  0.0957
  C  C107  1  0.294500  0.432100  0.808100  1.0  -0.1017
  C  C108  1  0.346400  0.334000  0.843300  1.0  -0.0529
  C  C109  1  0.321400  0.267900  0.890600  1.0  -0.135
  C  C110  1  0.380600  0.167900  0.931000  1.0  0.7485
  C  C111  1  0.241300  0.298100  0.902400  1.0  -0.0647
  C  C112  1  0.190800  0.398400  0.868300  1.0  -0.1203
  C  C113  1  0.251300  0.272100  0.244900  1.0  0.145
  C  C114  1  0.303500  0.247300  0.311000  1.0  -0.1566
  C  C115  1  0.370600  0.156300  0.324000  1.0  -0.1233
  C  C116  1  0.386700  0.086200  0.272800  1.0  0.0041
  C  C117  1  0.333800  0.108800  0.208000  1.0  -0.1336
  C  C118  1  0.268800  0.199800  0.193700  1.0  -0.1465
  C  C119  1  0.346000  0.031700  0.150500  1.0  0.6791
  C  C120  1  0.424000  0.133500  0.396000  1.0  0.7767
  C  C121  1  0.135400  0.398500  0.164400  1.0  -0.0978
  C  C122  1  0.050500  0.321500  0.140300  1.0  0.0577
  C  C123  1  0.034800  0.215200  0.172800  1.0  -0.1129
  C  C124  1  0.958300  0.145700  0.148900  1.0  -0.0378
  C  C125  1  0.895400  0.182200  0.090600  1.0  -0.1491
  C  C126  1  0.908600  0.290200  0.058600  1.0  -0.0282
  C  C127  1  0.985000  0.359500  0.082600  1.0  -0.1005
  C  C128  1  0.812700  0.107000  0.062700  1.0  0.7247
  C  C129  1  0.160300  0.422300  0.286200  1.0  -0.1052
  C  C130  1  0.216900  0.533900  0.320600  1.0  0.0945
  C  C131  1  0.294500  0.567900  0.308100  1.0  -0.1024
  C  C132  1  0.346400  0.666000  0.343300  1.0  -0.0533
  C  C133  1  0.321400  0.732100  0.390600  1.0  -0.135
  C  C134  1  0.380600  0.832100  0.431000  1.0  0.7493
  C  C135  1  0.241300  0.701900  0.402400  1.0  -0.0652
  C  C136  1  0.190800  0.601600  0.368300  1.0  -0.1212
  C  C137  1  0.748700  0.272100  0.255100  1.0  0.1436
  C  C138  1  0.696500  0.247300  0.189000  1.0  -0.157
  C  C139  1  0.629400  0.156300  0.176000  1.0  -0.1231
  C  C140  1  0.613300  0.086200  0.227200  1.0  0.0031
  C  C141  1  0.666200  0.108800  0.292000  1.0  -0.1331
  C  C142  1  0.731200  0.199800  0.306300  1.0  -0.1458
  C  C143  1  0.654000  0.031700  0.349500  1.0  0.6808
  C  C144  1  0.576000  0.133500  0.104000  1.0  0.7774
  C  C145  1  0.864600  0.398500  0.335600  1.0  -0.101
  C  C146  1  0.949500  0.321500  0.359700  1.0  0.0639
  C  C147  1  0.965200  0.215200  0.327200  1.0  -0.1096
  C  C148  1  0.041700  0.145700  0.351100  1.0  -0.0374
  C  C149  1  0.104600  0.182200  0.409400  1.0  -0.1441
  C  C150  1  0.091400  0.290200  0.441400  1.0  -0.0296
  C  C151  1  0.015000  0.359500  0.417400  1.0  -0.1023
  C  C152  1  0.187300  0.107000  0.437300  1.0  0.7243
  C  C153  1  0.839700  0.422300  0.213800  1.0  -0.1053
  C  C154  1  0.783100  0.533900  0.179400  1.0  0.0948
  C  C155  1  0.705500  0.567900  0.191900  1.0  -0.1024
  C  C156  1  0.653600  0.666000  0.156700  1.0  -0.0548
  C  C157  1  0.678600  0.732100  0.109400  1.0  -0.1347
  C  C158  1  0.619400  0.832100  0.069000  1.0  0.7498
  C  C159  1  0.758700  0.701900  0.097600  1.0  -0.065
  C  C160  1  0.809200  0.601600  0.131700  1.0  -0.1208
  N  N161  1  0.811600  0.632700  0.768100  1.0  -0.128
  N  N162  1  0.188400  0.632700  0.731900  1.0  -0.1271
  N  N163  1  0.188400  0.367300  0.231900  1.0  -0.1268
  N  N164  1  0.811600  0.367300  0.268100  1.0  -0.128
  O  O165  1  0.241300  0.865600  0.989700  1.0  -0.6642
  O  O166  1  0.195400  0.989800  0.901100  1.0  -0.5206
  O  O167  1  0.605600  0.065700  0.837900  1.0  -0.6293
  O  O168  1  0.502400  0.921400  0.593000  1.0  -0.713
  O  O169  1  0.608400  0.830700  0.559400  1.0  -0.708
  O  O170  1  0.688900  0.929200  0.908400  1.0  -0.6681
  O  O171  1  0.540300  0.170100  0.566400  1.0  -0.7656
  O  O172  1  0.652600  0.087400  0.538600  1.0  -0.6969
  O  O173  1  0.758700  0.865600  0.510300  1.0  -0.6634
  O  O174  1  0.804600  0.989800  0.598900  1.0  -0.5179
  O  O175  1  0.394400  0.065700  0.662100  1.0  -0.6277
  O  O176  1  0.497600  0.921400  0.907000  1.0  -0.7127
  O  O177  1  0.391600  0.830700  0.940600  1.0  -0.7053
  O  O178  1  0.311100  0.929200  0.591600  1.0  -0.6682
  O  O179  1  0.459700  0.170100  0.933600  1.0  -0.7662
  O  O180  1  0.347400  0.087400  0.961400  1.0  -0.6965
  O  O181  1  0.758700  0.134400  0.010300  1.0  -0.6631
  O  O182  1  0.804600  0.010200  0.098900  1.0  -0.5189
  O  O183  1  0.394400  0.934300  0.162100  1.0  -0.6277
  O  O184  1  0.497600  0.078600  0.407000  1.0  -0.713
  O  O185  1  0.391600  0.169300  0.440600  1.0  -0.706
  O  O186  1  0.311100  0.070800  0.091600  1.0  -0.6682
  O  O187  1  0.459700  0.829900  0.433600  1.0  -0.7668
  O  O188  1  0.347400  0.912600  0.461400  1.0  -0.6964
  O  O189  1  0.241300  0.134400  0.489700  1.0  -0.6644
  O  O190  1  0.195400  0.010200  0.401100  1.0  -0.5195
  O  O191  1  0.605600  0.934300  0.337900  1.0  -0.6257
  O  O192  1  0.502400  0.078600  0.093000  1.0  -0.7138
  O  O193  1  0.608400  0.169300  0.059400  1.0  -0.7068
  O  O194  1  0.688900  0.070800  0.408400  1.0  -0.6683
  O  O195  1  0.540300  0.829900  0.066400  1.0  -0.7665
  O  O196  1  0.652600  0.912600  0.038600  1.0  -0.6976
