# generated using pymatgen
data_PrH15C24NO8
_symmetry_space_group_name_H-M   'P 1'
_cell_length_a   15.83700000
_cell_length_b   10.56800000
_cell_length_c   21.09900000
_cell_angle_alpha   90.00000000
_cell_angle_beta   107.09800000
_cell_angle_gamma   90.00000000
_symmetry_Int_Tables_number   1
_chemical_formula_structural   PrH15C24NO8
_chemical_formula_sum   'Pr4 H60 C96 N4 O32'
_cell_volume   3375.17355144
_cell_formula_units_Z   4
loop_
 _symmetry_equiv_pos_site_id
 _symmetry_equiv_pos_as_xyz
  1  'x, y, z'
loop_
 _atom_site_type_symbol
 _atom_site_label
 _atom_site_symmetry_multiplicity
 _atom_site_fract_x
 _atom_site_fract_y
 _atom_site_fract_z
 _atom_site_occupancy
 _atom_site_charge
  Pr  Pr1  1  0.399190  0.081180  0.546970  1.0  2.2024
  Pr  Pr2  1  0.600810  0.081180  0.953030  1.0  2.2023
  Pr  Pr3  1  0.600810  0.918820  0.453030  1.0  2.2014
  Pr  Pr4  1  0.399190  0.918820  0.046970  1.0  2.2015
  H  H5  1  0.706900  0.703200  0.656100  1.0  0.1102
  H  H6  1  0.569600  0.971400  0.717800  1.0  0.1229
  H  H7  1  0.766700  0.784400  0.847900  1.0  0.1117
  H  H8  1  0.881100  0.510700  0.835200  1.0  0.1211
  H  H9  1  0.829200  0.610900  0.863800  1.0  0.1159
  H  H10  1  0.840900  0.640000  0.681300  1.0  0.1008
  H  H11  1  0.901600  0.546200  0.732300  1.0  0.1042
  H  H12  1  0.922000  0.808000  0.788000  1.0  0.1006
  H  H13  1  0.003800  0.566300  0.938700  1.0  0.117
  H  H14  1  0.688400  0.476000  0.722600  1.0  0.1116
  H  H15  1  0.865900  0.415900  0.626400  1.0  0.1184
  H  H16  1  0.048900  0.926600  0.828900  1.0  0.1216
  H  H17  1  0.131100  0.681400  0.979600  1.0  0.118
  H  H18  1  0.602300  0.311800  0.664600  1.0  0.1204
  H  H19  1  0.780000  0.254600  0.566400  1.0  0.1142
  H  H20  1  0.293100  0.703200  0.843900  1.0  0.1093
  H  H21  1  0.430400  0.971400  0.782200  1.0  0.1232
  H  H22  1  0.233300  0.784400  0.652100  1.0  0.1123
  H  H23  1  0.118900  0.510700  0.664800  1.0  0.1205
  H  H24  1  0.170800  0.610900  0.636200  1.0  0.1155
  H  H25  1  0.159100  0.640000  0.818700  1.0  0.1015
  H  H26  1  0.098400  0.546200  0.767700  1.0  0.1052
  H  H27  1  0.078000  0.808000  0.712000  1.0  0.0997
  H  H28  1  0.996200  0.566300  0.561300  1.0  0.1167
  H  H29  1  0.311600  0.476000  0.777400  1.0  0.1118
  H  H30  1  0.134100  0.415900  0.873600  1.0  0.1191
  H  H31  1  0.951100  0.926600  0.671100  1.0  0.1207
  H  H32  1  0.868900  0.681400  0.520400  1.0  0.117
  H  H33  1  0.397700  0.311800  0.835400  1.0  0.1202
  H  H34  1  0.220000  0.254600  0.933600  1.0  0.1143
  H  H35  1  0.293100  0.296800  0.343900  1.0  0.1095
  H  H36  1  0.430400  0.028600  0.282200  1.0  0.1229
  H  H37  1  0.233300  0.215600  0.152100  1.0  0.1119
  H  H38  1  0.118900  0.489300  0.164800  1.0  0.1234
  H  H39  1  0.170800  0.389100  0.136200  1.0  0.115
  H  H40  1  0.159100  0.360000  0.318700  1.0  0.102
  H  H41  1  0.098400  0.453800  0.267700  1.0  0.1053
  H  H42  1  0.078000  0.192000  0.212000  1.0  0.0999
  H  H43  1  0.996200  0.433700  0.061300  1.0  0.1172
  H  H44  1  0.311600  0.524000  0.277400  1.0  0.1117
  H  H45  1  0.134100  0.584100  0.373600  1.0  0.119
  H  H46  1  0.951100  0.073400  0.171100  1.0  0.1211
  H  H47  1  0.868900  0.318600  0.020400  1.0  0.1171
  H  H48  1  0.397700  0.688200  0.335400  1.0  0.1202
  H  H49  1  0.220000  0.745400  0.433600  1.0  0.1144
  H  H50  1  0.706900  0.296800  0.156100  1.0  0.1101
  H  H51  1  0.569600  0.028600  0.217800  1.0  0.1225
  H  H52  1  0.766700  0.215600  0.347900  1.0  0.1118
  H  H53  1  0.881100  0.489300  0.335200  1.0  0.1237
  H  H54  1  0.829200  0.389100  0.363800  1.0  0.1156
  H  H55  1  0.840900  0.360000  0.181300  1.0  0.101
  H  H56  1  0.901600  0.453800  0.232300  1.0  0.1038
  H  H57  1  0.922000  0.192000  0.288000  1.0  0.0998
  H  H58  1  0.003800  0.433700  0.438700  1.0  0.1166
  H  H59  1  0.688400  0.524000  0.222600  1.0  0.1113
  H  H60  1  0.865900  0.584100  0.126400  1.0  0.1184
  H  H61  1  0.048900  0.073400  0.328900  1.0  0.1212
  H  H62  1  0.131100  0.318600  0.479600  1.0  0.1178
  H  H63  1  0.602300  0.688200  0.164600  1.0  0.1202
  H  H64  1  0.780000  0.745400  0.066400  1.0  0.1142
  C  C65  1  0.578500  0.865000  0.604200  1.0  0.7499
  C  C66  1  0.631100  0.842800  0.675900  1.0  -0.1292
  C  C67  1  0.697300  0.750100  0.690600  1.0  -0.1708
  C  C68  1  0.614700  0.911700  0.726600  1.0  0.0068
  C  C69  1  0.748400  0.726200  0.754100  1.0  0.1764
  C  C70  1  0.667200  0.889600  0.791300  1.0  -0.1498
  C  C71  1  0.732600  0.798000  0.804400  1.0  -0.1208
  C  C72  1  0.653500  0.965900  0.847500  1.0  0.6874
  C  C73  1  0.865000  0.599400  0.833900  1.0  -0.0586
  C  C74  1  0.841200  0.575200  0.714000  1.0  -0.0933
  C  C75  1  0.947900  0.676800  0.858900  1.0  0.0727
  C  C76  1  0.784300  0.464300  0.679200  1.0  0.0591
  C  C77  1  0.963600  0.783000  0.827100  1.0  -0.1143
  C  C78  1  0.012500  0.639200  0.916600  1.0  -0.1075
  C  C79  1  0.706900  0.431900  0.690800  1.0  -0.1014
  C  C80  1  0.812100  0.396400  0.633500  1.0  -0.1089
  C  C81  1  0.039900  0.854500  0.851400  1.0  -0.0266
  C  C82  1  0.088700  0.708100  0.941300  1.0  -0.0434
  C  C83  1  0.654700  0.333200  0.655800  1.0  -0.069
  C  C84  1  0.760800  0.299000  0.597600  1.0  -0.0621
  C  C85  1  0.102700  0.817300  0.909400  1.0  -0.1623
  C  C86  1  0.680900  0.267900  0.608300  1.0  -0.1281
  C  C87  1  0.184200  0.891000  0.937100  1.0  0.7161
  C  C88  1  0.622200  0.168900  0.567800  1.0  0.749
  C  C89  1  0.421500  0.865000  0.895800  1.0  0.7498
  C  C90  1  0.368900  0.842800  0.824100  1.0  -0.1293
  C  C91  1  0.302700  0.750100  0.809400  1.0  -0.1707
  C  C92  1  0.385300  0.911700  0.773400  1.0  0.0073
  C  C93  1  0.251600  0.726200  0.745900  1.0  0.1772
  C  C94  1  0.332800  0.889600  0.708700  1.0  -0.1487
  C  C95  1  0.267400  0.798000  0.695600  1.0  -0.1224
  C  C96  1  0.346500  0.965900  0.652500  1.0  0.6882
  C  C97  1  0.135000  0.599400  0.666100  1.0  -0.0565
  C  C98  1  0.158800  0.575200  0.786000  1.0  -0.0918
  C  C99  1  0.052100  0.676800  0.641100  1.0  0.068
  C  C100  1  0.215700  0.464300  0.820800  1.0  0.0585
  C  C101  1  0.036400  0.783000  0.672900  1.0  -0.1146
  C  C102  1  0.987500  0.639200  0.583400  1.0  -0.1075
  C  C103  1  0.293100  0.431900  0.809200  1.0  -0.1025
  C  C104  1  0.187900  0.396400  0.866500  1.0  -0.1104
  C  C105  1  0.960100  0.854500  0.648600  1.0  -0.027
  C  C106  1  0.911300  0.708100  0.558700  1.0  -0.0382
  C  C107  1  0.345300  0.333200  0.844200  1.0  -0.0669
  C  C108  1  0.239200  0.299000  0.902400  1.0  -0.0615
  C  C109  1  0.897300  0.817300  0.590600  1.0  -0.1614
  C  C110  1  0.319100  0.267900  0.891700  1.0  -0.1283
  C  C111  1  0.815800  0.891000  0.562900  1.0  0.7165
  C  C112  1  0.377800  0.168900  0.932200  1.0  0.7484
  C  C113  1  0.421500  0.135000  0.395800  1.0  0.7498
  C  C114  1  0.368900  0.157200  0.324100  1.0  -0.1273
  C  C115  1  0.302700  0.249900  0.309400  1.0  -0.1708
  C  C116  1  0.385300  0.088300  0.273400  1.0  0.0079
  C  C117  1  0.251600  0.273800  0.245900  1.0  0.1783
  C  C118  1  0.332800  0.110400  0.208700  1.0  -0.1494
  C  C119  1  0.267400  0.202000  0.195600  1.0  -0.1222
  C  C120  1  0.346500  0.034100  0.152500  1.0  0.6881
  C  C121  1  0.135000  0.400600  0.166100  1.0  -0.0563
  C  C122  1  0.158800  0.424800  0.286000  1.0  -0.0917
  C  C123  1  0.052100  0.323200  0.141100  1.0  0.068
  C  C124  1  0.215700  0.535700  0.320800  1.0  0.056
  C  C125  1  0.036400  0.217000  0.172900  1.0  -0.1154
  C  C126  1  0.987500  0.360800  0.083400  1.0  -0.1059
  C  C127  1  0.293100  0.568100  0.309200  1.0  -0.1031
  C  C128  1  0.187900  0.603600  0.366500  1.0  -0.1108
  C  C129  1  0.960100  0.145500  0.148600  1.0  -0.0297
  C  C130  1  0.911300  0.291900  0.058700  1.0  -0.038
  C  C131  1  0.345300  0.666800  0.344200  1.0  -0.0669
  C  C132  1  0.239200  0.701000  0.402400  1.0  -0.0619
  C  C133  1  0.897300  0.182700  0.090600  1.0  -0.1663
  C  C134  1  0.319100  0.732100  0.391700  1.0  -0.1283
  C  C135  1  0.815800  0.109000  0.062900  1.0  0.7163
  C  C136  1  0.377800  0.831100  0.432200  1.0  0.7492
  C  C137  1  0.578500  0.135000  0.104200  1.0  0.7505
  C  C138  1  0.631100  0.157200  0.175900  1.0  -0.1272
  C  C139  1  0.697300  0.249900  0.190600  1.0  -0.1707
  C  C140  1  0.614700  0.088300  0.226600  1.0  0.0073
  C  C141  1  0.748400  0.273800  0.254100  1.0  0.1773
  C  C142  1  0.667200  0.110400  0.291300  1.0  -0.149
  C  C143  1  0.732600  0.202000  0.304400  1.0  -0.1201
  C  C144  1  0.653500  0.034100  0.347500  1.0  0.6878
  C  C145  1  0.865000  0.400600  0.333900  1.0  -0.0597
  C  C146  1  0.841200  0.424800  0.214000  1.0  -0.0916
  C  C147  1  0.947900  0.323200  0.358900  1.0  0.0733
  C  C148  1  0.784300  0.535700  0.179200  1.0  0.0564
  C  C149  1  0.963600  0.217000  0.327100  1.0  -0.1136
  C  C150  1  0.012500  0.360800  0.416600  1.0  -0.1073
  C  C151  1  0.706900  0.568100  0.190800  1.0  -0.1025
  C  C152  1  0.812100  0.603600  0.133500  1.0  -0.108
  C  C153  1  0.039900  0.145500  0.351400  1.0  -0.0287
  C  C154  1  0.088700  0.291900  0.441300  1.0  -0.0429
  C  C155  1  0.654700  0.666800  0.155800  1.0  -0.0689
  C  C156  1  0.760800  0.701000  0.097600  1.0  -0.0621
  C  C157  1  0.102700  0.182700  0.409400  1.0  -0.1613
  C  C158  1  0.680900  0.732100  0.108300  1.0  -0.1277
  C  C159  1  0.184200  0.109000  0.437100  1.0  0.7167
  C  C160  1  0.622200  0.831100  0.067800  1.0  0.7497
  N  N161  1  0.811800  0.631000  0.766800  1.0  -0.1135
  N  N162  1  0.188200  0.631000  0.733200  1.0  -0.113
  N  N163  1  0.188200  0.369000  0.233200  1.0  -0.1125
  N  N164  1  0.811800  0.369000  0.266800  1.0  -0.1132
  O  O165  1  0.542800  0.172200  0.564600  1.0  -0.7701
  O  O166  1  0.505300  0.921800  0.592800  1.0  -0.6968
  O  O167  1  0.390100  0.172700  0.439600  1.0  -0.6948
  O  O168  1  0.238000  0.136200  0.489300  1.0  -0.6757
  O  O169  1  0.344400  0.912700  0.461300  1.0  -0.7113
  O  O170  1  0.393100  0.064400  0.663800  1.0  -0.639
  O  O171  1  0.309800  0.929000  0.594000  1.0  -0.6724
  O  O172  1  0.193200  0.988500  0.900800  1.0  -0.5143
  O  O173  1  0.457200  0.172200  0.935400  1.0  -0.7705
  O  O174  1  0.494700  0.921800  0.907200  1.0  -0.6963
  O  O175  1  0.609900  0.172700  0.060400  1.0  -0.6955
  O  O176  1  0.762000  0.136200  0.010700  1.0  -0.6738
  O  O177  1  0.655600  0.912700  0.038700  1.0  -0.7115
  O  O178  1  0.606900  0.064400  0.836200  1.0  -0.6368
  O  O179  1  0.690200  0.929000  0.906000  1.0  -0.6725
  O  O180  1  0.806800  0.988500  0.599200  1.0  -0.5124
  O  O181  1  0.457200  0.827800  0.435400  1.0  -0.7709
  O  O182  1  0.494700  0.078200  0.407200  1.0  -0.6969
  O  O183  1  0.609900  0.827300  0.560400  1.0  -0.6964
  O  O184  1  0.762000  0.863800  0.510700  1.0  -0.6744
  O  O185  1  0.655600  0.087300  0.538700  1.0  -0.71
  O  O186  1  0.606900  0.935600  0.336200  1.0  -0.6361
  O  O187  1  0.690200  0.071000  0.406000  1.0  -0.6724
  O  O188  1  0.806800  0.011500  0.099200  1.0  -0.5118
  O  O189  1  0.542800  0.827800  0.064600  1.0  -0.7701
  O  O190  1  0.505300  0.078200  0.092800  1.0  -0.6979
  O  O191  1  0.390100  0.827300  0.939600  1.0  -0.6944
  O  O192  1  0.238000  0.863800  0.989300  1.0  -0.6761
  O  O193  1  0.344400  0.087300  0.961300  1.0  -0.7108
  O  O194  1  0.393100  0.935600  0.163800  1.0  -0.638
  O  O195  1  0.309800  0.071000  0.094000  1.0  -0.6721
  O  O196  1  0.193200  0.011500  0.400800  1.0  -0.5125
