# generated using pymatgen
data_EuH15C24NO8
_symmetry_space_group_name_H-M   'P 1'
_cell_length_a   15.85400000
_cell_length_b   10.51500000
_cell_length_c   20.94700000
_cell_angle_alpha   90.00000000
_cell_angle_beta   107.58700000
_cell_angle_gamma   90.00000000
_symmetry_Int_Tables_number   1
_chemical_formula_structural   EuH15C24NO8
_chemical_formula_sum   'Eu4 H60 C96 N4 O32'
_cell_volume   3328.74855722
_cell_formula_units_Z   4
loop_
 _symmetry_equiv_pos_site_id
 _symmetry_equiv_pos_as_xyz
  1  'x, y, z'
loop_
 _atom_site_type_symbol
 _atom_site_label
 _atom_site_symmetry_multiplicity
 _atom_site_fract_x
 _atom_site_fract_y
 _atom_site_fract_z
 _atom_site_occupancy
 _atom_site_charge
  Eu  Eu1  1  0.399110  0.078660  0.545770  1.0  2.1429
  Eu  Eu2  1  0.600890  0.078660  0.954230  1.0  2.1436
  Eu  Eu3  1  0.600890  0.921340  0.454230  1.0  2.1442
  Eu  Eu4  1  0.399110  0.921340  0.045770  1.0  2.1436
  H  H5  1  0.765200  0.786500  0.850100  1.0  0.1149
  H  H6  1  0.568400  0.974700  0.718300  1.0  0.121
  H  H7  1  0.706500  0.708700  0.654100  1.0  0.1105
  H  H8  1  0.600300  0.314500  0.665400  1.0  0.1141
  H  H9  1  0.687900  0.476400  0.724200  1.0  0.1063
  H  H10  1  0.861600  0.416500  0.624300  1.0  0.1116
  H  H11  1  0.775100  0.254200  0.565800  1.0  0.1091
  H  H12  1  0.900500  0.547400  0.732300  1.0  0.1067
  H  H13  1  0.838900  0.641900  0.681300  1.0  0.097
  H  H14  1  0.880700  0.512300  0.837100  1.0  0.1226
  H  H15  1  0.830000  0.615000  0.865300  1.0  0.1081
  H  H16  1  0.921900  0.811400  0.789300  1.0  0.095
  H  H17  1  0.051200  0.927500  0.828900  1.0  0.1207
  H  H18  1  0.135900  0.684900  0.980000  1.0  0.112
  H  H19  1  0.007500  0.567500  0.940200  1.0  0.1173
  H  H20  1  0.234800  0.786500  0.649900  1.0  0.1147
  H  H21  1  0.431600  0.974700  0.781700  1.0  0.1214
  H  H22  1  0.293500  0.708700  0.845900  1.0  0.1094
  H  H23  1  0.399700  0.314500  0.834600  1.0  0.114
  H  H24  1  0.312100  0.476400  0.775800  1.0  0.1074
  H  H25  1  0.138400  0.416500  0.875700  1.0  0.1116
  H  H26  1  0.224900  0.254200  0.934200  1.0  0.1091
  H  H27  1  0.099500  0.547400  0.767700  1.0  0.1075
  H  H28  1  0.161100  0.641900  0.818700  1.0  0.0979
  H  H29  1  0.119300  0.512300  0.662900  1.0  0.1222
  H  H30  1  0.170000  0.615000  0.634700  1.0  0.107
  H  H31  1  0.078100  0.811400  0.710700  1.0  0.094
  H  H32  1  0.948800  0.927500  0.671100  1.0  0.1193
  H  H33  1  0.864100  0.684900  0.520000  1.0  0.1112
  H  H34  1  0.992500  0.567500  0.559800  1.0  0.117
  H  H35  1  0.234800  0.213500  0.149900  1.0  0.1147
  H  H36  1  0.431600  0.025300  0.281700  1.0  0.1213
  H  H37  1  0.293500  0.291300  0.345900  1.0  0.1094
  H  H38  1  0.399700  0.685500  0.334600  1.0  0.1141
  H  H39  1  0.312100  0.523600  0.275800  1.0  0.1075
  H  H40  1  0.138400  0.583500  0.375700  1.0  0.112
  H  H41  1  0.224900  0.745800  0.434200  1.0  0.109
  H  H42  1  0.099500  0.452600  0.267700  1.0  0.1078
  H  H43  1  0.161100  0.358100  0.318700  1.0  0.0984
  H  H44  1  0.119300  0.487700  0.162900  1.0  0.1245
  H  H45  1  0.170000  0.385000  0.134700  1.0  0.1068
  H  H46  1  0.078100  0.188600  0.210700  1.0  0.0938
  H  H47  1  0.948800  0.072500  0.171100  1.0  0.1202
  H  H48  1  0.864100  0.315100  0.020000  1.0  0.1113
  H  H49  1  0.992500  0.432500  0.059800  1.0  0.1172
  H  H50  1  0.765200  0.213500  0.350100  1.0  0.1154
  H  H51  1  0.568400  0.025300  0.218300  1.0  0.1209
  H  H52  1  0.706500  0.291300  0.154100  1.0  0.1102
  H  H53  1  0.600300  0.685500  0.165400  1.0  0.1139
  H  H54  1  0.687900  0.523600  0.224200  1.0  0.1063
  H  H55  1  0.861600  0.583500  0.124300  1.0  0.1112
  H  H56  1  0.775100  0.745800  0.065800  1.0  0.1089
  H  H57  1  0.900500  0.452600  0.232300  1.0  0.1065
  H  H58  1  0.838900  0.358100  0.181300  1.0  0.0972
  H  H59  1  0.880700  0.487700  0.337100  1.0  0.1239
  H  H60  1  0.830000  0.385000  0.365300  1.0  0.1079
  H  H61  1  0.921900  0.188600  0.289300  1.0  0.0941
  H  H62  1  0.051200  0.072500  0.328900  1.0  0.1206
  H  H63  1  0.135900  0.315100  0.480000  1.0  0.1118
  H  H64  1  0.007500  0.432500  0.440200  1.0  0.1168
  C  C65  1  0.747600  0.727800  0.754800  1.0  0.1737
  C  C66  1  0.731300  0.800500  0.806000  1.0  -0.1345
  C  C67  1  0.666100  0.892200  0.792400  1.0  -0.1457
  C  C68  1  0.613300  0.914300  0.727300  1.0  0.0125
  C  C69  1  0.629200  0.843500  0.675700  1.0  -0.131
  C  C70  1  0.695900  0.753200  0.689300  1.0  -0.1644
  C  C71  1  0.575300  0.867500  0.604000  1.0  0.7797
  C  C72  1  0.618700  0.168200  0.568700  1.0  0.7607
  C  C73  1  0.678100  0.268000  0.608800  1.0  -0.1417
  C  C74  1  0.652800  0.335000  0.656700  1.0  -0.0616
  C  C75  1  0.705300  0.432700  0.691800  1.0  -0.0977
  C  C76  1  0.782800  0.466100  0.679500  1.0  0.0875
  C  C77  1  0.808600  0.397000  0.632400  1.0  -0.1174
  C  C78  1  0.756800  0.299400  0.597400  1.0  -0.0446
  C  C79  1  0.839900  0.576600  0.714200  1.0  -0.0937
  C  C80  1  0.865300  0.601800  0.835300  1.0  -0.0867
  C  C81  1  0.949600  0.679200  0.860200  1.0  0.1122
  C  C82  1  0.964600  0.785200  0.828200  1.0  -0.1192
  C  C83  1  0.042200  0.855900  0.852100  1.0  -0.0402
  C  C84  1  0.104900  0.819300  0.909700  1.0  -0.1326
  C  C85  1  0.092300  0.711400  0.941700  1.0  -0.0315
  C  C86  1  0.015300  0.640800  0.917700  1.0  -0.1061
  C  C87  1  0.187500  0.895800  0.937400  1.0  0.7252
  C  C88  1  0.653000  0.967600  0.849700  1.0  0.6727
  C  C89  1  0.252400  0.727800  0.745200  1.0  0.1744
  C  C90  1  0.268700  0.800500  0.694000  1.0  -0.137
  C  C91  1  0.333900  0.892200  0.707600  1.0  -0.1458
  C  C92  1  0.386700  0.914300  0.772700  1.0  0.0132
  C  C93  1  0.370800  0.843500  0.824300  1.0  -0.1312
  C  C94  1  0.304100  0.753200  0.810700  1.0  -0.1636
  C  C95  1  0.424700  0.867500  0.896000  1.0  0.7816
  C  C96  1  0.381300  0.168200  0.931300  1.0  0.7601
  C  C97  1  0.321900  0.268000  0.891200  1.0  -0.1414
  C  C98  1  0.347200  0.335000  0.843300  1.0  -0.0598
  C  C99  1  0.294700  0.432700  0.808200  1.0  -0.0978
  C  C100  1  0.217200  0.466100  0.820500  1.0  0.0876
  C  C101  1  0.191400  0.397000  0.867600  1.0  -0.1173
  C  C102  1  0.243200  0.299400  0.902600  1.0  -0.044
  C  C103  1  0.160100  0.576600  0.785800  1.0  -0.0925
  C  C104  1  0.134700  0.601800  0.664700  1.0  -0.0862
  C  C105  1  0.050400  0.679200  0.639800  1.0  0.1103
  C  C106  1  0.035400  0.785200  0.671800  1.0  -0.1194
  C  C107  1  0.957800  0.855900  0.647900  1.0  -0.041
  C  C108  1  0.895100  0.819300  0.590300  1.0  -0.1325
  C  C109  1  0.907700  0.711400  0.558300  1.0  -0.0296
  C  C110  1  0.984700  0.640800  0.582300  1.0  -0.1056
  C  C111  1  0.812500  0.895800  0.562600  1.0  0.7257
  C  C112  1  0.347000  0.967600  0.650300  1.0  0.6735
  C  C113  1  0.252400  0.272200  0.245200  1.0  0.1755
  C  C114  1  0.268700  0.199500  0.194000  1.0  -0.1362
  C  C115  1  0.333900  0.107800  0.207600  1.0  -0.1465
  C  C116  1  0.386700  0.085700  0.272700  1.0  0.0133
  C  C117  1  0.370800  0.156500  0.324300  1.0  -0.1311
  C  C118  1  0.304100  0.246800  0.310700  1.0  -0.1637
  C  C119  1  0.424700  0.132500  0.396000  1.0  0.7815
  C  C120  1  0.381300  0.831800  0.431300  1.0  0.7608
  C  C121  1  0.321900  0.732000  0.391200  1.0  -0.1418
  C  C122  1  0.347200  0.665000  0.343300  1.0  -0.0598
  C  C123  1  0.294700  0.567300  0.308200  1.0  -0.0981
  C  C124  1  0.217200  0.533900  0.320500  1.0  0.0867
  C  C125  1  0.191400  0.603000  0.367600  1.0  -0.118
  C  C126  1  0.243200  0.700600  0.402600  1.0  -0.0443
  C  C127  1  0.160100  0.423400  0.285800  1.0  -0.0917
  C  C128  1  0.134700  0.398200  0.164700  1.0  -0.0862
  C  C129  1  0.050400  0.320800  0.139800  1.0  0.1102
  C  C130  1  0.035400  0.214800  0.171800  1.0  -0.12
  C  C131  1  0.957800  0.144100  0.147900  1.0  -0.0428
  C  C132  1  0.895100  0.180700  0.090300  1.0  -0.1357
  C  C133  1  0.907700  0.288600  0.058300  1.0  -0.0306
  C  C134  1  0.984700  0.359200  0.082300  1.0  -0.1043
  C  C135  1  0.812500  0.104200  0.062600  1.0  0.7253
  C  C136  1  0.347000  0.032400  0.150300  1.0  0.673
  C  C137  1  0.747600  0.272200  0.254800  1.0  0.1742
  C  C138  1  0.731300  0.199500  0.306000  1.0  -0.1343
  C  C139  1  0.666100  0.107800  0.292400  1.0  -0.1449
  C  C140  1  0.613300  0.085700  0.227300  1.0  0.0124
  C  C141  1  0.629200  0.156500  0.175700  1.0  -0.131
  C  C142  1  0.695900  0.246800  0.189300  1.0  -0.1637
  C  C143  1  0.575300  0.132500  0.104000  1.0  0.7807
  C  C144  1  0.618700  0.831800  0.068700  1.0  0.7612
  C  C145  1  0.678100  0.732000  0.108800  1.0  -0.1418
  C  C146  1  0.652800  0.665000  0.156700  1.0  -0.062
  C  C147  1  0.705300  0.567300  0.191800  1.0  -0.0988
  C  C148  1  0.782800  0.533900  0.179500  1.0  0.0864
  C  C149  1  0.808600  0.603000  0.132400  1.0  -0.1166
  C  C150  1  0.756800  0.700600  0.097400  1.0  -0.0449
  C  C151  1  0.839900  0.423400  0.214200  1.0  -0.0919
  C  C152  1  0.865300  0.398200  0.335300  1.0  -0.0898
  C  C153  1  0.949600  0.320800  0.360200  1.0  0.1122
  C  C154  1  0.964600  0.214800  0.328200  1.0  -0.1182
  C  C155  1  0.042200  0.144100  0.352100  1.0  -0.0424
  C  C156  1  0.104900  0.180700  0.409700  1.0  -0.1311
  C  C157  1  0.092300  0.288600  0.441700  1.0  -0.0316
  C  C158  1  0.015300  0.359200  0.417700  1.0  -0.1064
  C  C159  1  0.187500  0.104200  0.437400  1.0  0.7266
  C  C160  1  0.653000  0.032400  0.349700  1.0  0.6729
  N  N161  1  0.812200  0.632600  0.767900  1.0  -0.1307
  N  N162  1  0.187800  0.632600  0.732100  1.0  -0.1292
  N  N163  1  0.187800  0.367400  0.232100  1.0  -0.1289
  N  N164  1  0.812200  0.367400  0.267900  1.0  -0.1305
  O  O165  1  0.502000  0.920300  0.592560  1.0  -0.7092
  O  O166  1  0.607900  0.831200  0.559430  1.0  -0.6984
  O  O167  1  0.539500  0.170100  0.566900  1.0  -0.7734
  O  O168  1  0.651400  0.088100  0.538190  1.0  -0.7311
  O  O169  1  0.195500  0.991900  0.900500  1.0  -0.5153
  O  O170  1  0.241900  0.866800  0.989700  1.0  -0.6408
  O  O171  1  0.688600  0.929500  0.908360  1.0  -0.6714
  O  O172  1  0.605600  0.066000  0.838510  1.0  -0.6182
  O  O173  1  0.498000  0.920300  0.907440  1.0  -0.71
  O  O174  1  0.392100  0.831200  0.940570  1.0  -0.6963
  O  O175  1  0.460500  0.170100  0.933100  1.0  -0.7719
  O  O176  1  0.348600  0.088100  0.961810  1.0  -0.7318
  O  O177  1  0.804500  0.991900  0.599500  1.0  -0.5136
  O  O178  1  0.758100  0.866800  0.510300  1.0  -0.6405
  O  O179  1  0.311400  0.929500  0.591640  1.0  -0.6722
  O  O180  1  0.394400  0.066000  0.661490  1.0  -0.6198
  O  O181  1  0.498000  0.079700  0.407440  1.0  -0.7106
  O  O182  1  0.392100  0.168800  0.440570  1.0  -0.6972
  O  O183  1  0.460500  0.829900  0.433100  1.0  -0.7722
  O  O184  1  0.348600  0.911900  0.461810  1.0  -0.7313
  O  O185  1  0.804500  0.008100  0.099500  1.0  -0.5149
  O  O186  1  0.758100  0.133200  0.010300  1.0  -0.6404
  O  O187  1  0.311400  0.070500  0.091640  1.0  -0.6721
  O  O188  1  0.394400  0.934000  0.161490  1.0  -0.6168
  O  O189  1  0.502000  0.079700  0.092560  1.0  -0.7102
  O  O190  1  0.607900  0.168800  0.059430  1.0  -0.6978
  O  O191  1  0.539500  0.829900  0.066900  1.0  -0.7731
  O  O192  1  0.651400  0.911900  0.038190  1.0  -0.7312
  O  O193  1  0.195500  0.008100  0.400500  1.0  -0.5168
  O  O194  1  0.241900  0.133200  0.489700  1.0  -0.6412
  O  O195  1  0.688600  0.070500  0.408360  1.0  -0.6715
  O  O196  1  0.605600  0.934000  0.338510  1.0  -0.6182
