# generated using pymatgen
data_GdH15C24NO8
_symmetry_space_group_name_H-M   'P 1'
_cell_length_a   15.89400000
_cell_length_b   10.49100000
_cell_length_c   20.90900000
_cell_angle_alpha   90.00000000
_cell_angle_beta   107.84100000
_cell_angle_gamma   90.00000000
_symmetry_Int_Tables_number   1
_chemical_formula_structural   GdH15C24NO8
_chemical_formula_sum   'Gd4 H60 C96 N4 O32'
_cell_volume   3318.78737336
_cell_formula_units_Z   4
loop_
 _symmetry_equiv_pos_site_id
 _symmetry_equiv_pos_as_xyz
  1  'x, y, z'
loop_
 _atom_site_type_symbol
 _atom_site_label
 _atom_site_symmetry_multiplicity
 _atom_site_fract_x
 _atom_site_fract_y
 _atom_site_fract_z
 _atom_site_occupancy
 _atom_site_charge
  Gd  Gd1  1  0.399370  0.078180  0.545540  1.0  2.1975
  Gd  Gd2  1  0.600620  0.078180  0.954460  1.0  2.199
  Gd  Gd3  1  0.600620  0.921820  0.454460  1.0  2.1992
  Gd  Gd4  1  0.399370  0.921820  0.045540  1.0  2.1978
  H  H5  1  0.881500  0.512800  0.837800  1.0  0.1158
  H  H6  1  0.831400  0.615700  0.866500  1.0  0.1076
  H  H7  1  0.008000  0.567300  0.939700  1.0  0.118
  H  H8  1  0.136800  0.683600  0.980100  1.0  0.1105
  H  H9  1  0.051100  0.928200  0.827700  1.0  0.1184
  H  H10  1  0.922000  0.812300  0.788500  1.0  0.0991
  H  H11  1  0.765500  0.787500  0.851300  1.0  0.118
  H  H12  1  0.568000  0.974600  0.718800  1.0  0.1224
  H  H13  1  0.705900  0.709500  0.654000  1.0  0.1088
  H  H14  1  0.899200  0.547200  0.733200  1.0  0.1025
  H  H15  1  0.838200  0.642400  0.682000  1.0  0.0955
  H  H16  1  0.688300  0.476200  0.725400  1.0  0.1097
  H  H17  1  0.600700  0.313800  0.666500  1.0  0.1173
  H  H18  1  0.773900  0.250800  0.567000  1.0  0.109
  H  H19  1  0.859100  0.420400  0.622300  1.0  0.1113
  H  H20  1  0.118500  0.512800  0.662200  1.0  0.1154
  H  H21  1  0.168600  0.615700  0.633500  1.0  0.1073
  H  H22  1  0.992000  0.567300  0.560300  1.0  0.1175
  H  H23  1  0.863200  0.683600  0.519900  1.0  0.1096
  H  H24  1  0.948900  0.928200  0.672300  1.0  0.1176
  H  H25  1  0.078000  0.812300  0.711500  1.0  0.0987
  H  H26  1  0.234500  0.787500  0.648700  1.0  0.1176
  H  H27  1  0.432000  0.974600  0.781200  1.0  0.1226
  H  H28  1  0.294100  0.709500  0.846000  1.0  0.1082
  H  H29  1  0.100800  0.547200  0.766800  1.0  0.1039
  H  H30  1  0.161800  0.642400  0.818000  1.0  0.0969
  H  H31  1  0.311700  0.476200  0.774600  1.0  0.1103
  H  H32  1  0.399300  0.313800  0.833500  1.0  0.1172
  H  H33  1  0.226100  0.250800  0.933000  1.0  0.109
  H  H34  1  0.140900  0.420400  0.877700  1.0  0.1119
  H  H35  1  0.118500  0.487200  0.162200  1.0  0.1177
  H  H36  1  0.168600  0.384300  0.133500  1.0  0.1068
  H  H37  1  0.992000  0.432700  0.060300  1.0  0.1178
  H  H38  1  0.863200  0.316400  0.019900  1.0  0.1099
  H  H39  1  0.948900  0.071800  0.172300  1.0  0.118
  H  H40  1  0.078000  0.187700  0.211500  1.0  0.0985
  H  H41  1  0.234500  0.212500  0.148700  1.0  0.1175
  H  H42  1  0.432000  0.025400  0.281200  1.0  0.1225
  H  H43  1  0.294100  0.290500  0.346000  1.0  0.1082
  H  H44  1  0.100800  0.452800  0.266800  1.0  0.1043
  H  H45  1  0.161800  0.357600  0.318000  1.0  0.0972
  H  H46  1  0.311700  0.523800  0.274600  1.0  0.11
  H  H47  1  0.399300  0.686200  0.333500  1.0  0.1173
  H  H48  1  0.226100  0.749200  0.433000  1.0  0.1089
  H  H49  1  0.140900  0.579600  0.377700  1.0  0.1117
  H  H50  1  0.881500  0.487200  0.337800  1.0  0.1173
  H  H51  1  0.831400  0.384300  0.366500  1.0  0.1075
  H  H52  1  0.008000  0.432700  0.439700  1.0  0.1175
  H  H53  1  0.136800  0.316400  0.480100  1.0  0.1103
  H  H54  1  0.051100  0.071800  0.327700  1.0  0.1182
  H  H55  1  0.922000  0.187700  0.288500  1.0  0.0984
  H  H56  1  0.765500  0.212500  0.351300  1.0  0.1182
  H  H57  1  0.568000  0.025400  0.218800  1.0  0.1223
  H  H58  1  0.705900  0.290500  0.154000  1.0  0.1087
  H  H59  1  0.899200  0.452800  0.233200  1.0  0.1032
  H  H60  1  0.838200  0.357600  0.182000  1.0  0.0957
  H  H61  1  0.688300  0.523800  0.225400  1.0  0.1095
  H  H62  1  0.600700  0.686200  0.166500  1.0  0.1172
  H  H63  1  0.773900  0.749200  0.067000  1.0  0.1089
  H  H64  1  0.859100  0.579600  0.122300  1.0  0.1108
  C  C65  1  0.866100  0.602500  0.836100  1.0  -0.0837
  C  C66  1  0.950400  0.680300  0.860600  1.0  0.0482
  C  C67  1  0.015800  0.641000  0.917500  1.0  -0.109
  C  C68  1  0.093200  0.710900  0.941800  1.0  -0.0288
  C  C69  1  0.105900  0.820600  0.909500  1.0  -0.1488
  C  C70  1  0.042300  0.856800  0.851200  1.0  -0.0314
  C  C71  1  0.964900  0.786500  0.827600  1.0  -0.1174
  C  C72  1  0.187600  0.894800  0.936500  1.0  0.7195
  C  C73  1  0.748200  0.728200  0.755800  1.0  0.1649
  C  C74  1  0.731500  0.801000  0.807000  1.0  -0.1411
  C  C75  1  0.666000  0.891900  0.792800  1.0  -0.1275
  C  C76  1  0.613000  0.914300  0.727800  1.0  -0.0014
  C  C77  1  0.628800  0.844300  0.676000  1.0  -0.1248
  C  C78  1  0.695600  0.753900  0.689400  1.0  -0.1494
  C  C79  1  0.575000  0.867300  0.603700  1.0  0.7809
  C  C80  1  0.653100  0.968400  0.850900  1.0  0.6985
  C  C81  1  0.838800  0.577000  0.714900  1.0  -0.0825
  C  C82  1  0.705200  0.432800  0.692600  1.0  -0.0982
  C  C83  1  0.782000  0.467300  0.679700  1.0  0.0991
  C  C84  1  0.652800  0.334800  0.657500  1.0  -0.0475
  C  C85  1  0.677300  0.268600  0.609500  1.0  -0.1312
  C  C86  1  0.617900  0.167100  0.568800  1.0  0.7596
  C  C87  1  0.755500  0.298300  0.597800  1.0  -0.0549
  C  C88  1  0.807400  0.398900  0.631800  1.0  -0.1233
  C  C89  1  0.133900  0.602500  0.663900  1.0  -0.0828
  C  C90  1  0.049600  0.680300  0.639400  1.0  0.0455
  C  C91  1  0.984200  0.641000  0.582500  1.0  -0.109
  C  C92  1  0.906800  0.710900  0.558200  1.0  -0.0237
  C  C93  1  0.894100  0.820600  0.590500  1.0  -0.1461
  C  C94  1  0.957700  0.856800  0.648800  1.0  -0.0314
  C  C95  1  0.035100  0.786500  0.672400  1.0  -0.1184
  C  C96  1  0.812400  0.894800  0.563500  1.0  0.719
  C  C97  1  0.251800  0.728200  0.744200  1.0  0.166
  C  C98  1  0.268500  0.801000  0.693000  1.0  -0.1434
  C  C99  1  0.334000  0.891900  0.707200  1.0  -0.1278
  C  C100  1  0.387000  0.914300  0.772200  1.0  -0.0013
  C  C101  1  0.371200  0.844300  0.824000  1.0  -0.1245
  C  C102  1  0.304400  0.753900  0.810600  1.0  -0.1493
  C  C103  1  0.425000  0.867300  0.896300  1.0  0.7828
  C  C104  1  0.346900  0.968400  0.649100  1.0  0.6985
  C  C105  1  0.161200  0.577000  0.785100  1.0  -0.0817
  C  C106  1  0.294800  0.432800  0.807400  1.0  -0.0983
  C  C107  1  0.218000  0.467300  0.820300  1.0  0.0984
  C  C108  1  0.347200  0.334800  0.842500  1.0  -0.0465
  C  C109  1  0.322700  0.268600  0.890500  1.0  -0.1314
  C  C110  1  0.382100  0.167100  0.931200  1.0  0.7583
  C  C111  1  0.244500  0.298300  0.902200  1.0  -0.0554
  C  C112  1  0.192600  0.398900  0.868200  1.0  -0.1219
  C  C113  1  0.133900  0.397500  0.163900  1.0  -0.0824
  C  C114  1  0.049600  0.319700  0.139400  1.0  0.0455
  C  C115  1  0.984200  0.359000  0.082500  1.0  -0.1074
  C  C116  1  0.906800  0.289100  0.058200  1.0  -0.0239
  C  C117  1  0.894100  0.179400  0.090500  1.0  -0.1507
  C  C118  1  0.957700  0.143200  0.148800  1.0  -0.0345
  C  C119  1  0.035100  0.213500  0.172400  1.0  -0.1196
  C  C120  1  0.812400  0.105200  0.063500  1.0  0.7183
  C  C121  1  0.251800  0.271800  0.244200  1.0  0.166
  C  C122  1  0.268500  0.199000  0.193000  1.0  -0.1428
  C  C123  1  0.334000  0.108100  0.207200  1.0  -0.1282
  C  C124  1  0.387000  0.085700  0.272200  1.0  -0.0012
  C  C125  1  0.371200  0.155700  0.324000  1.0  -0.1245
  C  C126  1  0.304400  0.246100  0.310600  1.0  -0.1491
  C  C127  1  0.425000  0.132700  0.396300  1.0  0.7821
  C  C128  1  0.346900  0.031600  0.149100  1.0  0.6986
  C  C129  1  0.161200  0.423000  0.285100  1.0  -0.0821
  C  C130  1  0.294800  0.567200  0.307400  1.0  -0.0996
  C  C131  1  0.218000  0.532700  0.320300  1.0  0.0988
  C  C132  1  0.347200  0.665200  0.342500  1.0  -0.0468
  C  C133  1  0.322700  0.731400  0.390500  1.0  -0.1317
  C  C134  1  0.382100  0.832900  0.431200  1.0  0.759
  C  C135  1  0.244500  0.701700  0.402200  1.0  -0.0555
  C  C136  1  0.192600  0.601100  0.368200  1.0  -0.1232
  C  C137  1  0.866100  0.397500  0.336100  1.0  -0.086
  C  C138  1  0.950400  0.319700  0.360600  1.0  0.049
  C  C139  1  0.015800  0.359000  0.417500  1.0  -0.1087
  C  C140  1  0.093200  0.289100  0.441800  1.0  -0.0285
  C  C141  1  0.105900  0.179400  0.409500  1.0  -0.1475
  C  C142  1  0.042300  0.143200  0.351200  1.0  -0.0332
  C  C143  1  0.964900  0.213500  0.327600  1.0  -0.1168
  C  C144  1  0.187600  0.105200  0.436500  1.0  0.7206
  C  C145  1  0.748200  0.271800  0.255800  1.0  0.1653
  C  C146  1  0.731500  0.199000  0.307000  1.0  -0.1408
  C  C147  1  0.666000  0.108100  0.292800  1.0  -0.1267
  C  C148  1  0.613000  0.085700  0.227800  1.0  -0.0017
  C  C149  1  0.628800  0.155700  0.176000  1.0  -0.1247
  C  C150  1  0.695600  0.246100  0.189400  1.0  -0.1487
  C  C151  1  0.575000  0.132700  0.103700  1.0  0.7817
  C  C152  1  0.653100  0.031600  0.350900  1.0  0.699
  C  C153  1  0.838800  0.423000  0.214900  1.0  -0.0818
  C  C154  1  0.705200  0.567200  0.192600  1.0  -0.1
  C  C155  1  0.782000  0.532700  0.179700  1.0  0.0988
  C  C156  1  0.652800  0.665200  0.157500  1.0  -0.048
  C  C157  1  0.677300  0.731400  0.109500  1.0  -0.1311
  C  C158  1  0.617900  0.832900  0.068800  1.0  0.76
  C  C159  1  0.755500  0.701700  0.097800  1.0  -0.0545
  C  C160  1  0.807400  0.601100  0.131800  1.0  -0.1236
  N  N161  1  0.811900  0.633500  0.768400  1.0  -0.1179
  N  N162  1  0.188100  0.633500  0.731600  1.0  -0.1166
  N  N163  1  0.188100  0.366500  0.231600  1.0  -0.1163
  N  N164  1  0.811900  0.366500  0.268400  1.0  -0.1178
  O  O165  1  0.605100  0.066500  0.838800  1.0  -0.6199
  O  O166  1  0.539300  0.168600  0.567900  1.0  -0.7707
  O  O167  1  0.651000  0.087300  0.538600  1.0  -0.7289
  O  O168  1  0.607200  0.831300  0.559300  1.0  -0.7006
  O  O169  1  0.500900  0.920500  0.592500  1.0  -0.6832
  O  O170  1  0.688400  0.929900  0.909500  1.0  -0.6757
  O  O171  1  0.196400  0.990700  0.899600  1.0  -0.5238
  O  O172  1  0.243300  0.866400  0.989200  1.0  -0.7136
  O  O173  1  0.394900  0.066500  0.661200  1.0  -0.6218
  O  O174  1  0.460700  0.168600  0.932100  1.0  -0.7697
  O  O175  1  0.349000  0.087300  0.961400  1.0  -0.73
  O  O176  1  0.392800  0.831300  0.940700  1.0  -0.698
  O  O177  1  0.499100  0.920500  0.907500  1.0  -0.6836
  O  O178  1  0.311600  0.929900  0.590500  1.0  -0.6767
  O  O179  1  0.803600  0.990700  0.600400  1.0  -0.5237
  O  O180  1  0.756700  0.866400  0.510800  1.0  -0.7129
  O  O181  1  0.394900  0.933500  0.161200  1.0  -0.6186
  O  O182  1  0.460700  0.831400  0.432100  1.0  -0.7698
  O  O183  1  0.349000  0.912700  0.461400  1.0  -0.7293
  O  O184  1  0.392800  0.168700  0.440700  1.0  -0.698
  O  O185  1  0.499100  0.079500  0.407500  1.0  -0.6843
  O  O186  1  0.311600  0.070100  0.090500  1.0  -0.6766
  O  O187  1  0.803600  0.009300  0.100400  1.0  -0.5245
  O  O188  1  0.756700  0.133600  0.010800  1.0  -0.7123
  O  O189  1  0.605100  0.933500  0.338800  1.0  -0.6208
  O  O190  1  0.539300  0.831400  0.067900  1.0  -0.7705
  O  O191  1  0.651000  0.912700  0.038600  1.0  -0.729
  O  O192  1  0.607200  0.168700  0.059300  1.0  -0.6995
  O  O193  1  0.500900  0.079500  0.092500  1.0  -0.6843
  O  O194  1  0.688400  0.070100  0.409500  1.0  -0.6758
  O  O195  1  0.196400  0.009300  0.399600  1.0  -0.5247
  O  O196  1  0.243300  0.133600  0.489200  1.0  -0.7146
