# generated using pymatgen
data_AgH8(C6N)2
_symmetry_space_group_name_H-M   'P 1'
_cell_length_a   10.34830000
_cell_length_b   12.57460000
_cell_length_c   45.80200000
_cell_angle_alpha   90.00000000
_cell_angle_beta   90.00000000
_cell_angle_gamma   90.00000000
_symmetry_Int_Tables_number   1
_chemical_formula_structural   AgH8(C6N)2
_chemical_formula_sum   'Ag16 H128 C192 N32'
_cell_volume   5960.01883111
_cell_formula_units_Z   16
loop_
 _symmetry_equiv_pos_site_id
 _symmetry_equiv_pos_as_xyz
  1  'x, y, z'
loop_
 _atom_site_type_symbol
 _atom_site_label
 _atom_site_symmetry_multiplicity
 _atom_site_fract_x
 _atom_site_fract_y
 _atom_site_fract_z
 _atom_site_occupancy
 _atom_site_charge
  Ag  Ag1  1  0.331440  0.383140  0.996010  1.0  0.1808
  Ag  Ag2  1  0.831440  0.883140  0.996010  1.0  0.1808
  Ag  Ag3  1  0.668560  0.616860  0.496010  1.0  0.1819
  Ag  Ag4  1  0.168560  0.116860  0.496010  1.0  0.1819
  Ag  Ag5  1  0.668560  0.383140  0.503990  1.0  0.1811
  Ag  Ag6  1  0.168560  0.883140  0.503990  1.0  0.1811
  Ag  Ag7  1  0.331440  0.616860  0.003990  1.0  0.1819
  Ag  Ag8  1  0.831440  0.116860  0.003990  1.0  0.1819
  Ag  Ag9  1  0.500000  0.487170  0.250000  1.0  0.2113
  Ag  Ag10  1  0.500000  0.251790  0.250000  1.0  0.3016
  Ag  Ag11  1  0.000000  0.987170  0.250000  1.0  0.2113
  Ag  Ag12  1  0.000000  0.751790  0.250000  1.0  0.3016
  Ag  Ag13  1  0.500000  0.512830  0.750000  1.0  0.2103
  Ag  Ag14  1  0.500000  0.748210  0.750000  1.0  0.3023
  Ag  Ag15  1  0.000000  0.012830  0.750000  1.0  0.2103
  Ag  Ag16  1  0.000000  0.248210  0.750000  1.0  0.3023
  H  H17  1  0.203700  0.483600  0.236900  1.0  0.0632
  H  H18  1  0.058300  0.460000  0.196500  1.0  0.0976
  H  H19  1  0.144800  0.439600  0.150300  1.0  0.083
  H  H20  1  0.503900  0.457100  0.184300  1.0  0.0506
  H  H21  1  0.332600  0.414700  0.061100  1.0  0.0541
  H  H22  1  0.693900  0.432400  0.094500  1.0  0.0927
  H  H23  1  0.773100  0.407900  0.046600  1.0  0.0921
  H  H24  1  0.635100  0.389300  0.009500  1.0  0.0498
  H  H25  1  0.798400  0.280600  0.246900  1.0  0.0504
  H  H26  1  0.971700  0.253600  0.213900  1.0  0.0891
  H  H27  1  0.927300  0.229200  0.165200  1.0  0.0814
  H  H28  1  0.544900  0.229900  0.183900  1.0  0.0665
  H  H29  1  0.803200  0.141900  0.070300  1.0  0.066
  H  H30  1  0.423600  0.158500  0.093000  1.0  0.0866
  H  H31  1  0.369700  0.112700  0.045100  1.0  0.0862
  H  H32  1  0.532400  0.102800  0.010300  1.0  0.055
  H  H33  1  0.703700  0.983600  0.236900  1.0  0.0632
  H  H34  1  0.558300  0.960000  0.196500  1.0  0.0976
  H  H35  1  0.644800  0.939600  0.150300  1.0  0.083
  H  H36  1  0.003900  0.957100  0.184300  1.0  0.0506
  H  H37  1  0.832600  0.914700  0.061100  1.0  0.0541
  H  H38  1  0.193900  0.932400  0.094500  1.0  0.0927
  H  H39  1  0.273100  0.907900  0.046600  1.0  0.0921
  H  H40  1  0.135100  0.889300  0.009500  1.0  0.0498
  H  H41  1  0.298400  0.780600  0.246900  1.0  0.0504
  H  H42  1  0.471700  0.753600  0.213900  1.0  0.0891
  H  H43  1  0.427300  0.729200  0.165200  1.0  0.0814
  H  H44  1  0.044900  0.729900  0.183900  1.0  0.0665
  H  H45  1  0.303200  0.641900  0.070300  1.0  0.0666
  H  H46  1  0.923600  0.658500  0.093000  1.0  0.0866
  H  H47  1  0.869700  0.612700  0.045100  1.0  0.0862
  H  H48  1  0.032400  0.602800  0.010300  1.0  0.055
  H  H49  1  0.796300  0.516400  0.736900  1.0  0.0639
  H  H50  1  0.941700  0.540000  0.696500  1.0  0.0966
  H  H51  1  0.855200  0.560400  0.650300  1.0  0.0838
  H  H52  1  0.496100  0.542900  0.684300  1.0  0.05
  H  H53  1  0.667400  0.585300  0.561100  1.0  0.0542
  H  H54  1  0.306100  0.567600  0.594500  1.0  0.0933
  H  H55  1  0.226900  0.592100  0.546600  1.0  0.0891
  H  H56  1  0.364900  0.610700  0.509500  1.0  0.0498
  H  H57  1  0.201600  0.719400  0.746900  1.0  0.0504
  H  H58  1  0.028300  0.746400  0.713900  1.0  0.0898
  H  H59  1  0.072700  0.770800  0.665200  1.0  0.0809
  H  H60  1  0.455100  0.770100  0.683900  1.0  0.0665
  H  H61  1  0.196800  0.858100  0.570300  1.0  0.0666
  H  H62  1  0.576400  0.841500  0.593000  1.0  0.0869
  H  H63  1  0.630300  0.887300  0.545100  1.0  0.0865
  H  H64  1  0.467600  0.897200  0.510300  1.0  0.0547
  H  H65  1  0.296300  0.016400  0.736900  1.0  0.0639
  H  H66  1  0.441700  0.040000  0.696500  1.0  0.0966
  H  H67  1  0.355200  0.060400  0.650300  1.0  0.0838
  H  H68  1  0.996100  0.042900  0.684300  1.0  0.05
  H  H69  1  0.167400  0.085300  0.561100  1.0  0.0542
  H  H70  1  0.806100  0.067600  0.594500  1.0  0.0933
  H  H71  1  0.726900  0.092100  0.546600  1.0  0.0891
  H  H72  1  0.864900  0.110700  0.509500  1.0  0.0498
  H  H73  1  0.701600  0.219400  0.746900  1.0  0.0504
  H  H74  1  0.528300  0.246400  0.713900  1.0  0.0898
  H  H75  1  0.572700  0.270800  0.665200  1.0  0.0809
  H  H76  1  0.955100  0.270100  0.683900  1.0  0.0665
  H  H77  1  0.696800  0.358100  0.570300  1.0  0.0681
  H  H78  1  0.076400  0.341500  0.593000  1.0  0.0869
  H  H79  1  0.130300  0.387300  0.545100  1.0  0.0865
  H  H80  1  0.967600  0.397200  0.510300  1.0  0.0547
  H  H81  1  0.796300  0.483600  0.263100  1.0  0.0652
  H  H82  1  0.941700  0.460000  0.303500  1.0  0.0964
  H  H83  1  0.855200  0.439600  0.349700  1.0  0.0834
  H  H84  1  0.496100  0.457100  0.315700  1.0  0.0496
  H  H85  1  0.667400  0.414700  0.438900  1.0  0.0542
  H  H86  1  0.306100  0.432400  0.405500  1.0  0.0925
  H  H87  1  0.226900  0.407900  0.453400  1.0  0.089
  H  H88  1  0.364900  0.389300  0.490500  1.0  0.0492
  H  H89  1  0.201600  0.280600  0.253100  1.0  0.0508
  H  H90  1  0.028300  0.253600  0.286100  1.0  0.0897
  H  H91  1  0.072700  0.229200  0.334800  1.0  0.0815
  H  H92  1  0.455100  0.229900  0.316100  1.0  0.0664
  H  H93  1  0.196800  0.141900  0.429700  1.0  0.0666
  H  H94  1  0.576400  0.158500  0.407000  1.0  0.0868
  H  H95  1  0.630300  0.112700  0.454900  1.0  0.0866
  H  H96  1  0.467600  0.102800  0.489700  1.0  0.0547
  H  H97  1  0.296300  0.983600  0.263100  1.0  0.0652
  H  H98  1  0.441700  0.960000  0.303500  1.0  0.0964
  H  H99  1  0.355200  0.939600  0.349700  1.0  0.0834
  H  H100  1  0.996100  0.957100  0.315700  1.0  0.0496
  H  H101  1  0.167400  0.914700  0.438900  1.0  0.0542
  H  H102  1  0.806100  0.932400  0.405500  1.0  0.0925
  H  H103  1  0.726900  0.907900  0.453400  1.0  0.089
  H  H104  1  0.864900  0.889300  0.490500  1.0  0.0492
  H  H105  1  0.701600  0.780600  0.253100  1.0  0.0508
  H  H106  1  0.528300  0.753600  0.286100  1.0  0.0897
  H  H107  1  0.572700  0.729200  0.334800  1.0  0.0815
  H  H108  1  0.955100  0.729900  0.316100  1.0  0.0664
  H  H109  1  0.696800  0.641900  0.429700  1.0  0.0681
  H  H110  1  0.076400  0.658500  0.407000  1.0  0.0868
  H  H111  1  0.130300  0.612700  0.454900  1.0  0.0866
  H  H112  1  0.967600  0.602800  0.489700  1.0  0.0547
  H  H113  1  0.203700  0.516400  0.763100  1.0  0.0653
  H  H114  1  0.058300  0.540000  0.803500  1.0  0.0977
  H  H115  1  0.144800  0.560400  0.849700  1.0  0.0836
  H  H116  1  0.503900  0.542900  0.815700  1.0  0.0503
  H  H117  1  0.332600  0.585300  0.938900  1.0  0.054
  H  H118  1  0.693900  0.567600  0.905500  1.0  0.0924
  H  H119  1  0.773100  0.592100  0.953400  1.0  0.092
  H  H120  1  0.635100  0.610700  0.990500  1.0  0.0487
  H  H121  1  0.798400  0.719400  0.753100  1.0  0.0506
  H  H122  1  0.971700  0.746400  0.786100  1.0  0.0892
  H  H123  1  0.927300  0.770800  0.834800  1.0  0.0814
  H  H124  1  0.544900  0.770100  0.816100  1.0  0.0664
  H  H125  1  0.803200  0.858100  0.929700  1.0  0.066
  H  H126  1  0.423600  0.841500  0.907000  1.0  0.0863
  H  H127  1  0.369700  0.887300  0.954900  1.0  0.0864
  H  H128  1  0.532400  0.897200  0.989700  1.0  0.0544
  H  H129  1  0.703700  0.016400  0.763100  1.0  0.0653
  H  H130  1  0.558300  0.040000  0.803500  1.0  0.0977
  H  H131  1  0.644800  0.060400  0.849700  1.0  0.0836
  H  H132  1  0.003900  0.042900  0.815700  1.0  0.0503
  H  H133  1  0.832600  0.085300  0.938900  1.0  0.054
  H  H134  1  0.193900  0.067600  0.905500  1.0  0.0924
  H  H135  1  0.273100  0.092100  0.953400  1.0  0.092
  H  H136  1  0.135100  0.110700  0.990500  1.0  0.0487
  H  H137  1  0.298400  0.219400  0.753100  1.0  0.0506
  H  H138  1  0.471700  0.246400  0.786100  1.0  0.0892
  H  H139  1  0.427300  0.270800  0.834800  1.0  0.0814
  H  H140  1  0.044900  0.270100  0.816100  1.0  0.0664
  H  H141  1  0.303200  0.358100  0.929700  1.0  0.0666
  H  H142  1  0.923600  0.341500  0.907000  1.0  0.0863
  H  H143  1  0.869700  0.387300  0.954900  1.0  0.0864
  H  H144  1  0.032400  0.397200  0.989700  1.0  0.0544
  C  C145  1  0.237700  0.472900  0.217900  1.0  0.1219
  C  C146  1  0.149200  0.460100  0.193600  1.0  -0.197
  C  C147  1  0.200000  0.448200  0.166700  1.0  -0.076
  C  C148  1  0.334700  0.448600  0.162980  1.0  -0.077
  C  C149  1  0.412900  0.458600  0.187100  1.0  0.1454
  C  C150  1  0.394300  0.439700  0.134000  1.0  -0.0012
  C  C151  1  0.443600  0.434400  0.111200  1.0  0.0777
  C  C152  1  0.502900  0.426500  0.082600  1.0  -0.0558
  C  C153  1  0.423600  0.413800  0.058400  1.0  0.1279
  C  C154  1  0.636400  0.424300  0.078500  1.0  -0.1243
  C  C155  1  0.682800  0.409900  0.050200  1.0  -0.1893
  C  C156  1  0.600300  0.398900  0.028500  1.0  0.1436
  C  C157  1  0.779700  0.265100  0.227100  1.0  0.1295
  C  C158  1  0.884900  0.251000  0.207200  1.0  -0.1789
  C  C159  1  0.858800  0.234000  0.178900  1.0  -0.0918
  C  C160  1  0.730800  0.223400  0.169700  1.0  -0.0355
  C  C161  1  0.632000  0.236200  0.190200  1.0  0.1057
  C  C162  1  0.696000  0.201000  0.141100  1.0  0.0522
  C  C163  1  0.660500  0.177100  0.115800  1.0  0.0312
  C  C164  1  0.620100  0.153800  0.087200  1.0  -0.0485
  C  C165  1  0.714200  0.137800  0.065400  1.0  0.1054
  C  C166  1  0.489700  0.146600  0.078900  1.0  -0.1015
  C  C167  1  0.457400  0.122500  0.050600  1.0  -0.1737
  C  C168  1  0.555200  0.112700  0.030300  1.0  0.1181
  C  C169  1  0.737700  0.972900  0.217900  1.0  0.1219
  C  C170  1  0.649200  0.960100  0.193600  1.0  -0.197
  C  C171  1  0.700000  0.948200  0.166700  1.0  -0.076
  C  C172  1  0.834700  0.948600  0.162980  1.0  -0.077
  C  C173  1  0.912900  0.958600  0.187100  1.0  0.1454
  C  C174  1  0.894300  0.939700  0.134000  1.0  -0.0012
  C  C175  1  0.943600  0.934400  0.111200  1.0  0.0777
  C  C176  1  0.002900  0.926500  0.082600  1.0  -0.0558
  C  C177  1  0.923600  0.913800  0.058400  1.0  0.1279
  C  C178  1  0.136400  0.924300  0.078500  1.0  -0.1243
  C  C179  1  0.182800  0.909900  0.050200  1.0  -0.1893
  C  C180  1  0.100300  0.898900  0.028500  1.0  0.1436
  C  C181  1  0.279700  0.765100  0.227100  1.0  0.1295
  C  C182  1  0.384900  0.751000  0.207200  1.0  -0.1789
  C  C183  1  0.358800  0.734000  0.178900  1.0  -0.0918
  C  C184  1  0.230800  0.723400  0.169700  1.0  -0.0355
  C  C185  1  0.132000  0.736200  0.190200  1.0  0.1057
  C  C186  1  0.196000  0.701000  0.141100  1.0  0.0522
  C  C187  1  0.160500  0.677100  0.115800  1.0  0.0312
  C  C188  1  0.120100  0.653800  0.087200  1.0  -0.0485
  C  C189  1  0.214200  0.637800  0.065400  1.0  0.1054
  C  C190  1  0.989700  0.646600  0.078900  1.0  -0.1015
  C  C191  1  0.957400  0.622500  0.050600  1.0  -0.1737
  C  C192  1  0.055200  0.612700  0.030300  1.0  0.1181
  C  C193  1  0.762300  0.527100  0.717900  1.0  0.122
  C  C194  1  0.850800  0.539900  0.693600  1.0  -0.1972
  C  C195  1  0.800000  0.551800  0.666667  1.0  -0.0775
  C  C196  1  0.665300  0.551400  0.662980  1.0  -0.0764
  C  C197  1  0.587100  0.541400  0.687100  1.0  0.1474
  C  C198  1  0.605700  0.560300  0.634000  1.0  -0.002
  C  C199  1  0.556400  0.565600  0.611200  1.0  0.0791
  C  C200  1  0.497100  0.573500  0.582600  1.0  -0.0568
  C  C201  1  0.576400  0.586200  0.558400  1.0  0.1265
  C  C202  1  0.363600  0.575700  0.578500  1.0  -0.1239
  C  C203  1  0.317200  0.590100  0.550200  1.0  -0.1888
  C  C204  1  0.399700  0.601100  0.528500  1.0  0.1448
  C  C205  1  0.220300  0.734900  0.727100  1.0  0.1295
  C  C206  1  0.115100  0.749000  0.707200  1.0  -0.1802
  C  C207  1  0.141200  0.766000  0.678900  1.0  -0.0918
  C  C208  1  0.269200  0.776600  0.669700  1.0  -0.0355
  C  C209  1  0.368000  0.763800  0.690200  1.0  0.1052
  C  C210  1  0.304000  0.799000  0.641100  1.0  0.0508
  C  C211  1  0.339500  0.822900  0.615800  1.0  0.0314
  C  C212  1  0.379900  0.846200  0.587200  1.0  -0.0473
  C  C213  1  0.285800  0.862200  0.565400  1.0  0.106
  C  C214  1  0.510300  0.853400  0.578900  1.0  -0.1007
  C  C215  1  0.542600  0.877500  0.550600  1.0  -0.1731
  C  C216  1  0.444800  0.887300  0.530300  1.0  0.1192
  C  C217  1  0.262300  0.027100  0.717900  1.0  0.122
  C  C218  1  0.350800  0.039900  0.693600  1.0  -0.1972
  C  C219  1  0.300000  0.051800  0.666667  1.0  -0.0775
  C  C220  1  0.165300  0.051400  0.662980  1.0  -0.0764
  C  C221  1  0.087100  0.041400  0.687100  1.0  0.1474
  C  C222  1  0.105700  0.060300  0.634000  1.0  -0.002
  C  C223  1  0.056400  0.065600  0.611200  1.0  0.0791
  C  C224  1  0.997100  0.073500  0.582600  1.0  -0.0568
  C  C225  1  0.076400  0.086200  0.558400  1.0  0.1265
  C  C226  1  0.863600  0.075700  0.578500  1.0  -0.1239
  C  C227  1  0.817200  0.090100  0.550200  1.0  -0.1888
  C  C228  1  0.899700  0.101100  0.528500  1.0  0.1448
  C  C229  1  0.720300  0.234900  0.727100  1.0  0.1295
  C  C230  1  0.615100  0.249000  0.707200  1.0  -0.1802
  C  C231  1  0.641200  0.266000  0.678900  1.0  -0.0918
  C  C232  1  0.769200  0.276600  0.669700  1.0  -0.0355
  C  C233  1  0.868000  0.263800  0.690200  1.0  0.1052
  C  C234  1  0.804000  0.299000  0.641100  1.0  0.0508
  C  C235  1  0.839500  0.322900  0.615800  1.0  0.0314
  C  C236  1  0.879900  0.346200  0.587200  1.0  -0.0473
  C  C237  1  0.785800  0.362200  0.565400  1.0  0.106
  C  C238  1  0.010300  0.353400  0.578900  1.0  -0.1007
  C  C239  1  0.042600  0.377500  0.550600  1.0  -0.1731
  C  C240  1  0.944800  0.387300  0.530300  1.0  0.1192
  C  C241  1  0.762300  0.472900  0.282100  1.0  0.1215
  C  C242  1  0.850800  0.460100  0.306400  1.0  -0.1972
  C  C243  1  0.800000  0.448200  0.333333  1.0  -0.0778
  C  C244  1  0.665300  0.448600  0.337020  1.0  -0.0749
  C  C245  1  0.587100  0.458600  0.312900  1.0  0.1476
  C  C246  1  0.605700  0.439700  0.366000  1.0  -0.0024
  C  C247  1  0.556400  0.434400  0.388800  1.0  0.0789
  C  C248  1  0.497100  0.426500  0.417400  1.0  -0.0548
  C  C249  1  0.576400  0.413800  0.441600  1.0  0.1265
  C  C250  1  0.363600  0.424300  0.421500  1.0  -0.1235
  C  C251  1  0.317200  0.409900  0.449800  1.0  -0.1895
  C  C252  1  0.399700  0.398900  0.471500  1.0  0.1436
  C  C253  1  0.220300  0.265100  0.272900  1.0  0.1309
  C  C254  1  0.115100  0.251000  0.292800  1.0  -0.1799
  C  C255  1  0.141200  0.234000  0.321100  1.0  -0.0924
  C  C256  1  0.269200  0.223400  0.330300  1.0  -0.0364
  C  C257  1  0.368000  0.236200  0.309800  1.0  0.1048
  C  C258  1  0.304000  0.201000  0.358900  1.0  0.05
  C  C259  1  0.339500  0.177100  0.384200  1.0  0.0314
  C  C260  1  0.379900  0.153800  0.412800  1.0  -0.0491
  C  C261  1  0.285800  0.137800  0.434600  1.0  0.1059
  C  C262  1  0.510300  0.146600  0.421100  1.0  -0.1015
  C  C263  1  0.542600  0.122500  0.449400  1.0  -0.1727
  C  C264  1  0.444800  0.112700  0.469700  1.0  0.1197
  C  C265  1  0.262300  0.972900  0.282100  1.0  0.1215
  C  C266  1  0.350800  0.960100  0.306400  1.0  -0.1972
  C  C267  1  0.300000  0.948200  0.333333  1.0  -0.0778
  C  C268  1  0.165300  0.948600  0.337020  1.0  -0.0749
  C  C269  1  0.087100  0.958600  0.312900  1.0  0.1476
  C  C270  1  0.105700  0.939700  0.366000  1.0  -0.0024
  C  C271  1  0.056400  0.934400  0.388800  1.0  0.0789
  C  C272  1  0.997100  0.926500  0.417400  1.0  -0.0548
  C  C273  1  0.076400  0.913800  0.441600  1.0  0.1265
  C  C274  1  0.863600  0.924300  0.421500  1.0  -0.1235
  C  C275  1  0.817200  0.909900  0.449800  1.0  -0.1895
  C  C276  1  0.899700  0.898900  0.471500  1.0  0.1436
  C  C277  1  0.720300  0.765100  0.272900  1.0  0.1309
  C  C278  1  0.615100  0.751000  0.292800  1.0  -0.1799
  C  C279  1  0.641200  0.734000  0.321100  1.0  -0.0924
  C  C280  1  0.769200  0.723400  0.330300  1.0  -0.0364
  C  C281  1  0.868000  0.736200  0.309800  1.0  0.1048
  C  C282  1  0.804000  0.701000  0.358900  1.0  0.05
  C  C283  1  0.839500  0.677100  0.384200  1.0  0.0314
  C  C284  1  0.879900  0.653800  0.412800  1.0  -0.0491
  C  C285  1  0.785800  0.637800  0.434600  1.0  0.1059
  C  C286  1  0.010300  0.646600  0.421100  1.0  -0.1015
  C  C287  1  0.042600  0.622500  0.449400  1.0  -0.1727
  C  C288  1  0.944800  0.612700  0.469700  1.0  0.1197
  C  C289  1  0.237700  0.527100  0.782100  1.0  0.1213
  C  C290  1  0.149200  0.539900  0.806400  1.0  -0.1967
  C  C291  1  0.200000  0.551800  0.833300  1.0  -0.0753
  C  C292  1  0.334700  0.551400  0.837020  1.0  -0.0771
  C  C293  1  0.412900  0.541400  0.812900  1.0  0.1454
  C  C294  1  0.394300  0.560300  0.866000  1.0  -0.0005
  C  C295  1  0.443600  0.565600  0.888800  1.0  0.0767
  C  C296  1  0.502900  0.573500  0.917400  1.0  -0.0565
  C  C297  1  0.423600  0.586200  0.941600  1.0  0.1275
  C  C298  1  0.636400  0.575700  0.921500  1.0  -0.1231
  C  C299  1  0.682800  0.590100  0.949800  1.0  -0.1889
  C  C300  1  0.600300  0.601100  0.971500  1.0  0.1432
  C  C301  1  0.779700  0.734900  0.772900  1.0  0.1309
  C  C302  1  0.884900  0.749000  0.792800  1.0  -0.1786
  C  C303  1  0.858800  0.766000  0.821100  1.0  -0.093
  C  C304  1  0.730800  0.776600  0.830300  1.0  -0.0363
  C  C305  1  0.632000  0.763800  0.809800  1.0  0.1057
  C  C306  1  0.696000  0.799000  0.858900  1.0  0.0508
  C  C307  1  0.660500  0.822900  0.884200  1.0  0.03
  C  C308  1  0.620100  0.846200  0.912800  1.0  -0.0489
  C  C309  1  0.714200  0.862200  0.934600  1.0  0.106
  C  C310  1  0.489700  0.853400  0.921100  1.0  -0.1014
  C  C311  1  0.457400  0.877500  0.949400  1.0  -0.1745
  C  C312  1  0.555200  0.887300  0.969700  1.0  0.1177
  C  C313  1  0.737700  0.027100  0.782100  1.0  0.1213
  C  C314  1  0.649200  0.039900  0.806400  1.0  -0.1967
  C  C315  1  0.700000  0.051800  0.833300  1.0  -0.0753
  C  C316  1  0.834700  0.051400  0.837020  1.0  -0.0771
  C  C317  1  0.912900  0.041400  0.812900  1.0  0.1454
  C  C318  1  0.894300  0.060300  0.866000  1.0  -0.0005
  C  C319  1  0.943600  0.065600  0.888800  1.0  0.0767
  C  C320  1  0.002900  0.073500  0.917400  1.0  -0.0565
  C  C321  1  0.923600  0.086200  0.941600  1.0  0.1275
  C  C322  1  0.136400  0.075700  0.921500  1.0  -0.1231
  C  C323  1  0.182800  0.090100  0.949800  1.0  -0.1889
  C  C324  1  0.100300  0.101100  0.971500  1.0  0.1432
  C  C325  1  0.279700  0.234900  0.772900  1.0  0.1309
  C  C326  1  0.384900  0.249000  0.792800  1.0  -0.1786
  C  C327  1  0.358800  0.266000  0.821100  1.0  -0.093
  C  C328  1  0.230800  0.276600  0.830300  1.0  -0.0363
  C  C329  1  0.132000  0.263800  0.809800  1.0  0.1057
  C  C330  1  0.196000  0.299000  0.858900  1.0  0.0508
  C  C331  1  0.160500  0.322900  0.884200  1.0  0.03
  C  C332  1  0.120100  0.346200  0.912800  1.0  -0.0489
  C  C333  1  0.214200  0.362200  0.934600  1.0  0.106
  C  C334  1  0.989700  0.353400  0.921100  1.0  -0.1014
  C  C335  1  0.957400  0.377500  0.949400  1.0  -0.1745
  C  C336  1  0.055200  0.387300  0.969700  1.0  0.1177
  N  N337  1  0.368200  0.470200  0.214140  1.0  -0.3569
  N  N338  1  0.470800  0.400300  0.031050  1.0  -0.3524
  N  N339  1  0.656300  0.257500  0.218880  1.0  -0.3552
  N  N340  1  0.679500  0.116700  0.037240  1.0  -0.3465
  N  N341  1  0.868200  0.970200  0.214140  1.0  -0.3569
  N  N342  1  0.970800  0.900300  0.031050  1.0  -0.3524
  N  N343  1  0.156300  0.757500  0.218880  1.0  -0.3552
  N  N344  1  0.179500  0.616700  0.037240  1.0  -0.3465
  N  N345  1  0.631800  0.529800  0.714140  1.0  -0.3573
  N  N346  1  0.529200  0.599700  0.531050  1.0  -0.3504
  N  N347  1  0.343700  0.742500  0.718880  1.0  -0.3557
  N  N348  1  0.320500  0.883300  0.537240  1.0  -0.347
  N  N349  1  0.131800  0.029800  0.714140  1.0  -0.3573
  N  N350  1  0.029200  0.099700  0.531050  1.0  -0.3504
  N  N351  1  0.843700  0.242500  0.718880  1.0  -0.3557
  N  N352  1  0.820500  0.383300  0.537240  1.0  -0.347
  N  N353  1  0.631800  0.470200  0.285860  1.0  -0.3562
  N  N354  1  0.529200  0.400300  0.468950  1.0  -0.3477
  N  N355  1  0.343700  0.257500  0.281120  1.0  -0.3575
  N  N356  1  0.320500  0.116700  0.462760  1.0  -0.3467
  N  N357  1  0.131800  0.970200  0.285860  1.0  -0.3562
  N  N358  1  0.029200  0.900300  0.468950  1.0  -0.3477
  N  N359  1  0.843700  0.757500  0.281120  1.0  -0.3575
  N  N360  1  0.820500  0.616700  0.462760  1.0  -0.3467
  N  N361  1  0.368200  0.529800  0.785860  1.0  -0.3561
  N  N362  1  0.470800  0.599700  0.968950  1.0  -0.3503
  N  N363  1  0.656300  0.742500  0.781120  1.0  -0.3575
  N  N364  1  0.679500  0.883300  0.962760  1.0  -0.3459
  N  N365  1  0.868200  0.029800  0.785860  1.0  -0.3561
  N  N366  1  0.970800  0.099700  0.968950  1.0  -0.3503
  N  N367  1  0.156300  0.242500  0.781120  1.0  -0.3575
  N  N368  1  0.179500  0.383300  0.962760  1.0  -0.3459
