# generated using pymatgen
data_EuH7C13(NO3)2
_symmetry_space_group_name_H-M   'P 1'
_cell_length_a   9.09680000
_cell_length_b   9.67630000
_cell_length_c   11.50650000
_cell_angle_alpha   106.91400000
_cell_angle_beta   93.96700000
_cell_angle_gamma   108.27000000
_symmetry_Int_Tables_number   1
_chemical_formula_structural   EuH7C13(NO3)2
_chemical_formula_sum   'Eu2 H14 C26 N4 O12'
_cell_volume   905.72614308
_cell_formula_units_Z   2
loop_
 _symmetry_equiv_pos_site_id
 _symmetry_equiv_pos_as_xyz
  1  'x, y, z'
loop_
 _atom_site_type_symbol
 _atom_site_label
 _atom_site_symmetry_multiplicity
 _atom_site_fract_x
 _atom_site_fract_y
 _atom_site_fract_z
 _atom_site_occupancy
 _atom_site_charge
  Eu  Eu1  1  0.278460  0.028240  0.991590  1.0  2.1197
  Eu  Eu2  1  0.721540  0.971760  0.008410  1.0  2.1181
  H  H3  1  0.187000  0.556000  0.383000  1.0  0.1938
  H  H4  1  0.258000  0.648000  0.575000  1.0  0.1003
  H  H5  1  0.925000  0.865000  0.583000  1.0  0.1022
  H  H6  1  0.898000  0.784000  0.358000  1.0  0.0776
  H  H7  1  0.872000  0.462000  0.194000  1.0  0.1077
  H  H8  1  0.890000  0.622000  0.180000  1.0  0.104
  H  H9  1  0.352000  0.445000  0.034000  1.0  0.1065
  H  H10  1  0.813000  0.444000  0.617000  1.0  0.1937
  H  H11  1  0.742000  0.352000  0.425000  1.0  0.1002
  H  H12  1  0.075000  0.135000  0.417000  1.0  0.1034
  H  H13  1  0.102000  0.216000  0.642000  1.0  0.0775
  H  H14  1  0.128000  0.538000  0.806000  1.0  0.1068
  H  H15  1  0.110000  0.378000  0.820000  1.0  0.1027
  H  H16  1  0.648000  0.555000  0.966000  1.0  0.107
  C  C17  1  0.012400  0.836000  0.534000  1.0  -0.0393
  C  C18  1  0.181900  0.692300  0.538100  1.0  -0.0883
  C  C19  1  0.126000  0.609400  0.413600  1.0  -0.111
  C  C20  1  0.286700  0.500400  0.068600  1.0  -0.0759
  C  C21  1  0.123500  0.806700  0.598800  1.0  -0.1101
  C  C22  1  0.057900  0.269700  0.075700  1.0  0.6952
  C  C23  1  0.144000  0.436200  0.098700  1.0  0.0404
  C  C24  1  0.310400  0.655000  0.098100  1.0  0.1396
  C  C25  1  0.015500  0.643200  0.346200  1.0  0.0723
  C  C26  1  0.958700  0.558500  0.211000  1.0  -0.0789
  C  C27  1  0.187900  0.900000  0.731500  1.0  0.679
  C  C28  1  0.958800  0.756600  0.408200  1.0  -0.1084
  C  C29  1  0.442300  0.774800  0.073700  1.0  0.6746
  C  C30  1  0.987600  0.164000  0.466000  1.0  -0.036
  C  C31  1  0.818100  0.307700  0.461900  1.0  -0.0893
  C  C32  1  0.874000  0.390600  0.586400  1.0  -0.109
  C  C33  1  0.713300  0.499600  0.931400  1.0  -0.075
  C  C34  1  0.876500  0.193300  0.401200  1.0  -0.1102
  C  C35  1  0.942100  0.730300  0.924300  1.0  0.6964
  C  C36  1  0.856000  0.563800  0.901300  1.0  0.0391
  C  C37  1  0.689600  0.345000  0.901900  1.0  0.1393
  C  C38  1  0.984500  0.356800  0.653800  1.0  0.0718
  C  C39  1  0.041300  0.441500  0.789000  1.0  -0.0782
  C  C40  1  0.812100  0.100000  0.268500  1.0  0.6795
  C  C41  1  0.041200  0.243400  0.591800  1.0  -0.1072
  C  C42  1  0.557700  0.225200  0.926300  1.0  0.6746
  N  N43  1  0.088100  0.552400  0.144900  1.0  0.1502
  N  N44  1  0.189700  0.689100  0.144600  1.0  -0.4112
  N  N45  1  0.911900  0.447600  0.855100  1.0  0.1498
  N  N46  1  0.810300  0.310900  0.855400  1.0  -0.4078
  O  O47  1  0.419000  0.887200  0.047200  1.0  -0.8926
  O  O48  1  0.912800  0.227900  0.079300  1.0  -0.6886
  O  O49  1  0.120900  0.988900  0.791400  1.0  -0.6457
  O  O50  1  0.134400  0.181000  0.045700  1.0  -0.7947
  O  O51  1  0.573200  0.760300  0.077100  1.0  -0.6798
  O  O52  1  0.304100  0.884200  0.786000  1.0  -0.6442
  O  O53  1  0.581000  0.112800  0.952800  1.0  -0.8934
  O  O54  1  0.087200  0.772100  0.920700  1.0  -0.6878
  O  O55  1  0.879100  0.011100  0.208600  1.0  -0.6446
  O  O56  1  0.865600  0.819000  0.954300  1.0  -0.7942
  O  O57  1  0.426800  0.239700  0.922900  1.0  -0.6784
  O  O58  1  0.695900  0.115800  0.214000  1.0  -0.6433
