# generated using pymatgen
data_GdH7C13(NO3)2
_symmetry_space_group_name_H-M   'P 1'
_cell_length_a   9.12830000
_cell_length_b   9.66030000
_cell_length_c   11.54820000
_cell_angle_alpha   106.82900000
_cell_angle_beta   93.77200000
_cell_angle_gamma   108.02700000
_symmetry_Int_Tables_number   1
_chemical_formula_structural   GdH7C13(NO3)2
_chemical_formula_sum   'Gd2 H14 C26 N4 O12'
_cell_volume   913.27726088
_cell_formula_units_Z   2
loop_
 _symmetry_equiv_pos_site_id
 _symmetry_equiv_pos_as_xyz
  1  'x, y, z'
loop_
 _atom_site_type_symbol
 _atom_site_label
 _atom_site_symmetry_multiplicity
 _atom_site_fract_x
 _atom_site_fract_y
 _atom_site_fract_z
 _atom_site_occupancy
 _atom_site_charge
  Gd  Gd1  1  0.278490  0.528760  0.990840  1.0  2.1399
  Gd  Gd2  1  0.721510  0.471240  0.009160  1.0  2.1393
  H  H3  1  0.968000  0.409680  0.576150  1.0  0.0958
  H  H4  1  0.884960  0.284140  0.367600  1.0  0.0946
  H  H5  1  0.353480  0.948190  0.034560  1.0  0.107
  H  H6  1  0.889190  0.954710  0.199800  1.0  0.1064
  H  H7  1  0.897970  0.113040  0.177460  1.0  0.1143
  H  H8  1  0.262310  0.174260  0.577600  1.0  0.0983
  H  H9  1  0.166550  0.035690  0.371130  1.0  0.1103
  H  H10  1  0.032000  0.590320  0.423850  1.0  0.0963
  H  H11  1  0.115040  0.715860  0.632400  1.0  0.0944
  H  H12  1  0.646520  0.051810  0.965440  1.0  0.1079
  H  H13  1  0.110810  0.045290  0.800200  1.0  0.1058
  H  H14  1  0.102030  0.886960  0.822540  1.0  0.1144
  H  H15  1  0.737690  0.825740  0.422400  1.0  0.0984
  H  H16  1  0.833450  0.964310  0.628870  1.0  0.1093
  C  C17  1  0.011000  0.335000  0.534400  1.0  -0.063
  C  C18  1  0.960000  0.259000  0.410700  1.0  -0.1338
  C  C19  1  0.444500  0.275400  0.077000  1.0  0.6717
  C  C20  1  0.053500  0.771700  0.073700  1.0  0.6615
  C  C21  1  0.122000  0.304000  0.598400  1.0  -0.1694
  C  C22  1  0.311800  0.154800  0.099600  1.0  0.1357
  C  C23  1  0.286400  0.000800  0.069600  1.0  -0.0607
  C  C24  1  0.146800  0.938900  0.099900  1.0  0.0314
  C  C25  1  0.958900  0.061100  0.212100  1.0  -0.0864
  C  C26  1  0.015100  0.146700  0.348500  1.0  0.1396
  C  C27  1  0.189500  0.399600  0.730800  1.0  0.6975
  C  C28  1  0.182000  0.194200  0.535400  1.0  -0.0481
  C  C29  1  0.128000  0.114000  0.412400  1.0  -0.161
  C  C30  1  0.989000  0.665000  0.465600  1.0  -0.0637
  C  C31  1  0.040000  0.741000  0.589300  1.0  -0.1341
  C  C32  1  0.555500  0.724600  0.923000  1.0  0.6703
  C  C33  1  0.946500  0.228300  0.926300  1.0  0.6633
  C  C34  1  0.878000  0.696000  0.401600  1.0  -0.168
  C  C35  1  0.688200  0.845200  0.900400  1.0  0.1366
  C  C36  1  0.713600  0.999200  0.930400  1.0  -0.063
  C  C37  1  0.853200  0.061100  0.900100  1.0  0.0322
  C  C38  1  0.041100  0.938900  0.787900  1.0  -0.0875
  C  C39  1  0.984900  0.853300  0.651500  1.0  0.1396
  C  C40  1  0.810500  0.600400  0.269200  1.0  0.6974
  C  C41  1  0.818000  0.805800  0.464600  1.0  -0.0467
  C  C42  1  0.872000  0.886000  0.587600  1.0  -0.1555
  N  N43  1  0.092000  0.056400  0.147200  1.0  0.1025
  N  N44  1  0.190200  0.190700  0.145700  1.0  -0.3889
  N  N45  1  0.908000  0.943600  0.852800  1.0  0.1028
  N  N46  1  0.809800  0.809300  0.854300  1.0  -0.3876
  O  O47  1  0.130900  0.681400  0.043300  1.0  -0.7775
  O  O48  1  0.422800  0.389800  0.051300  1.0  -0.8368
  O  O49  1  0.119000  0.486100  0.789400  1.0  -0.6824
  O  O50  1  0.911200  0.731400  0.079500  1.0  -0.5899
  O  O51  1  0.304000  0.383000  0.785400  1.0  -0.6313
  O  O52  1  0.572900  0.256200  0.080600  1.0  -0.6851
  O  O53  1  0.869100  0.318600  0.956700  1.0  -0.7805
  O  O54  1  0.577200  0.610200  0.948700  1.0  -0.8369
  O  O55  1  0.881000  0.513900  0.210600  1.0  -0.6754
  O  O56  1  0.088800  0.268600  0.920500  1.0  -0.5889
  O  O57  1  0.696000  0.617000  0.214600  1.0  -0.6287
  O  O58  1  0.427100  0.743800  0.919400  1.0  -0.6839
