# generated using pymatgen
data_DyH7C13(NO3)2
_symmetry_space_group_name_H-M   'P 1'
_cell_length_a   9.09120000
_cell_length_b   9.64450000
_cell_length_c   11.51350000
_cell_angle_alpha   106.89400000
_cell_angle_beta   93.99300000
_cell_angle_gamma   108.21500000
_symmetry_Int_Tables_number   1
_chemical_formula_structural   DyH7C13(NO3)2
_chemical_formula_sum   'Dy2 H14 C26 N4 O12'
_cell_volume   903.12140509
_cell_formula_units_Z   2
loop_
 _symmetry_equiv_pos_site_id
 _symmetry_equiv_pos_as_xyz
  1  'x, y, z'
loop_
 _atom_site_type_symbol
 _atom_site_label
 _atom_site_symmetry_multiplicity
 _atom_site_fract_x
 _atom_site_fract_y
 _atom_site_fract_z
 _atom_site_occupancy
 _atom_site_charge
  Dy  Dy1  1  0.278980  0.528250  0.991420  1.0  2.2294
  Dy  Dy2  1  0.721020  0.471750  0.008580  1.0  2.2285
  H  H3  1  0.359000  0.965000  0.001000  1.0  0.0793
  H  H4  1  0.880000  0.960000  0.184000  1.0  0.183
  H  H5  1  0.164000  0.025000  0.345000  1.0  0.08
  H  H6  1  0.954000  0.391000  0.607000  1.0  0.1662
  H  H7  1  0.278000  0.194000  0.606000  1.0  0.0709
  H  H8  1  0.930000  0.292000  0.329000  1.0  0.1612
  H  H9  1  0.890000  0.106000  0.163000  1.0  0.1341
  H  H10  1  0.641000  0.035000  0.999000  1.0  0.08
  H  H11  1  0.120000  0.040000  0.816000  1.0  0.1848
  H  H12  1  0.836000  0.975000  0.655000  1.0  0.0794
  H  H13  1  0.046000  0.609000  0.393000  1.0  0.1644
  H  H14  1  0.722000  0.806000  0.394000  1.0  0.0692
  H  H15  1  0.070000  0.708000  0.671000  1.0  0.1611
  H  H16  1  0.110000  0.894000  0.837000  1.0  0.1356
  C  C17  1  0.285800  0.997600  0.069600  1.0  0.0152
  C  C18  1  0.145000  0.937800  0.098700  1.0  0.0378
  C  C19  1  0.053900  0.766000  0.072400  1.0  0.6488
  C  C20  1  0.442000  0.276000  0.073500  1.0  0.6659
  C  C21  1  0.956000  0.254000  0.407600  1.0  -0.0527
  C  C22  1  0.313800  0.155800  0.096600  1.0  -0.0194
  C  C23  1  0.014200  0.143500  0.349200  1.0  0.0211
  C  C24  1  0.010000  0.334000  0.534000  1.0  -0.0969
  C  C25  1  0.125700  0.308100  0.599000  1.0  -0.1639
  C  C26  1  0.188600  0.399700  0.732900  1.0  0.6567
  C  C27  1  0.958600  0.056300  0.212000  1.0  -0.1124
  C  C28  1  0.126600  0.108500  0.413300  1.0  -0.045
  C  C29  1  0.183900  0.191900  0.538800  1.0  -0.0737
  C  C30  1  0.714200  0.002400  0.930400  1.0  0.0134
  C  C31  1  0.855000  0.062200  0.901300  1.0  0.0387
  C  C32  1  0.946100  0.234000  0.927600  1.0  0.6484
  C  C33  1  0.558000  0.724000  0.926500  1.0  0.6675
  C  C34  1  0.044000  0.746000  0.592400  1.0  -0.0521
  C  C35  1  0.686200  0.844200  0.903400  1.0  -0.02
  C  C36  1  0.985800  0.856500  0.650800  1.0  0.022
  C  C37  1  0.990000  0.666000  0.466000  1.0  -0.0952
  C  C38  1  0.874300  0.691900  0.401000  1.0  -0.1635
  C  C39  1  0.811400  0.600300  0.267100  1.0  0.6569
  C  C40  1  0.041400  0.943700  0.788000  1.0  -0.1148
  C  C41  1  0.873400  0.891500  0.586700  1.0  -0.0463
  C  C42  1  0.816100  0.808100  0.461200  1.0  -0.0766
  N  N43  1  0.091100  0.053200  0.145100  1.0  0.0494
  N  N44  1  0.188100  0.187600  0.144600  1.0  -0.3774
  N  N45  1  0.908900  0.946800  0.854900  1.0  0.0484
  N  N46  1  0.811900  0.812400  0.855400  1.0  -0.383
  O  O47  1  0.136300  0.681500  0.045100  1.0  -0.7937
  O  O48  1  0.117900  0.486300  0.789900  1.0  -0.6276
  O  O49  1  0.418900  0.388700  0.047400  1.0  -0.8536
  O  O50  1  0.914600  0.726500  0.078600  1.0  -0.6604
  O  O51  1  0.572300  0.258500  0.077600  1.0  -0.671
  O  O52  1  0.304100  0.385100  0.788100  1.0  -0.6462
  O  O53  1  0.863700  0.318500  0.954900  1.0  -0.7955
  O  O54  1  0.882100  0.513700  0.210100  1.0  -0.6276
  O  O55  1  0.581100  0.611300  0.952600  1.0  -0.8516
  O  O56  1  0.085400  0.273500  0.921400  1.0  -0.6611
  O  O57  1  0.427700  0.741500  0.922400  1.0  -0.6702
  O  O58  1  0.695900  0.614900  0.211900  1.0  -0.646
