# generated using pymatgen
data_TbH7C13(NO3)2
_symmetry_space_group_name_H-M   'P 1'
_cell_length_a   9.08080000
_cell_length_b   9.64100000
_cell_length_c   11.64160000
_cell_angle_alpha   108.05100000
_cell_angle_beta   94.17000000
_cell_angle_gamma   108.17400000
_symmetry_Int_Tables_number   1
_chemical_formula_structural   TbH7C13(NO3)2
_chemical_formula_sum   'Tb2 H14 C26 N4 O12'
_cell_volume   904.36724887
_cell_formula_units_Z   2
loop_
 _symmetry_equiv_pos_site_id
 _symmetry_equiv_pos_as_xyz
  1  'x, y, z'
loop_
 _atom_site_type_symbol
 _atom_site_label
 _atom_site_symmetry_multiplicity
 _atom_site_fract_x
 _atom_site_fract_y
 _atom_site_fract_z
 _atom_site_occupancy
 _atom_site_charge
  Tb  Tb1  1  0.278900  0.028760  0.991520  1.0  2.2265
  Tb  Tb2  1  0.721100  0.971240  0.008480  1.0  2.2248
  H  H3  1  0.367000  0.458000  0.026000  1.0  0.091
  H  H4  1  0.277000  0.653000  0.568000  1.0  0.0993
  H  H5  1  0.884000  0.475000  0.191000  1.0  0.2527
  H  H6  1  0.195000  0.563000  0.369000  1.0  0.0913
  H  H7  1  0.923000  0.895000  0.564000  1.0  0.0901
  H  H8  1  0.875000  0.763000  0.347000  1.0  0.1353
  H  H9  1  0.913000  0.643000  0.179000  1.0  0.1022
  H  H10  1  0.633000  0.542000  0.974000  1.0  0.0915
  H  H11  1  0.723000  0.347000  0.432000  1.0  0.0976
  H  H12  1  0.116000  0.525000  0.809000  1.0  0.2539
  H  H13  1  0.805000  0.437000  0.631000  1.0  0.0919
  H  H14  1  0.077000  0.105000  0.436000  1.0  0.0911
  H  H15  1  0.125000  0.237000  0.653000  1.0  0.1351
  H  H16  1  0.087000  0.357000  0.821000  1.0  0.1021
  C  C17  1  0.956400  0.563500  0.210200  1.0  -0.1132
  C  C18  1  0.055100  0.269400  0.073700  1.0  0.6758
  C  C19  1  0.288100  0.504100  0.070600  1.0  -0.0786
  C  C20  1  0.444600  0.779100  0.075000  1.0  0.6676
  C  C21  1  0.184500  0.894300  0.733900  1.0  0.6457
  C  C22  1  0.313200  0.659100  0.098500  1.0  0.1042
  C  C23  1  0.121200  0.804400  0.597900  1.0  -0.129
  C  C24  1  0.145400  0.440400  0.100500  1.0  -0.0234
  C  C25  1  0.015100  0.648100  0.347500  1.0  0.0677
  C  C26  1  0.126800  0.612200  0.411400  1.0  -0.1338
  C  C27  1  0.180700  0.691200  0.534600  1.0  -0.0642
  C  C28  1  0.007100  0.834300  0.536100  1.0  -0.0684
  C  C29  1  0.956000  0.759100  0.410600  1.0  -0.1439
  C  C30  1  0.043600  0.436500  0.789800  1.0  -0.1107
  C  C31  1  0.944900  0.730600  0.926300  1.0  0.6746
  C  C32  1  0.711900  0.495900  0.929400  1.0  -0.08
  C  C33  1  0.555400  0.220900  0.925000  1.0  0.666
  C  C34  1  0.815500  0.105700  0.266100  1.0  0.64
  C  C35  1  0.686800  0.340900  0.901500  1.0  0.1024
  C  C36  1  0.878800  0.195600  0.402100  1.0  -0.1279
  C  C37  1  0.854600  0.559600  0.899500  1.0  -0.0249
  C  C38  1  0.984900  0.351900  0.652500  1.0  0.0677
  C  C39  1  0.873200  0.387800  0.588600  1.0  -0.1358
  C  C40  1  0.819300  0.308800  0.465400  1.0  -0.0676
  C  C41  1  0.992900  0.165700  0.463900  1.0  -0.0676
  C  C42  1  0.044000  0.240900  0.589400  1.0  -0.1396
  N  N43  1  0.191900  0.695200  0.146300  1.0  -0.3893
  N  N44  1  0.089900  0.558700  0.145700  1.0  0.1238
  N  N45  1  0.808100  0.304800  0.853700  1.0  -0.3881
  N  N46  1  0.910100  0.441300  0.854300  1.0  0.1235
  O  O47  1  0.422500  0.890700  0.050700  1.0  -0.8372
  O  O48  1  0.301200  0.880900  0.787100  1.0  -0.6382
  O  O49  1  0.911400  0.225600  0.075800  1.0  -0.6588
  O  O50  1  0.576000  0.760700  0.077900  1.0  -0.638
  O  O51  1  0.116800  0.983900  0.794400  1.0  -0.6611
  O  O52  1  0.135800  0.183700  0.046800  1.0  -0.7931
  O  O53  1  0.577500  0.109300  0.949300  1.0  -0.8377
  O  O54  1  0.698800  0.119100  0.212900  1.0  -0.6377
  O  O55  1  0.088600  0.774400  0.924200  1.0  -0.6583
  O  O56  1  0.424000  0.239300  0.922100  1.0  -0.6362
  O  O57  1  0.883200  0.016100  0.205600  1.0  -0.6594
  O  O58  1  0.864200  0.816300  0.953200  1.0  -0.7938
