# generated using pymatgen
data_ZnH12C11(NO)2
_symmetry_space_group_name_H-M   'P 1'
_cell_length_a   8.23260000
_cell_length_b   13.55450000
_cell_length_c   17.47590000
_cell_angle_alpha   90.00000000
_cell_angle_beta   90.00000000
_cell_angle_gamma   90.00000000
_symmetry_Int_Tables_number   1
_chemical_formula_structural   ZnH12C11(NO)2
_chemical_formula_sum   'Zn4 H48 C44 N8 O8'
_cell_volume   1950.11430273
_cell_formula_units_Z   4
loop_
 _symmetry_equiv_pos_site_id
 _symmetry_equiv_pos_as_xyz
  1  'x, y, z'
loop_
 _atom_site_type_symbol
 _atom_site_label
 _atom_site_symmetry_multiplicity
 _atom_site_fract_x
 _atom_site_fract_y
 _atom_site_fract_z
 _atom_site_occupancy
 _atom_site_charge
  Zn  Zn1  1  0.153660  0.200170  0.086270  1.0  0.8194
  Zn  Zn2  1  0.346340  0.799830  0.586270  1.0  0.8199
  Zn  Zn3  1  0.846340  0.700170  0.413730  1.0  0.8206
  Zn  Zn4  1  0.653660  0.299830  0.913730  1.0  0.8205
  H  H5  1  0.731000  0.914800  0.945600  1.0  0.1432
  H  H6  1  0.712500  0.976800  0.869800  1.0  0.1037
  H  H7  1  0.655300  0.980600  0.053800  1.0  0.0777
  H  H8  1  0.473000  0.013900  0.051000  1.0  0.0852
  H  H9  1  0.611100  0.093100  0.056600  1.0  0.0773
  H  H10  1  0.720100  0.036000  0.728300  1.0  0.0748
  H  H11  1  0.653600  0.898400  0.656400  1.0  0.0451
  H  H12  1  0.198200  0.972300  0.658400  1.0  0.0437
  H  H13  1  0.250700  0.109900  0.729400  1.0  0.0962
  H  H14  1  0.689000  0.128000  0.849000  1.0  0.0981
  H  H15  1  0.400000  0.086000  0.877000  1.0  0.0874
  H  H16  1  0.429000  0.194000  0.784000  1.0  0.249
  H  H17  1  0.769000  0.085200  0.445600  1.0  0.1403
  H  H18  1  0.787500  0.023200  0.369800  1.0  0.1025
  H  H19  1  0.844700  0.019400  0.553800  1.0  0.0766
  H  H20  1  0.027000  0.986100  0.551000  1.0  0.0849
  H  H21  1  0.888900  0.906900  0.556600  1.0  0.0758
  H  H22  1  0.779900  0.964000  0.228300  1.0  0.0747
  H  H23  1  0.846400  0.101600  0.156400  1.0  0.0447
  H  H24  1  0.301800  0.027700  0.158400  1.0  0.0426
  H  H25  1  0.249300  0.890100  0.229400  1.0  0.0965
  H  H26  1  0.811000  0.872000  0.349000  1.0  0.0981
  H  H27  1  0.100000  0.914000  0.377000  1.0  0.0871
  H  H28  1  0.071000  0.806000  0.284000  1.0  0.2462
  H  H29  1  0.269000  0.414800  0.554400  1.0  0.1415
  H  H30  1  0.287500  0.476800  0.630200  1.0  0.104
  H  H31  1  0.344700  0.480600  0.446200  1.0  0.0768
  H  H32  1  0.527000  0.513900  0.449000  1.0  0.0843
  H  H33  1  0.388900  0.593100  0.443400  1.0  0.0782
  H  H34  1  0.279900  0.536000  0.771700  1.0  0.0746
  H  H35  1  0.346400  0.398400  0.843600  1.0  0.0442
  H  H36  1  0.801800  0.472300  0.841600  1.0  0.0431
  H  H37  1  0.749300  0.609900  0.770600  1.0  0.0965
  H  H38  1  0.311000  0.628000  0.651000  1.0  0.0988
  H  H39  1  0.600000  0.586000  0.623000  1.0  0.0872
  H  H40  1  0.571000  0.694000  0.716000  1.0  0.2471
  H  H41  1  0.231000  0.585200  0.054400  1.0  0.1408
  H  H42  1  0.212500  0.523200  0.130200  1.0  0.1025
  H  H43  1  0.155300  0.519400  0.946200  1.0  0.0776
  H  H44  1  0.973000  0.486100  0.949000  1.0  0.0862
  H  H45  1  0.111100  0.406900  0.943400  1.0  0.0752
  H  H46  1  0.220100  0.464000  0.271700  1.0  0.0747
  H  H47  1  0.153600  0.601600  0.343600  1.0  0.0443
  H  H48  1  0.698200  0.527700  0.341600  1.0  0.0431
  H  H49  1  0.750700  0.390100  0.270600  1.0  0.0966
  H  H50  1  0.189000  0.372000  0.151000  1.0  0.0985
  H  H51  1  0.900000  0.414000  0.123000  1.0  0.0876
  H  H52  1  0.929000  0.306000  0.216000  1.0  0.2475
  C  C53  1  0.655500  0.952600  0.914600  1.0  -0.1917
  C  C54  1  0.589000  0.034500  0.958500  1.0  0.0769
  C  C55  1  0.582000  0.030200  0.035500  1.0  -0.3859
  C  C56  1  0.481900  0.110600  0.910800  1.0  -0.0667
  C  C57  1  0.389700  0.181500  0.963700  1.0  0.6426
  C  C58  1  0.531000  0.183600  0.781800  1.0  -0.0113
  C  C59  1  0.494300  0.090300  0.737200  1.0  0.1035
  C  C60  1  0.612400  0.024800  0.714700  1.0  -0.2206
  C  C61  1  0.571500  0.941300  0.671500  1.0  0.1226
  C  C62  1  0.304900  0.984900  0.672800  1.0  0.1417
  C  C63  1  0.335600  0.068400  0.715300  1.0  -0.2488
  C  C64  1  0.844500  0.047400  0.414600  1.0  -0.1936
  C  C65  1  0.911000  0.965500  0.458500  1.0  0.077
  C  C66  1  0.918000  0.969800  0.535500  1.0  -0.3868
  C  C67  1  0.018100  0.889400  0.410800  1.0  -0.0653
  C  C68  1  0.110300  0.818500  0.463700  1.0  0.6443
  C  C69  1  0.969000  0.816400  0.281800  1.0  -0.0108
  C  C70  1  0.005700  0.909700  0.237200  1.0  0.1022
  C  C71  1  0.887600  0.975200  0.214700  1.0  -0.2194
  C  C72  1  0.928500  0.058700  0.171500  1.0  0.1229
  C  C73  1  0.195100  0.015100  0.172800  1.0  0.1412
  C  C74  1  0.164400  0.931600  0.215300  1.0  -0.2458
  C  C75  1  0.344500  0.452600  0.585400  1.0  -0.1913
  C  C76  1  0.411000  0.534500  0.541500  1.0  0.0751
  C  C77  1  0.418000  0.530200  0.464500  1.0  -0.3862
  C  C78  1  0.518100  0.610600  0.589200  1.0  -0.0653
  C  C79  1  0.610300  0.681500  0.536300  1.0  0.6423
  C  C80  1  0.469000  0.683600  0.718200  1.0  -0.0108
  C  C81  1  0.505700  0.590300  0.762800  1.0  0.1008
  C  C82  1  0.387600  0.524800  0.785300  1.0  -0.2198
  C  C83  1  0.428500  0.441300  0.828500  1.0  0.1229
  C  C84  1  0.695100  0.484900  0.827200  1.0  0.1415
  C  C85  1  0.664400  0.568400  0.784700  1.0  -0.2485
  C  C86  1  0.155500  0.547400  0.085400  1.0  -0.1949
  C  C87  1  0.089000  0.465500  0.041500  1.0  0.0768
  C  C88  1  0.082000  0.469800  0.964500  1.0  -0.3872
  C  C89  1  0.981900  0.389400  0.089200  1.0  -0.0654
  C  C90  1  0.889700  0.318500  0.036300  1.0  0.6414
  C  C91  1  0.031000  0.316400  0.218200  1.0  -0.0109
  C  C92  1  0.994300  0.409700  0.262800  1.0  0.1003
  C  C93  1  0.112400  0.475200  0.285300  1.0  -0.2217
  C  C94  1  0.071500  0.558700  0.328500  1.0  0.1231
  C  C95  1  0.804900  0.515100  0.327200  1.0  0.1415
  C  C96  1  0.835600  0.431600  0.284700  1.0  -0.2497
  N  N97  1  0.418800  0.921400  0.651300  1.0  -0.3675
  N  N98  1  0.594100  0.165800  0.860000  1.0  -0.3547
  N  N99  1  0.081200  0.078600  0.151300  1.0  -0.3674
  N  N100  1  0.905900  0.834200  0.360000  1.0  -0.3568
  N  N101  1  0.581200  0.421400  0.848700  1.0  -0.3652
  N  N102  1  0.405900  0.665800  0.640000  1.0  -0.3558
  N  N103  1  0.918800  0.578600  0.348700  1.0  -0.3683
  N  N104  1  0.094100  0.334200  0.140000  1.0  -0.3565
  O  O105  1  0.270400  0.145200  0.998160  1.0  -0.6315
  O  O106  1  0.438900  0.268300  0.970280  1.0  -0.6019
  O  O107  1  0.229600  0.854800  0.498160  1.0  -0.6322
  O  O108  1  0.061100  0.731700  0.470280  1.0  -0.6013
  O  O109  1  0.729600  0.645200  0.501840  1.0  -0.6317
  O  O110  1  0.561100  0.768300  0.529720  1.0  -0.6012
  O  O111  1  0.770400  0.354800  0.001840  1.0  -0.632
  O  O112  1  0.938900  0.231700  0.029720  1.0  -0.6009
