# generated using pymatgen
data_ZnH6C11(NO2)2
_symmetry_space_group_name_H-M   'P 1'
_cell_length_a   15.70100000
_cell_length_b   14.96400000
_cell_length_c   17.33900000
_cell_angle_alpha   90.00000000
_cell_angle_beta   115.09600000
_cell_angle_gamma   90.00000000
_symmetry_Int_Tables_number   1
_chemical_formula_structural   ZnH6C11(NO2)2
_chemical_formula_sum   'Zn8 H48 C88 N16 O32'
_cell_volume   3689.22133718
_cell_formula_units_Z   8
loop_
 _symmetry_equiv_pos_site_id
 _symmetry_equiv_pos_as_xyz
  1  'x, y, z'
loop_
 _atom_site_type_symbol
 _atom_site_label
 _atom_site_symmetry_multiplicity
 _atom_site_fract_x
 _atom_site_fract_y
 _atom_site_fract_z
 _atom_site_occupancy
 _atom_site_charge
  Zn  Zn1  1  0.044400  0.949290  0.345160  1.0  0.919
  Zn  Zn2  1  0.544400  0.449290  0.345160  1.0  0.919
  Zn  Zn3  1  0.955600  0.949290  0.154840  1.0  0.9172
  Zn  Zn4  1  0.455600  0.449290  0.154840  1.0  0.9172
  Zn  Zn5  1  0.955600  0.050710  0.654840  1.0  0.9171
  Zn  Zn6  1  0.455600  0.550710  0.654840  1.0  0.9171
  Zn  Zn7  1  0.044400  0.050710  0.845160  1.0  0.9189
  Zn  Zn8  1  0.544400  0.550710  0.845160  1.0  0.9189
  H  H9  1  0.114900  0.825200  0.506400  1.0  0.0954
  H  H10  1  0.123800  0.086700  0.501500  1.0  0.1094
  H  H11  1  0.192000  0.041000  0.649200  1.0  0.1252
  H  H12  1  0.282400  0.785900  0.628200  1.0  0.1133
  H  H13  1  0.333700  0.718900  0.867500  1.0  0.1145
  H  H14  1  0.230200  0.829400  0.866900  1.0  0.0983
  H  H15  1  0.614900  0.325200  0.506400  1.0  0.0954
  H  H16  1  0.623800  0.586700  0.501500  1.0  0.1094
  H  H17  1  0.692000  0.541000  0.649200  1.0  0.1252
  H  H18  1  0.782400  0.285900  0.628200  1.0  0.1133
  H  H19  1  0.833700  0.218900  0.867500  1.0  0.1145
  H  H20  1  0.730200  0.329400  0.866900  1.0  0.0983
  H  H21  1  0.885100  0.825200  0.993600  1.0  0.0944
  H  H22  1  0.876200  0.086700  0.998500  1.0  0.1102
  H  H23  1  0.808000  0.041000  0.850800  1.0  0.1253
  H  H24  1  0.717600  0.785900  0.871800  1.0  0.1135
  H  H25  1  0.666300  0.718900  0.632500  1.0  0.1143
  H  H26  1  0.769800  0.829400  0.633100  1.0  0.0982
  H  H27  1  0.385100  0.325200  0.993600  1.0  0.0944
  H  H28  1  0.376200  0.586700  0.998500  1.0  0.1102
  H  H29  1  0.308000  0.541000  0.850800  1.0  0.1253
  H  H30  1  0.217600  0.285900  0.871800  1.0  0.1135
  H  H31  1  0.166300  0.218900  0.632500  1.0  0.1143
  H  H32  1  0.269800  0.329400  0.633100  1.0  0.0982
  H  H33  1  0.885100  0.174800  0.493600  1.0  0.0937
  H  H34  1  0.876200  0.913300  0.498500  1.0  0.1103
  H  H35  1  0.808000  0.959000  0.350800  1.0  0.1251
  H  H36  1  0.717600  0.214100  0.371800  1.0  0.1133
  H  H37  1  0.666300  0.281100  0.132500  1.0  0.1144
  H  H38  1  0.769800  0.170600  0.133100  1.0  0.0982
  H  H39  1  0.385100  0.674800  0.493600  1.0  0.0937
  H  H40  1  0.376200  0.413300  0.498500  1.0  0.1103
  H  H41  1  0.308000  0.459000  0.350800  1.0  0.1251
  H  H42  1  0.217600  0.714100  0.371800  1.0  0.1133
  H  H43  1  0.166300  0.781100  0.132500  1.0  0.1144
  H  H44  1  0.269800  0.670600  0.133100  1.0  0.0982
  H  H45  1  0.114900  0.174800  0.006400  1.0  0.0946
  H  H46  1  0.123800  0.913300  0.001500  1.0  0.1093
  H  H47  1  0.192000  0.959000  0.149200  1.0  0.1256
  H  H48  1  0.282400  0.214100  0.128200  1.0  0.1131
  H  H49  1  0.333700  0.281100  0.367500  1.0  0.1147
  H  H50  1  0.230200  0.170600  0.366900  1.0  0.0984
  H  H51  1  0.614900  0.674800  0.006400  1.0  0.0946
  H  H52  1  0.623800  0.413300  0.001500  1.0  0.1093
  H  H53  1  0.692000  0.459000  0.149200  1.0  0.1256
  H  H54  1  0.782400  0.714100  0.128200  1.0  0.1131
  H  H55  1  0.833700  0.781100  0.367500  1.0  0.1147
  H  H56  1  0.730200  0.670600  0.366900  1.0  0.0984
  C  C57  1  0.125400  0.884700  0.523000  1.0  0.111
  C  C58  1  0.130100  0.028200  0.521300  1.0  -0.0228
  C  C59  1  0.168600  0.003300  0.602100  1.0  -0.1241
  C  C60  1  0.208500  0.857100  0.676500  1.0  0.2013
  C  C61  1  0.270800  0.793500  0.676100  1.0  -0.1275
  C  C62  1  0.316000  0.741100  0.746600  1.0  -0.1521
  C  C63  1  0.301900  0.753500  0.819100  1.0  -0.0806
  C  C64  1  0.238800  0.819200  0.817800  1.0  -0.0465
  C  C65  1  0.188800  0.869400  0.746800  1.0  -0.0901
  C  C66  1  0.116400  0.933000  0.749300  1.0  0.6915
  C  C67  1  0.384600  0.670200  0.745800  1.0  0.6832
  C  C68  1  0.625400  0.384700  0.523000  1.0  0.111
  C  C69  1  0.630100  0.528200  0.521300  1.0  -0.0228
  C  C70  1  0.668600  0.503300  0.602100  1.0  -0.1241
  C  C71  1  0.708500  0.357100  0.676500  1.0  0.2013
  C  C72  1  0.770800  0.293500  0.676100  1.0  -0.1275
  C  C73  1  0.816000  0.241100  0.746600  1.0  -0.1521
  C  C74  1  0.801900  0.253500  0.819100  1.0  -0.0806
  C  C75  1  0.738800  0.319200  0.817800  1.0  -0.0465
  C  C76  1  0.688800  0.369400  0.746800  1.0  -0.0901
  C  C77  1  0.616400  0.433000  0.749300  1.0  0.6915
  C  C78  1  0.884600  0.170200  0.745800  1.0  0.6832
  C  C79  1  0.874600  0.884700  0.977000  1.0  0.1113
  C  C80  1  0.869900  0.028200  0.978700  1.0  -0.0218
  C  C81  1  0.831400  0.003300  0.897900  1.0  -0.1253
  C  C82  1  0.791500  0.857100  0.823500  1.0  0.2006
  C  C83  1  0.729200  0.793500  0.823900  1.0  -0.1305
  C  C84  1  0.684000  0.741100  0.753400  1.0  -0.1521
  C  C85  1  0.698100  0.753500  0.680900  1.0  -0.0814
  C  C86  1  0.761200  0.819200  0.682200  1.0  -0.0487
  C  C87  1  0.811200  0.869400  0.753200  1.0  -0.0902
  C  C88  1  0.883600  0.933000  0.750700  1.0  0.6906
  C  C89  1  0.615400  0.670200  0.754200  1.0  0.6839
  C  C90  1  0.374600  0.384700  0.977000  1.0  0.1113
  C  C91  1  0.369900  0.528200  0.978700  1.0  -0.0218
  C  C92  1  0.331400  0.503300  0.897900  1.0  -0.1253
  C  C93  1  0.291500  0.357100  0.823500  1.0  0.2006
  C  C94  1  0.229200  0.293500  0.823900  1.0  -0.1305
  C  C95  1  0.184000  0.241100  0.753400  1.0  -0.1521
  C  C96  1  0.198100  0.253500  0.680900  1.0  -0.0814
  C  C97  1  0.261200  0.319200  0.682200  1.0  -0.0487
  C  C98  1  0.311200  0.369400  0.753200  1.0  -0.0902
  C  C99  1  0.383600  0.433000  0.750700  1.0  0.6906
  C  C100  1  0.115400  0.170200  0.754200  1.0  0.6839
  C  C101  1  0.874600  0.115300  0.477000  1.0  0.1115
  C  C102  1  0.869900  0.971800  0.478700  1.0  -0.0225
  C  C103  1  0.831400  0.996700  0.397900  1.0  -0.1252
  C  C104  1  0.791500  0.142900  0.323500  1.0  0.2004
  C  C105  1  0.729200  0.206500  0.323900  1.0  -0.1302
  C  C106  1  0.684000  0.258900  0.253400  1.0  -0.1522
  C  C107  1  0.698100  0.246500  0.180900  1.0  -0.0821
  C  C108  1  0.761200  0.180800  0.182200  1.0  -0.0484
  C  C109  1  0.811200  0.130600  0.253200  1.0  -0.0907
  C  C110  1  0.883600  0.067000  0.250700  1.0  0.6904
  C  C111  1  0.615400  0.329800  0.254200  1.0  0.684
  C  C112  1  0.374600  0.615300  0.477000  1.0  0.1115
  C  C113  1  0.369900  0.471800  0.478700  1.0  -0.0225
  C  C114  1  0.331400  0.496700  0.397900  1.0  -0.1252
  C  C115  1  0.291500  0.642900  0.323500  1.0  0.2004
  C  C116  1  0.229200  0.706500  0.323900  1.0  -0.1302
  C  C117  1  0.184000  0.758900  0.253400  1.0  -0.1522
  C  C118  1  0.198100  0.746500  0.180900  1.0  -0.0821
  C  C119  1  0.261200  0.680800  0.182200  1.0  -0.0484
  C  C120  1  0.311200  0.630600  0.253200  1.0  -0.0907
  C  C121  1  0.383600  0.567000  0.250700  1.0  0.6904
  C  C122  1  0.115400  0.829800  0.254200  1.0  0.684
  C  C123  1  0.125400  0.115300  0.023000  1.0  0.1117
  C  C124  1  0.130100  0.971800  0.021300  1.0  -0.0232
  C  C125  1  0.168600  0.996700  0.102100  1.0  -0.1241
  C  C126  1  0.208500  0.142900  0.176500  1.0  0.2012
  C  C127  1  0.270800  0.206500  0.176100  1.0  -0.1272
  C  C128  1  0.316000  0.258900  0.246600  1.0  -0.1522
  C  C129  1  0.301900  0.246500  0.319100  1.0  -0.0808
  C  C130  1  0.238800  0.180800  0.317800  1.0  -0.0465
  C  C131  1  0.188800  0.130600  0.246800  1.0  -0.0896
  C  C132  1  0.116400  0.067000  0.249300  1.0  0.6911
  C  C133  1  0.384600  0.329800  0.245800  1.0  0.6831
  C  C134  1  0.625400  0.615300  0.023000  1.0  0.1117
  C  C135  1  0.630100  0.471800  0.021300  1.0  -0.0232
  C  C136  1  0.668600  0.496700  0.102100  1.0  -0.1241
  C  C137  1  0.708500  0.642900  0.176500  1.0  0.2012
  C  C138  1  0.770800  0.706500  0.176100  1.0  -0.1272
  C  C139  1  0.816000  0.758900  0.246600  1.0  -0.1522
  C  C140  1  0.801900  0.746500  0.319100  1.0  -0.0808
  C  C141  1  0.738800  0.680800  0.317800  1.0  -0.0465
  C  C142  1  0.688800  0.630600  0.246800  1.0  -0.0896
  C  C143  1  0.616400  0.567000  0.249300  1.0  0.6911
  C  C144  1  0.884600  0.829800  0.245800  1.0  0.6831
  N  N145  1  0.100800  0.951900  0.471000  1.0  -0.3301
  N  N146  1  0.167900  0.912700  0.603900  1.0  0.0392
  N  N147  1  0.600800  0.451900  0.471000  1.0  -0.3301
  N  N148  1  0.667900  0.412700  0.603900  1.0  0.0392
  N  N149  1  0.899200  0.951900  0.029000  1.0  -0.33
  N  N150  1  0.832100  0.912700  0.896100  1.0  0.0389
  N  N151  1  0.399200  0.451900  0.029000  1.0  -0.33
  N  N152  1  0.332100  0.412700  0.896100  1.0  0.0389
  N  N153  1  0.899200  0.048100  0.529000  1.0  -0.3299
  N  N154  1  0.832100  0.087300  0.396100  1.0  0.0391
  N  N155  1  0.399200  0.548100  0.529000  1.0  -0.3299
  N  N156  1  0.332100  0.587300  0.396100  1.0  0.0391
  N  N157  1  0.100800  0.048100  0.971000  1.0  -0.3301
  N  N158  1  0.167900  0.087300  0.103900  1.0  0.0388
  N  N159  1  0.600800  0.548100  0.971000  1.0  -0.3301
  N  N160  1  0.667900  0.587300  0.103900  1.0  0.0388
  O  O161  1  0.043300  0.942000  0.681400  1.0  -0.5803
  O  O162  1  0.134500  0.971300  0.817400  1.0  -0.5623
  O  O163  1  0.429700  0.629400  0.814200  1.0  -0.6029
  O  O164  1  0.389300  0.657300  0.677100  1.0  -0.5791
  O  O165  1  0.543300  0.442000  0.681400  1.0  -0.5803
  O  O166  1  0.634500  0.471300  0.817400  1.0  -0.5624
  O  O167  1  0.929700  0.129400  0.814200  1.0  -0.6029
  O  O168  1  0.889300  0.157300  0.677100  1.0  -0.5791
  O  O169  1  0.956700  0.942000  0.818600  1.0  -0.5801
  O  O170  1  0.865500  0.971300  0.682600  1.0  -0.5615
  O  O171  1  0.570300  0.629400  0.685800  1.0  -0.6014
  O  O172  1  0.610700  0.657300  0.822900  1.0  -0.5775
  O  O173  1  0.456700  0.442000  0.818600  1.0  -0.5801
  O  O174  1  0.365500  0.471300  0.682600  1.0  -0.5614
  O  O175  1  0.070300  0.129400  0.685800  1.0  -0.6014
  O  O176  1  0.110700  0.157300  0.822900  1.0  -0.5775
  O  O177  1  0.956700  0.058000  0.318600  1.0  -0.5801
  O  O178  1  0.865500  0.028700  0.182600  1.0  -0.5615
  O  O179  1  0.570300  0.370600  0.185800  1.0  -0.6019
  O  O180  1  0.610700  0.342700  0.322900  1.0  -0.577
  O  O181  1  0.456700  0.558000  0.318600  1.0  -0.5801
  O  O182  1  0.365500  0.528700  0.182600  1.0  -0.5616
  O  O183  1  0.070300  0.870600  0.185800  1.0  -0.6019
  O  O184  1  0.110700  0.842700  0.322900  1.0  -0.577
  O  O185  1  0.043300  0.058000  0.181400  1.0  -0.5802
  O  O186  1  0.134500  0.028700  0.317400  1.0  -0.5625
  O  O187  1  0.429700  0.370600  0.314200  1.0  -0.6026
  O  O188  1  0.389300  0.342700  0.177100  1.0  -0.5788
  O  O189  1  0.543300  0.558000  0.181400  1.0  -0.5802
  O  O190  1  0.634500  0.528700  0.317400  1.0  -0.5623
  O  O191  1  0.929700  0.870600  0.314200  1.0  -0.6026
  O  O192  1  0.889300  0.842700  0.177100  1.0  -0.5788
