# generated using pymatgen
data_Zn3H40C40(NO8)2
_symmetry_space_group_name_H-M   'P 1'
_cell_length_a   9.87270000
_cell_length_b   17.51380000
_cell_length_c   18.16420000
_cell_angle_alpha   92.13570000
_cell_angle_beta   90.00000000
_cell_angle_gamma   106.37100000
_symmetry_Int_Tables_number   1
_chemical_formula_structural   Zn3H40C40(NO8)2
_chemical_formula_sum   'Zn6 H80 C80 N4 O32'
_cell_volume   3011.13456935
_cell_formula_units_Z   2
loop_
 _symmetry_equiv_pos_site_id
 _symmetry_equiv_pos_as_xyz
  1  'x, y, z'
loop_
 _atom_site_type_symbol
 _atom_site_label
 _atom_site_symmetry_multiplicity
 _atom_site_fract_x
 _atom_site_fract_y
 _atom_site_fract_z
 _atom_site_occupancy
 _atom_site_charge
  Zn  Zn1  1  0.350370  0.306140  0.996560  1.0  0.9738
  Zn  Zn2  1  0.044230  0.693860  0.503440  1.0  0.9738
  Zn  Zn3  1  0.649630  0.693860  0.003440  1.0  0.9734
  Zn  Zn4  1  0.955770  0.306140  0.496560  1.0  0.9734
  Zn  Zn5  1  0.500000  0.500000  0.000000  1.0  1.0743
  Zn  Zn6  1  0.000000  0.500000  0.500000  1.0  1.0743
  H  H7  1  0.512700  0.265200  0.777800  1.0  0.1102
  H  H8  1  0.746600  0.489600  0.834100  1.0  0.1026
  H  H9  1  0.865400  0.495600  0.722900  1.0  0.1021
  H  H10  1  0.639000  0.269200  0.668600  1.0  0.1144
  H  H11  1  0.970900  0.431800  0.109700  1.0  0.1057
  H  H12  1  0.180500  0.492600  0.918800  1.0  0.1001
  H  H13  1  0.204100  0.063800  0.066900  1.0  0.1052
  H  H14  1  0.912600  0.069200  0.913500  1.0  0.1026
  H  H15  1  0.247500  0.734800  0.722200  1.0  0.1111
  H  H16  1  0.257000  0.510400  0.665900  1.0  0.1025
  H  H17  1  0.369800  0.504400  0.777100  1.0  0.1019
  H  H18  1  0.369800  0.730800  0.831400  1.0  0.1151
  H  H19  1  0.539100  0.568200  0.390300  1.0  0.1055
  H  H20  1  0.687900  0.507400  0.581200  1.0  0.1007
  H  H21  1  0.140300  0.936200  0.433100  1.0  0.1059
  H  H22  1  0.843400  0.930800  0.586500  1.0  0.103
  H  H23  1  0.487300  0.734800  0.222200  1.0  0.1105
  H  H24  1  0.253400  0.510400  0.165900  1.0  0.1024
  H  H25  1  0.134600  0.504400  0.277100  1.0  0.1018
  H  H26  1  0.361000  0.730800  0.331400  1.0  0.1151
  H  H27  1  0.029100  0.568200  0.890300  1.0  0.1059
  H  H28  1  0.819500  0.507400  0.081200  1.0  0.1004
  H  H29  1  0.795900  0.936200  0.933100  1.0  0.1056
  H  H30  1  0.087400  0.930800  0.086500  1.0  0.1034
  H  H31  1  0.752500  0.265200  0.277800  1.0  0.1105
  H  H32  1  0.743000  0.489600  0.334100  1.0  0.1025
  H  H33  1  0.630200  0.495600  0.222900  1.0  0.1022
  H  H34  1  0.630200  0.269200  0.168600  1.0  0.1145
  H  H35  1  0.460900  0.431800  0.609700  1.0  0.1059
  H  H36  1  0.312100  0.492600  0.418800  1.0  0.0999
  H  H37  1  0.859700  0.063800  0.566900  1.0  0.1048
  H  H38  1  0.156600  0.069200  0.413500  1.0  0.1029
  H  H39  1  0.201800  0.284200  0.161300  1.0  0.2176
  H  H40  1  0.072300  0.217200  0.169400  1.0  0.1872
  H  H41  1  0.281500  0.179000  0.161700  1.0  0.079
  H  H42  1  0.320200  0.221400  0.241800  1.0  0.0757
  H  H43  1  0.214300  0.084400  0.253400  1.0  0.1116
  H  H44  1  0.114700  0.133200  0.289500  1.0  0.1069
  H  H45  1  0.077300  0.090600  0.209700  1.0  0.117
  H  H46  1  0.070300  0.248200  0.294700  1.0  0.0755
  H  H47  1  0.042800  0.314600  0.243200  1.0  0.0766
  H  H48  1  0.199700  0.372600  0.335600  1.0  0.0755
  H  H49  1  0.303100  0.321400  0.309000  1.0  0.0834
  H  H50  1  0.275400  0.387800  0.257500  1.0  0.088
  H  H51  1  0.917600  0.715800  0.338700  1.0  0.2167
  H  H52  1  0.855100  0.782800  0.330600  1.0  0.1866
  H  H53  1  0.102500  0.821000  0.338300  1.0  0.0776
  H  H54  1  0.098800  0.778600  0.258200  1.0  0.0772
  H  H55  1  0.129900  0.915600  0.246600  1.0  0.1113
  H  H56  1  0.981500  0.866800  0.210500  1.0  0.1068
  H  H57  1  0.986700  0.909400  0.290300  1.0  0.1169
  H  H58  1  0.822100  0.751800  0.205300  1.0  0.0766
  H  H59  1  0.728200  0.685400  0.256800  1.0  0.0767
  H  H60  1  0.827100  0.627400  0.164400  1.0  0.0742
  H  H61  1  0.981700  0.678600  0.191000  1.0  0.0839
  H  H62  1  0.887600  0.612200  0.242500  1.0  0.0879
  H  H63  1  0.798200  0.715800  0.838700  1.0  0.2166
  H  H64  1  0.927700  0.782800  0.830600  1.0  0.1915
  H  H65  1  0.718500  0.821000  0.838300  1.0  0.0762
  H  H66  1  0.679800  0.778600  0.758200  1.0  0.0763
  H  H67  1  0.785700  0.915600  0.746600  1.0  0.111
  H  H68  1  0.885300  0.866800  0.710500  1.0  0.1068
  H  H69  1  0.922700  0.909400  0.790300  1.0  0.1172
  H  H70  1  0.929700  0.751800  0.705300  1.0  0.0754
  H  H71  1  0.957200  0.685400  0.756800  1.0  0.0765
  H  H72  1  0.800300  0.627400  0.664400  1.0  0.0735
  H  H73  1  0.696900  0.678600  0.691000  1.0  0.0834
  H  H74  1  0.724600  0.612200  0.742500  1.0  0.0878
  H  H75  1  0.082400  0.284200  0.661300  1.0  0.2175
  H  H76  1  0.144900  0.217200  0.669400  1.0  0.1922
  H  H77  1  0.897500  0.179000  0.661700  1.0  0.0782
  H  H78  1  0.901200  0.221400  0.741800  1.0  0.0739
  H  H79  1  0.870100  0.084400  0.753400  1.0  0.1115
  H  H80  1  0.018500  0.133200  0.789500  1.0  0.1072
  H  H81  1  0.013300  0.090600  0.709700  1.0  0.1172
  H  H82  1  0.177900  0.248200  0.794700  1.0  0.0746
  H  H83  1  0.271800  0.314600  0.743200  1.0  0.0766
  H  H84  1  0.172900  0.372600  0.835600  1.0  0.0753
  H  H85  1  0.018300  0.321400  0.809000  1.0  0.0839
  H  H86  1  0.112400  0.387800  0.757500  1.0  0.0881
  C  C87  1  0.546740  0.372080  0.890120  1.0  0.6948
  C  C88  1  0.619910  0.375820  0.817580  1.0  -0.1358
  C  C89  1  0.586580  0.311560  0.767330  1.0  -0.0399
  C  C90  1  0.724230  0.444860  0.800400  1.0  -0.0166
  C  C91  1  0.844060  0.387520  0.614370  1.0  0.7146
  C  C92  1  0.764870  0.382940  0.684770  1.0  -0.1655
  C  C93  1  0.795200  0.448200  0.734500  1.0  -0.0212
  C  C94  1  0.660100  0.314200  0.701820  1.0  -0.0502
  C  C95  1  0.186610  0.404820  0.035300  1.0  0.6483
  C  C96  1  0.091790  0.455380  0.017200  1.0  -0.1259
  C  C97  1  0.982730  0.459660  0.065200  1.0  -0.0356
  C  C98  1  0.107470  0.495740  0.951840  1.0  -0.022
  C  C99  1  0.144070  0.166940  0.976200  1.0  0.6948
  C  C100  1  0.068570  0.080540  0.988500  1.0  -0.1208
  C  C101  1  0.120540  0.038080  0.039600  1.0  -0.0477
  C  C102  1  0.948740  0.041480  0.949000  1.0  -0.0373
  C  C103  1  0.174660  0.627920  0.609880  1.0  0.695
  C  C104  1  0.244090  0.624180  0.682420  1.0  -0.1363
  C  C105  1  0.275020  0.688440  0.732670  1.0  -0.0413
  C  C106  1  0.279370  0.555140  0.699600  1.0  -0.0165
  C  C107  1  0.456540  0.612480  0.885630  1.0  0.7152
  C  C108  1  0.381930  0.617060  0.815230  1.0  -0.1653
  C  C109  1  0.347000  0.551800  0.765500  1.0  -0.0228
  C  C110  1  0.345900  0.685800  0.798180  1.0  -0.0499
  C  C111  1  0.781790  0.595180  0.464700  1.0  0.6483
  C  C112  1  0.636410  0.544620  0.482800  1.0  -0.1252
  C  C113  1  0.523070  0.540340  0.434800  1.0  -0.0348
  C  C114  1  0.611730  0.504260  0.548160  1.0  -0.0222
  C  C115  1  0.977130  0.833060  0.523800  1.0  0.6946
  C  C116  1  0.988030  0.919460  0.511500  1.0  -0.1211
  C  C117  1  0.082460  0.961920  0.460400  1.0  -0.0469
  C  C118  1  0.907260  0.958520  0.551000  1.0  -0.0366
  C  C119  1  0.453260  0.627920  0.109880  1.0  0.6947
  C  C120  1  0.380090  0.624180  0.182420  1.0  -0.1372
  C  C121  1  0.413420  0.688440  0.232670  1.0  -0.0406
  C  C122  1  0.275770  0.555140  0.199600  1.0  -0.0165
  C  C123  1  0.155940  0.612480  0.385630  1.0  0.7145
  C  C124  1  0.235130  0.617060  0.315230  1.0  -0.165
  C  C125  1  0.204800  0.551800  0.265500  1.0  -0.0228
  C  C126  1  0.339900  0.685800  0.298180  1.0  -0.0496
  C  C127  1  0.813390  0.595180  0.964700  1.0  0.6494
  C  C128  1  0.908210  0.544620  0.982800  1.0  -0.1246
  C  C129  1  0.017270  0.540340  0.934800  1.0  -0.0362
  C  C130  1  0.892530  0.504260  0.048160  1.0  -0.0203
  C  C131  1  0.855930  0.833060  0.023800  1.0  0.6941
  C  C132  1  0.931430  0.919460  0.011500  1.0  -0.1215
  C  C133  1  0.879460  0.961920  0.960400  1.0  -0.0502
  C  C134  1  0.051260  0.958520  0.051000  1.0  -0.0363
  C  C135  1  0.825340  0.372080  0.390120  1.0  0.6943
  C  C136  1  0.755910  0.375820  0.317580  1.0  -0.137
  C  C137  1  0.724980  0.311560  0.267330  1.0  -0.0397
  C  C138  1  0.720630  0.444860  0.300400  1.0  -0.0167
  C  C139  1  0.543460  0.387520  0.114370  1.0  0.7132
  C  C140  1  0.618070  0.382940  0.184770  1.0  -0.1653
  C  C141  1  0.653000  0.448200  0.234500  1.0  -0.0213
  C  C142  1  0.654100  0.314200  0.201820  1.0  -0.0505
  C  C143  1  0.218210  0.404820  0.535300  1.0  0.6496
  C  C144  1  0.363590  0.455380  0.517200  1.0  -0.1255
  C  C145  1  0.476930  0.459660  0.565200  1.0  -0.0368
  C  C146  1  0.388270  0.495740  0.451840  1.0  -0.0204
  C  C147  1  0.022870  0.166940  0.476200  1.0  0.6942
  C  C148  1  0.011970  0.080540  0.488500  1.0  -0.1215
  C  C149  1  0.917540  0.038080  0.539600  1.0  -0.051
  C  C150  1  0.092740  0.041480  0.449000  1.0  -0.0367
  C  C151  1  0.241100  0.193400  0.208300  1.0  0.0122
  C  C152  1  0.154200  0.118800  0.243300  1.0  -0.349
  C  C153  1  0.114300  0.288200  0.258200  1.0  0.0344
  C  C154  1  0.232700  0.347200  0.292900  1.0  -0.3294
  C  C155  1  0.047700  0.806600  0.291700  1.0  0.0138
  C  C156  1  0.035400  0.881200  0.256700  1.0  -0.3488
  C  C157  1  0.826100  0.711800  0.241800  1.0  0.0342
  C  C158  1  0.885500  0.652800  0.207100  1.0  -0.3303
  C  C159  1  0.758900  0.806600  0.791700  1.0  0.0107
  C  C160  1  0.845800  0.881200  0.756700  1.0  -0.349
  C  C161  1  0.885700  0.711800  0.741800  1.0  0.0361
  C  C162  1  0.767300  0.652800  0.707100  1.0  -0.3291
  C  C163  1  0.952300  0.193400  0.708300  1.0  0.0098
  C  C164  1  0.964600  0.118800  0.743300  1.0  -0.3492
  C  C165  1  0.173900  0.288200  0.758200  1.0  0.0373
  C  C166  1  0.114500  0.347200  0.792900  1.0  -0.3299
  N  N167  1  0.153710  0.246620  0.193100  1.0  -0.0854
  N  N168  1  0.907090  0.753380  0.306900  1.0  -0.0864
  N  N169  1  0.846290  0.753380  0.806900  1.0  -0.0867
  N  N170  1  0.092910  0.246620  0.693100  1.0  -0.085
  O  O171  1  0.589540  0.429480  0.935230  1.0  -0.6156
  O  O172  1  0.447780  0.309760  0.901530  1.0  -0.594
  O  O173  1  0.910090  0.455180  0.594910  1.0  -0.5889
  O  O174  1  0.838660  0.321920  0.581260  1.0  -0.615
  O  O175  1  0.286910  0.404620  0.990910  1.0  -0.6852
  O  O176  1  0.161970  0.363940  0.090530  1.0  -0.6179
  O  O177  1  0.246140  0.199280  0.020000  1.0  -0.5988
  O  O178  1  0.106410  0.200820  0.925800  1.0  -0.5522
  O  O179  1  0.160060  0.570520  0.564770  1.0  -0.6145
  O  O180  1  0.138020  0.690240  0.598470  1.0  -0.5937
  O  O181  1  0.454910  0.544820  0.905090  1.0  -0.5886
  O  O182  1  0.516740  0.678080  0.918740  1.0  -0.6142
  O  O183  1  0.882290  0.595380  0.509090  1.0  -0.6841
  O  O184  1  0.798030  0.636060  0.409470  1.0  -0.615
  O  O185  1  0.046860  0.800720  0.480000  1.0  -0.5989
  O  O186  1  0.905590  0.799180  0.574200  1.0  -0.5521
  O  O187  1  0.410460  0.570520  0.064770  1.0  -0.6143
  O  O188  1  0.552220  0.690240  0.098470  1.0  -0.5958
  O  O189  1  0.089910  0.544820  0.405090  1.0  -0.5879
  O  O190  1  0.161340  0.678080  0.418740  1.0  -0.614
  O  O191  1  0.713090  0.595380  0.009090  1.0  -0.6833
  O  O192  1  0.838030  0.636060  0.909470  1.0  -0.6145
  O  O193  1  0.753860  0.800720  0.980000  1.0  -0.5992
  O  O194  1  0.893590  0.799180  0.074200  1.0  -0.5515
  O  O195  1  0.839940  0.429480  0.435230  1.0  -0.6153
  O  O196  1  0.861980  0.309760  0.401530  1.0  -0.5939
  O  O197  1  0.545090  0.455180  0.094910  1.0  -0.5882
  O  O198  1  0.483260  0.321920  0.081260  1.0  -0.6154
  O  O199  1  0.117710  0.404620  0.490910  1.0  -0.6846
  O  O200  1  0.201970  0.363940  0.590530  1.0  -0.617
  O  O201  1  0.953140  0.199280  0.520000  1.0  -0.599
  O  O202  1  0.094410  0.200820  0.425800  1.0  -0.5517
