# generated using pymatgen
data_ScH6(C2O)6
_symmetry_space_group_name_H-M   'P 1'
_cell_length_a   8.75500000
_cell_length_b   11.27390000
_cell_length_c   17.75190000
_cell_angle_alpha   84.50570000
_cell_angle_beta   75.72420000
_cell_angle_gamma   67.15220000
_symmetry_Int_Tables_number   1
_chemical_formula_structural   ScH6(C2O)6
_chemical_formula_sum   'Sc4 H24 C48 O24'
_cell_volume   1564.82828614
_cell_formula_units_Z   4
loop_
 _symmetry_equiv_pos_site_id
 _symmetry_equiv_pos_as_xyz
  1  'x, y, z'
loop_
 _atom_site_type_symbol
 _atom_site_label
 _atom_site_symmetry_multiplicity
 _atom_site_fract_x
 _atom_site_fract_y
 _atom_site_fract_z
 _atom_site_occupancy
 _atom_site_charge
  Sc  Sc1  1  0.635670  0.250000  0.228660  1.0  2.0942
  Sc  Sc2  1  0.114330  0.250000  0.271340  1.0  2.0982
  Sc  Sc3  1  0.364330  0.750000  0.771340  1.0  2.0984
  Sc  Sc4  1  0.885670  0.750000  0.728660  1.0  2.0941
  H  H5  1  0.725800  0.047200  0.015200  1.0  0.0967
  H  H6  1  0.246900  0.065400  0.093200  1.0  0.0818
  H  H7  1  0.842000  0.861800  0.247400  1.0  0.0945
  H  H8  1  0.759000  0.452800  0.015200  1.0  0.0981
  H  H9  1  0.159900  0.434600  0.093200  1.0  0.0826
  H  H10  1  0.410600  0.638200  0.247400  1.0  0.0948
  H  H11  1  0.227000  0.047200  0.484800  1.0  0.0983
  H  H12  1  0.687700  0.065400  0.406800  1.0  0.0822
  H  H13  1  0.296200  0.861800  0.252600  1.0  0.0939
  H  H14  1  0.788200  0.452800  0.484800  1.0  0.0973
  H  H15  1  0.405500  0.434600  0.406800  1.0  0.0825
  H  H16  1  0.951200  0.638200  0.252600  1.0  0.095
  H  H17  1  0.274200  0.952800  0.984800  1.0  0.0982
  H  H18  1  0.753100  0.934600  0.906800  1.0  0.0823
  H  H19  1  0.158000  0.138200  0.752600  1.0  0.0941
  H  H20  1  0.241000  0.547200  0.984800  1.0  0.0972
  H  H21  1  0.840100  0.565400  0.906800  1.0  0.0823
  H  H22  1  0.589400  0.361800  0.752600  1.0  0.0947
  H  H23  1  0.773000  0.952800  0.515200  1.0  0.0969
  H  H24  1  0.312300  0.934600  0.593200  1.0  0.0818
  H  H25  1  0.703800  0.138200  0.747400  1.0  0.0947
  H  H26  1  0.211800  0.547200  0.515200  1.0  0.0984
  H  H27  1  0.594500  0.565400  0.593200  1.0  0.0827
  H  H28  1  0.048800  0.361800  0.747400  1.0  0.0944
  C  C29  1  0.465050  0.139420  0.135240  1.0  0.73
  C  C30  1  0.483470  0.067440  0.065080  1.0  -0.1435
  C  C31  1  0.634990  0.028360  0.009280  1.0  -0.0628
  C  C32  1  0.348770  0.039140  0.055760  1.0  -0.0493
  C  C33  1  0.955380  0.817120  0.249140  1.0  -0.0672
  C  C34  1  0.899710  0.360580  0.135240  1.0  0.7259
  C  C35  1  0.951450  0.432560  0.065080  1.0  -0.1425
  C  C36  1  0.855730  0.471640  0.009280  1.0  -0.0653
  C  C37  1  0.095470  0.460860  0.055760  1.0  -0.0496
  C  C38  1  0.295480  0.682880  0.249140  1.0  -0.0651
  C  C39  1  0.395530  0.139420  0.364760  1.0  0.7306
  C  C40  1  0.449090  0.067440  0.434920  1.0  -0.1435
  C  C41  1  0.336650  0.028360  0.490720  1.0  -0.0648
  C  C42  1  0.612090  0.039140  0.444240  1.0  -0.0491
  C  C43  1  0.227500  0.817120  0.250860  1.0  -0.0656
  C  C44  1  0.739710  0.360580  0.364760  1.0  0.7254
  C  C45  1  0.615990  0.432560  0.434920  1.0  -0.1417
  C  C46  1  0.672630  0.471640  0.490720  1.0  -0.0629
  C  C47  1  0.443670  0.460860  0.444240  1.0  -0.0504
  C  C48  1  0.021640  0.682880  0.250860  1.0  -0.0663
  C  C49  1  0.534950  0.860580  0.864760  1.0  0.7303
  C  C50  1  0.516530  0.932560  0.934920  1.0  -0.1441
  C  C51  1  0.365010  0.971640  0.990720  1.0  -0.0648
  C  C52  1  0.651230  0.960860  0.944240  1.0  -0.049
  C  C53  1  0.044620  0.182880  0.750860  1.0  -0.0653
  C  C54  1  0.100290  0.639420  0.864760  1.0  0.7258
  C  C55  1  0.048550  0.567440  0.934920  1.0  -0.1415
  C  C56  1  0.144270  0.528360  0.990720  1.0  -0.063
  C  C57  1  0.904530  0.539140  0.944240  1.0  -0.0505
  C  C58  1  0.704520  0.317120  0.750860  1.0  -0.0668
  C  C59  1  0.604470  0.860580  0.635240  1.0  0.7296
  C  C60  1  0.550910  0.932560  0.565080  1.0  -0.1436
  C  C61  1  0.663350  0.971640  0.509280  1.0  -0.0628
  C  C62  1  0.387910  0.960860  0.555760  1.0  -0.0492
  C  C63  1  0.772500  0.182880  0.749140  1.0  -0.0668
  C  C64  1  0.260290  0.639420  0.635240  1.0  0.7264
  C  C65  1  0.384010  0.567440  0.565080  1.0  -0.1424
  C  C66  1  0.327370  0.528360  0.509280  1.0  -0.0654
  C  C67  1  0.556330  0.539140  0.555760  1.0  -0.0498
  C  C68  1  0.978360  0.317120  0.749140  1.0  -0.0654
  C  C69  1  0.986380  0.027240  0.250000  1.0  0.7061
  C  C70  1  0.058260  0.883480  0.250000  1.0  -0.1304
  C  C71  1  0.263620  0.472760  0.250000  1.0  0.7046
  C  C72  1  0.191740  0.616520  0.250000  1.0  -0.1299
  C  C73  1  0.013620  0.972760  0.750000  1.0  0.7046
  C  C74  1  0.941740  0.116520  0.750000  1.0  -0.1299
  C  C75  1  0.736380  0.527240  0.750000  1.0  0.7062
  C  C76  1  0.808260  0.383480  0.750000  1.0  -0.1303
  O  O77  1  0.587620  0.166720  0.140920  1.0  -0.6357
  O  O78  1  0.327870  0.168440  0.185140  1.0  -0.7002
  O  O79  1  0.848790  0.083280  0.229420  1.0  -0.6779
  O  O80  1  0.771460  0.333280  0.140920  1.0  -0.636
  O  O81  1  0.986990  0.331560  0.185140  1.0  -0.7006
  O  O82  1  0.421790  0.416720  0.229420  1.0  -0.6799
  O  O83  1  0.245660  0.166720  0.359080  1.0  -0.6352
  O  O84  1  0.503690  0.168440  0.314860  1.0  -0.7012
  O  O85  1  0.067930  0.083280  0.270580  1.0  -0.6784
  O  O86  1  0.895260  0.333280  0.359080  1.0  -0.6374
  O  O87  1  0.681450  0.331560  0.314860  1.0  -0.701
  O  O88  1  0.161490  0.416720  0.270580  1.0  -0.6784
  O  O89  1  0.412380  0.833280  0.859080  1.0  -0.6357
  O  O90  1  0.672130  0.831560  0.814860  1.0  -0.7009
  O  O91  1  0.151210  0.916720  0.770580  1.0  -0.68
  O  O92  1  0.228540  0.666667  0.859080  1.0  -0.6369
  O  O93  1  0.013010  0.668440  0.814860  1.0  -0.7011
  O  O94  1  0.578210  0.583280  0.770580  1.0  -0.6789
  O  O95  1  0.754340  0.833280  0.640920  1.0  -0.6357
  O  O96  1  0.496310  0.831560  0.685140  1.0  -0.7002
  O  O97  1  0.932070  0.916720  0.729420  1.0  -0.6779
  O  O98  1  0.104740  0.666667  0.640920  1.0  -0.6356
  O  O99  1  0.318550  0.668440  0.685140  1.0  -0.7007
  O  O100  1  0.838510  0.583280  0.729420  1.0  -0.6799
