# generated using pymatgen
data_CdH56C68N4(Cl3O7)2
_symmetry_space_group_name_H-M   'P 1'
_cell_length_a   12.75170000
_cell_length_b   26.20900000
_cell_length_c   26.20900000
_cell_angle_alpha   120.00000000
_cell_angle_beta   90.00000000
_cell_angle_gamma   90.00000000
_symmetry_Int_Tables_number   1
_chemical_formula_structural   CdH56C68N4(Cl3O7)2
_chemical_formula_sum   'Cd3 H168 C204 N12 Cl18 O42'
_cell_volume   7585.76911630
_cell_formula_units_Z   3
loop_
 _symmetry_equiv_pos_site_id
 _symmetry_equiv_pos_as_xyz
  1  'x, y, z'
loop_
 _atom_site_type_symbol
 _atom_site_label
 _atom_site_symmetry_multiplicity
 _atom_site_fract_x
 _atom_site_fract_y
 _atom_site_fract_z
 _atom_site_occupancy
 _atom_site_charge
  Cd  Cd1  1  0.000000  0.301140  0.301140  1.0  0.7921
  Cd  Cd2  1  0.000000  0.000000  0.698860  1.0  0.7897
  Cd  Cd3  1  0.000000  0.698860  0.000000  1.0  0.7909
  H  H4  1  0.065600  0.234200  0.186700  1.0  0.3894
  H  H5  1  0.174000  0.259200  0.218600  1.0  0.4278
  H  H6  1  0.828600  0.275200  0.377600  1.0  0.0727
  H  H7  1  0.702000  0.315200  0.445800  1.0  0.1194
  H  H8  1  0.795800  0.475300  0.480200  1.0  0.1245
  H  H9  1  0.914300  0.428600  0.401900  1.0  0.0929
  H  H10  1  0.768900  0.476100  0.582500  1.0  0.1205
  H  H11  1  0.320700  0.445500  0.582100  1.0  0.1083
  H  H12  1  0.259500  0.380100  0.489300  1.0  0.1197
  H  H13  1  0.555400  0.361200  0.421400  1.0  0.1325
  H  H14  1  0.806600  0.554800  0.672500  1.0  0.0875
  H  H15  1  0.795700  0.495600  0.676200  1.0  0.0711
  H  H16  1  0.858700  0.571500  0.768600  1.0  0.1401
  H  H17  1  0.742300  0.555000  0.778200  1.0  0.1235
  H  H18  1  0.762400  0.613000  0.773900  1.0  0.1303
  H  H19  1  0.643500  0.426700  0.785200  1.0  0.0941
  H  H20  1  0.676500  0.436800  0.732100  1.0  0.0956
  H  H21  1  0.601000  0.383200  0.720200  1.0  0.0895
  H  H22  1  0.550800  0.501500  0.788900  1.0  0.0797
  H  H23  1  0.475200  0.447600  0.776300  1.0  0.0807
  H  H24  1  0.355100  0.518800  0.786200  1.0  0.1066
  H  H25  1  0.197600  0.659300  0.752300  1.0  0.0922
  H  H26  1  0.335300  0.638700  0.606200  1.0  0.1129
  H  H27  1  0.425700  0.561400  0.596900  1.0  0.0878
  H  H28  1  0.162100  0.732400  0.929800  1.0  0.1044
  H  H29  1  0.279800  0.690200  0.849200  1.0  0.1188
  H  H30  1  0.148100  0.530400  0.798700  1.0  0.1394
  H  H31  1  0.042800  0.576800  0.880200  1.0  0.0755
  H  H32  1  0.065600  0.952500  0.765800  1.0  0.3914
  H  H33  1  0.174000  0.959400  0.740800  1.0  0.4275
  H  H34  1  0.828600  0.102400  0.724800  1.0  0.0722
  H  H35  1  0.702000  0.130600  0.684800  1.0  0.1192
  H  H36  1  0.795800  0.004900  0.524700  1.0  0.1234
  H  H37  1  0.914300  0.973300  0.571400  1.0  0.0935
  H  H38  1  0.768900  0.106400  0.523900  1.0  0.119
  H  H39  1  0.320700  0.136600  0.554500  1.0  0.1077
  H  H40  1  0.259500  0.109200  0.619900  1.0  0.1189
  H  H41  1  0.555400  0.060200  0.638800  1.0  0.1312
  H  H42  1  0.806600  0.117700  0.445200  1.0  0.0872
  H  H43  1  0.795700  0.180600  0.504400  1.0  0.0744
  H  H44  1  0.858700  0.197100  0.428500  1.0  0.1403
  H  H45  1  0.742300  0.223200  0.445000  1.0  0.1232
  H  H46  1  0.762400  0.160900  0.387000  1.0  0.1295
  H  H47  1  0.643500  0.358500  0.573300  1.0  0.0935
  H  H48  1  0.676500  0.295300  0.563200  1.0  0.0949
  H  H49  1  0.601000  0.337000  0.616800  1.0  0.0875
  H  H50  1  0.550800  0.287400  0.498500  1.0  0.0788
  H  H51  1  0.475200  0.328700  0.552400  1.0  0.0817
  H  H52  1  0.355100  0.267400  0.481200  1.0  0.1051
  H  H53  1  0.197600  0.093000  0.340700  1.0  0.0925
  H  H54  1  0.335300  0.967500  0.361300  1.0  0.1131
  H  H55  1  0.425700  0.035500  0.438600  1.0  0.0879
  H  H56  1  0.162100  0.197400  0.267600  1.0  0.1018
  H  H57  1  0.279800  0.159000  0.309800  1.0  0.117
  H  H58  1  0.148100  0.268300  0.469600  1.0  0.1362
  H  H59  1  0.042800  0.303400  0.423200  1.0  0.0763
  H  H60  1  0.065600  0.813300  0.047500  1.0  0.3899
  H  H61  1  0.174000  0.781400  0.040600  1.0  0.4247
  H  H62  1  0.828600  0.622400  0.897600  1.0  0.0723
  H  H63  1  0.702000  0.554200  0.869400  1.0  0.1182
  H  H64  1  0.795800  0.519800  0.995100  1.0  0.1221
  H  H65  1  0.914300  0.598100  0.026700  1.0  0.0934
  H  H66  1  0.768900  0.417500  0.893600  1.0  0.1189
  H  H67  1  0.320700  0.417900  0.863400  1.0  0.1076
  H  H68  1  0.259500  0.510700  0.890800  1.0  0.1189
  H  H69  1  0.555400  0.578600  0.939800  1.0  0.1333
  H  H70  1  0.806600  0.327500  0.882300  1.0  0.0868
  H  H71  1  0.795700  0.323800  0.819400  1.0  0.0744
  H  H72  1  0.858700  0.231400  0.802900  1.0  0.1407
  H  H73  1  0.742300  0.221800  0.776800  1.0  0.1234
  H  H74  1  0.762400  0.226100  0.839100  1.0  0.1315
  H  H75  1  0.643500  0.214800  0.641500  1.0  0.0935
  H  H76  1  0.676500  0.267900  0.704700  1.0  0.0962
  H  H77  1  0.601000  0.279800  0.663000  1.0  0.0875
  H  H78  1  0.550800  0.211100  0.712600  1.0  0.0794
  H  H79  1  0.475200  0.223700  0.671300  1.0  0.0809
  H  H80  1  0.355100  0.213800  0.732600  1.0  0.1044
  H  H81  1  0.197600  0.247700  0.907000  1.0  0.0949
  H  H82  1  0.335300  0.393800  0.032500  1.0  0.1108
  H  H83  1  0.425700  0.403100  0.964500  1.0  0.0885
  H  H84  1  0.162100  0.070200  0.802600  1.0  0.1017
  H  H85  1  0.279800  0.150800  0.841000  1.0  0.118
  H  H86  1  0.148100  0.201300  0.731700  1.0  0.137
  H  H87  1  0.042800  0.119800  0.696600  1.0  0.0755
  H  H88  1  0.934400  0.047500  0.813300  1.0  0.3908
  H  H89  1  0.826000  0.040600  0.781400  1.0  0.428
  H  H90  1  0.171400  0.897600  0.622400  1.0  0.0725
  H  H91  1  0.298000  0.869400  0.554200  1.0  0.1189
  H  H92  1  0.204200  0.995100  0.519800  1.0  0.1235
  H  H93  1  0.085700  0.026700  0.598100  1.0  0.0944
  H  H94  1  0.231100  0.893600  0.417500  1.0  0.1192
  H  H95  1  0.679300  0.863400  0.417900  1.0  0.1079
  H  H96  1  0.740500  0.890800  0.510700  1.0  0.1188
  H  H97  1  0.444600  0.939800  0.578600  1.0  0.1313
  H  H98  1  0.193400  0.882300  0.327500  1.0  0.0865
  H  H99  1  0.204300  0.819400  0.323800  1.0  0.076
  H  H100  1  0.141300  0.802900  0.231400  1.0  0.1409
  H  H101  1  0.257700  0.776800  0.221800  1.0  0.1235
  H  H102  1  0.237600  0.839100  0.226100  1.0  0.1292
  H  H103  1  0.356500  0.641500  0.214800  1.0  0.0939
  H  H104  1  0.323500  0.704700  0.267900  1.0  0.096
  H  H105  1  0.399000  0.663000  0.279800  1.0  0.0879
  H  H106  1  0.449200  0.712600  0.211100  1.0  0.0794
  H  H107  1  0.524800  0.671300  0.223700  1.0  0.0805
  H  H108  1  0.644900  0.732600  0.213800  1.0  0.1051
  H  H109  1  0.802400  0.907000  0.247700  1.0  0.0926
  H  H110  1  0.664700  0.032500  0.393800  1.0  0.113
  H  H111  1  0.574300  0.964500  0.403100  1.0  0.0881
  H  H112  1  0.837900  0.802600  0.070200  1.0  0.1008
  H  H113  1  0.720200  0.841000  0.150800  1.0  0.1173
  H  H114  1  0.851900  0.731700  0.201300  1.0  0.1356
  H  H115  1  0.957200  0.696600  0.119800  1.0  0.0756
  H  H116  1  0.934400  0.186700  0.234200  1.0  0.3904
  H  H117  1  0.826000  0.218600  0.259200  1.0  0.4245
  H  H118  1  0.171400  0.377600  0.275200  1.0  0.0728
  H  H119  1  0.298000  0.445800  0.315200  1.0  0.1174
  H  H120  1  0.204200  0.480200  0.475300  1.0  0.1228
  H  H121  1  0.085700  0.401900  0.428600  1.0  0.0936
  H  H122  1  0.231100  0.582500  0.476100  1.0  0.1189
  H  H123  1  0.679300  0.582100  0.445500  1.0  0.1081
  H  H124  1  0.740500  0.489300  0.380100  1.0  0.1189
  H  H125  1  0.444600  0.421400  0.361200  1.0  0.1335
  H  H126  1  0.193400  0.672500  0.554800  1.0  0.0874
  H  H127  1  0.204300  0.676200  0.495600  1.0  0.075
  H  H128  1  0.141300  0.768600  0.571500  1.0  0.1408
  H  H129  1  0.257700  0.778200  0.555000  1.0  0.1216
  H  H130  1  0.237600  0.773900  0.613000  1.0  0.1321
  H  H131  1  0.356500  0.785200  0.426700  1.0  0.0931
  H  H132  1  0.323500  0.732100  0.436800  1.0  0.0971
  H  H133  1  0.399000  0.720200  0.383200  1.0  0.0864
  H  H134  1  0.449200  0.788900  0.501500  1.0  0.0792
  H  H135  1  0.524800  0.776300  0.447600  1.0  0.0802
  H  H136  1  0.644900  0.786200  0.518800  1.0  0.1041
  H  H137  1  0.802400  0.752300  0.659300  1.0  0.0942
  H  H138  1  0.664700  0.606200  0.638700  1.0  0.1108
  H  H139  1  0.574300  0.596900  0.561400  1.0  0.089
  H  H140  1  0.837900  0.929800  0.732400  1.0  0.0998
  H  H141  1  0.720200  0.849200  0.690200  1.0  0.1184
  H  H142  1  0.851900  0.798700  0.530400  1.0  0.1373
  H  H143  1  0.957200  0.880200  0.576800  1.0  0.0751
  H  H144  1  0.934400  0.765800  0.952500  1.0  0.3882
  H  H145  1  0.826000  0.740800  0.959400  1.0  0.426
  H  H146  1  0.171400  0.724800  0.102400  1.0  0.0718
  H  H147  1  0.298000  0.684800  0.130600  1.0  0.119
  H  H148  1  0.204200  0.524700  0.004900  1.0  0.1249
  H  H149  1  0.085700  0.571400  0.973300  1.0  0.0928
  H  H150  1  0.231100  0.523900  0.106400  1.0  0.12
  H  H151  1  0.679300  0.554500  0.136600  1.0  0.1085
  H  H152  1  0.740500  0.619900  0.109200  1.0  0.1197
  H  H153  1  0.444600  0.638800  0.060200  1.0  0.1322
  H  H154  1  0.193400  0.445200  0.117700  1.0  0.0872
  H  H155  1  0.204300  0.504400  0.180600  1.0  0.0735
  H  H156  1  0.141300  0.428500  0.197100  1.0  0.1406
  H  H157  1  0.257700  0.445000  0.223200  1.0  0.1222
  H  H158  1  0.237600  0.387000  0.160900  1.0  0.129
  H  H159  1  0.356500  0.573300  0.358500  1.0  0.0933
  H  H160  1  0.323500  0.563200  0.295300  1.0  0.0965
  H  H161  1  0.399000  0.616800  0.337000  1.0  0.0881
  H  H162  1  0.449200  0.498500  0.287400  1.0  0.0783
  H  H163  1  0.524800  0.552400  0.328700  1.0  0.0804
  H  H164  1  0.644900  0.481200  0.267400  1.0  0.1063
  H  H165  1  0.802400  0.340700  0.093000  1.0  0.0921
  H  H166  1  0.664700  0.361300  0.967500  1.0  0.1123
  H  H167  1  0.574300  0.438600  0.035500  1.0  0.0882
  H  H168  1  0.837900  0.267600  0.197400  1.0  0.1011
  H  H169  1  0.720200  0.309800  0.159000  1.0  0.1173
  H  H170  1  0.851900  0.469600  0.268300  1.0  0.1374
  H  H171  1  0.957200  0.423200  0.303400  1.0  0.0753
  C  C172  1  0.820900  0.316800  0.397800  1.0  0.1744
  C  C173  1  0.747300  0.340200  0.439400  1.0  -0.2245
  C  C174  1  0.736600  0.400000  0.472800  1.0  0.0883
  C  C175  1  0.800500  0.433600  0.458800  1.0  -0.1706
  C  C176  1  0.872100  0.405500  0.412500  1.0  0.1093
  C  C177  1  0.657400  0.428700  0.521600  1.0  -0.0222
  C  C178  1  0.695900  0.468100  0.577000  1.0  -0.1861
  C  C179  1  0.626300  0.496200  0.625200  1.0  0.2155
  C  C180  1  0.516700  0.484000  0.616900  1.0  -0.0695
  C  C181  1  0.479300  0.443900  0.560900  1.0  -0.0448
  C  C182  1  0.368300  0.428600  0.549900  1.0  -0.0835
  C  C183  1  0.331300  0.391100  0.495200  1.0  -0.1024
  C  C184  1  0.400700  0.369000  0.447800  1.0  0.0037
  C  C185  1  0.509600  0.379100  0.454500  1.0  -0.1287
  C  C186  1  0.548500  0.416700  0.512000  1.0  0.0077
  C  C187  1  0.768800  0.536100  0.691900  1.0  0.1241
  C  C188  1  0.784500  0.572200  0.759300  1.0  -0.3329
  C  C189  1  0.619900  0.424000  0.748400  1.0  -0.3372
  C  C190  1  0.532200  0.460400  0.759600  1.0  0.0875
  C  C191  1  0.443200  0.517200  0.669000  1.0  -0.057
  C  C192  1  0.430700  0.501100  0.711300  1.0  0.2685
  C  C193  1  0.360800  0.530400  0.757300  1.0  -0.167
  C  C194  1  0.298900  0.576100  0.762600  1.0  -0.0368
  C  C195  1  0.308000  0.593900  0.718800  1.0  0.03
  C  C196  1  0.249100  0.640800  0.722300  1.0  -0.0352
  C  C197  1  0.263400  0.659300  0.685500  1.0  0.0219
  C  C198  1  0.329900  0.627600  0.635500  1.0  -0.1112
  C  C199  1  0.383000  0.582800  0.630800  1.0  -0.0211
  C  C200  1  0.381000  0.564100  0.672900  1.0  0.0329
  C  C201  1  0.161100  0.691000  0.903400  1.0  0.1519
  C  C202  1  0.230200  0.665900  0.854100  1.0  -0.1277
  C  C203  1  0.225300  0.605400  0.812900  1.0  0.1024
  C  C204  1  0.153700  0.571700  0.824400  1.0  -0.2337
  C  C205  1  0.092000  0.600300  0.873800  1.0  0.1869
  C  C206  1  0.820900  0.081000  0.683200  1.0  0.176
  C  C207  1  0.747300  0.099200  0.659800  1.0  -0.2235
  C  C208  1  0.736600  0.072800  0.600000  1.0  0.0883
  C  C209  1  0.800500  0.025200  0.566400  1.0  -0.1629
  C  C210  1  0.872100  0.007000  0.594500  1.0  0.1099
  C  C211  1  0.657400  0.092900  0.571300  1.0  -0.0228
  C  C212  1  0.695900  0.108900  0.531900  1.0  -0.1861
  C  C213  1  0.626300  0.129000  0.503800  1.0  0.2165
  C  C214  1  0.516700  0.132900  0.516000  1.0  -0.0697
  C  C215  1  0.479300  0.117000  0.556100  1.0  -0.0451
  C  C216  1  0.368300  0.121300  0.571400  1.0  -0.0839
  C  C217  1  0.331300  0.104100  0.608900  1.0  -0.1021
  C  C218  1  0.400700  0.078800  0.631000  1.0  0.0054
  C  C219  1  0.509600  0.075400  0.620900  1.0  -0.1274
  C  C220  1  0.548500  0.095300  0.583300  1.0  0.0072
  C  C221  1  0.768800  0.155800  0.463900  1.0  0.125
  C  C222  1  0.784500  0.187100  0.427800  1.0  -0.3359
  C  C223  1  0.619900  0.324400  0.576000  1.0  -0.3364
  C  C224  1  0.532200  0.299200  0.539600  1.0  0.0891
  C  C225  1  0.443200  0.151800  0.482800  1.0  -0.0572
  C  C226  1  0.430700  0.210200  0.498900  1.0  0.2712
  C  C227  1  0.360800  0.226900  0.469600  1.0  -0.1692
  C  C228  1  0.298900  0.186500  0.423900  1.0  -0.0368
  C  C229  1  0.308000  0.124900  0.406100  1.0  0.0304
  C  C230  1  0.249100  0.081500  0.359200  1.0  -0.0322
  C  C231  1  0.263400  0.026200  0.340700  1.0  0.0202
  C  C232  1  0.329900  0.007900  0.372400  1.0  -0.1102
  C  C233  1  0.383000  0.048000  0.417200  1.0  -0.0194
  C  C234  1  0.381000  0.108800  0.435900  1.0  0.0337
  C  C235  1  0.161100  0.212400  0.309000  1.0  0.1529
  C  C236  1  0.230200  0.188200  0.334100  1.0  -0.1288
  C  C237  1  0.225300  0.207500  0.394600  1.0  0.1016
  C  C238  1  0.153700  0.252700  0.428300  1.0  -0.2306
  C  C239  1  0.092000  0.273500  0.399700  1.0  0.1843
  C  C240  1  0.820900  0.602200  0.919000  1.0  0.1753
  C  C241  1  0.747300  0.560600  0.900800  1.0  -0.2236
  C  C242  1  0.736600  0.527200  0.927200  1.0  0.0879
  C  C243  1  0.800500  0.541200  0.974800  1.0  -0.163
  C  C244  1  0.872100  0.587500  0.993000  1.0  0.109
  C  C245  1  0.657400  0.478400  0.907100  1.0  -0.0226
  C  C246  1  0.695900  0.423000  0.891100  1.0  -0.1861
  C  C247  1  0.626300  0.374800  0.871000  1.0  0.2166
  C  C248  1  0.516700  0.383100  0.867100  1.0  -0.07
  C  C249  1  0.479300  0.439100  0.883000  1.0  -0.0447
  C  C250  1  0.368300  0.450100  0.878700  1.0  -0.0841
  C  C251  1  0.331300  0.504800  0.895900  1.0  -0.1029
  C  C252  1  0.400700  0.552200  0.921200  1.0  0.0057
  C  C253  1  0.509600  0.545500  0.924600  1.0  -0.1286
  C  C254  1  0.548500  0.488000  0.904700  1.0  0.0071
  C  C255  1  0.768800  0.308100  0.844200  1.0  0.1246
  C  C256  1  0.784500  0.240700  0.812900  1.0  -0.3379
  C  C257  1  0.619900  0.251600  0.675600  1.0  -0.337
  C  C258  1  0.532200  0.240400  0.700800  1.0  0.0889
  C  C259  1  0.443200  0.331000  0.848200  1.0  -0.0575
  C  C260  1  0.430700  0.288700  0.789800  1.0  0.2669
  C  C261  1  0.360800  0.242700  0.773100  1.0  -0.1675
  C  C262  1  0.298900  0.237400  0.813500  1.0  -0.0367
  C  C263  1  0.308000  0.281200  0.875100  1.0  0.0315
  C  C264  1  0.249100  0.277700  0.918500  1.0  -0.0339
  C  C265  1  0.263400  0.314500  0.973800  1.0  0.0173
  C  C266  1  0.329900  0.364500  0.992100  1.0  -0.1091
  C  C267  1  0.383000  0.369200  0.952000  1.0  -0.0203
  C  C268  1  0.381000  0.327100  0.891200  1.0  0.0337
  C  C269  1  0.161100  0.096600  0.787600  1.0  0.1519
  C  C270  1  0.230200  0.145900  0.811800  1.0  -0.128
  C  C271  1  0.225300  0.187100  0.792500  1.0  0.1024
  C  C272  1  0.153700  0.175600  0.747300  1.0  -0.2348
  C  C273  1  0.092000  0.126200  0.726500  1.0  0.1841
  C  C274  1  0.179100  0.919000  0.602200  1.0  0.1763
  C  C275  1  0.252700  0.900800  0.560600  1.0  -0.2233
  C  C276  1  0.263400  0.927200  0.527200  1.0  0.0876
  C  C277  1  0.199500  0.974800  0.541200  1.0  -0.1631
  C  C278  1  0.127900  0.993000  0.587500  1.0  0.1099
  C  C279  1  0.342600  0.907100  0.478400  1.0  -0.0244
  C  C280  1  0.304100  0.891100  0.423000  1.0  -0.1852
  C  C281  1  0.373700  0.871000  0.374800  1.0  0.2161
  C  C282  1  0.483300  0.867100  0.383100  1.0  -0.0685
  C  C283  1  0.520700  0.883000  0.439100  1.0  -0.0439
  C  C284  1  0.631700  0.878700  0.450100  1.0  -0.0869
  C  C285  1  0.668700  0.895900  0.504800  1.0  -0.1039
  C  C286  1  0.599300  0.921200  0.552200  1.0  0.004
  C  C287  1  0.490400  0.924600  0.545500  1.0  -0.1287
  C  C288  1  0.451500  0.904700  0.488000  1.0  0.0083
  C  C289  1  0.231200  0.844200  0.308100  1.0  0.1249
  C  C290  1  0.215500  0.812900  0.240700  1.0  -0.3342
  C  C291  1  0.380100  0.675600  0.251600  1.0  -0.3378
  C  C292  1  0.467800  0.700800  0.240400  1.0  0.0876
  C  C293  1  0.556800  0.848200  0.331000  1.0  -0.0566
  C  C294  1  0.569300  0.789800  0.288700  1.0  0.2723
  C  C295  1  0.639200  0.773100  0.242700  1.0  -0.169
  C  C296  1  0.701100  0.813500  0.237400  1.0  -0.0355
  C  C297  1  0.692000  0.875100  0.281200  1.0  0.0313
  C  C298  1  0.750900  0.918500  0.277700  1.0  -0.033
  C  C299  1  0.736600  0.973800  0.314500  1.0  0.0199
  C  C300  1  0.670100  0.992100  0.364500  1.0  -0.1099
  C  C301  1  0.617000  0.952000  0.369200  1.0  -0.0174
  C  C302  1  0.619000  0.891200  0.327100  1.0  0.0354
  C  C303  1  0.838900  0.787600  0.096600  1.0  0.1515
  C  C304  1  0.769800  0.811800  0.145900  1.0  -0.1283
  C  C305  1  0.774700  0.792500  0.187100  1.0  0.102
  C  C306  1  0.846300  0.747300  0.175600  1.0  -0.2305
  C  C307  1  0.908000  0.726500  0.126200  1.0  0.1837
  C  C308  1  0.179100  0.397800  0.316800  1.0  0.1747
  C  C309  1  0.252700  0.439400  0.340200  1.0  -0.2233
  C  C310  1  0.263400  0.472800  0.400000  1.0  0.088
  C  C311  1  0.199500  0.458800  0.433600  1.0  -0.1638
  C  C312  1  0.127900  0.412500  0.405500  1.0  0.109
  C  C313  1  0.342600  0.521600  0.428700  1.0  -0.0246
  C  C314  1  0.304100  0.577000  0.468100  1.0  -0.1855
  C  C315  1  0.373700  0.625200  0.496200  1.0  0.217
  C  C316  1  0.483300  0.616900  0.484000  1.0  -0.0692
  C  C317  1  0.520700  0.560900  0.443900  1.0  -0.0438
  C  C318  1  0.631700  0.549900  0.428600  1.0  -0.0859
  C  C319  1  0.668700  0.495200  0.391100  1.0  -0.105
  C  C320  1  0.599300  0.447800  0.369000  1.0  0.0079
  C  C321  1  0.490400  0.454500  0.379100  1.0  -0.1303
  C  C322  1  0.451500  0.512000  0.416700  1.0  0.0065
  C  C323  1  0.231200  0.691900  0.536100  1.0  0.1236
  C  C324  1  0.215500  0.759300  0.572200  1.0  -0.337
  C  C325  1  0.380100  0.748400  0.424000  1.0  -0.3373
  C  C326  1  0.467800  0.759600  0.460400  1.0  0.088
  C  C327  1  0.556800  0.669000  0.517200  1.0  -0.0562
  C  C328  1  0.569300  0.711300  0.501100  1.0  0.268
  C  C329  1  0.639200  0.757300  0.530400  1.0  -0.1666
  C  C330  1  0.701100  0.762600  0.576100  1.0  -0.0352
  C  C331  1  0.692000  0.718800  0.593900  1.0  0.0316
  C  C332  1  0.750900  0.722300  0.640800  1.0  -0.0337
  C  C333  1  0.736600  0.685500  0.659300  1.0  0.0188
  C  C334  1  0.670100  0.635500  0.627600  1.0  -0.109
  C  C335  1  0.617000  0.630800  0.582800  1.0  -0.017
  C  C336  1  0.619000  0.672900  0.564100  1.0  0.0345
  C  C337  1  0.838900  0.903400  0.691000  1.0  0.1515
  C  C338  1  0.769800  0.854100  0.665900  1.0  -0.1291
  C  C339  1  0.774700  0.812900  0.605400  1.0  0.1027
  C  C340  1  0.846300  0.824400  0.571700  1.0  -0.2346
  C  C341  1  0.908000  0.873800  0.600300  1.0  0.1828
  C  C342  1  0.179100  0.683200  0.081000  1.0  0.1738
  C  C343  1  0.252700  0.659800  0.099200  1.0  -0.2259
  C  C344  1  0.263400  0.600000  0.072800  1.0  0.087
  C  C345  1  0.199500  0.566400  0.025200  1.0  -0.1692
  C  C346  1  0.127900  0.594500  0.007000  1.0  0.1096
  C  C347  1  0.342600  0.571300  0.092900  1.0  -0.0242
  C  C348  1  0.304100  0.531900  0.108900  1.0  -0.1855
  C  C349  1  0.373700  0.503800  0.129000  1.0  0.2151
  C  C350  1  0.483300  0.516000  0.132900  1.0  -0.0677
  C  C351  1  0.520700  0.556100  0.117000  1.0  -0.044
  C  C352  1  0.631700  0.571400  0.121300  1.0  -0.0865
  C  C353  1  0.668700  0.608900  0.104100  1.0  -0.1047
  C  C354  1  0.599300  0.631000  0.078800  1.0  0.0027
  C  C355  1  0.490400  0.620900  0.075400  1.0  -0.1293
  C  C356  1  0.451500  0.583300  0.095300  1.0  0.0075
  C  C357  1  0.231200  0.463900  0.155800  1.0  0.1247
  C  C358  1  0.215500  0.427800  0.187100  1.0  -0.3321
  C  C359  1  0.380100  0.576000  0.324400  1.0  -0.3359
  C  C360  1  0.467800  0.539600  0.299200  1.0  0.0857
  C  C361  1  0.556800  0.482800  0.151800  1.0  -0.0572
  C  C362  1  0.569300  0.498900  0.210200  1.0  0.2695
  C  C363  1  0.639200  0.469600  0.226900  1.0  -0.1664
  C  C364  1  0.701100  0.423900  0.186500  1.0  -0.0354
  C  C365  1  0.692000  0.406100  0.124900  1.0  0.0303
  C  C366  1  0.750900  0.359200  0.081500  1.0  -0.0342
  C  C367  1  0.736600  0.340700  0.026200  1.0  0.0229
  C  C368  1  0.670100  0.372400  0.007900  1.0  -0.1104
  C  C369  1  0.617000  0.417200  0.048000  1.0  -0.0196
  C  C370  1  0.619000  0.435900  0.108800  1.0  0.0338
  C  C371  1  0.838900  0.309000  0.212400  1.0  0.1525
  C  C372  1  0.769800  0.334100  0.188200  1.0  -0.1284
  C  C373  1  0.774700  0.394600  0.207500  1.0  0.103
  C  C374  1  0.846300  0.428300  0.252700  1.0  -0.2337
  C  C375  1  0.908000  0.399700  0.273500  1.0  0.1857
  N  N376  1  0.883000  0.346400  0.382700  1.0  -0.3494
  N  N377  1  0.094200  0.657000  0.913200  1.0  -0.3226
  N  N378  1  0.883000  0.036300  0.653600  1.0  -0.3475
  N  N379  1  0.094200  0.256200  0.343000  1.0  -0.3254
  N  N380  1  0.883000  0.617300  0.963700  1.0  -0.3487
  N  N381  1  0.094200  0.086800  0.743800  1.0  -0.3216
  N  N382  1  0.117000  0.963700  0.617300  1.0  -0.3485
  N  N383  1  0.905800  0.743800  0.086800  1.0  -0.326
  N  N384  1  0.117000  0.382700  0.346400  1.0  -0.3485
  N  N385  1  0.905800  0.913200  0.657000  1.0  -0.3213
  N  N386  1  0.117000  0.653600  0.036300  1.0  -0.3492
  N  N387  1  0.905800  0.343000  0.256200  1.0  -0.3217
  Cl  Cl388  1  0.352830  0.322180  0.376990  1.0  -0.1239
  Cl  Cl389  1  0.178600  0.713000  0.685470  1.0  -0.1357
  Cl  Cl390  1  0.352830  0.054810  0.677820  1.0  -0.1208
  Cl  Cl391  1  0.178600  0.972470  0.287000  1.0  -0.1368
  Cl  Cl392  1  0.352830  0.623010  0.945190  1.0  -0.1186
  Cl  Cl393  1  0.178600  0.314530  0.027530  1.0  -0.1396
  Cl  Cl394  1  0.647170  0.945190  0.623010  1.0  -0.1201
  Cl  Cl395  1  0.821400  0.027530  0.314530  1.0  -0.137
  Cl  Cl396  1  0.647170  0.376990  0.322180  1.0  -0.1192
  Cl  Cl397  1  0.821400  0.685470  0.713000  1.0  -0.1384
  Cl  Cl398  1  0.647170  0.677820  0.054810  1.0  -0.1245
  Cl  Cl399  1  0.821400  0.287000  0.972470  1.0  -0.1348
  Cl  Cl400  1  0.989300  0.606800  0.164900  1.0  1.5116
  Cl  Cl401  1  0.989300  0.558100  0.393200  1.0  1.513
  Cl  Cl402  1  0.989300  0.835100  0.441900  1.0  1.5137
  Cl  Cl403  1  0.010700  0.441900  0.835100  1.0  1.5153
  Cl  Cl404  1  0.010700  0.164900  0.606800  1.0  1.5135
  Cl  Cl405  1  0.010700  0.393200  0.558100  1.0  1.5125
  O  O406  1  0.657900  0.535100  0.681400  1.0  -0.2609
  O  O407  1  0.495600  0.458100  0.706400  1.0  -0.2879
  O  O408  1  0.104000  0.254200  0.216100  1.0  -0.8048
  O  O409  1  0.657900  0.146300  0.464900  1.0  -0.2593
  O  O410  1  0.495600  0.248300  0.541900  1.0  -0.2849
  O  O411  1  0.104000  0.961900  0.745800  1.0  -0.8103
  O  O412  1  0.657900  0.318600  0.853700  1.0  -0.2601
  O  O413  1  0.495600  0.293600  0.751700  1.0  -0.2887
  O  O414  1  0.104000  0.783900  0.038100  1.0  -0.8056
  O  O415  1  0.342100  0.853700  0.318600  1.0  -0.2615
  O  O416  1  0.504400  0.751700  0.293600  1.0  -0.2848
  O  O417  1  0.896000  0.038100  0.783900  1.0  -0.8109
  O  O418  1  0.342100  0.681400  0.535100  1.0  -0.2607
  O  O419  1  0.504400  0.706400  0.458100  1.0  -0.2898
  O  O420  1  0.896000  0.216100  0.254200  1.0  -0.8048
  O  O421  1  0.342100  0.464900  0.146300  1.0  -0.2626
  O  O422  1  0.504400  0.541900  0.248300  1.0  -0.2878
  O  O423  1  0.896000  0.745800  0.961900  1.0  -0.8058
  O  O424  1  0.960200  0.597500  0.112100  1.0  -0.5842
  O  O425  1  0.051000  0.558900  0.157500  1.0  -0.5779
  O  O426  1  0.051000  0.655500  0.194300  1.0  -0.5858
  O  O427  1  0.906000  0.612000  0.199600  1.0  -0.5247
  O  O428  1  0.960200  0.514600  0.402500  1.0  -0.5853
  O  O429  1  0.051000  0.598600  0.441100  1.0  -0.5779
  O  O430  1  0.051000  0.538800  0.344500  1.0  -0.5879
  O  O431  1  0.906000  0.587600  0.388000  1.0  -0.5228
  O  O432  1  0.960200  0.887900  0.485400  1.0  -0.581
  O  O433  1  0.051000  0.842500  0.401400  1.0  -0.5827
  O  O434  1  0.051000  0.805700  0.461200  1.0  -0.5871
  O  O435  1  0.906000  0.800400  0.412400  1.0  -0.5239
  O  O436  1  0.039800  0.485400  0.887900  1.0  -0.5821
  O  O437  1  0.949000  0.401400  0.842500  1.0  -0.5787
  O  O438  1  0.949000  0.461200  0.805700  1.0  -0.5844
  O  O439  1  0.094000  0.412400  0.800400  1.0  -0.5217
  O  O440  1  0.039800  0.112100  0.597500  1.0  -0.5783
  O  O441  1  0.949000  0.157500  0.558900  1.0  -0.5827
  O  O442  1  0.949000  0.194300  0.655500  1.0  -0.5837
  O  O443  1  0.094000  0.199600  0.612000  1.0  -0.5208
  O  O444  1  0.039800  0.402500  0.514600  1.0  -0.5826
  O  O445  1  0.949000  0.441100  0.598600  1.0  -0.5774
  O  O446  1  0.949000  0.344500  0.538800  1.0  -0.5826
  O  O447  1  0.094000  0.388000  0.587600  1.0  -0.5241
