# generated using pymatgen
data_ZnH8C13N5O4
_symmetry_space_group_name_H-M   'P 1'
_cell_length_a   10.37000000
_cell_length_b   10.02500000
_cell_length_c   19.57500000
_cell_angle_alpha   90.00000000
_cell_angle_beta   92.13000000
_cell_angle_gamma   90.00000000
_symmetry_Int_Tables_number   1
_chemical_formula_structural   ZnH8C13N5O4
_chemical_formula_sum   'Zn4 H32 C52 N20 O16'
_cell_volume   2033.59627499
_cell_formula_units_Z   4
loop_
 _symmetry_equiv_pos_site_id
 _symmetry_equiv_pos_as_xyz
  1  'x, y, z'
loop_
 _atom_site_type_symbol
 _atom_site_label
 _atom_site_symmetry_multiplicity
 _atom_site_fract_x
 _atom_site_fract_y
 _atom_site_fract_z
 _atom_site_occupancy
 _atom_site_charge
  Zn  Zn1  1  0.991330  0.741990  0.341040  1.0  0.8855
  Zn  Zn2  1  0.008670  0.241990  0.158960  1.0  0.8861
  Zn  Zn3  1  0.008670  0.258010  0.658960  1.0  0.8861
  Zn  Zn4  1  0.991330  0.758010  0.841040  1.0  0.8855
  H  H5  1  0.798240  0.543580  0.270590  1.0  0.3651
  H  H6  1  0.801470  0.416210  0.231510  1.0  0.3838
  H  H7  1  0.571040  0.638250  0.392730  1.0  0.1315
  H  H8  1  0.641260  0.901660  0.401770  1.0  0.1302
  H  H9  1  0.399320  0.867430  0.394590  1.0  0.1166
  H  H10  1  0.180820  0.032570  0.535380  1.0  0.1236
  H  H11  1  0.337410  0.608400  0.409360  1.0  0.1215
  H  H12  1  0.829660  0.480830  0.529360  1.0  0.1291
  H  H13  1  0.201760  0.043580  0.229410  1.0  0.3651
  H  H14  1  0.198530  0.916210  0.268490  1.0  0.3821
  H  H15  1  0.428960  0.138250  0.107270  1.0  0.131
  H  H16  1  0.358740  0.401660  0.098230  1.0  0.1302
  H  H17  1  0.600680  0.367430  0.105410  1.0  0.1162
  H  H18  1  0.819180  0.532570  0.964620  1.0  0.1236
  H  H19  1  0.662590  0.108400  0.090640  1.0  0.1218
  H  H20  1  0.170340  0.980830  0.970640  1.0  0.1297
  H  H21  1  0.201760  0.456420  0.729410  1.0  0.3654
  H  H22  1  0.198530  0.583790  0.768490  1.0  0.3839
  H  H23  1  0.428960  0.361750  0.607270  1.0  0.1308
  H  H24  1  0.358740  0.098340  0.598230  1.0  0.1305
  H  H25  1  0.600680  0.132570  0.605410  1.0  0.1163
  H  H26  1  0.819180  0.967430  0.464620  1.0  0.1238
  H  H27  1  0.662590  0.391600  0.590640  1.0  0.1217
  H  H28  1  0.170340  0.519170  0.470640  1.0  0.1295
  H  H29  1  0.798240  0.956420  0.770590  1.0  0.365
  H  H30  1  0.801470  0.083790  0.731510  1.0  0.384
  H  H31  1  0.571040  0.861750  0.892730  1.0  0.1316
  H  H32  1  0.641260  0.598340  0.901770  1.0  0.1305
  H  H33  1  0.399320  0.632570  0.894590  1.0  0.1166
  H  H34  1  0.180820  0.467430  0.035380  1.0  0.1237
  H  H35  1  0.337410  0.891600  0.909360  1.0  0.1217
  H  H36  1  0.829660  0.019170  0.029360  1.0  0.1291
  C  C37  1  0.484400  0.538200  0.471100  1.0  0.0513
  C  C38  1  0.505800  0.964300  0.468400  1.0  0.0598
  C  C39  1  0.714400  0.570100  0.456300  1.0  -0.0886
  C  C40  1  0.588200  0.590800  0.432900  1.0  -0.0746
  C  C41  1  0.274800  0.938700  0.459500  1.0  -0.1378
  C  C42  1  0.631600  0.944400  0.443400  1.0  -0.1001
  C  C43  1  0.392600  0.916000  0.434800  1.0  -0.0422
  C  C44  1  0.972500  0.486000  0.253200  1.0  0.5803
  C  C45  1  0.262500  0.012800  0.520200  1.0  -0.0392
  C  C46  1  0.355700  0.558800  0.448700  1.0  -0.0934
  C  C47  1  0.823000  0.633700  0.419400  1.0  0.6912
  C  C48  1  0.155000  0.888600  0.421900  1.0  0.7144
  C  C49  1  0.744200  0.494700  0.515000  1.0  -0.019
  C  C50  1  0.515600  0.038200  0.028900  1.0  0.0515
  C  C51  1  0.494200  0.464300  0.031600  1.0  0.0589
  C  C52  1  0.285600  0.070100  0.043700  1.0  -0.0873
  C  C53  1  0.411800  0.090800  0.067100  1.0  -0.0739
  C  C54  1  0.725200  0.438700  0.040500  1.0  -0.1374
  C  C55  1  0.368400  0.444400  0.056600  1.0  -0.1008
  C  C56  1  0.607400  0.416000  0.065200  1.0  -0.043
  C  C57  1  0.027500  0.986000  0.246800  1.0  0.5809
  C  C58  1  0.737500  0.512800  0.979800  1.0  -0.0401
  C  C59  1  0.644300  0.058800  0.051300  1.0  -0.093
  C  C60  1  0.177000  0.133700  0.080600  1.0  0.692
  C  C61  1  0.845000  0.388600  0.078100  1.0  0.7162
  C  C62  1  0.255800  0.994700  0.985000  1.0  -0.0195
  C  C63  1  0.515600  0.461800  0.528900  1.0  0.0517
  C  C64  1  0.494200  0.035700  0.531600  1.0  0.0587
  C  C65  1  0.285600  0.429900  0.543700  1.0  -0.0865
  C  C66  1  0.411800  0.409200  0.567100  1.0  -0.0719
  C  C67  1  0.725200  0.061300  0.540500  1.0  -0.1373
  C  C68  1  0.368400  0.055600  0.556600  1.0  -0.098
  C  C69  1  0.607400  0.084000  0.565200  1.0  -0.0428
  C  C70  1  0.027500  0.514000  0.746800  1.0  0.581
  C  C71  1  0.737500  0.987200  0.479800  1.0  -0.0397
  C  C72  1  0.644300  0.441200  0.551300  1.0  -0.0938
  C  C73  1  0.177000  0.366300  0.580600  1.0  0.6914
  C  C74  1  0.845000  0.111400  0.578100  1.0  0.7164
  C  C75  1  0.255800  0.505300  0.485000  1.0  -0.0196
  C  C76  1  0.484400  0.961800  0.971100  1.0  0.0516
  C  C77  1  0.505800  0.535700  0.968400  1.0  0.0592
  C  C78  1  0.714400  0.929900  0.956300  1.0  -0.0879
  C  C79  1  0.588200  0.909200  0.932900  1.0  -0.0721
  C  C80  1  0.274800  0.561300  0.959500  1.0  -0.138
  C  C81  1  0.631600  0.555600  0.943400  1.0  -0.0974
  C  C82  1  0.392600  0.584000  0.934800  1.0  -0.0416
  C  C83  1  0.972500  0.014000  0.753200  1.0  0.5802
  C  C84  1  0.262500  0.487200  0.020200  1.0  -0.0392
  C  C85  1  0.355700  0.941200  0.948700  1.0  -0.0936
  C  C86  1  0.823000  0.866300  0.919400  1.0  0.6907
  C  C87  1  0.155000  0.611400  0.921900  1.0  0.7145
  C  C88  1  0.744200  0.005300  0.015000  1.0  -0.019
  N  N89  1  0.168200  0.551700  0.271200  1.0  -0.1444
  N  N90  1  0.039700  0.581700  0.282700  1.0  -0.2825
  N  N91  1  0.841300  0.481400  0.251600  1.0  -0.7233
  N  N92  1  0.048400  0.399700  0.221700  1.0  -0.3321
  N  N93  1  0.171000  0.445100  0.233900  1.0  -0.0622
  N  N94  1  0.831800  0.051700  0.228800  1.0  -0.1441
  N  N95  1  0.960300  0.081700  0.217300  1.0  -0.2818
  N  N96  1  0.158700  0.981400  0.248400  1.0  -0.7235
  N  N97  1  0.951600  0.899700  0.278300  1.0  -0.3317
  N  N98  1  0.829000  0.945100  0.266100  1.0  -0.0604
  N  N99  1  0.831800  0.448300  0.728800  1.0  -0.1447
  N  N100  1  0.960300  0.418300  0.717300  1.0  -0.2811
  N  N101  1  0.158700  0.518600  0.748400  1.0  -0.7233
  N  N102  1  0.951600  0.600300  0.778300  1.0  -0.3315
  N  N103  1  0.829000  0.554900  0.766100  1.0  -0.06
  N  N104  1  0.168200  0.948300  0.771200  1.0  -0.1441
  N  N105  1  0.039700  0.918300  0.782700  1.0  -0.2818
  N  N106  1  0.841300  0.018600  0.751600  1.0  -0.7234
  N  N107  1  0.048400  0.100300  0.721700  1.0  -0.3322
  N  N108  1  0.171000  0.054900  0.733900  1.0  -0.0628
  O  O109  1  0.934000  0.635800  0.446300  1.0  -0.5796
  O  O110  1  0.803400  0.681600  0.360200  1.0  -0.6034
  O  O111  1  0.046900  0.937000  0.434800  1.0  -0.5858
  O  O112  1  0.164900  0.793300  0.379100  1.0  -0.583
  O  O113  1  0.066000  0.135800  0.053700  1.0  -0.5806
  O  O114  1  0.196600  0.181600  0.139800  1.0  -0.6008
  O  O115  1  0.953100  0.437000  0.065200  1.0  -0.585
  O  O116  1  0.835100  0.293300  0.120900  1.0  -0.5822
  O  O117  1  0.066000  0.364200  0.553700  1.0  -0.5808
  O  O118  1  0.196600  0.318400  0.639800  1.0  -0.6003
  O  O119  1  0.953100  0.063000  0.565200  1.0  -0.5846
  O  O120  1  0.835100  0.206700  0.620900  1.0  -0.5836
  O  O121  1  0.934000  0.864200  0.946300  1.0  -0.5799
  O  O122  1  0.803400  0.818400  0.860200  1.0  -0.6025
  O  O123  1  0.046900  0.563000  0.934800  1.0  -0.5848
  O  O124  1  0.164900  0.706700  0.879100  1.0  -0.5845
