# generated using pymatgen
data_Cu3Mo2H24C30(NO)6
_symmetry_space_group_name_H-M   'P 1'
_cell_length_a   9.61890000
_cell_length_b   10.63900000
_cell_length_c   10.98600000
_cell_angle_alpha   79.52300000
_cell_angle_beta   64.99500000
_cell_angle_gamma   70.57400000
_symmetry_Int_Tables_number   1
_chemical_formula_structural   Cu3Mo2H24C30(NO)6
_chemical_formula_sum   'Cu3 Mo2 H24 C30 N6 O6'
_cell_volume   959.75870109
_cell_formula_units_Z   1
loop_
 _symmetry_equiv_pos_site_id
 _symmetry_equiv_pos_as_xyz
  1  'x, y, z'
loop_
 _atom_site_type_symbol
 _atom_site_label
 _atom_site_symmetry_multiplicity
 _atom_site_fract_x
 _atom_site_fract_y
 _atom_site_fract_z
 _atom_site_occupancy
 _atom_site_charge
  Cu  Cu1  1  0.651740  0.157080  0.545790  1.0  0.3983
  Cu  Cu2  1  0.348260  0.842920  0.454210  1.0  0.4
  Cu  Cu3  1  0.000000  0.500000  0.500000  1.0  0.6742
  Mo  Mo4  1  0.353290  0.208410  0.406150  1.0  1.2382
  Mo  Mo5  1  0.646710  0.791590  0.593850  1.0  1.238
  H  H6  1  0.561100  0.209800  0.833800  1.0  0.0657
  H  H7  1  0.363700  0.203200  0.041000  1.0  0.1034
  H  H8  1  0.214100  0.113500  0.228300  1.0  0.1041
  H  H9  1  0.003400  0.121700  0.428500  1.0  0.0664
  H  H10  1  0.708300  0.201100  0.251900  1.0  0.0671
  H  H11  1  0.910400  0.192500  0.046900  1.0  0.1233
  H  H12  1  0.139300  0.080800  0.873900  1.0  0.1118
  H  H13  1  0.349100  0.079300  0.673600  1.0  0.0674
  H  H14  1  0.235100  0.479800  0.825000  1.0  0.1145
  H  H15  1  0.229700  0.481000  0.619100  1.0  0.0776
  H  H16  1  0.767000  0.521500  0.988200  1.0  0.1088
  H  H17  1  0.772000  0.529300  0.778600  1.0  0.0623
  H  H18  1  0.438900  0.790200  0.166200  1.0  0.0656
  H  H19  1  0.636300  0.796800  0.959000  1.0  0.104
  H  H20  1  0.785900  0.886500  0.771700  1.0  0.1041
  H  H21  1  0.996600  0.878300  0.571500  1.0  0.0664
  H  H22  1  0.291700  0.798900  0.748100  1.0  0.0581
  H  H23  1  0.089600  0.807500  0.953100  1.0  0.1225
  H  H24  1  0.860700  0.919200  0.126100  1.0  0.112
  H  H25  1  0.650900  0.920700  0.326400  1.0  0.0668
  H  H26  1  0.764900  0.520200  0.175000  1.0  0.1141
  H  H27  1  0.770300  0.519000  0.380900  1.0  0.0771
  H  H28  1  0.233000  0.478500  0.011800  1.0  0.1098
  H  H29  1  0.228000  0.470700  0.221400  1.0  0.0629
  C  C30  1  0.474500  0.183300  0.842100  1.0  0.1351
  C  C31  1  0.355500  0.181200  0.966600  1.0  -0.2012
  C  C32  1  0.223900  0.146600  0.981300  1.0  0.0809
  C  C33  1  0.088300  0.151800  0.112600  1.0  0.0876
  C  C34  1  0.111800  0.131300  0.230300  1.0  -0.2049
  C  C35  1  0.984200  0.137000  0.350100  1.0  0.1631
  C  C36  1  0.812000  0.183000  0.247000  1.0  0.1781
  C  C37  1  0.932400  0.178200  0.123800  1.0  -0.2158
  C  C38  1  0.224500  0.107700  0.868300  1.0  -0.2116
  C  C39  1  0.349900  0.108700  0.748000  1.0  0.1653
  C  C40  1  0.139000  0.489000  0.818300  1.0  -0.2051
  C  C41  1  0.134600  0.491000  0.694900  1.0  0.1588
  C  C42  1  0.000400  0.500500  0.932600  1.0  0.067
  C  C43  1  0.863300  0.514500  0.914100  1.0  -0.1979
  C  C44  1  0.867000  0.518200  0.788200  1.0  0.1501
  C  C45  1  0.525500  0.816700  0.157900  1.0  0.1346
  C  C46  1  0.644500  0.818800  0.033400  1.0  -0.2005
  C  C47  1  0.776100  0.853400  0.018700  1.0  0.0815
  C  C48  1  0.911700  0.848200  0.887400  1.0  0.0868
  C  C49  1  0.888200  0.868700  0.769700  1.0  -0.2071
  C  C50  1  0.015800  0.863000  0.649900  1.0  0.1642
  C  C51  1  0.188000  0.817000  0.753000  1.0  0.1775
  C  C52  1  0.067600  0.821800  0.876200  1.0  -0.2162
  C  C53  1  0.775500  0.892300  0.131700  1.0  -0.2116
  C  C54  1  0.650100  0.891300  0.252000  1.0  0.1607
  C  C55  1  0.861000  0.511000  0.181700  1.0  -0.2011
  C  C56  1  0.865400  0.509000  0.305100  1.0  0.1589
  C  C57  1  0.999600  0.499500  0.067400  1.0  0.0677
  C  C58  1  0.136700  0.485500  0.085900  1.0  -0.1945
  C  C59  1  0.133000  0.481800  0.211800  1.0  0.1506
  N  N60  1  0.473100  0.149300  0.731900  1.0  -0.3158
  N  N61  1  0.834600  0.163000  0.361900  1.0  -0.3039
  N  N62  1  0.000700  0.506500  0.679000  1.0  -0.3292
  N  N63  1  0.526900  0.850700  0.268100  1.0  -0.3158
  N  N64  1  0.165400  0.837000  0.638100  1.0  -0.3011
  N  N65  1  0.999300  0.493500  0.321000  1.0  -0.3299
  O  O66  1  0.497900  0.208500  0.464800  1.0  -0.6838
  O  O67  1  0.293400  0.065800  0.465800  1.0  -0.6319
  O  O68  1  0.188600  0.349200  0.460200  1.0  -0.724
  O  O69  1  0.502100  0.791500  0.535200  1.0  -0.6938
  O  O70  1  0.706600  0.934200  0.534200  1.0  -0.6313
  O  O71  1  0.811400  0.650800  0.539800  1.0  -0.7248
