# generated using pymatgen
data_Co2H24C27(NO2)4
_symmetry_space_group_name_H-M   'P 1'
_cell_length_a   18.36380000
_cell_length_b   10.91350000
_cell_length_c   18.89420000
_cell_angle_alpha   90.00000000
_cell_angle_beta   108.37400000
_cell_angle_gamma   90.00000000
_symmetry_Int_Tables_number   1
_chemical_formula_structural   Co2H24C27(NO2)4
_chemical_formula_sum   'Co8 H96 C108 N16 O32'
_cell_volume   3593.60295434
_cell_formula_units_Z   4
loop_
 _symmetry_equiv_pos_site_id
 _symmetry_equiv_pos_as_xyz
  1  'x, y, z'
loop_
 _atom_site_type_symbol
 _atom_site_label
 _atom_site_symmetry_multiplicity
 _atom_site_fract_x
 _atom_site_fract_y
 _atom_site_fract_z
 _atom_site_occupancy
 _atom_site_charge
  Co  Co1  1  0.186350  0.294720  0.470690  1.0  0.9489
  Co  Co2  1  0.285470  0.297750  0.376670  1.0  0.9473
  Co  Co3  1  0.686350  0.205280  0.970690  1.0  0.9497
  Co  Co4  1  0.785470  0.202250  0.876670  1.0  0.9473
  Co  Co5  1  0.313650  0.794720  0.029310  1.0  0.9496
  Co  Co6  1  0.214530  0.797750  0.123330  1.0  0.9457
  Co  Co7  1  0.813650  0.705280  0.529310  1.0  0.9508
  Co  Co8  1  0.714530  0.702250  0.623330  1.0  0.9458
  H  H9  1  0.190500  0.899600  0.514100  1.0  0.1113
  H  H10  1  0.271400  0.907500  0.338600  1.0  0.0934
  H  H11  1  0.202400  0.687900  0.518700  1.0  0.0918
  H  H12  1  0.280700  0.694800  0.341600  1.0  0.114
  H  H13  1  0.103600  0.310700  0.156300  1.0  0.0903
  H  H14  1  0.995600  0.283900  0.052900  1.0  0.1056
  H  H15  1  0.868900  0.216600  0.187800  1.0  0.099
  H  H16  1  0.976300  0.245800  0.291300  1.0  0.0965
  H  H17  1  0.935100  0.350400  0.521100  1.0  0.1174
  H  H18  1  0.006500  0.261400  0.444100  1.0  0.1085
  H  H19  1  0.976200  0.513000  0.633100  1.0  0.0893
  H  H20  1  0.065100  0.527500  0.675300  1.0  0.0808
  H  H21  1  0.065800  0.334300  0.733600  1.0  0.0707
  H  H22  1  0.009300  0.427000  0.754500  1.0  0.0798
  H  H23  1  0.908100  0.335500  0.650000  1.0  0.08
  H  H24  1  0.967500  0.229400  0.652700  1.0  0.0949
  H  H25  1  0.883600  0.000700  0.817500  1.0  0.0992
  H  H26  1  0.957500  0.042900  0.732500  1.0  0.1292
  H  H27  1  0.856000  0.440200  0.728900  1.0  0.0947
  H  H28  1  0.905500  0.449600  0.814200  1.0  0.1058
  H  H29  1  0.817300  0.415800  0.791600  1.0  0.1088
  H  H30  1  0.194800  0.390100  0.684200  1.0  0.1217
  H  H31  1  0.178500  0.521000  0.646200  1.0  0.1181
  H  H32  1  0.225500  0.422400  0.617000  1.0  0.144
  H  H33  1  0.690500  0.600400  0.014100  1.0  0.1116
  H  H34  1  0.771400  0.592500  0.838600  1.0  0.0929
  H  H35  1  0.702400  0.812100  0.018700  1.0  0.0919
  H  H36  1  0.780700  0.805200  0.841600  1.0  0.1135
  H  H37  1  0.603600  0.189300  0.656300  1.0  0.0905
  H  H38  1  0.495600  0.216100  0.552900  1.0  0.1054
  H  H39  1  0.368900  0.283400  0.687800  1.0  0.0988
  H  H40  1  0.476300  0.254200  0.791300  1.0  0.0965
  H  H41  1  0.435100  0.149600  0.021100  1.0  0.1193
  H  H42  1  0.506500  0.238600  0.944100  1.0  0.1106
  H  H43  1  0.476200  0.987000  0.133100  1.0  0.0888
  H  H44  1  0.565100  0.972500  0.175300  1.0  0.0811
  H  H45  1  0.565800  0.165700  0.233600  1.0  0.0713
  H  H46  1  0.509300  0.073000  0.254500  1.0  0.0798
  H  H47  1  0.408100  0.164500  0.150000  1.0  0.0799
  H  H48  1  0.467500  0.270600  0.152700  1.0  0.0946
  H  H49  1  0.383600  0.499300  0.317500  1.0  0.0983
  H  H50  1  0.457500  0.457100  0.232500  1.0  0.1299
  H  H51  1  0.356000  0.059800  0.228900  1.0  0.0952
  H  H52  1  0.405500  0.050400  0.314200  1.0  0.1057
  H  H53  1  0.317300  0.084200  0.291600  1.0  0.1086
  H  H54  1  0.694800  0.109900  0.184200  1.0  0.1218
  H  H55  1  0.678500  0.979000  0.146200  1.0  0.1201
  H  H56  1  0.725500  0.077600  0.117000  1.0  0.1438
  H  H57  1  0.309500  0.399600  0.985900  1.0  0.1111
  H  H58  1  0.228600  0.407500  0.161400  1.0  0.093
  H  H59  1  0.297600  0.187900  0.981300  1.0  0.092
  H  H60  1  0.219300  0.194800  0.158400  1.0  0.1148
  H  H61  1  0.396400  0.810700  0.343700  1.0  0.0916
  H  H62  1  0.504400  0.783900  0.447100  1.0  0.1057
  H  H63  1  0.631100  0.716600  0.312200  1.0  0.0989
  H  H64  1  0.523700  0.745800  0.208700  1.0  0.0963
  H  H65  1  0.564900  0.850400  0.978900  1.0  0.1171
  H  H66  1  0.493500  0.761400  0.055900  1.0  0.108
  H  H67  1  0.523800  0.013000  0.866900  1.0  0.0909
  H  H68  1  0.434900  0.027500  0.824700  1.0  0.082
  H  H69  1  0.434200  0.834300  0.766400  1.0  0.0728
  H  H70  1  0.490700  0.927000  0.745500  1.0  0.0802
  H  H71  1  0.591900  0.835500  0.850000  1.0  0.0811
  H  H72  1  0.532500  0.729400  0.847300  1.0  0.0956
  H  H73  1  0.616400  0.500700  0.682500  1.0  0.0996
  H  H74  1  0.542500  0.542900  0.767500  1.0  0.1292
  H  H75  1  0.644000  0.940200  0.771100  1.0  0.0955
  H  H76  1  0.594500  0.949600  0.685800  1.0  0.1014
  H  H77  1  0.682700  0.915800  0.708400  1.0  0.1098
  H  H78  1  0.305200  0.890100  0.815800  1.0  0.1214
  H  H79  1  0.321500  0.021000  0.853800  1.0  0.1202
  H  H80  1  0.274500  0.922400  0.883000  1.0  0.1423
  H  H81  1  0.809500  0.100400  0.485900  1.0  0.1109
  H  H82  1  0.728600  0.092500  0.661400  1.0  0.0932
  H  H83  1  0.797600  0.312100  0.481300  1.0  0.0918
  H  H84  1  0.719300  0.305200  0.658400  1.0  0.1143
  H  H85  1  0.896400  0.689300  0.843700  1.0  0.0916
  H  H86  1  0.004400  0.716100  0.947100  1.0  0.1059
  H  H87  1  0.131100  0.783400  0.812200  1.0  0.0989
  H  H88  1  0.023700  0.754200  0.708700  1.0  0.0963
  H  H89  1  0.064900  0.649600  0.478900  1.0  0.1161
  H  H90  1  0.993500  0.738600  0.555900  1.0  0.1091
  H  H91  1  0.023800  0.487000  0.366900  1.0  0.0901
  H  H92  1  0.934900  0.472500  0.324700  1.0  0.0815
  H  H93  1  0.934200  0.665700  0.266400  1.0  0.0719
  H  H94  1  0.990700  0.573000  0.245500  1.0  0.0796
  H  H95  1  0.091900  0.664500  0.350000  1.0  0.0807
  H  H96  1  0.032500  0.770600  0.347300  1.0  0.0951
  H  H97  1  0.116400  0.999300  0.182500  1.0  0.0988
  H  H98  1  0.042500  0.957100  0.267500  1.0  0.1292
  H  H99  1  0.144000  0.559800  0.271100  1.0  0.0954
  H  H100  1  0.094500  0.550400  0.185800  1.0  0.1013
  H  H101  1  0.182700  0.584200  0.208400  1.0  0.1096
  H  H102  1  0.805200  0.609900  0.315800  1.0  0.1214
  H  H103  1  0.821500  0.479000  0.353800  1.0  0.1187
  H  H104  1  0.774500  0.577600  0.383000  1.0  0.1424
  C  C105  1  0.121690  0.296800  0.301300  1.0  0.6564
  C  C106  1  0.225080  0.061400  0.424560  1.0  0.6858
  C  C107  1  0.230380  0.925000  0.425730  1.0  -0.1411
  C  C108  1  0.209200  0.858500  0.479640  1.0  -0.0531
  C  C109  1  0.257120  0.863100  0.374730  1.0  -0.0623
  C  C110  1  0.243530  0.532800  0.429870  1.0  0.6731
  C  C111  1  0.242150  0.669900  0.430740  1.0  -0.1235
  C  C112  1  0.215840  0.732100  0.482000  1.0  -0.0436
  C  C113  1  0.262920  0.736100  0.376620  1.0  -0.1049
  C  C114  1  0.051390  0.279300  0.234780  1.0  -0.1553
  C  C115  1  0.056230  0.291400  0.162880  1.0  -0.051
  C  C116  1  0.991720  0.275300  0.101060  1.0  -0.0409
  C  C117  1  0.921270  0.246400  0.110010  1.0  -0.1406
  C  C118  1  0.853340  0.225000  0.042170  1.0  0.6839
  C  C119  1  0.916330  0.235600  0.181260  1.0  -0.0455
  C  C120  1  0.980670  0.252500  0.243220  1.0  -0.046
  C  C121  1  0.111660  0.387800  0.584260  1.0  0.4023
  C  C122  1  0.988500  0.352100  0.531130  1.0  -0.1596
  C  C123  1  0.028170  0.303800  0.489180  1.0  0.0495
  C  C124  1  0.024400  0.467800  0.653020  1.0  -0.0419
  C  C125  1  0.017700  0.380000  0.713640  1.0  -0.1526
  C  C126  1  0.951900  0.290600  0.683080  1.0  -0.0343
  C  C127  1  0.883300  0.274100  0.778450  1.0  0.3804
  C  C128  1  0.890600  0.078300  0.799020  1.0  0.0416
  C  C129  1  0.931200  0.100600  0.752300  1.0  -0.1187
  C  C130  1  0.863800  0.406400  0.778300  1.0  -0.401
  C  C131  1  0.183800  0.434300  0.637500  1.0  -0.4271
  C  C132  1  0.621690  0.203200  0.801300  1.0  0.6563
  C  C133  1  0.725080  0.438600  0.924560  1.0  0.6855
  C  C134  1  0.730380  0.575000  0.925730  1.0  -0.1387
  C  C135  1  0.709200  0.641500  0.979640  1.0  -0.0521
  C  C136  1  0.757120  0.636900  0.874730  1.0  -0.0615
  C  C137  1  0.743530  0.967200  0.929870  1.0  0.6728
  C  C138  1  0.742150  0.830100  0.930740  1.0  -0.1236
  C  C139  1  0.715840  0.767900  0.982000  1.0  -0.0435
  C  C140  1  0.762920  0.763900  0.876620  1.0  -0.105
  C  C141  1  0.551390  0.220700  0.734780  1.0  -0.1554
  C  C142  1  0.556230  0.208600  0.662880  1.0  -0.0508
  C  C143  1  0.491720  0.224700  0.601060  1.0  -0.0406
  C  C144  1  0.421270  0.253600  0.610010  1.0  -0.1404
  C  C145  1  0.353340  0.275000  0.542170  1.0  0.6838
  C  C146  1  0.416330  0.264400  0.681260  1.0  -0.0459
  C  C147  1  0.480670  0.247500  0.743220  1.0  -0.0449
  C  C148  1  0.611660  0.112200  0.084260  1.0  0.4027
  C  C149  1  0.488500  0.147900  0.031130  1.0  -0.1602
  C  C150  1  0.528170  0.196200  0.989180  1.0  0.049
  C  C151  1  0.524400  0.032200  0.153020  1.0  -0.0415
  C  C152  1  0.517700  0.120000  0.213640  1.0  -0.1533
  C  C153  1  0.451900  0.209400  0.183080  1.0  -0.0353
  C  C154  1  0.383300  0.225900  0.278450  1.0  0.3796
  C  C155  1  0.390600  0.421700  0.299020  1.0  0.0432
  C  C156  1  0.431200  0.399400  0.252300  1.0  -0.1188
  C  C157  1  0.363800  0.093600  0.278300  1.0  -0.4028
  C  C158  1  0.683800  0.065700  0.137500  1.0  -0.4272
  C  C159  1  0.378310  0.796800  0.198700  1.0  0.6552
  C  C160  1  0.274920  0.561400  0.075440  1.0  0.6856
  C  C161  1  0.269620  0.425000  0.074270  1.0  -0.1396
  C  C162  1  0.290800  0.358500  0.020360  1.0  -0.0542
  C  C163  1  0.242880  0.363100  0.125270  1.0  -0.0646
  C  C164  1  0.256470  0.032800  0.070130  1.0  0.6725
  C  C165  1  0.257850  0.169900  0.069260  1.0  -0.1241
  C  C166  1  0.284160  0.232100  0.018000  1.0  -0.0443
  C  C167  1  0.237080  0.236100  0.123380  1.0  -0.103
  C  C168  1  0.448610  0.779300  0.265220  1.0  -0.156
  C  C169  1  0.443770  0.791400  0.337120  1.0  -0.0506
  C  C170  1  0.508280  0.775300  0.398940  1.0  -0.0424
  C  C171  1  0.578730  0.746400  0.389990  1.0  -0.1409
  C  C172  1  0.646660  0.725000  0.457830  1.0  0.6832
  C  C173  1  0.583670  0.735600  0.318740  1.0  -0.0459
  C  C174  1  0.519330  0.752500  0.256780  1.0  -0.044
  C  C175  1  0.388340  0.887800  0.915740  1.0  0.4042
  C  C176  1  0.511500  0.852100  0.968870  1.0  -0.1593
  C  C177  1  0.471830  0.803800  0.010820  1.0  0.0487
  C  C178  1  0.475600  0.967800  0.846980  1.0  -0.0414
  C  C179  1  0.482300  0.880000  0.786360  1.0  -0.1517
  C  C180  1  0.548100  0.790600  0.816920  1.0  -0.0361
  C  C181  1  0.616700  0.774100  0.721550  1.0  0.38
  C  C182  1  0.609400  0.578300  0.700980  1.0  0.0411
  C  C183  1  0.568800  0.600600  0.747700  1.0  -0.1192
  C  C184  1  0.636200  0.906400  0.721700  1.0  -0.4013
  C  C185  1  0.316200  0.934300  0.862500  1.0  -0.4246
  C  C186  1  0.878310  0.703200  0.698700  1.0  0.6553
  C  C187  1  0.774920  0.938600  0.575440  1.0  0.685
  C  C188  1  0.769620  0.075000  0.574270  1.0  -0.1413
  C  C189  1  0.790800  0.141500  0.520360  1.0  -0.0534
  C  C190  1  0.742880  0.136900  0.625270  1.0  -0.0648
  C  C191  1  0.756470  0.467200  0.570130  1.0  0.6734
  C  C192  1  0.757850  0.330100  0.569260  1.0  -0.1227
  C  C193  1  0.784160  0.267900  0.518000  1.0  -0.0442
  C  C194  1  0.737080  0.263900  0.623380  1.0  -0.1034
  C  C195  1  0.948610  0.720700  0.765220  1.0  -0.1554
  C  C196  1  0.943770  0.708600  0.837120  1.0  -0.0508
  C  C197  1  0.008280  0.724700  0.898940  1.0  -0.0423
  C  C198  1  0.078730  0.753600  0.889990  1.0  -0.141
  C  C199  1  0.146660  0.775000  0.957830  1.0  0.6832
  C  C200  1  0.083670  0.764400  0.818740  1.0  -0.046
  C  C201  1  0.019330  0.747500  0.756780  1.0  -0.0449
  C  C202  1  0.888340  0.612200  0.415740  1.0  0.4042
  C  C203  1  0.011500  0.647900  0.468870  1.0  -0.1589
  C  C204  1  0.971830  0.696200  0.510820  1.0  0.0508
  C  C205  1  0.975600  0.532200  0.346980  1.0  -0.0413
  C  C206  1  0.982300  0.620000  0.286360  1.0  -0.151
  C  C207  1  0.048100  0.709400  0.316920  1.0  -0.035
  C  C208  1  0.116700  0.725900  0.221550  1.0  0.3802
  C  C209  1  0.109400  0.921700  0.200980  1.0  0.0426
  C  C210  1  0.068800  0.899400  0.247700  1.0  -0.1188
  C  C211  1  0.136200  0.593600  0.221700  1.0  -0.4033
  C  C212  1  0.816200  0.565700  0.362500  1.0  -0.4246
  N  N213  1  0.105280  0.325700  0.521980  1.0  -0.3959
  N  N214  1  0.041640  0.404700  0.591590  1.0  0.0204
  N  N215  1  0.926510  0.226200  0.739420  1.0  -0.0347
  N  N216  1  0.860570  0.187300  0.815850  1.0  -0.4118
  N  N217  1  0.605280  0.174300  0.021980  1.0  -0.3985
  N  N218  1  0.541640  0.095300  0.091590  1.0  0.0206
  N  N219  1  0.426510  0.273800  0.239420  1.0  -0.0353
  N  N220  1  0.360570  0.312700  0.315850  1.0  -0.4117
  N  N221  1  0.394720  0.825700  0.978020  1.0  -0.3997
  N  N222  1  0.458360  0.904700  0.908410  1.0  0.0206
  N  N223  1  0.573490  0.726200  0.760580  1.0  -0.0366
  N  N224  1  0.639430  0.687300  0.684150  1.0  -0.4109
  N  N225  1  0.894720  0.674300  0.478020  1.0  -0.4007
  N  N226  1  0.958360  0.595300  0.408410  1.0  0.0203
  N  N227  1  0.073490  0.773800  0.260580  1.0  -0.0358
  N  N228  1  0.139430  0.812700  0.184150  1.0  -0.4111
  O  O229  1  0.111720  0.301500  0.363970  1.0  -0.6041
  O  O230  1  0.185440  0.305700  0.289950  1.0  -0.5809
  O  O231  1  0.259620  0.117700  0.387310  1.0  -0.5836
  O  O232  1  0.187820  0.110600  0.462270  1.0  -0.5947
  O  O233  1  0.281310  0.481500  0.392620  1.0  -0.5937
  O  O234  1  0.204430  0.479100  0.464150  1.0  -0.5941
  O  O235  1  0.789040  0.214900  0.052850  1.0  -0.5983
  O  O236  1  0.864670  0.217900  0.980650  1.0  -0.5985
  O  O237  1  0.611720  0.198500  0.863970  1.0  -0.6047
  O  O238  1  0.685440  0.194300  0.789950  1.0  -0.581
  O  O239  1  0.759620  0.382300  0.887310  1.0  -0.5836
  O  O240  1  0.687820  0.389400  0.962270  1.0  -0.5946
  O  O241  1  0.781310  0.018500  0.892620  1.0  -0.5933
  O  O242  1  0.704430  0.020900  0.964150  1.0  -0.594
  O  O243  1  0.289040  0.285100  0.552850  1.0  -0.5986
  O  O244  1  0.364670  0.282100  0.480650  1.0  -0.5988
  O  O245  1  0.388280  0.801500  0.136030  1.0  -0.6051
  O  O246  1  0.314560  0.805700  0.210050  1.0  -0.5802
  O  O247  1  0.240380  0.617700  0.112690  1.0  -0.5835
  O  O248  1  0.312180  0.610600  0.037730  1.0  -0.5939
  O  O249  1  0.218690  0.981500  0.107380  1.0  -0.5935
  O  O250  1  0.295570  0.979100  0.035850  1.0  -0.5948
  O  O251  1  0.710960  0.714900  0.447150  1.0  -0.5984
  O  O252  1  0.635330  0.717900  0.519350  1.0  -0.5983
  O  O253  1  0.888280  0.698500  0.636030  1.0  -0.6052
  O  O254  1  0.814560  0.694300  0.710050  1.0  -0.5803
  O  O255  1  0.740380  0.882300  0.612690  1.0  -0.5836
  O  O256  1  0.812180  0.889400  0.537730  1.0  -0.5945
  O  O257  1  0.718690  0.518500  0.607380  1.0  -0.5933
  O  O258  1  0.795570  0.520900  0.535850  1.0  -0.5946
  O  O259  1  0.210960  0.785100  0.947150  1.0  -0.5989
  O  O260  1  0.135330  0.782100  0.019350  1.0  -0.5982
