# generated using pymatgen
data_Zn3H7(C2O)12
_symmetry_space_group_name_H-M   'P 1'
_cell_length_a   10.62110000
_cell_length_b   12.65970000
_cell_length_c   25.68940000
_cell_angle_alpha   84.70760000
_cell_angle_beta   78.06960000
_cell_angle_gamma   65.19790000
_symmetry_Int_Tables_number   1
_chemical_formula_structural   Zn3H7(C2O)12
_chemical_formula_sum   'Zn12 H28 C96 O48'
_cell_volume   3067.79775602
_cell_formula_units_Z   4
loop_
 _symmetry_equiv_pos_site_id
 _symmetry_equiv_pos_as_xyz
  1  'x, y, z'
loop_
 _atom_site_type_symbol
 _atom_site_label
 _atom_site_symmetry_multiplicity
 _atom_site_fract_x
 _atom_site_fract_y
 _atom_site_fract_z
 _atom_site_occupancy
 _atom_site_charge
  Zn  Zn1  1  0.247780  0.462920  0.116320  1.0  0.9354
  Zn  Zn2  1  0.711040  0.755120  0.043020  1.0  0.8897
  Zn  Zn3  1  0.827020  0.037080  0.383680  1.0  0.9354
  Zn  Zn4  1  0.509180  0.744880  0.456980  1.0  0.8863
  Zn  Zn5  1  0.752220  0.537080  0.883680  1.0  0.9343
  Zn  Zn6  1  0.288960  0.244880  0.956980  1.0  0.8864
  Zn  Zn7  1  0.172980  0.962920  0.616320  1.0  0.9347
  Zn  Zn8  1  0.490820  0.255120  0.543020  1.0  0.89
  Zn  Zn9  1  0.063030  0.250000  0.750000  1.0  1.0163
  Zn  Zn10  1  0.936970  0.750000  0.250000  1.0  1.0171
  Zn  Zn11  1  0.500000  0.000000  0.000000  1.0  0.9599
  Zn  Zn12  1  0.500000  0.500000  0.500000  1.0  0.9599
  H  H13  1  0.543400  0.924900  0.777900  1.0  0.1232
  H  H14  1  0.056100  0.992300  0.078100  1.0  0.113
  H  H15  1  0.078900  0.802900  0.093500  1.0  0.1174
  H  H16  1  0.802400  0.940700  0.857900  1.0  0.1136
  H  H17  1  0.663200  0.798800  0.839200  1.0  0.1206
  H  H18  1  0.589700  0.276900  0.822500  1.0  0.1165
  H  H19  1  0.183600  0.022700  0.886500  1.0  0.1134
  H  H20  1  0.246200  0.575100  0.722100  1.0  0.1239
  H  H21  1  0.126500  0.507700  0.421900  1.0  0.1138
  H  H22  1  0.975300  0.697100  0.406500  1.0  0.1179
  H  H23  1  0.601000  0.559300  0.642100  1.0  0.1139
  H  H24  1  0.301200  0.701200  0.660800  1.0  0.1209
  H  H25  1  0.689100  0.223100  0.677500  1.0  0.1164
  H  H26  1  0.092800  0.477300  0.613500  1.0  0.1124
  H  H27  1  0.456600  0.075100  0.222100  1.0  0.1236
  H  H28  1  0.943900  0.007700  0.921900  1.0  0.1134
  H  H29  1  0.921100  0.197100  0.906500  1.0  0.1169
  H  H30  1  0.197600  0.059300  0.142100  1.0  0.1137
  H  H31  1  0.336800  0.201200  0.160800  1.0  0.1209
  H  H32  1  0.410300  0.723100  0.177500  1.0  0.1163
  H  H33  1  0.816400  0.977300  0.113500  1.0  0.1131
  H  H34  1  0.753800  0.424900  0.277900  1.0  0.1235
  H  H35  1  0.873500  0.492300  0.578100  1.0  0.1134
  H  H36  1  0.024700  0.302900  0.593500  1.0  0.118
  H  H37  1  0.399000  0.440700  0.357900  1.0  0.1138
  H  H38  1  0.698800  0.298800  0.339200  1.0  0.1211
  H  H39  1  0.310900  0.776900  0.322500  1.0  0.1163
  H  H40  1  0.907200  0.522700  0.386500  1.0  0.1121
  C  C41  1  0.893900  0.994270  0.790730  1.0  0.0453
  C  C42  1  0.997620  0.075110  0.710650  1.0  0.7085
  C  C43  1  0.497460  0.837740  0.900540  1.0  -0.0766
  C  C44  1  0.495960  0.920110  0.812170  1.0  -0.0349
  C  C45  1  0.677440  0.110950  0.847570  1.0  -0.141
  C  C46  1  0.564450  0.119880  0.894820  1.0  0.6756
  C  C47  1  0.184920  0.084110  0.003450  1.0  0.6774
  C  C48  1  0.223800  0.616190  0.030810  1.0  0.6253
  C  C49  1  0.586320  0.771000  0.940360  1.0  0.7156
  C  C50  1  0.113680  0.935360  0.052880  1.0  -0.0464
  C  C51  1  0.350350  0.902390  0.914910  1.0  -0.0065
  C  C52  1  0.124940  0.822730  0.061790  1.0  -0.037
  C  C53  1  0.269880  0.881550  0.967490  1.0  0.0021
  C  C54  1  0.766770  0.198620  0.769040  1.0  -0.0309
  C  C55  1  0.205750  0.739700  0.023000  1.0  -0.114
  C  C56  1  0.352460  0.988750  0.826730  1.0  -0.1294
  C  C57  1  0.793360  0.004520  0.835560  1.0  0.0382
  C  C58  1  0.567270  0.845130  0.848930  1.0  -0.0815
  C  C59  1  0.666560  0.206070  0.814210  1.0  -0.036
  C  C60  1  0.280250  0.978110  0.877590  1.0  0.0114
  C  C61  1  0.275700  0.074530  0.787470  1.0  0.7158
  C  C62  1  0.276110  0.768620  0.975160  1.0  0.0182
  C  C63  1  0.881960  0.091690  0.757590  1.0  -0.0578
  C  C64  1  0.187060  0.964860  0.006820  1.0  -0.1152
  C  C65  1  0.678900  0.505730  0.709270  1.0  0.043
  C  C66  1  0.783380  0.424890  0.789350  1.0  0.7147
  C  C67  1  0.235740  0.662260  0.599460  1.0  -0.0747
  C  C68  1  0.228240  0.579890  0.687830  1.0  -0.0349
  C  C69  1  0.635960  0.389050  0.652430  1.0  -0.1425
  C  C70  1  0.579150  0.380120  0.605180  1.0  0.6767
  C  C71  1  0.272480  0.415890  0.496550  1.0  0.6782
  C  C72  1  0.870800  0.883810  0.469190  1.0  0.6252
  C  C73  1  0.297680  0.729000  0.559640  1.0  0.712
  C  C74  1  0.101920  0.564640  0.447120  1.0  -0.0454
  C  C75  1  0.167650  0.597610  0.585090  1.0  -0.0056
  C  C76  1  0.009460  0.677270  0.438210  1.0  -0.0394
  C  C77  1  0.118920  0.618450  0.532510  1.0  0.0057
  C  C78  1  0.734430  0.301380  0.730960  1.0  -0.0304
  C  C79  1  0.968450  0.760300  0.477000  1.0  -0.1135
  C  C80  1  0.167940  0.511250  0.673270  1.0  -0.1367
  C  C81  1  0.633440  0.495480  0.664440  1.0  0.0391
  C  C82  1  0.261330  0.654870  0.651070  1.0  -0.0794
  C  C83  1  0.686840  0.293930  0.685790  1.0  -0.0354
  C  C84  1  0.135950  0.521890  0.622410  1.0  0.0134
  C  C85  1  0.137700  0.425470  0.712530  1.0  0.7143
  C  C86  1  0.019890  0.731380  0.524840  1.0  0.0164
  C  C87  1  0.731240  0.408310  0.742410  1.0  -0.0579
  C  C88  1  0.158740  0.535140  0.493180  1.0  -0.1135
  C  C89  1  0.106100  0.005730  0.209270  1.0  0.0433
  C  C90  1  0.002380  0.924890  0.289350  1.0  0.7118
  C  C91  1  0.502540  0.162260  0.099460  1.0  -0.0754
  C  C92  1  0.504040  0.079890  0.187830  1.0  -0.0377
  C  C93  1  0.322560  0.889050  0.152430  1.0  -0.1404
  C  C94  1  0.435550  0.880120  0.105180  1.0  0.6751
  C  C95  1  0.815080  0.915890  0.996550  1.0  0.6779
  C  C96  1  0.776200  0.383810  0.969190  1.0  0.6239
  C  C97  1  0.413680  0.229000  0.059640  1.0  0.7154
  C  C98  1  0.886320  0.064640  0.947120  1.0  -0.0459
  C  C99  1  0.649650  0.097610  0.085090  1.0  -0.0049
  C  C100  1  0.875060  0.177270  0.938210  1.0  -0.0372
  C  C101  1  0.730120  0.118450  0.032510  1.0  0.0038
  C  C102  1  0.233230  0.801380  0.230960  1.0  -0.03
  C  C103  1  0.794250  0.260300  0.977000  1.0  -0.1133
  C  C104  1  0.647540  0.011250  0.173270  1.0  -0.1297
  C  C105  1  0.206640  0.995480  0.164440  1.0  0.0386
  C  C106  1  0.432730  0.154870  0.151070  1.0  -0.082
  C  C107  1  0.333440  0.793930  0.185790  1.0  -0.0351
  C  C108  1  0.719750  0.021890  0.122410  1.0  0.0105
  C  C109  1  0.724300  0.925470  0.212530  1.0  0.7159
  C  C110  1  0.723890  0.231380  0.024840  1.0  0.0176
  C  C111  1  0.118040  0.908310  0.242410  1.0  -0.0571
  C  C112  1  0.812940  0.035140  0.993180  1.0  -0.115
  C  C113  1  0.321100  0.494270  0.290730  1.0  0.0472
  C  C114  1  0.216620  0.575110  0.210650  1.0  0.7132
  C  C115  1  0.764260  0.337740  0.400540  1.0  -0.0765
  C  C116  1  0.771760  0.420110  0.312170  1.0  -0.0349
  C  C117  1  0.364040  0.610950  0.347570  1.0  -0.1423
  C  C118  1  0.420850  0.619880  0.394820  1.0  0.6775
  C  C119  1  0.727520  0.584110  0.503450  1.0  0.6775
  C  C120  1  0.129200  0.116190  0.530810  1.0  0.6269
  C  C121  1  0.702320  0.271000  0.440360  1.0  0.7129
  C  C122  1  0.898080  0.435360  0.552880  1.0  -0.0454
  C  C123  1  0.832350  0.402390  0.414910  1.0  -0.0068
  C  C124  1  0.990540  0.322730  0.561790  1.0  -0.0386
  C  C125  1  0.881080  0.381550  0.467490  1.0  0.0027
  C  C126  1  0.265570  0.698620  0.269040  1.0  -0.0307
  C  C127  1  0.031550  0.239700  0.523000  1.0  -0.1152
  C  C128  1  0.832060  0.488750  0.326730  1.0  -0.1344
  C  C129  1  0.366560  0.504520  0.335560  1.0  0.0391
  C  C130  1  0.738670  0.345130  0.348930  1.0  -0.0795
  C  C131  1  0.313160  0.706070  0.314210  1.0  -0.036
  C  C132  1  0.864050  0.478110  0.377590  1.0  0.014
  C  C133  1  0.862300  0.574530  0.287470  1.0  0.714
  C  C134  1  0.980110  0.268620  0.475160  1.0  0.0186
  C  C135  1  0.268760  0.591690  0.257590  1.0  -0.0569
  C  C136  1  0.841260  0.464860  0.506820  1.0  -0.1148
  O  O137  1  0.145400  0.594480  0.072120  1.0  -0.5829
  O  O138  1  0.561310  0.818290  0.984770  1.0  -0.6527
  O  O139  1  0.044700  0.981140  0.685660  1.0  -0.5666
  O  O140  1  0.159080  0.157830  0.806810  1.0  -0.5932
  O  O141  1  0.044520  0.152470  0.698490  1.0  -0.5618
  O  O142  1  0.451680  0.211590  0.898450  1.0  -0.5772
  O  O143  1  0.589720  0.034540  0.926620  1.0  -0.5883
  O  O144  1  0.085260  0.168950  0.025330  1.0  -0.5119
  O  O145  1  0.324380  0.063320  0.739120  1.0  -0.4958
  O  O146  1  0.312900  0.541120  0.998880  1.0  -0.5229
  O  O147  1  0.687930  0.675240  0.928500  1.0  -0.6659
  O  O148  1  0.300310  0.088570  0.975890  1.0  -0.6385
  O  O149  1  0.812000  0.905520  0.427880  1.0  -0.5851
  O  O150  1  0.364370  0.681710  0.515230  1.0  -0.6538
  O  O151  1  0.711500  0.518860  0.814340  1.0  -0.5655
  O  O152  1  0.123720  0.342170  0.693190  1.0  -0.5941
  O  O153  1  0.895480  0.347530  0.801510  1.0  -0.5633
  O  O154  1  0.561720  0.288410  0.601550  1.0  -0.5786
  O  O155  1  0.550880  0.465460  0.573380  1.0  -0.5894
  O  O156  1  0.279540  0.331050  0.474670  1.0  -0.5104
  O  O157  1  0.126820  0.436680  0.760880  1.0  -0.4952
  O  O158  1  0.852900  0.958880  0.501120  1.0  -0.5268
  O  O159  1  0.291670  0.824760  0.571500  1.0  -0.6681
  O  O160  1  0.364770  0.411430  0.524110  1.0  -0.6373
  O  O161  1  0.854600  0.405520  0.927880  1.0  -0.5824
  O  O162  1  0.438690  0.181710  0.015230  1.0  -0.6533
  O  O163  1  0.955300  0.018860  0.314340  1.0  -0.5642
  O  O164  1  0.840920  0.842170  0.193190  1.0  -0.5915
  O  O165  1  0.955480  0.847530  0.301510  1.0  -0.5617
  O  O166  1  0.548320  0.788410  0.101550  1.0  -0.5785
  O  O167  1  0.410280  0.965460  0.073380  1.0  -0.5882
  O  O168  1  0.914740  0.831050  0.974670  1.0  -0.5104
  O  O169  1  0.675620  0.936680  0.260880  1.0  -0.4968
  O  O170  1  0.687100  0.458880  0.001120  1.0  -0.5217
  O  O171  1  0.312070  0.324760  0.071500  1.0  -0.6677
  O  O172  1  0.699690  0.911430  0.024110  1.0  -0.6365
  O  O173  1  0.188000  0.094480  0.572120  1.0  -0.5843
  O  O174  1  0.635630  0.318290  0.484770  1.0  -0.6531
  O  O175  1  0.288500  0.481140  0.185660  1.0  -0.5664
  O  O176  1  0.876280  0.657830  0.306810  1.0  -0.5926
  O  O177  1  0.104520  0.652470  0.198490  1.0  -0.5633
  O  O178  1  0.438280  0.711590  0.398450  1.0  -0.5763
  O  O179  1  0.449120  0.534540  0.426620  1.0  -0.5872
  O  O180  1  0.720460  0.668950  0.525330  1.0  -0.51
  O  O181  1  0.873180  0.563320  0.239120  1.0  -0.4962
  O  O182  1  0.147100  0.041120  0.498880  1.0  -0.523
  O  O183  1  0.708330  0.175240  0.428500  1.0  -0.6649
  O  O184  1  0.635230  0.588570  0.475890  1.0  -0.6397
