# generated using pymatgen
data_Cu4PH6W9C6N9O26
_symmetry_space_group_name_H-M   'P 1'
_cell_length_a   14.90700000
_cell_length_b   18.43200000
_cell_length_c   33.28400000
_cell_angle_alpha   97.89000000
_cell_angle_beta   90.00000000
_cell_angle_gamma   90.00000000
_symmetry_Int_Tables_number   1
_chemical_formula_structural   Cu4PH6W9C6N9O26
_chemical_formula_sum   'Cu32 P8 H48 W72 C48 N72 O208'
_cell_volume   9058.73107130
_cell_formula_units_Z   8
loop_
 _symmetry_equiv_pos_site_id
 _symmetry_equiv_pos_as_xyz
  1  'x, y, z'
loop_
 _atom_site_type_symbol
 _atom_site_label
 _atom_site_symmetry_multiplicity
 _atom_site_fract_x
 _atom_site_fract_y
 _atom_site_fract_z
 _atom_site_occupancy
 _atom_site_charge
  Cu  Cu1  1  0.052470  0.480590  0.612900  1.0  0.8634
  Cu  Cu2  1  0.138610  0.316220  0.623940  1.0  0.746
  Cu  Cu3  1  0.744400  0.047980  0.773380  1.0  0.7485
  Cu  Cu4  1  0.303100  0.948140  0.628830  1.0  0.7164
  Cu  Cu5  1  0.965910  0.770620  0.792610  1.0  0.7027
  Cu  Cu6  1  0.211650  0.795290  0.658050  1.0  0.7515
  Cu  Cu7  1  0.262340  0.471380  0.649840  1.0  0.7503
  Cu  Cu8  1  0.809400  0.254870  0.520400  1.0  0.2975
  Cu  Cu9  1  0.552470  0.519410  0.887100  1.0  0.8634
  Cu  Cu10  1  0.638610  0.683780  0.876060  1.0  0.7487
  Cu  Cu11  1  0.244400  0.952020  0.726620  1.0  0.7492
  Cu  Cu12  1  0.803100  0.051860  0.871170  1.0  0.718
  Cu  Cu13  1  0.465910  0.229380  0.707390  1.0  0.7048
  Cu  Cu14  1  0.711650  0.204710  0.841950  1.0  0.7501
  Cu  Cu15  1  0.762340  0.528620  0.850160  1.0  0.7503
  Cu  Cu16  1  0.309400  0.745130  0.979600  1.0  0.2965
  Cu  Cu17  1  0.947530  0.519410  0.387100  1.0  0.8635
  Cu  Cu18  1  0.861390  0.683780  0.376060  1.0  0.7496
  Cu  Cu19  1  0.255600  0.952020  0.226620  1.0  0.7488
  Cu  Cu20  1  0.696900  0.051860  0.371170  1.0  0.718
  Cu  Cu21  1  0.034090  0.229380  0.207390  1.0  0.7025
  Cu  Cu22  1  0.788350  0.204710  0.341950  1.0  0.7489
  Cu  Cu23  1  0.737660  0.528620  0.350160  1.0  0.7505
  Cu  Cu24  1  0.190600  0.745130  0.479600  1.0  0.2972
  Cu  Cu25  1  0.447530  0.480590  0.112900  1.0  0.8635
  Cu  Cu26  1  0.361390  0.316220  0.123940  1.0  0.7463
  Cu  Cu27  1  0.755600  0.047980  0.273380  1.0  0.7483
  Cu  Cu28  1  0.196900  0.948140  0.128830  1.0  0.7178
  Cu  Cu29  1  0.534090  0.770620  0.292610  1.0  0.6997
  Cu  Cu30  1  0.288350  0.795290  0.158050  1.0  0.7501
  Cu  Cu31  1  0.237660  0.471380  0.149840  1.0  0.7504
  Cu  Cu32  1  0.690600  0.254870  0.020400  1.0  0.298
  P  P33  1  0.737300  0.834000  0.578400  1.0  1.6391
  P  P34  1  0.661700  0.664900  0.631990  1.0  1.6106
  P  P35  1  0.237300  0.166000  0.921600  1.0  1.6392
  P  P36  1  0.161700  0.335100  0.868010  1.0  1.6103
  P  P37  1  0.262700  0.166000  0.421600  1.0  1.6381
  P  P38  1  0.338300  0.335100  0.368010  1.0  1.6096
  P  P39  1  0.762700  0.834000  0.078400  1.0  1.6379
  P  P40  1  0.838300  0.664900  0.131990  1.0  1.6098
  H  H41  1  0.061300  0.663200  0.619700  1.0  0.0871
  H  H42  1  0.905700  0.900000  0.856400  1.0  0.0966
  H  H43  1  0.870600  0.410800  0.570400  1.0  0.0894
  H  H44  1  0.269300  0.214200  0.667200  1.0  0.0988
  H  H45  1  0.848100  0.890800  0.743900  1.0  0.0776
  H  H46  1  0.578800  0.276400  0.784900  1.0  0.0916
  H  H47  1  0.295200  0.644700  0.667300  1.0  0.0857
  H  H48  1  0.594300  0.092800  0.711600  1.0  0.0928
  H  H49  1  0.810500  0.286500  0.430400  1.0  0.0839
  H  H50  1  0.987500  0.221300  0.569000  1.0  0.1085
  H  H51  1  0.697400  0.118200  0.466700  1.0  0.0818
  H  H52  1  0.424600  0.383100  0.686000  1.0  0.0852
  H  H53  1  0.561300  0.336800  0.880300  1.0  0.0881
  H  H54  1  0.405700  0.100000  0.643600  1.0  0.0962
  H  H55  1  0.370600  0.589200  0.929600  1.0  0.0888
  H  H56  1  0.769300  0.785800  0.832800  1.0  0.098
  H  H57  1  0.348100  0.109200  0.756100  1.0  0.0784
  H  H58  1  0.078800  0.723600  0.715100  1.0  0.0914
  H  H59  1  0.795200  0.355300  0.832700  1.0  0.0853
  H  H60  1  0.094300  0.907200  0.788400  1.0  0.0927
  H  H61  1  0.310500  0.713500  0.069600  1.0  0.0834
  H  H62  1  0.487500  0.778700  0.931000  1.0  0.1058
  H  H63  1  0.197400  0.881800  0.033300  1.0  0.0814
  H  H64  1  0.924600  0.616900  0.814000  1.0  0.0852
  H  H65  1  0.938700  0.336800  0.380300  1.0  0.0888
  H  H66  1  0.094300  0.100000  0.143600  1.0  0.0961
  H  H67  1  0.129400  0.589200  0.429600  1.0  0.0892
  H  H68  1  0.730700  0.785800  0.332800  1.0  0.0981
  H  H69  1  0.151900  0.109200  0.256100  1.0  0.0784
  H  H70  1  0.421200  0.723600  0.215100  1.0  0.0916
  H  H71  1  0.704800  0.355300  0.332700  1.0  0.0851
  H  H72  1  0.405700  0.907200  0.288400  1.0  0.093
  H  H73  1  0.189500  0.713500  0.569600  1.0  0.0807
  H  H74  1  0.012500  0.778700  0.431000  1.0  0.105
  H  H75  1  0.302600  0.881800  0.533300  1.0  0.0815
  H  H76  1  0.575400  0.616900  0.314000  1.0  0.0843
  H  H77  1  0.438700  0.663200  0.119700  1.0  0.0878
  H  H78  1  0.594300  0.900000  0.356400  1.0  0.0967
  H  H79  1  0.629400  0.410800  0.070400  1.0  0.0895
  H  H80  1  0.230700  0.214200  0.167200  1.0  0.0986
  H  H81  1  0.651900  0.890800  0.243900  1.0  0.0778
  H  H82  1  0.921200  0.276400  0.284900  1.0  0.092
  H  H83  1  0.204800  0.644700  0.167300  1.0  0.0853
  H  H84  1  0.905700  0.092800  0.211600  1.0  0.0928
  H  H85  1  0.689500  0.286500  0.930400  1.0  0.0815
  H  H86  1  0.512500  0.221300  0.069000  1.0  0.1083
  H  H87  1  0.802600  0.118200  0.966700  1.0  0.0818
  H  H88  1  0.075400  0.383100  0.186000  1.0  0.0846
  W  W89  1  0.860750  0.898030  0.499600  1.0  1.389
  W  W90  1  0.666060  0.581220  0.722640  1.0  1.3583
  W  W91  1  0.844030  0.005970  0.590240  1.0  1.474
  W  W92  1  0.485090  0.556160  0.659740  1.0  2.2859
  W  W93  1  0.941470  0.747060  0.552480  1.0  1.3759
  W  W94  1  0.682260  0.472960  0.631130  1.0  1.3467
  W  W95  1  0.927680  0.853360  0.642190  1.0  1.328
  W  W96  1  0.534780  0.916150  0.610550  1.0  2.5527
  W  W97  1  0.744110  0.716790  0.486010  1.0  1.3714
  W  W98  1  0.867550  0.589240  0.603760  1.0  2.1077
  W  W99  1  0.662500  0.979660  0.527770  1.0  1.3675
  W  W100  1  0.711320  0.940940  0.672590  1.0  2.3977
  W  W101  1  0.465740  0.757570  0.662190  1.0  2.5009
  W  W102  1  0.855310  0.694100  0.693940  1.0  2.4625
  W  W103  1  0.549950  0.798700  0.513660  1.0  1.3533
  W  W104  1  0.641720  0.781870  0.724600  1.0  1.2973
  W  W105  1  0.481280  0.640110  0.564330  1.0  1.3305
  W  W106  1  0.673950  0.558020  0.537160  1.0  1.3411
  W  W107  1  0.360750  0.101970  0.000400  1.0  1.3914
  W  W108  1  0.166060  0.418780  0.777360  1.0  1.3576
  W  W109  1  0.344030  0.994030  0.909760  1.0  1.4671
  W  W110  1  0.985090  0.443840  0.840260  1.0  2.2849
  W  W111  1  0.441470  0.252940  0.947520  1.0  1.3778
  W  W112  1  0.182260  0.527040  0.868870  1.0  1.3463
  W  W113  1  0.427680  0.146640  0.857810  1.0  1.3239
  W  W114  1  0.034780  0.083850  0.889450  1.0  2.5538
  W  W115  1  0.244110  0.283210  0.013990  1.0  1.3753
  W  W116  1  0.367550  0.410760  0.896240  1.0  2.1105
  W  W117  1  0.162500  0.020340  0.972230  1.0  1.3628
  W  W118  1  0.211320  0.059060  0.827410  1.0  2.3959
  W  W119  1  0.965740  0.242430  0.837810  1.0  2.5002
  W  W120  1  0.355310  0.305900  0.806060  1.0  2.4603
  W  W121  1  0.049950  0.201300  0.986340  1.0  1.3495
  W  W122  1  0.141720  0.218130  0.775400  1.0  1.3016
  W  W123  1  0.981280  0.359890  0.935670  1.0  1.3278
  W  W124  1  0.173950  0.441980  0.962840  1.0  1.3453
  W  W125  1  0.139250  0.101970  0.500400  1.0  1.3889
  W  W126  1  0.333940  0.418780  0.277360  1.0  1.3583
  W  W127  1  0.155970  0.994030  0.409760  1.0  1.4714
  W  W128  1  0.514910  0.443840  0.340260  1.0  2.2834
  W  W129  1  0.058530  0.252940  0.447520  1.0  1.3754
  W  W130  1  0.317740  0.527040  0.368870  1.0  1.3466
  W  W131  1  0.072320  0.146640  0.357810  1.0  1.3258
  W  W132  1  0.465220  0.083850  0.389450  1.0  2.552
  W  W133  1  0.255890  0.283210  0.513990  1.0  1.3755
  W  W134  1  0.132450  0.410760  0.396240  1.0  2.111
  W  W135  1  0.337500  0.020340  0.472230  1.0  1.3628
  W  W136  1  0.288680  0.059060  0.327410  1.0  2.3972
  W  W137  1  0.534260  0.242430  0.337810  1.0  2.5003
  W  W138  1  0.144690  0.305900  0.306060  1.0  2.4613
  W  W139  1  0.450050  0.201300  0.486340  1.0  1.3522
  W  W140  1  0.358280  0.218130  0.275400  1.0  1.2991
  W  W141  1  0.518720  0.359890  0.435670  1.0  1.3316
  W  W142  1  0.326050  0.441980  0.462840  1.0  1.3456
  W  W143  1  0.639250  0.898030  0.999600  1.0  1.3911
  W  W144  1  0.833940  0.581220  0.222640  1.0  1.3591
  W  W145  1  0.655970  0.005970  0.090240  1.0  1.4754
  W  W146  1  0.014910  0.556160  0.159740  1.0  2.2843
  W  W147  1  0.558530  0.747060  0.052480  1.0  1.3752
  W  W148  1  0.817740  0.472960  0.131130  1.0  1.3463
  W  W149  1  0.572320  0.853360  0.142190  1.0  1.3278
  W  W150  1  0.965220  0.916150  0.110550  1.0  2.551
  W  W151  1  0.755890  0.716790  0.986010  1.0  1.3727
  W  W152  1  0.632450  0.589240  0.103760  1.0  2.1075
  W  W153  1  0.837500  0.979660  0.027770  1.0  1.3686
  W  W154  1  0.788680  0.940940  0.172590  1.0  2.3987
  W  W155  1  0.034260  0.757570  0.162190  1.0  2.5003
  W  W156  1  0.644690  0.694100  0.193940  1.0  2.4635
  W  W157  1  0.950050  0.798700  0.013660  1.0  1.3521
  W  W158  1  0.858280  0.781870  0.224600  1.0  1.2974
  W  W159  1  0.018720  0.640110  0.064330  1.0  1.3289
  W  W160  1  0.826050  0.558020  0.037160  1.0  1.3421
  C  C161  1  0.111300  0.643400  0.630800  1.0  0.2252
  C  C162  1  0.883000  0.910400  0.831900  1.0  0.2074
  C  C163  1  0.910900  0.374400  0.575200  1.0  0.2115
  C  C164  1  0.293100  0.260800  0.667200  1.0  0.1932
  C  C165  1  0.850100  0.906100  0.771700  1.0  0.2479
  C  C166  1  0.597200  0.230200  0.772900  1.0  0.2614
  C  C167  1  0.238400  0.634000  0.656600  1.0  0.2305
  C  C168  1  0.604600  0.130100  0.732900  1.0  0.2359
  C  C169  1  0.782100  0.241800  0.431000  1.0  0.1649
  C  C170  1  0.973900  0.270900  0.574100  1.0  0.2865
  C  C171  1  0.721100  0.151000  0.450600  1.0  0.2401
  C  C172  1  0.376500  0.352800  0.677500  1.0  0.2548
  C  C173  1  0.611300  0.356600  0.869200  1.0  0.225
  C  C174  1  0.383000  0.089600  0.668100  1.0  0.2073
  C  C175  1  0.410900  0.625600  0.924800  1.0  0.2123
  C  C176  1  0.793100  0.739200  0.832800  1.0  0.1918
  C  C177  1  0.350100  0.093900  0.728300  1.0  0.2477
  C  C178  1  0.097200  0.769800  0.727100  1.0  0.2611
  C  C179  1  0.738400  0.366000  0.843400  1.0  0.2305
  C  C180  1  0.104600  0.869900  0.767100  1.0  0.235
  C  C181  1  0.282100  0.758200  0.069000  1.0  0.1666
  C  C182  1  0.473900  0.729100  0.925900  1.0  0.2867
  C  C183  1  0.221100  0.849000  0.049400  1.0  0.2401
  C  C184  1  0.876500  0.647200  0.822500  1.0  0.2554
  C  C185  1  0.888700  0.356600  0.369200  1.0  0.2253
  C  C186  1  0.117000  0.089600  0.168100  1.0  0.2074
  C  C187  1  0.089100  0.625600  0.424800  1.0  0.2124
  C  C188  1  0.706900  0.739200  0.332800  1.0  0.1916
  C  C189  1  0.149900  0.093900  0.228300  1.0  0.2476
  C  C190  1  0.402800  0.769800  0.227100  1.0  0.2611
  C  C191  1  0.761600  0.366000  0.343400  1.0  0.2304
  C  C192  1  0.395400  0.869900  0.267100  1.0  0.2353
  C  C193  1  0.217900  0.758200  0.569000  1.0  0.1675
  C  C194  1  0.026100  0.729100  0.425900  1.0  0.2871
  C  C195  1  0.278900  0.849000  0.549400  1.0  0.2395
  C  C196  1  0.623500  0.647200  0.322500  1.0  0.2546
  C  C197  1  0.388700  0.643400  0.130800  1.0  0.2256
  C  C198  1  0.617000  0.910400  0.331900  1.0  0.2066
  C  C199  1  0.589100  0.374400  0.075200  1.0  0.2118
  C  C200  1  0.206900  0.260800  0.167200  1.0  0.1928
  C  C201  1  0.649900  0.906100  0.271700  1.0  0.2476
  C  C202  1  0.902800  0.230200  0.272900  1.0  0.2605
  C  C203  1  0.261600  0.634000  0.156600  1.0  0.2304
  C  C204  1  0.895400  0.130100  0.232900  1.0  0.236
  C  C205  1  0.717900  0.241800  0.931000  1.0  0.1653
  C  C206  1  0.526100  0.270900  0.074100  1.0  0.287
  C  C207  1  0.778900  0.151000  0.950600  1.0  0.2404
  C  C208  1  0.123500  0.352800  0.177500  1.0  0.2536
  N  N209  1  0.836300  0.970100  0.827800  1.0  -0.1905
  N  N210  1  0.122700  0.574400  0.631400  1.0  -0.2517
  N  N211  1  0.664600  0.126700  0.762100  1.0  -0.2553
  N  N212  1  0.893100  0.868600  0.798100  1.0  -0.3806
  N  N213  1  0.660600  0.192800  0.787700  1.0  -0.3292
  N  N214  1  0.208300  0.567800  0.648200  1.0  -0.2476
  N  N215  1  0.374100  0.283400  0.681400  1.0  -0.3515
  N  N216  1  0.252700  0.316100  0.653100  1.0  -0.1119
  N  N217  1  0.026600  0.320500  0.594600  1.0  -0.2407
  N  N218  1  0.758800  0.215800  0.465900  1.0  -0.4029
  N  N219  1  0.721400  0.139300  0.411800  1.0  -0.2317
  N  N220  1  0.761100  0.198500  0.399500  1.0  -0.1824
  N  N221  1  0.898300  0.300600  0.561400  1.0  -0.4186
  N  N222  1  0.304000  0.376100  0.660200  1.0  -0.306
  N  N223  1  0.181600  0.684700  0.648600  1.0  -0.3622
  N  N224  1  0.984000  0.387100  0.595000  1.0  -0.2279
  N  N225  1  0.560500  0.194200  0.737900  1.0  -0.4249
  N  N226  1  0.811900  0.965800  0.789200  1.0  -0.2761
  N  N227  1  0.336300  0.029900  0.672200  1.0  -0.1918
  N  N228  1  0.622700  0.425600  0.868600  1.0  -0.2515
  N  N229  1  0.164600  0.873300  0.737900  1.0  -0.2564
  N  N230  1  0.393100  0.131400  0.701900  1.0  -0.3822
  N  N231  1  0.160600  0.807200  0.712300  1.0  -0.3283
  N  N232  1  0.708300  0.432200  0.851800  1.0  -0.2473
  N  N233  1  0.874100  0.716600  0.818600  1.0  -0.353
  N  N234  1  0.752700  0.683900  0.846900  1.0  -0.1112
  N  N235  1  0.526600  0.679500  0.905400  1.0  -0.2401
  N  N236  1  0.258800  0.784200  0.034100  1.0  -0.4062
  N  N237  1  0.221400  0.860700  0.088200  1.0  -0.235
  N  N238  1  0.261100  0.801500  0.100500  1.0  -0.1858
  N  N239  1  0.398300  0.699400  0.938600  1.0  -0.4197
  N  N240  1  0.804000  0.623900  0.839800  1.0  -0.3071
  N  N241  1  0.681600  0.315300  0.851400  1.0  -0.3638
  N  N242  1  0.484000  0.612900  0.905000  1.0  -0.2272
  N  N243  1  0.060500  0.805800  0.762100  1.0  -0.4245
  N  N244  1  0.311900  0.034200  0.710800  1.0  -0.2773
  N  N245  1  0.163700  0.029900  0.172200  1.0  -0.1911
  N  N246  1  0.877300  0.425600  0.368600  1.0  -0.2512
  N  N247  1  0.335400  0.873300  0.237900  1.0  -0.2579
  N  N248  1  0.106900  0.131400  0.201900  1.0  -0.3821
  N  N249  1  0.339400  0.807200  0.212300  1.0  -0.329
  N  N250  1  0.791700  0.432200  0.351800  1.0  -0.2482
  N  N251  1  0.625900  0.716600  0.318600  1.0  -0.3523
  N  N252  1  0.747300  0.683900  0.346900  1.0  -0.1114
  N  N253  1  0.973400  0.679500  0.405400  1.0  -0.2394
  N  N254  1  0.241200  0.784200  0.534100  1.0  -0.4062
  N  N255  1  0.278600  0.860700  0.588200  1.0  -0.2356
  N  N256  1  0.238900  0.801500  0.600500  1.0  -0.1859
  N  N257  1  0.101700  0.699400  0.438600  1.0  -0.4185
  N  N258  1  0.696000  0.623900  0.339800  1.0  -0.3062
  N  N259  1  0.818400  0.315300  0.351400  1.0  -0.3643
  N  N260  1  0.016000  0.612900  0.405000  1.0  -0.2271
  N  N261  1  0.439500  0.805800  0.262100  1.0  -0.4268
  N  N262  1  0.188100  0.034200  0.210800  1.0  -0.2773
  N  N263  1  0.663700  0.970100  0.327800  1.0  -0.191
  N  N264  1  0.377300  0.574400  0.131400  1.0  -0.2498
  N  N265  1  0.835400  0.126700  0.262100  1.0  -0.2577
  N  N266  1  0.606900  0.868600  0.298100  1.0  -0.3809
  N  N267  1  0.839400  0.192800  0.287700  1.0  -0.3304
  N  N268  1  0.291700  0.567800  0.148200  1.0  -0.2484
  N  N269  1  0.125900  0.283400  0.181400  1.0  -0.3529
  N  N270  1  0.247300  0.316100  0.153100  1.0  -0.1134
  N  N271  1  0.473400  0.320500  0.094600  1.0  -0.2419
  N  N272  1  0.741200  0.215800  0.965900  1.0  -0.4034
  N  N273  1  0.778600  0.139300  0.911800  1.0  -0.2317
  N  N274  1  0.738900  0.198500  0.899500  1.0  -0.1825
  N  N275  1  0.601700  0.300600  0.061400  1.0  -0.4184
  N  N276  1  0.196000  0.376100  0.160200  1.0  -0.3057
  N  N277  1  0.318400  0.684700  0.148600  1.0  -0.3628
  N  N278  1  0.516000  0.387100  0.095000  1.0  -0.2278
  N  N279  1  0.939500  0.194200  0.237900  1.0  -0.4281
  N  N280  1  0.688100  0.965800  0.289200  1.0  -0.2774
  O  O281  1  0.737200  0.096300  0.831900  1.0  -0.8751
  O  O282  1  0.139900  0.426000  0.641400  1.0  -0.8289
  O  O283  1  0.916700  0.936300  0.611700  1.0  -0.6781
  O  O284  1  0.461200  0.656900  0.675300  1.0  -0.7395
  O  O285  1  0.779700  0.617800  0.711800  1.0  -0.7004
  O  O286  1  0.695300  0.491800  0.690900  1.0  -0.6947
  O  O287  1  0.616100  0.732400  0.656300  1.0  -0.8045
  O  O288  1  0.766100  0.669600  0.635100  1.0  -0.8361
  O  O289  1  0.459700  0.714900  0.607800  1.0  -0.7588
  O  O290  1  0.765300  0.901800  0.558400  1.0  -0.7128
  O  O291  1  0.432100  0.962300  0.610200  1.0  -0.7669
  O  O292  1  0.541400  0.555700  0.712300  1.0  -0.7167
  O  O293  1  0.929100  0.700700  0.733600  1.0  -0.7598
  O  O294  1  0.730700  0.004100  0.715900  1.0  -0.8426
  O  O295  1  0.498800  0.847300  0.645700  1.0  -0.7996
  O  O296  1  0.675200  0.863100  0.613300  1.0  -0.7665
  O  O297  1  0.596100  0.974900  0.575500  1.0  -0.7172
  O  O298  1  0.696000  0.636100  0.506300  1.0  -0.7402
  O  O299  1  0.659900  0.869400  0.700000  1.0  -0.7578
  O  O300  1  0.913700  0.620900  0.658600  1.0  -0.7215
  O  O301  1  0.908100  0.766900  0.664800  1.0  -0.7434
  O  O302  1  0.795600  0.517100  0.627000  1.0  -0.7702
  O  O303  1  0.931100  0.833600  0.528900  1.0  -0.6737
  O  O304  1  0.595400  0.971600  0.656900  1.0  -0.6751
  O  O305  1  0.851900  0.707900  0.517400  1.0  -0.6652
  O  O306  1  0.520200  0.708200  0.531200  1.0  -0.6861
  O  O307  1  0.765700  0.760000  0.712900  1.0  -0.7112
  O  O308  1  0.791600  0.575800  0.559700  1.0  -0.7404
  O  O309  1  0.546300  0.566400  0.531600  1.0  -0.7296
  O  O310  1  0.994800  0.803800  0.599200  1.0  -0.658
  O  O311  1  0.824000  0.802000  0.594400  1.0  -0.7547
  O  O312  1  0.628000  0.681700  0.733700  1.0  -0.6922
  O  O313  1  0.760600  0.959700  0.489300  1.0  -0.7284
  O  O314  1  0.917800  0.672400  0.585300  1.0  -0.6873
  O  O315  1  0.748800  0.043500  0.559800  1.0  -0.6774
  O  O316  1  0.516100  0.789200  0.715300  1.0  -0.6694
  O  O317  1  0.655000  0.496300  0.579500  1.0  -0.7013
  O  O318  1  0.554200  0.470700  0.641600  1.0  -0.7069
  O  O319  1  0.629000  0.651700  0.588300  1.0  -0.7572
  O  O320  1  0.822700  0.890600  0.669100  1.0  -0.7098
  O  O321  1  0.902000  0.978200  0.538400  1.0  -0.7048
  O  O322  1  0.689000  0.779500  0.546300  1.0  -0.7989
  O  O323  1  0.627300  0.749300  0.473300  1.0  -0.6697
  O  O324  1  0.763800  0.997200  0.632700  1.0  -0.7342
  O  O325  1  0.516300  0.846400  0.565600  1.0  -0.7395
  O  O326  1  0.959000  0.530900  0.587200  1.0  -0.7733
  O  O327  1  0.379800  0.517100  0.668300  1.0  -0.7912
  O  O328  1  0.472700  0.574600  0.605300  1.0  -0.6698
  O  O329  1  0.609200  0.891100  0.506800  1.0  -0.696
  O  O330  1  0.354500  0.777400  0.673400  1.0  -0.7275
  O  O331  1  0.633500  0.595800  0.653000  1.0  -0.7778
  O  O332  1  0.793400  0.814200  0.481100  1.0  -0.6686
  O  O333  1  0.237200  0.903700  0.668100  1.0  -0.8736
  O  O334  1  0.639900  0.574000  0.858600  1.0  -0.8281
  O  O335  1  0.416700  0.063700  0.888300  1.0  -0.6815
  O  O336  1  0.961200  0.343100  0.824700  1.0  -0.7385
  O  O337  1  0.279700  0.382200  0.788200  1.0  -0.6995
  O  O338  1  0.195300  0.508200  0.809100  1.0  -0.6945
  O  O339  1  0.116100  0.267600  0.843700  1.0  -0.8058
  O  O340  1  0.266100  0.330400  0.864900  1.0  -0.8359
  O  O341  1  0.959700  0.285100  0.892200  1.0  -0.7587
  O  O342  1  0.265300  0.098200  0.941600  1.0  -0.7148
  O  O343  1  0.932100  0.037700  0.889800  1.0  -0.7647
  O  O344  1  0.041400  0.444300  0.787700  1.0  -0.7125
  O  O345  1  0.429100  0.299300  0.766400  1.0  -0.7595
  O  O346  1  0.230700  0.995900  0.784100  1.0  -0.8432
  O  O347  1  0.998800  0.152700  0.854300  1.0  -0.8007
  O  O348  1  0.175200  0.136900  0.886700  1.0  -0.7671
  O  O349  1  0.096100  0.025100  0.924500  1.0  -0.714
  O  O350  1  0.196000  0.363900  0.993700  1.0  -0.7417
  O  O351  1  0.159900  0.130600  0.800000  1.0  -0.7586
  O  O352  1  0.413700  0.379100  0.841400  1.0  -0.7215
  O  O353  1  0.408100  0.233100  0.835200  1.0  -0.7425
  O  O354  1  0.295600  0.482900  0.873000  1.0  -0.7737
  O  O355  1  0.431100  0.166400  0.971100  1.0  -0.6749
  O  O356  1  0.095400  0.028400  0.843100  1.0  -0.678
  O  O357  1  0.351900  0.292100  0.982600  1.0  -0.6666
  O  O358  1  0.020200  0.291800  0.968800  1.0  -0.6855
  O  O359  1  0.265700  0.240000  0.787100  1.0  -0.7112
  O  O360  1  0.291600  0.424200  0.940300  1.0  -0.7379
  O  O361  1  0.046300  0.433600  0.968400  1.0  -0.7288
  O  O362  1  0.494800  0.196200  0.900800  1.0  -0.6573
  O  O363  1  0.324000  0.198000  0.905600  1.0  -0.755
  O  O364  1  0.128000  0.318300  0.766300  1.0  -0.6912
  O  O365  1  0.260600  0.040300  0.010700  1.0  -0.7284
  O  O366  1  0.417800  0.327600  0.914700  1.0  -0.6873
  O  O367  1  0.248800  0.956500  0.940200  1.0  -0.6824
  O  O368  1  0.016100  0.210800  0.784700  1.0  -0.6705
  O  O369  1  0.155000  0.503700  0.920500  1.0  -0.6962
  O  O370  1  0.054200  0.529300  0.858400  1.0  -0.7038
  O  O371  1  0.129000  0.348300  0.911700  1.0  -0.7578
  O  O372  1  0.322700  0.109400  0.830900  1.0  -0.7103
  O  O373  1  0.402000  0.021800  0.961600  1.0  -0.704
  O  O374  1  0.189000  0.220500  0.953700  1.0  -0.7978
  O  O375  1  0.127300  0.250700  0.026700  1.0  -0.6706
  O  O376  1  0.263800  0.002800  0.867300  1.0  -0.736
  O  O377  1  0.016300  0.153600  0.934400  1.0  -0.7377
  O  O378  1  0.459000  0.469100  0.912800  1.0  -0.7722
  O  O379  1  0.879800  0.482900  0.831700  1.0  -0.7918
  O  O380  1  0.972700  0.425400  0.894700  1.0  -0.6655
  O  O381  1  0.109200  0.108900  0.993200  1.0  -0.6957
  O  O382  1  0.854500  0.222600  0.826600  1.0  -0.7251
  O  O383  1  0.133500  0.404200  0.847000  1.0  -0.7775
  O  O384  1  0.293400  0.185800  0.018900  1.0  -0.6678
  O  O385  1  0.262800  0.903700  0.168100  1.0  -0.876
  O  O386  1  0.860100  0.574000  0.358600  1.0  -0.8285
  O  O387  1  0.083300  0.063700  0.388300  1.0  -0.6811
  O  O388  1  0.538800  0.343100  0.324700  1.0  -0.7382
  O  O389  1  0.220300  0.382200  0.288200  1.0  -0.6999
  O  O390  1  0.304700  0.508200  0.309100  1.0  -0.6946
  O  O391  1  0.383900  0.267600  0.343700  1.0  -0.8063
  O  O392  1  0.233900  0.330400  0.364900  1.0  -0.8347
  O  O393  1  0.540300  0.285100  0.392200  1.0  -0.7582
  O  O394  1  0.234700  0.098200  0.441600  1.0  -0.7144
  O  O395  1  0.567900  0.037700  0.389800  1.0  -0.7653
  O  O396  1  0.458600  0.444300  0.287700  1.0  -0.7139
  O  O397  1  0.070900  0.299300  0.266400  1.0  -0.7604
  O  O398  1  0.269300  0.995900  0.284100  1.0  -0.8428
  O  O399  1  0.501200  0.152700  0.354300  1.0  -0.801
  O  O400  1  0.324800  0.136900  0.386700  1.0  -0.7666
  O  O401  1  0.403900  0.025100  0.424500  1.0  -0.7132
  O  O402  1  0.304000  0.363900  0.493700  1.0  -0.7421
  O  O403  1  0.340100  0.130600  0.300000  1.0  -0.7561
  O  O404  1  0.086300  0.379100  0.341400  1.0  -0.7216
  O  O405  1  0.091900  0.233100  0.335200  1.0  -0.7425
  O  O406  1  0.204400  0.482900  0.373000  1.0  -0.7754
  O  O407  1  0.068900  0.166400  0.471100  1.0  -0.6735
  O  O408  1  0.404600  0.028400  0.343100  1.0  -0.6776
  O  O409  1  0.148100  0.292100  0.482600  1.0  -0.6674
  O  O410  1  0.479800  0.291800  0.468800  1.0  -0.6863
  O  O411  1  0.234300  0.240000  0.287100  1.0  -0.7115
  O  O412  1  0.208400  0.424200  0.440300  1.0  -0.7391
  O  O413  1  0.453700  0.433600  0.468400  1.0  -0.7267
  O  O414  1  0.005200  0.196200  0.400800  1.0  -0.6567
  O  O415  1  0.176000  0.198000  0.405600  1.0  -0.7552
  O  O416  1  0.372000  0.318300  0.266300  1.0  -0.6891
  O  O417  1  0.239400  0.040300  0.510700  1.0  -0.7286
  O  O418  1  0.082200  0.327600  0.414700  1.0  -0.6881
  O  O419  1  0.251200  0.956500  0.440200  1.0  -0.6822
  O  O420  1  0.483900  0.210800  0.284700  1.0  -0.6704
  O  O421  1  0.345000  0.503700  0.420500  1.0  -0.6954
  O  O422  1  0.445800  0.529300  0.358400  1.0  -0.704
  O  O423  1  0.371000  0.348300  0.411700  1.0  -0.7575
  O  O424  1  0.177300  0.109400  0.330900  1.0  -0.7108
  O  O425  1  0.098000  0.021800  0.461600  1.0  -0.7041
  O  O426  1  0.311000  0.220500  0.453700  1.0  -0.7975
  O  O427  1  0.372700  0.250700  0.526700  1.0  -0.6686
  O  O428  1  0.236200  0.002800  0.367300  1.0  -0.7353
  O  O429  1  0.483700  0.153600  0.434400  1.0  -0.7359
  O  O430  1  0.041000  0.469100  0.412800  1.0  -0.7732
  O  O431  1  0.620200  0.482900  0.331700  1.0  -0.7927
  O  O432  1  0.527300  0.425400  0.394700  1.0  -0.6633
  O  O433  1  0.390800  0.108900  0.493200  1.0  -0.6946
  O  O434  1  0.645500  0.222600  0.326600  1.0  -0.7235
  O  O435  1  0.366500  0.404200  0.347000  1.0  -0.777
  O  O436  1  0.206600  0.185800  0.518900  1.0  -0.6692
  O  O437  1  0.762800  0.096300  0.331900  1.0  -0.8764
  O  O438  1  0.360100  0.426000  0.141400  1.0  -0.8289
  O  O439  1  0.583300  0.936300  0.111700  1.0  -0.6794
  O  O440  1  0.038800  0.656900  0.175300  1.0  -0.7387
  O  O441  1  0.720300  0.617800  0.211800  1.0  -0.7005
  O  O442  1  0.804700  0.491800  0.190900  1.0  -0.6957
  O  O443  1  0.883900  0.732400  0.156300  1.0  -0.8049
  O  O444  1  0.733900  0.669600  0.135100  1.0  -0.8352
  O  O445  1  0.040300  0.714900  0.107800  1.0  -0.7581
  O  O446  1  0.734700  0.901800  0.058400  1.0  -0.7124
  O  O447  1  0.067900  0.962300  0.110200  1.0  -0.7668
  O  O448  1  0.958600  0.555700  0.212300  1.0  -0.7148
  O  O449  1  0.570900  0.700700  0.233600  1.0  -0.7603
  O  O450  1  0.769300  0.004100  0.215900  1.0  -0.8423
  O  O451  1  0.001200  0.847300  0.145700  1.0  -0.7997
  O  O452  1  0.824800  0.863100  0.113300  1.0  -0.7661
  O  O453  1  0.903900  0.974900  0.075500  1.0  -0.7156
  O  O454  1  0.804000  0.636100  0.006300  1.0  -0.7409
  O  O455  1  0.840100  0.869400  0.200000  1.0  -0.7556
  O  O456  1  0.586300  0.620900  0.158600  1.0  -0.721
  O  O457  1  0.591900  0.766900  0.164800  1.0  -0.7431
  O  O458  1  0.704400  0.517100  0.127000  1.0  -0.7707
  O  O459  1  0.568900  0.833600  0.028900  1.0  -0.6736
  O  O460  1  0.904600  0.971600  0.156900  1.0  -0.6746
  O  O461  1  0.648100  0.707900  0.017400  1.0  -0.6661
  O  O462  1  0.979800  0.708200  0.031200  1.0  -0.6844
  O  O463  1  0.734300  0.760000  0.212900  1.0  -0.7117
  O  O464  1  0.708400  0.575800  0.059700  1.0  -0.7409
  O  O465  1  0.953700  0.566400  0.031600  1.0  -0.7293
  O  O466  1  0.505200  0.803800  0.099200  1.0  -0.6569
  O  O467  1  0.676000  0.802000  0.094400  1.0  -0.7551
  O  O468  1  0.872000  0.681700  0.233700  1.0  -0.6918
  O  O469  1  0.739400  0.959700  0.989300  1.0  -0.7277
  O  O470  1  0.582200  0.672400  0.085300  1.0  -0.688
  O  O471  1  0.751200  0.043500  0.059800  1.0  -0.6777
  O  O472  1  0.983900  0.789200  0.215300  1.0  -0.6683
  O  O473  1  0.845000  0.496300  0.079500  1.0  -0.7017
  O  O474  1  0.945800  0.470700  0.141600  1.0  -0.7059
  O  O475  1  0.871000  0.651700  0.088300  1.0  -0.757
  O  O476  1  0.677300  0.890600  0.169100  1.0  -0.7102
  O  O477  1  0.598000  0.978200  0.038400  1.0  -0.7051
  O  O478  1  0.811000  0.779500  0.046300  1.0  -0.7982
  O  O479  1  0.872700  0.749300  0.973300  1.0  -0.6674
  O  O480  1  0.736200  0.997200  0.132700  1.0  -0.7344
  O  O481  1  0.983700  0.846400  0.065600  1.0  -0.7374
  O  O482  1  0.541000  0.530900  0.087200  1.0  -0.7732
  O  O483  1  0.120200  0.517100  0.168300  1.0  -0.7918
  O  O484  1  0.027300  0.574600  0.105300  1.0  -0.668
  O  O485  1  0.890800  0.891100  0.006800  1.0  -0.6946
  O  O486  1  0.145500  0.777400  0.173400  1.0  -0.7263
  O  O487  1  0.866500  0.595800  0.153000  1.0  -0.7775
  O  O488  1  0.706600  0.814200  0.981100  1.0  -0.6698
