# generated using pymatgen
data_Sm2Cu7H28C42Br6(NO2)7
_symmetry_space_group_name_H-M   'P 1'
_cell_length_a   13.93200000
_cell_length_b   18.15600000
_cell_length_c   23.80100000
_cell_angle_alpha   90.00000000
_cell_angle_beta   90.00000000
_cell_angle_gamma   99.42000000
_symmetry_Int_Tables_number   1
_chemical_formula_structural   Sm2Cu7H28C42Br6(NO2)7
_chemical_formula_sum   'Sm8 Cu28 H112 C168 Br24 N28 O56'
_cell_volume   5939.26327301
_cell_formula_units_Z   4
loop_
 _symmetry_equiv_pos_site_id
 _symmetry_equiv_pos_as_xyz
  1  'x, y, z'
loop_
 _atom_site_type_symbol
 _atom_site_label
 _atom_site_symmetry_multiplicity
 _atom_site_fract_x
 _atom_site_fract_y
 _atom_site_fract_z
 _atom_site_occupancy
 _atom_site_charge
  Sm  Sm1  1  0.142600  0.980570  0.406580  1.0  2.2479
  Sm  Sm2  1  0.363930  0.014900  0.602390  1.0  2.2611
  Sm  Sm3  1  0.357400  0.019430  0.906580  1.0  2.2476
  Sm  Sm4  1  0.136070  0.985100  0.102390  1.0  2.2608
  Sm  Sm5  1  0.857400  0.019430  0.593420  1.0  2.249
  Sm  Sm6  1  0.636070  0.985100  0.397610  1.0  2.2604
  Sm  Sm7  1  0.642600  0.980570  0.093420  1.0  2.2488
  Sm  Sm8  1  0.863930  0.014900  0.897610  1.0  2.2602
  Cu  Cu9  1  0.065400  0.456530  0.488230  1.0  0.2031
  Cu  Cu10  1  0.163250  0.554200  0.579750  1.0  0.2353
  Cu  Cu11  1  0.124070  0.444170  0.688940  1.0  0.1979
  Cu  Cu12  1  0.141200  0.570690  0.748870  1.0  0.1608
  Cu  Cu13  1  0.375340  0.553540  0.311970  1.0  0.1978
  Cu  Cu14  1  0.338380  0.440430  0.420770  1.0  0.2346
  Cu  Cu15  1  0.430500  0.540320  0.510490  1.0  0.2014
  Cu  Cu16  1  0.434600  0.543470  0.988230  1.0  0.2026
  Cu  Cu17  1  0.336750  0.445800  0.079750  1.0  0.2348
  Cu  Cu18  1  0.375930  0.555830  0.188940  1.0  0.198
  Cu  Cu19  1  0.358800  0.429310  0.248870  1.0  0.1597
  Cu  Cu20  1  0.124660  0.446460  0.811970  1.0  0.197
  Cu  Cu21  1  0.161620  0.559570  0.920770  1.0  0.236
  Cu  Cu22  1  0.069500  0.459680  0.010490  1.0  0.2019
  Cu  Cu23  1  0.934600  0.543470  0.511770  1.0  0.2025
  Cu  Cu24  1  0.836750  0.445800  0.420250  1.0  0.2346
  Cu  Cu25  1  0.875930  0.555830  0.311060  1.0  0.198
  Cu  Cu26  1  0.858800  0.429310  0.251130  1.0  0.1598
  Cu  Cu27  1  0.624660  0.446460  0.688030  1.0  0.1971
  Cu  Cu28  1  0.661620  0.559570  0.579230  1.0  0.2361
  Cu  Cu29  1  0.569500  0.459680  0.489510  1.0  0.1996
  Cu  Cu30  1  0.565400  0.456530  0.011770  1.0  0.2029
  Cu  Cu31  1  0.663250  0.554200  0.920250  1.0  0.2352
  Cu  Cu32  1  0.624070  0.444170  0.811060  1.0  0.198
  Cu  Cu33  1  0.641200  0.570690  0.751130  1.0  0.1609
  Cu  Cu34  1  0.875340  0.553540  0.188030  1.0  0.1978
  Cu  Cu35  1  0.838380  0.440430  0.079230  1.0  0.2349
  Cu  Cu36  1  0.930500  0.540320  0.989510  1.0  0.1989
  H  H37  1  0.098700  0.322000  0.547800  1.0  0.0652
  H  H38  1  0.108100  0.197800  0.532700  1.0  0.1162
  H  H39  1  0.049900  0.229800  0.370200  1.0  0.1308
  H  H40  1  0.042900  0.354200  0.392500  1.0  0.0724
  H  H41  1  0.209400  0.698300  0.640400  1.0  0.0646
  H  H42  1  0.213400  0.825100  0.626600  1.0  0.1306
  H  H43  1  0.144700  0.779200  0.464600  1.0  0.1157
  H  H44  1  0.146600  0.654800  0.484600  1.0  0.0654
  H  H45  1  0.307200  0.395100  0.652800  1.0  0.0718
  H  H46  1  0.366400  0.286100  0.634800  1.0  0.107
  H  H47  1  0.105700  0.171000  0.669500  1.0  0.1298
  H  H48  1  0.050700  0.280900  0.686600  1.0  0.085
  H  H49  1  0.179000  0.732500  0.747900  1.0  0.094
  H  H50  1  0.094600  0.833500  0.752800  1.0  0.1118
  H  H51  1  0.845600  0.688100  0.751400  1.0  0.1112
  H  H52  1  0.943500  0.594600  0.749000  1.0  0.0411
  H  H53  1  0.450200  0.717400  0.325100  1.0  0.08
  H  H54  1  0.394600  0.823300  0.342400  1.0  0.1091
  H  H55  1  0.124800  0.708200  0.359900  1.0  0.1279
  H  H56  1  0.188900  0.601400  0.340500  1.0  0.0751
  H  H57  1  0.359200  0.343400  0.517600  1.0  0.0741
  H  H58  1  0.361600  0.218900  0.537100  1.0  0.1072
  H  H59  1  0.293200  0.172000  0.376100  1.0  0.1152
  H  H60  1  0.297100  0.296200  0.360600  1.0  0.0827
  H  H61  1  0.451900  0.639800  0.609400  1.0  0.0717
  H  H62  1  0.454100  0.764200  0.631900  1.0  0.1159
  H  H63  1  0.397000  0.802500  0.470600  1.0  0.1195
  H  H64  1  0.398500  0.678500  0.452700  1.0  0.0725
  H  H65  1  0.401300  0.678000  0.047800  1.0  0.0656
  H  H66  1  0.391900  0.802200  0.032700  1.0  0.1165
  H  H67  1  0.450100  0.770200  0.870200  1.0  0.1305
  H  H68  1  0.457100  0.645800  0.892500  1.0  0.073
  H  H69  1  0.290600  0.301700  0.140400  1.0  0.0647
  H  H70  1  0.286600  0.174900  0.126600  1.0  0.1308
  H  H71  1  0.355300  0.220800  0.964600  1.0  0.1156
  H  H72  1  0.353400  0.345200  0.984600  1.0  0.0656
  H  H73  1  0.192800  0.604900  0.152800  1.0  0.0723
  H  H74  1  0.133600  0.713900  0.134800  1.0  0.1077
  H  H75  1  0.394300  0.829000  0.169500  1.0  0.1295
  H  H76  1  0.449300  0.719100  0.186600  1.0  0.0844
  H  H77  1  0.321000  0.267500  0.247900  1.0  0.0915
  H  H78  1  0.405400  0.166500  0.252800  1.0  0.1133
  H  H79  1  0.654400  0.311900  0.251400  1.0  0.1114
  H  H80  1  0.556500  0.405400  0.249000  1.0  0.0431
  H  H81  1  0.049800  0.282600  0.825100  1.0  0.0805
  H  H82  1  0.105400  0.176700  0.842400  1.0  0.1092
  H  H83  1  0.375200  0.291800  0.859900  1.0  0.1264
  H  H84  1  0.311100  0.398600  0.840500  1.0  0.0751
  H  H85  1  0.140800  0.656600  0.017600  1.0  0.0743
  H  H86  1  0.138400  0.781100  0.037100  1.0  0.1071
  H  H87  1  0.206800  0.828000  0.876100  1.0  0.1152
  H  H88  1  0.202900  0.703800  0.860600  1.0  0.0825
  H  H89  1  0.048100  0.360200  0.109400  1.0  0.0707
  H  H90  1  0.045900  0.235800  0.131900  1.0  0.1158
  H  H91  1  0.103000  0.197500  0.970600  1.0  0.1191
  H  H92  1  0.101500  0.321500  0.952700  1.0  0.0724
  H  H93  1  0.901300  0.678000  0.452200  1.0  0.0652
  H  H94  1  0.891900  0.802200  0.467300  1.0  0.1171
  H  H95  1  0.950100  0.770200  0.629800  1.0  0.1302
  H  H96  1  0.957100  0.645800  0.607500  1.0  0.0731
  H  H97  1  0.790600  0.301700  0.359600  1.0  0.0652
  H  H98  1  0.786600  0.174900  0.373400  1.0  0.1308
  H  H99  1  0.855300  0.220800  0.535400  1.0  0.1156
  H  H100  1  0.853400  0.345200  0.515400  1.0  0.0658
  H  H101  1  0.692800  0.604900  0.347200  1.0  0.0722
  H  H102  1  0.633600  0.713900  0.365200  1.0  0.1081
  H  H103  1  0.894300  0.829000  0.330500  1.0  0.1297
  H  H104  1  0.949300  0.719100  0.313400  1.0  0.0841
  H  H105  1  0.821000  0.267500  0.252100  1.0  0.0923
  H  H106  1  0.905400  0.166500  0.247200  1.0  0.1134
  H  H107  1  0.154400  0.311900  0.248600  1.0  0.1112
  H  H108  1  0.056500  0.405400  0.251000  1.0  0.0431
  H  H109  1  0.549800  0.282600  0.674900  1.0  0.0805
  H  H110  1  0.605400  0.176700  0.657600  1.0  0.1091
  H  H111  1  0.875200  0.291800  0.640100  1.0  0.1264
  H  H112  1  0.811100  0.398600  0.659500  1.0  0.075
  H  H113  1  0.640800  0.656600  0.482400  1.0  0.0743
  H  H114  1  0.638400  0.781100  0.462900  1.0  0.1073
  H  H115  1  0.706800  0.828000  0.623900  1.0  0.1146
  H  H116  1  0.702900  0.703800  0.639400  1.0  0.082
  H  H117  1  0.548100  0.360200  0.390600  1.0  0.0709
  H  H118  1  0.545900  0.235800  0.368100  1.0  0.1159
  H  H119  1  0.603000  0.197500  0.529400  1.0  0.1196
  H  H120  1  0.601500  0.321500  0.547300  1.0  0.073
  H  H121  1  0.598700  0.322000  0.952200  1.0  0.0646
  H  H122  1  0.608100  0.197800  0.967300  1.0  0.117
  H  H123  1  0.549900  0.229800  0.129800  1.0  0.1302
  H  H124  1  0.542900  0.354200  0.107500  1.0  0.0725
  H  H125  1  0.709400  0.698300  0.859600  1.0  0.0651
  H  H126  1  0.713400  0.825100  0.873400  1.0  0.1312
  H  H127  1  0.644700  0.779200  0.035400  1.0  0.1154
  H  H128  1  0.646600  0.654800  0.015400  1.0  0.0661
  H  H129  1  0.807200  0.395100  0.847200  1.0  0.0718
  H  H130  1  0.866400  0.286100  0.865200  1.0  0.1072
  H  H131  1  0.605700  0.171000  0.830500  1.0  0.1299
  H  H132  1  0.550700  0.280900  0.813400  1.0  0.0845
  H  H133  1  0.679000  0.732500  0.752100  1.0  0.0939
  H  H134  1  0.594600  0.833500  0.747200  1.0  0.1117
  H  H135  1  0.345600  0.688100  0.748600  1.0  0.1112
  H  H136  1  0.443500  0.594600  0.751000  1.0  0.0411
  H  H137  1  0.950200  0.717400  0.174900  1.0  0.0799
  H  H138  1  0.894600  0.823300  0.157600  1.0  0.109
  H  H139  1  0.624800  0.708200  0.140100  1.0  0.1277
  H  H140  1  0.688900  0.601400  0.159500  1.0  0.0751
  H  H141  1  0.859200  0.343400  0.982400  1.0  0.0744
  H  H142  1  0.861600  0.218900  0.962900  1.0  0.1071
  H  H143  1  0.793200  0.172000  0.123900  1.0  0.115
  H  H144  1  0.797100  0.296200  0.139400  1.0  0.0822
  H  H145  1  0.951900  0.639800  0.890600  1.0  0.0714
  H  H146  1  0.954100  0.764200  0.868100  1.0  0.1158
  H  H147  1  0.897000  0.802500  0.029400  1.0  0.1199
  H  H148  1  0.898500  0.678500  0.047300  1.0  0.0724
  C  C149  1  0.088500  0.303100  0.511500  1.0  0.1458
  C  C150  1  0.093600  0.227800  0.503200  1.0  -0.1439
  C  C151  1  0.076800  0.200200  0.451400  1.0  -0.0347
  C  C152  1  0.059000  0.247200  0.406800  1.0  -0.1294
  C  C153  1  0.055900  0.322100  0.420900  1.0  0.1339
  C  C154  1  0.085600  0.120100  0.436200  1.0  0.6462
  C  C155  1  0.195600  0.714500  0.604700  1.0  0.1448
  C  C156  1  0.197600  0.791500  0.597200  1.0  -0.1178
  C  C157  1  0.174800  0.815500  0.543700  1.0  -0.1134
  C  C158  1  0.157100  0.764400  0.500900  1.0  -0.1258
  C  C159  1  0.158500  0.689200  0.513800  1.0  0.1269
  C  C160  1  0.176700  0.898600  0.533300  1.0  0.8229
  C  C161  1  0.265700  0.349700  0.656300  1.0  0.15
  C  C162  1  0.301900  0.283800  0.645700  1.0  -0.1304
  C  C163  1  0.244600  0.217200  0.651200  1.0  -0.0366
  C  C164  1  0.147900  0.216100  0.666200  1.0  -0.1442
  C  C165  1  0.115300  0.282400  0.676100  1.0  0.1291
  C  C166  1  0.284600  0.146700  0.638100  1.0  0.6714
  C  C167  1  0.111400  0.724300  0.749200  1.0  0.0913
  C  C168  1  0.060400  0.785100  0.751700  1.0  -0.1068
  C  C169  1  0.963400  0.773800  0.752600  1.0  -0.0195
  C  C170  1  0.913200  0.699700  0.751200  1.0  -0.1708
  C  C171  1  0.974500  0.644000  0.749500  1.0  0.1607
  C  C172  1  0.902800  0.837400  0.756500  1.0  0.6646
  C  C173  1  0.384000  0.715400  0.331800  1.0  0.1371
  C  C174  1  0.351000  0.778600  0.342000  1.0  -0.1313
  C  C175  1  0.253100  0.779800  0.352200  1.0  -0.0351
  C  C176  1  0.190800  0.711000  0.352400  1.0  -0.1419
  C  C177  1  0.230000  0.647300  0.341000  1.0  0.1435
  C  C178  1  0.215100  0.851100  0.365600  1.0  0.6703
  C  C179  1  0.346100  0.308400  0.488900  1.0  0.1309
  C  C180  1  0.346500  0.233400  0.501100  1.0  -0.1187
  C  C181  1  0.323900  0.179800  0.458400  1.0  -0.1016
  C  C182  1  0.306600  0.205500  0.405800  1.0  -0.1018
  C  C183  1  0.308900  0.280000  0.396600  1.0  0.1335
  C  C184  1  0.318900  0.097300  0.471100  1.0  0.8071
  C  C185  1  0.442300  0.672900  0.580900  1.0  0.1328
  C  C186  1  0.442300  0.747900  0.595100  1.0  -0.1211
  C  C187  1  0.424300  0.797500  0.553400  1.0  -0.0371
  C  C188  1  0.408700  0.770800  0.499600  1.0  -0.1371
  C  C189  1  0.410700  0.696000  0.489100  1.0  0.1222
  C  C190  1  0.415500  0.876100  0.569700  1.0  0.643
  C  C191  1  0.411500  0.696900  0.011500  1.0  0.1455
  C  C192  1  0.406400  0.772200  0.003200  1.0  -0.1445
  C  C193  1  0.423200  0.799800  0.951400  1.0  -0.0333
  C  C194  1  0.441000  0.752800  0.906800  1.0  -0.1298
  C  C195  1  0.444100  0.677900  0.920900  1.0  0.133
  C  C196  1  0.414400  0.879900  0.936200  1.0  0.6476
  C  C197  1  0.304400  0.285500  0.104700  1.0  0.1432
  C  C198  1  0.302400  0.208500  0.097200  1.0  -0.1177
  C  C199  1  0.325200  0.184500  0.043700  1.0  -0.1137
  C  C200  1  0.342900  0.235600  0.000900  1.0  -0.1249
  C  C201  1  0.341500  0.310800  0.013800  1.0  0.1281
  C  C202  1  0.323300  0.101400  0.033300  1.0  0.8217
  C  C203  1  0.234300  0.650300  0.156300  1.0  0.1494
  C  C204  1  0.198100  0.716200  0.145700  1.0  -0.1287
  C  C205  1  0.255400  0.782800  0.151200  1.0  -0.0346
  C  C206  1  0.352100  0.783900  0.166200  1.0  -0.1457
  C  C207  1  0.384700  0.717600  0.176100  1.0  0.1301
  C  C208  1  0.215400  0.853300  0.138100  1.0  0.6701
  C  C209  1  0.388600  0.275700  0.249200  1.0  0.0919
  C  C210  1  0.439600  0.214900  0.251700  1.0  -0.1086
  C  C211  1  0.536600  0.226200  0.252600  1.0  -0.0191
  C  C212  1  0.586800  0.300300  0.251200  1.0  -0.1727
  C  C213  1  0.525500  0.356000  0.249500  1.0  0.1616
  C  C214  1  0.597200  0.162600  0.256500  1.0  0.664
  C  C215  1  0.116000  0.284600  0.831800  1.0  0.1372
  C  C216  1  0.149000  0.221400  0.842000  1.0  -0.1317
  C  C217  1  0.246900  0.220200  0.852200  1.0  -0.0357
  C  C218  1  0.309200  0.289000  0.852400  1.0  -0.1422
  C  C219  1  0.270000  0.352700  0.841000  1.0  0.1437
  C  C220  1  0.284900  0.148900  0.865600  1.0  0.6711
  C  C221  1  0.153900  0.691600  0.988900  1.0  0.1301
  C  C222  1  0.153500  0.766600  0.001100  1.0  -0.1189
  C  C223  1  0.176100  0.820200  0.958400  1.0  -0.1012
  C  C224  1  0.193400  0.794500  0.905800  1.0  -0.1014
  C  C225  1  0.191100  0.720000  0.896600  1.0  0.1341
  C  C226  1  0.181100  0.902700  0.971100  1.0  0.8071
  C  C227  1  0.057700  0.327100  0.080900  1.0  0.132
  C  C228  1  0.057700  0.252100  0.095100  1.0  -0.1215
  C  C229  1  0.075700  0.202500  0.053400  1.0  -0.0386
  C  C230  1  0.091300  0.229200  0.999600  1.0  -0.1361
  C  C231  1  0.089300  0.304000  0.989100  1.0  0.1213
  C  C232  1  0.084500  0.123900  0.069700  1.0  0.6424
  C  C233  1  0.911500  0.696900  0.488500  1.0  0.148
  C  C234  1  0.906400  0.772200  0.496800  1.0  -0.1457
  C  C235  1  0.923200  0.799800  0.548600  1.0  -0.0338
  C  C236  1  0.941000  0.752800  0.593200  1.0  -0.1311
  C  C237  1  0.944100  0.677900  0.579100  1.0  0.1332
  C  C238  1  0.914400  0.879900  0.563800  1.0  0.6472
  C  C239  1  0.804400  0.285500  0.395300  1.0  0.1456
  C  C240  1  0.802400  0.208500  0.402800  1.0  -0.1193
  C  C241  1  0.825200  0.184500  0.456300  1.0  -0.1138
  C  C242  1  0.842900  0.235600  0.499100  1.0  -0.1244
  C  C243  1  0.841500  0.310800  0.486200  1.0  0.1276
  C  C244  1  0.823300  0.101400  0.466700  1.0  0.8227
  C  C245  1  0.734300  0.650300  0.343700  1.0  0.1493
  C  C246  1  0.698100  0.716200  0.354300  1.0  -0.1285
  C  C247  1  0.755400  0.782800  0.348800  1.0  -0.037
  C  C248  1  0.852100  0.783900  0.333800  1.0  -0.1452
  C  C249  1  0.884700  0.717600  0.323900  1.0  0.1301
  C  C250  1  0.715400  0.853300  0.361900  1.0  0.671
  C  C251  1  0.888600  0.275700  0.250800  1.0  0.0921
  C  C252  1  0.939600  0.214900  0.248300  1.0  -0.1086
  C  C253  1  0.036600  0.226200  0.247400  1.0  -0.0194
  C  C254  1  0.086800  0.300300  0.248800  1.0  -0.1729
  C  C255  1  0.025500  0.356000  0.250500  1.0  0.1619
  C  C256  1  0.097200  0.162600  0.243500  1.0  0.6635
  C  C257  1  0.616000  0.284600  0.668200  1.0  0.1373
  C  C258  1  0.649000  0.221400  0.658000  1.0  -0.131
  C  C259  1  0.746900  0.220200  0.647800  1.0  -0.0352
  C  C260  1  0.809200  0.289000  0.647600  1.0  -0.1423
  C  C261  1  0.770000  0.352700  0.659000  1.0  0.1438
  C  C262  1  0.784900  0.148900  0.634400  1.0  0.6714
  C  C263  1  0.653900  0.691600  0.511100  1.0  0.1306
  C  C264  1  0.653500  0.766600  0.498900  1.0  -0.1206
  C  C265  1  0.676100  0.820200  0.541600  1.0  -0.1013
  C  C266  1  0.693400  0.794500  0.594200  1.0  -0.101
  C  C267  1  0.691100  0.720000  0.603400  1.0  0.1333
  C  C268  1  0.681100  0.902700  0.528900  1.0  0.8061
  C  C269  1  0.557700  0.327100  0.419100  1.0  0.1321
  C  C270  1  0.557700  0.252100  0.404900  1.0  -0.1216
  C  C271  1  0.575700  0.202500  0.446600  1.0  -0.0385
  C  C272  1  0.591300  0.229200  0.500400  1.0  -0.1353
  C  C273  1  0.589300  0.304000  0.510900  1.0  0.1211
  C  C274  1  0.584500  0.123900  0.430300  1.0  0.6417
  C  C275  1  0.588500  0.303100  0.988500  1.0  0.1491
  C  C276  1  0.593600  0.227800  0.996800  1.0  -0.1454
  C  C277  1  0.576800  0.200200  0.048600  1.0  -0.0354
  C  C278  1  0.559000  0.247200  0.093200  1.0  -0.1312
  C  C279  1  0.555900  0.322100  0.079100  1.0  0.1341
  C  C280  1  0.585600  0.120100  0.063800  1.0  0.6467
  C  C281  1  0.695600  0.714500  0.895300  1.0  0.1466
  C  C282  1  0.697600  0.791500  0.902800  1.0  -0.1197
  C  C283  1  0.674800  0.815500  0.956300  1.0  -0.1134
  C  C284  1  0.657100  0.764400  0.999100  1.0  -0.1257
  C  C285  1  0.658500  0.689200  0.986200  1.0  0.1264
  C  C286  1  0.676700  0.898600  0.966700  1.0  0.8237
  C  C287  1  0.765700  0.349700  0.843700  1.0  0.1497
  C  C288  1  0.801900  0.283800  0.854300  1.0  -0.1295
  C  C289  1  0.744600  0.217200  0.848800  1.0  -0.0403
  C  C290  1  0.647900  0.216100  0.833800  1.0  -0.145
  C  C291  1  0.615300  0.282400  0.823900  1.0  0.1292
  C  C292  1  0.784600  0.146700  0.861900  1.0  0.6702
  C  C293  1  0.611400  0.724300  0.750800  1.0  0.0914
  C  C294  1  0.560400  0.785100  0.748300  1.0  -0.1068
  C  C295  1  0.463400  0.773800  0.747400  1.0  -0.0198
  C  C296  1  0.413200  0.699700  0.748800  1.0  -0.1712
  C  C297  1  0.474500  0.644000  0.750500  1.0  0.1609
  C  C298  1  0.402800  0.837400  0.743500  1.0  0.6646
  C  C299  1  0.884000  0.715400  0.168200  1.0  0.137
  C  C300  1  0.851000  0.778600  0.158000  1.0  -0.1309
  C  C301  1  0.753100  0.779800  0.147800  1.0  -0.0352
  C  C302  1  0.690800  0.711000  0.147600  1.0  -0.1415
  C  C303  1  0.730000  0.647300  0.159000  1.0  0.1439
  C  C304  1  0.715100  0.851100  0.134400  1.0  0.669
  C  C305  1  0.846100  0.308400  0.011100  1.0  0.1316
  C  C306  1  0.846500  0.233400  0.998900  1.0  -0.1205
  C  C307  1  0.823900  0.179800  0.041600  1.0  -0.1019
  C  C308  1  0.806600  0.205500  0.094200  1.0  -0.1017
  C  C309  1  0.808900  0.280000  0.103400  1.0  0.1324
  C  C310  1  0.818900  0.097300  0.028900  1.0  0.8062
  C  C311  1  0.942300  0.672900  0.919100  1.0  0.132
  C  C312  1  0.942300  0.747900  0.904900  1.0  -0.1215
  C  C313  1  0.924300  0.797500  0.946600  1.0  -0.0371
  C  C314  1  0.908700  0.770800  0.000400  1.0  -0.1366
  C  C315  1  0.910700  0.696000  0.010900  1.0  0.1208
  C  C316  1  0.915500  0.876100  0.930300  1.0  0.6433
  Br  Br317  1  0.249210  0.494630  0.501510  1.0  -0.3456
  Br  Br318  1  0.999830  0.471120  0.587030  1.0  -0.2853
  Br  Br319  1  0.252040  0.548270  0.670900  1.0  -0.2561
  Br  Br320  1  0.512810  0.559430  0.250490  1.0  -0.2953
  Br  Br321  1  0.249480  0.447260  0.329970  1.0  -0.2615
  Br  Br322  1  0.498240  0.528200  0.412820  1.0  -0.2855
  Br  Br323  1  0.250790  0.505370  0.001510  1.0  -0.3454
  Br  Br324  1  0.500170  0.528880  0.087030  1.0  -0.2855
  Br  Br325  1  0.247960  0.451730  0.170900  1.0  -0.256
  Br  Br326  1  0.987190  0.440570  0.750490  1.0  -0.2953
  Br  Br327  1  0.250520  0.552740  0.829970  1.0  -0.2618
  Br  Br328  1  0.001760  0.471800  0.912820  1.0  -0.2854
  Br  Br329  1  0.750790  0.505370  0.498490  1.0  -0.3453
  Br  Br330  1  0.000170  0.528880  0.412970  1.0  -0.2853
  Br  Br331  1  0.747960  0.451730  0.329100  1.0  -0.2549
  Br  Br332  1  0.487190  0.440570  0.749510  1.0  -0.295
  Br  Br333  1  0.750520  0.552740  0.670030  1.0  -0.261
  Br  Br334  1  0.501760  0.471800  0.587180  1.0  -0.2858
  Br  Br335  1  0.749210  0.494630  0.998490  1.0  -0.3456
  Br  Br336  1  0.499830  0.471120  0.912970  1.0  -0.2854
  Br  Br337  1  0.752040  0.548270  0.829100  1.0  -0.255
  Br  Br338  1  0.012810  0.559430  0.249510  1.0  -0.2951
  Br  Br339  1  0.749480  0.447260  0.170030  1.0  -0.2609
  Br  Br340  1  0.998240  0.528200  0.087180  1.0  -0.2859
  N  N341  1  0.070400  0.349300  0.472100  1.0  -0.2422
  N  N342  1  0.175600  0.663100  0.564900  1.0  -0.2505
  N  N343  1  0.173000  0.349500  0.671200  1.0  -0.2336
  N  N344  1  0.061300  0.654200  0.748700  1.0  -0.217
  N  N345  1  0.326500  0.649200  0.330500  1.0  -0.2552
  N  N346  1  0.327700  0.331100  0.438200  1.0  -0.2556
  N  N347  1  0.429400  0.647000  0.529100  1.0  -0.2404
  N  N348  1  0.429600  0.650700  0.972100  1.0  -0.2391
  N  N349  1  0.324400  0.336900  0.064900  1.0  -0.2543
  N  N350  1  0.327000  0.650500  0.171200  1.0  -0.2322
  N  N351  1  0.438700  0.345800  0.248700  1.0  -0.2169
  N  N352  1  0.173500  0.350800  0.830500  1.0  -0.2598
  N  N353  1  0.172300  0.668900  0.938200  1.0  -0.2537
  N  N354  1  0.070600  0.353000  0.029100  1.0  -0.2433
  N  N355  1  0.929600  0.650700  0.527900  1.0  -0.2381
  N  N356  1  0.824400  0.336900  0.435100  1.0  -0.2546
  N  N357  1  0.827000  0.650500  0.328800  1.0  -0.2323
  N  N358  1  0.938700  0.345800  0.251300  1.0  -0.2167
  N  N359  1  0.673500  0.350800  0.669500  1.0  -0.2599
  N  N360  1  0.672300  0.668900  0.561800  1.0  -0.2541
  N  N361  1  0.570600  0.353000  0.470900  1.0  -0.2432
  N  N362  1  0.570400  0.349300  0.027900  1.0  -0.2421
  N  N363  1  0.675600  0.663100  0.935100  1.0  -0.2504
  N  N364  1  0.673000  0.349500  0.828800  1.0  -0.2338
  N  N365  1  0.561300  0.654200  0.751300  1.0  -0.2168
  N  N366  1  0.826500  0.649200  0.169500  1.0  -0.2555
  N  N367  1  0.827700  0.331100  0.061800  1.0  -0.2555
  N  N368  1  0.929400  0.647000  0.970900  1.0  -0.241
  O  O369  1  0.098700  0.076000  0.476400  1.0  -0.6893
  O  O370  1  0.085100  0.099800  0.386700  1.0  -0.6649
  O  O371  1  0.139400  0.912700  0.488000  1.0  -0.7542
  O  O372  1  0.213300  0.943500  0.568600  1.0  -0.7172
  O  O373  1  0.374600  0.147200  0.640300  1.0  -0.7313
  O  O374  1  0.224400  0.088600  0.626100  1.0  -0.6686
  O  O375  1  0.947500  0.904100  0.748300  1.0  -0.7137
  O  O376  1  0.815400  0.821600  0.769100  1.0  -0.6254
  O  O377  1  0.274600  0.907900  0.380400  1.0  -0.6717
  O  O378  1  0.125800  0.851200  0.363000  1.0  -0.7147
  O  O379  1  0.354500  0.082700  0.518700  1.0  -0.7605
  O  O380  1  0.287100  0.051200  0.434900  1.0  -0.7125
  O  O381  1  0.423400  0.895800  0.619100  1.0  -0.6609
  O  O382  1  0.401000  0.921700  0.530700  1.0  -0.6905
  O  O383  1  0.401300  0.924000  0.976400  1.0  -0.6899
  O  O384  1  0.414900  0.900200  0.886700  1.0  -0.6665
  O  O385  1  0.360600  0.087300  0.988000  1.0  -0.7563
  O  O386  1  0.286700  0.056500  0.068600  1.0  -0.7162
  O  O387  1  0.125400  0.852800  0.140300  1.0  -0.7328
  O  O388  1  0.275600  0.911400  0.126100  1.0  -0.6678
  O  O389  1  0.552500  0.095900  0.248300  1.0  -0.7204
  O  O390  1  0.684600  0.178400  0.269100  1.0  -0.6206
  O  O391  1  0.225400  0.092100  0.880400  1.0  -0.6756
  O  O392  1  0.374200  0.148800  0.863000  1.0  -0.7118
  O  O393  1  0.145500  0.917300  0.018700  1.0  -0.7594
  O  O394  1  0.212900  0.948800  0.934900  1.0  -0.712
  O  O395  1  0.076600  0.104200  0.119100  1.0  -0.6634
  O  O396  1  0.099000  0.078300  0.030700  1.0  -0.6918
  O  O397  1  0.901300  0.924000  0.523600  1.0  -0.689
  O  O398  1  0.914900  0.900200  0.613300  1.0  -0.6652
  O  O399  1  0.860600  0.087300  0.512000  1.0  -0.7552
  O  O400  1  0.786700  0.056500  0.431400  1.0  -0.7173
  O  O401  1  0.625400  0.852800  0.359700  1.0  -0.7332
  O  O402  1  0.775600  0.911400  0.373900  1.0  -0.6689
  O  O403  1  0.052500  0.095900  0.251700  1.0  -0.7197
  O  O404  1  0.184600  0.178400  0.230900  1.0  -0.6214
  O  O405  1  0.725400  0.092100  0.619600  1.0  -0.6741
  O  O406  1  0.874200  0.148800  0.637000  1.0  -0.709
  O  O407  1  0.645500  0.917300  0.481300  1.0  -0.7597
  O  O408  1  0.712900  0.948800  0.565100  1.0  -0.7113
  O  O409  1  0.576600  0.104200  0.380900  1.0  -0.6628
  O  O410  1  0.599000  0.078300  0.469300  1.0  -0.6929
  O  O411  1  0.598700  0.076000  0.023600  1.0  -0.6896
  O  O412  1  0.585100  0.099800  0.113300  1.0  -0.6677
  O  O413  1  0.639400  0.912700  0.012000  1.0  -0.7537
  O  O414  1  0.713300  0.943500  0.931400  1.0  -0.718
  O  O415  1  0.874600  0.147200  0.859700  1.0  -0.7333
  O  O416  1  0.724400  0.088600  0.873900  1.0  -0.6701
  O  O417  1  0.447500  0.904100  0.751700  1.0  -0.7142
  O  O418  1  0.315400  0.821600  0.730900  1.0  -0.6258
  O  O419  1  0.774600  0.907900  0.119600  1.0  -0.6698
  O  O420  1  0.625800  0.851200  0.137000  1.0  -0.7137
  O  O421  1  0.854500  0.082700  0.981300  1.0  -0.7613
  O  O422  1  0.787100  0.051200  0.065100  1.0  -0.7114
  O  O423  1  0.923400  0.895800  0.880900  1.0  -0.6619
  O  O424  1  0.901000  0.921700  0.969300  1.0  -0.6923
