# generated using pymatgen
data_Tb4H18C57(O4F3)6
_symmetry_space_group_name_H-M   'P 1'
_cell_length_a   8.13600000
_cell_length_b   21.39450000
_cell_length_c   22.87980000
_cell_angle_alpha   82.37400000
_cell_angle_beta   82.74600000
_cell_angle_gamma   79.43700000
_symmetry_Int_Tables_number   1
_chemical_formula_structural   Tb4H18C57(O4F3)6
_chemical_formula_sum   'Tb8 H36 C114 O48 F36'
_cell_volume   3859.17428048
_cell_formula_units_Z   2
loop_
 _symmetry_equiv_pos_site_id
 _symmetry_equiv_pos_as_xyz
  1  'x, y, z'
loop_
 _atom_site_type_symbol
 _atom_site_label
 _atom_site_symmetry_multiplicity
 _atom_site_fract_x
 _atom_site_fract_y
 _atom_site_fract_z
 _atom_site_occupancy
 _atom_site_charge
  Tb  Tb1  1  0.738360  0.094310  0.535200  1.0  2.2816
  Tb  Tb2  1  0.966260  0.247790  0.596150  1.0  2.2314
  Tb  Tb3  1  0.700570  0.575900  0.216220  1.0  2.1705
  Tb  Tb4  1  0.113630  0.528300  0.067600  1.0  2.2472
  Tb  Tb5  1  0.261640  0.905690  0.464800  1.0  2.2813
  Tb  Tb6  1  0.033740  0.752210  0.403850  1.0  2.2297
  Tb  Tb7  1  0.299430  0.424100  0.783780  1.0  2.1737
  Tb  Tb8  1  0.886370  0.471700  0.932400  1.0  2.2468
  H  H9  1  0.094000  0.229900  0.374900  1.0  0.1064
  H  H10  1  0.730600  0.253600  0.267400  1.0  0.1019
  H  H11  1  0.531200  0.255200  0.348600  1.0  0.1042
  H  H12  1  0.941400  0.354600  0.246700  1.0  0.1027
  H  H13  1  0.974500  0.286200  0.062600  1.0  0.0908
  H  H14  1  0.053000  0.213600  0.141100  1.0  0.114
  H  H15  1  0.842100  0.910200  0.283700  1.0  0.0991
  H  H16  1  0.587900  0.087000  0.246300  1.0  0.1115
  H  H17  1  0.652900  0.114400  0.333800  1.0  0.0928
  H  H18  1  0.464600  0.925800  0.286500  1.0  0.0888
  H  H19  1  0.722600  0.754800  0.186700  1.0  0.0931
  H  H20  1  0.775100  0.856900  0.151300  1.0  0.1048
  H  H21  1  0.843200  0.282300  0.929800  1.0  0.0997
  H  H22  1  0.743300  0.138100  0.851500  1.0  0.1077
  H  H23  1  0.836000  0.185900  0.762200  1.0  0.0964
  H  H24  1  0.485300  0.271000  0.916600  1.0  0.1039
  H  H25  1  0.483400  0.309600  0.109700  1.0  0.1003
  H  H26  1  0.644200  0.217900  0.077300  1.0  0.111
  H  H27  1  0.906000  0.770100  0.625100  1.0  0.1077
  H  H28  1  0.269400  0.746400  0.732600  1.0  0.1013
  H  H29  1  0.468800  0.744800  0.651400  1.0  0.1034
  H  H30  1  0.058600  0.645400  0.753300  1.0  0.1025
  H  H31  1  0.025500  0.713800  0.937400  1.0  0.09
  H  H32  1  0.947000  0.786400  0.858900  1.0  0.1138
  H  H33  1  0.157900  0.089800  0.716300  1.0  0.099
  H  H34  1  0.412100  0.913000  0.753700  1.0  0.1115
  H  H35  1  0.347100  0.885600  0.666200  1.0  0.0924
  H  H36  1  0.535400  0.074200  0.713500  1.0  0.0885
  H  H37  1  0.277400  0.245200  0.813300  1.0  0.0931
  H  H38  1  0.224900  0.143100  0.848700  1.0  0.1043
  H  H39  1  0.156800  0.717700  0.070200  1.0  0.1003
  H  H40  1  0.256700  0.861900  0.148500  1.0  0.1081
  H  H41  1  0.164000  0.814100  0.237800  1.0  0.0954
  H  H42  1  0.514700  0.729000  0.083400  1.0  0.1029
  H  H43  1  0.516600  0.690400  0.890300  1.0  0.1005
  H  H44  1  0.355800  0.782100  0.922700  1.0  0.1108
  C  C45  1  0.559100  0.229500  0.462400  1.0  0.706
  C  C46  1  0.692300  0.237800  0.411500  1.0  -0.0453
  C  C47  1  0.861200  0.232900  0.418300  1.0  -0.1059
  C  C48  1  0.981100  0.233700  0.369400  1.0  -0.081
  C  C49  1  0.933200  0.240000  0.312400  1.0  0.0629
  C  C50  1  0.764400  0.248100  0.305300  1.0  -0.1224
  C  C51  1  0.644600  0.248200  0.354100  1.0  -0.0771
  C  C52  1  0.917400  0.227300  0.479500  1.0  0.7006
  C  C53  1  0.065300  0.231700  0.257100  1.0  -0.3158
  C  C54  1  0.005900  0.276000  0.202600  1.0  0.0587
  C  C55  1  0.949600  0.341100  0.209300  1.0  -0.1639
  C  C56  1  0.905900  0.385500  0.161800  1.0  -0.056
  C  C57  1  0.915200  0.365000  0.104800  1.0  -0.0887
  C  C58  1  0.969300  0.300400  0.099600  1.0  -0.0658
  C  C59  1  0.015500  0.256400  0.146700  1.0  -0.1764
  C  C60  1  0.844200  0.453500  0.173900  1.0  0.7139
  C  C61  1  0.882400  0.407800  0.050500  1.0  0.6811
  C  C62  1  0.240800  0.244400  0.265600  1.0  0.6771
  C  C63  1  0.079000  0.159800  0.245800  1.0  0.6891
  C  C64  1  0.782200  0.046200  0.424500  1.0  0.6497
  C  C65  1  0.778900  0.028200  0.363900  1.0  -0.0417
  C  C66  1  0.840900  0.967300  0.347400  1.0  -0.1337
  C  C67  1  0.802600  0.951300  0.294100  1.0  -0.0937
  C  C68  1  0.708000  0.994700  0.256500  1.0  0.0447
  C  C69  1  0.650700  0.056800  0.271500  1.0  -0.1621
  C  C70  1  0.688600  0.072700  0.324300  1.0  -0.1111
  C  C71  1  0.929900  0.915700  0.389100  1.0  0.7182
  C  C72  1  0.665400  0.971300  0.200400  1.0  -0.3052
  C  C73  1  0.627100  0.902400  0.216600  1.0  0.021
  C  C74  1  0.518400  0.891200  0.266600  1.0  -0.1099
  C  C75  1  0.486300  0.831100  0.288400  1.0  -0.1116
  C  C76  1  0.570300  0.778400  0.259500  1.0  -0.0843
  C  C77  1  0.673100  0.789100  0.207600  1.0  -0.0204
  C  C78  1  0.703900  0.850500  0.185900  1.0  -0.1441
  C  C79  1  0.355700  0.826100  0.340400  1.0  0.7154
  C  C80  1  0.571400  0.709800  0.288200  1.0  0.718
  C  C81  1  0.818500  0.976400  0.153300  1.0  0.6874
  C  C82  1  0.508300  0.012300  0.174800  1.0  0.6944
  C  C83  1  0.927400  0.301000  0.728800  1.0  0.7104
  C  C84  1  0.892900  0.264300  0.789500  1.0  -0.0679
  C  C85  1  0.894800  0.293200  0.841900  1.0  -0.0599
  C  C86  1  0.839500  0.263600  0.895700  1.0  -0.0962
  C  C87  1  0.777600  0.206100  0.901000  1.0  0.0688
  C  C88  1  0.780100  0.177200  0.849200  1.0  -0.1546
  C  C89  1  0.835800  0.205900  0.795900  1.0  -0.039
  C  C90  1  0.964800  0.353800  0.840300  1.0  0.7444
  C  C91  1  0.703900  0.180100  0.964000  1.0  -0.2987
  C  C92  1  0.590500  0.236400  0.991700  1.0  0.0787
  C  C93  1  0.488300  0.279400  0.955300  1.0  -0.0965
  C  C94  1  0.390900  0.334100  0.974400  1.0  -0.0963
  C  C95  1  0.396300  0.347500  0.032000  1.0  -0.0869
  C  C96  1  0.487300  0.302500  0.070300  1.0  -0.0423
  C  C97  1  0.583900  0.247500  0.051000  1.0  -0.1508
  C  C98  1  0.283200  0.378500  0.930800  1.0  0.7193
  C  C99  1  0.320100  0.412400  0.049900  1.0  0.6849
  C  C100  1  0.857300  0.152100  0.998300  1.0  0.7259
  C  C101  1  0.600400  0.127700  0.962800  1.0  0.6855
  C  C102  1  0.440900  0.770500  0.537600  1.0  0.705
  C  C103  1  0.307700  0.762200  0.588500  1.0  -0.0441
  C  C104  1  0.138800  0.767100  0.581700  1.0  -0.1055
  C  C105  1  0.018900  0.766300  0.630600  1.0  -0.082
  C  C106  1  0.066800  0.760000  0.687600  1.0  0.0629
  C  C107  1  0.235600  0.751900  0.694700  1.0  -0.1236
  C  C108  1  0.355400  0.751800  0.645900  1.0  -0.0799
  C  C109  1  0.082600  0.772700  0.520500  1.0  0.7009
  C  C110  1  0.934700  0.768300  0.742900  1.0  -0.3164
  C  C111  1  0.994100  0.724000  0.797400  1.0  0.0588
  C  C112  1  0.050400  0.658900  0.790700  1.0  -0.1627
  C  C113  1  0.094100  0.614500  0.838200  1.0  -0.0574
  C  C114  1  0.084800  0.635000  0.895200  1.0  -0.0884
  C  C115  1  0.030700  0.699600  0.900400  1.0  -0.064
  C  C116  1  0.984500  0.743600  0.853300  1.0  -0.1762
  C  C117  1  0.155800  0.546500  0.826100  1.0  0.715
  C  C118  1  0.117600  0.592200  0.949500  1.0  0.6823
  C  C119  1  0.759200  0.755600  0.734400  1.0  0.6753
  C  C120  1  0.921000  0.840200  0.754200  1.0  0.6883
  C  C121  1  0.217800  0.953800  0.575500  1.0  0.6496
  C  C122  1  0.221100  0.971800  0.636100  1.0  -0.042
  C  C123  1  0.159100  0.032700  0.652600  1.0  -0.1324
  C  C124  1  0.197400  0.048700  0.705900  1.0  -0.0953
  C  C125  1  0.292000  0.005300  0.743500  1.0  0.0433
  C  C126  1  0.349300  0.943200  0.728500  1.0  -0.1612
  C  C127  1  0.311400  0.927300  0.675700  1.0  -0.1118
  C  C128  1  0.070100  0.084300  0.610900  1.0  0.7201
  C  C129  1  0.334600  0.028700  0.799600  1.0  -0.3045
  C  C130  1  0.372900  0.097600  0.783400  1.0  0.0212
  C  C131  1  0.481600  0.108800  0.733400  1.0  -0.1099
  C  C132  1  0.513700  0.168900  0.711600  1.0  -0.1158
  C  C133  1  0.429700  0.221600  0.740500  1.0  -0.0852
  C  C134  1  0.326900  0.210900  0.792400  1.0  -0.0208
  C  C135  1  0.296100  0.149500  0.814100  1.0  -0.1453
  C  C136  1  0.644300  0.173900  0.659600  1.0  0.714
  C  C137  1  0.428600  0.290200  0.711800  1.0  0.7211
  C  C138  1  0.181500  0.023600  0.846700  1.0  0.6875
  C  C139  1  0.491700  0.987700  0.825200  1.0  0.6946
  C  C140  1  0.072600  0.699000  0.271200  1.0  0.7099
  C  C141  1  0.107100  0.735700  0.210500  1.0  -0.0678
  C  C142  1  0.105200  0.706800  0.158100  1.0  -0.061
  C  C143  1  0.160500  0.736400  0.104300  1.0  -0.0964
  C  C144  1  0.222400  0.793900  0.099000  1.0  0.0691
  C  C145  1  0.219900  0.822800  0.150800  1.0  -0.1552
  C  C146  1  0.164200  0.794100  0.204100  1.0  -0.0385
  C  C147  1  0.035200  0.646200  0.159700  1.0  0.7369
  C  C148  1  0.296100  0.819900  0.036000  1.0  -0.2999
  C  C149  1  0.409500  0.763600  0.008300  1.0  0.0792
  C  C150  1  0.511700  0.720600  0.044700  1.0  -0.098
  C  C151  1  0.609100  0.665900  0.025600  1.0  -0.0973
  C  C152  1  0.603700  0.652500  0.968000  1.0  -0.0878
  C  C153  1  0.512700  0.697500  0.929700  1.0  -0.0417
  C  C154  1  0.416100  0.752500  0.949000  1.0  -0.1512
  C  C155  1  0.716800  0.621500  0.069200  1.0  0.7174
  C  C156  1  0.679900  0.587600  0.950100  1.0  0.6831
  C  C157  1  0.142700  0.847900  0.001700  1.0  0.7266
  C  C158  1  0.399600  0.872300  0.037200  1.0  0.6853
  O  O159  1  0.552300  0.172400  0.485600  1.0  -0.7262
  O  O160  1  0.455700  0.276000  0.476600  1.0  -0.5
  O  O161  1  0.852400  0.194200  0.521300  1.0  -0.6971
  O  O162  1  0.022500  0.260600  0.487900  1.0  -0.6808
  O  O163  1  0.705300  0.465600  0.204300  1.0  -0.6516
  O  O164  1  0.931200  0.497700  0.157600  1.0  -0.8026
  O  O165  1  0.935200  0.461100  0.041600  1.0  -0.808
  O  O166  1  0.808200  0.391900  0.011100  1.0  -0.6224
  O  O167  1  0.885100  0.079500  0.436000  1.0  -0.6334
  O  O168  1  0.666500  0.031000  0.463000  1.0  -0.6591
  O  O169  1  0.994400  0.933600  0.430700  1.0  -0.691
  O  O170  1  0.933800  0.859800  0.380800  1.0  -0.7083
  O  O171  1  0.345700  0.866100  0.377000  1.0  -0.7252
  O  O172  1  0.262600  0.786000  0.343300  1.0  -0.6948
  O  O173  1  0.578600  0.698900  0.343200  1.0  -0.5396
  O  O174  1  0.570800  0.667900  0.254600  1.0  -0.778
  O  O175  1  0.000800  0.268700  0.687800  1.0  -0.7508
  O  O176  1  0.873200  0.359600  0.722000  1.0  -0.5404
  O  O177  1  0.108200  0.355500  0.814200  1.0  -0.7026
  O  O178  1  0.876900  0.397200  0.868000  1.0  -0.7301
  O  O179  1  0.359100  0.391900  0.879600  1.0  -0.7244
  O  O180  1  0.132600  0.396100  0.946900  1.0  -0.6832
  O  O181  1  0.328300  0.459200  0.010700  1.0  -0.5929
  O  O182  1  0.253700  0.418900  0.102000  1.0  -0.6232
  O  O183  1  0.447700  0.827600  0.514400  1.0  -0.7269
  O  O184  1  0.544300  0.724000  0.523400  1.0  -0.496
  O  O185  1  0.147600  0.805800  0.478700  1.0  -0.6969
  O  O186  1  0.977500  0.739400  0.512100  1.0  -0.6791
  O  O187  1  0.294700  0.534400  0.795700  1.0  -0.6542
  O  O188  1  0.068800  0.502300  0.842400  1.0  -0.8068
  O  O189  1  0.064800  0.538900  0.958400  1.0  -0.8039
  O  O190  1  0.191800  0.608100  0.988900  1.0  -0.6232
  O  O191  1  0.114900  0.920500  0.564000  1.0  -0.6333
  O  O192  1  0.333500  0.969000  0.537000  1.0  -0.6566
  O  O193  1  0.005600  0.066400  0.569300  1.0  -0.6905
  O  O194  1  0.066200  0.140200  0.619200  1.0  -0.7072
  O  O195  1  0.654300  0.133900  0.623000  1.0  -0.7189
  O  O196  1  0.737400  0.214000  0.656700  1.0  -0.6924
  O  O197  1  0.421400  0.301100  0.656800  1.0  -0.5433
  O  O198  1  0.429200  0.332100  0.745400  1.0  -0.7721
  O  O199  1  0.999200  0.731300  0.312200  1.0  -0.7484
  O  O200  1  0.126800  0.640400  0.278000  1.0  -0.5343
  O  O201  1  0.891800  0.644500  0.185800  1.0  -0.7025
  O  O202  1  0.123100  0.602800  0.132000  1.0  -0.7313
  O  O203  1  0.640900  0.608100  0.120400  1.0  -0.7229
  O  O204  1  0.867400  0.603900  0.053100  1.0  -0.6839
  O  O205  1  0.671700  0.540800  0.989300  1.0  -0.5936
  O  O206  1  0.746300  0.581100  0.898000  1.0  -0.6204
  F  F207  1  0.320400  0.198000  0.303000  1.0  -0.2107
  F  F208  1  0.336200  0.247700  0.215200  1.0  -0.1988
  F  F209  1  0.228600  0.298600  0.288700  1.0  -0.1887
  F  F210  1  0.106100  0.121200  0.296600  1.0  -0.2235
  F  F211  1  0.209000  0.142700  0.206200  1.0  -0.1968
  F  F212  1  0.940900  0.148000  0.228000  1.0  -0.1897
  F  F213  1  0.953700  0.934700  0.169700  1.0  -0.2034
  F  F214  1  0.861700  0.034000  0.148600  1.0  -0.2017
  F  F215  1  0.793600  0.965600  0.099800  1.0  -0.2006
  F  F216  1  0.459000  0.984200  0.132600  1.0  -0.21
  F  F217  1  0.531900  0.070800  0.151000  1.0  -0.2036
  F  F218  1  0.380400  0.019200  0.216600  1.0  -0.1929
  F  F219  1  0.970600  0.111600  0.967600  1.0  -0.2061
  F  F220  1  0.817000  0.121100  0.050200  1.0  -0.2057
  F  F221  1  0.938400  0.197000  0.009600  1.0  -0.1911
  F  F222  1  0.521000  0.112900  0.016300  1.0  -0.2268
  F  F223  1  0.693500  0.072800  0.946100  1.0  -0.2033
  F  F224  1  0.480200  0.146000  0.926500  1.0  -0.19
  F  F225  1  0.679600  0.802000  0.697000  1.0  -0.2109
  F  F226  1  0.663800  0.752300  0.784800  1.0  -0.1988
  F  F227  1  0.771400  0.701400  0.711300  1.0  -0.1919
  F  F228  1  0.893900  0.878800  0.703400  1.0  -0.2242
  F  F229  1  0.791000  0.857300  0.793800  1.0  -0.196
  F  F230  1  0.059100  0.852000  0.772000  1.0  -0.1888
  F  F231  1  0.046300  0.065300  0.830300  1.0  -0.2016
  F  F232  1  0.138300  0.966000  0.851400  1.0  -0.2009
  F  F233  1  0.206400  0.034400  0.900200  1.0  -0.201
  F  F234  1  0.541000  0.015800  0.867400  1.0  -0.2107
  F  F235  1  0.468100  0.929200  0.849000  1.0  -0.203
  F  F236  1  0.619600  0.980800  0.783400  1.0  -0.1936
  F  F237  1  0.029400  0.888400  0.032400  1.0  -0.2059
  F  F238  1  0.183000  0.878900  0.949800  1.0  -0.2062
  F  F239  1  0.061600  0.803000  0.990400  1.0  -0.19
  F  F240  1  0.479000  0.887100  0.983700  1.0  -0.2298
  F  F241  1  0.306500  0.927200  0.053900  1.0  -0.2039
  F  F242  1  0.519800  0.854000  0.073500  1.0  -0.1912
