# generated using pymatgen
data_Zn2H24(C11O4)3
_symmetry_space_group_name_H-M   'P 1'
_cell_length_a   28.59800000
_cell_length_b   28.59800000
_cell_length_c   17.07400000
_cell_angle_alpha   90.00000000
_cell_angle_beta   90.00000000
_cell_angle_gamma   90.00000000
_symmetry_Int_Tables_number   1
_chemical_formula_structural   Zn2H24(C11O4)3
_chemical_formula_sum   'Zn16 H192 C264 O96'
_cell_volume   13963.89584270
_cell_formula_units_Z   8
loop_
 _symmetry_equiv_pos_site_id
 _symmetry_equiv_pos_as_xyz
  1  'x, y, z'
loop_
 _atom_site_type_symbol
 _atom_site_label
 _atom_site_symmetry_multiplicity
 _atom_site_fract_x
 _atom_site_fract_y
 _atom_site_fract_z
 _atom_site_occupancy
 _atom_site_charge
  Zn  Zn1  1  0.177200  0.066710  0.367510  1.0  0.8538
  Zn  Zn2  1  0.281210  0.123080  0.381320  1.0  1.0645
  Zn  Zn3  1  0.822800  0.933290  0.367510  1.0  0.8599
  Zn  Zn4  1  0.718790  0.876920  0.381320  1.0  1.065
  Zn  Zn5  1  0.677200  0.433290  0.867510  1.0  0.8535
  Zn  Zn6  1  0.781210  0.376920  0.881320  1.0  1.0648
  Zn  Zn7  1  0.322800  0.566710  0.867510  1.0  0.862
  Zn  Zn8  1  0.218790  0.623080  0.881320  1.0  1.0648
  Zn  Zn9  1  0.066710  0.822800  0.632490  1.0  0.8611
  Zn  Zn10  1  0.123080  0.718790  0.618680  1.0  1.0632
  Zn  Zn11  1  0.933290  0.177200  0.632490  1.0  0.8631
  Zn  Zn12  1  0.876920  0.281210  0.618680  1.0  1.0632
  Zn  Zn13  1  0.566710  0.677200  0.132490  1.0  0.8626
  Zn  Zn14  1  0.623080  0.781210  0.118680  1.0  1.0632
  Zn  Zn15  1  0.433290  0.322800  0.132490  1.0  0.8616
  Zn  Zn16  1  0.376920  0.218790  0.118680  1.0  1.0633
  H  H17  1  0.061900  0.244000  0.839500  1.0  0.064
  H  H18  1  0.073500  0.295200  0.811000  1.0  0.0644
  H  H19  1  0.988500  0.280900  0.813700  1.0  0.1279
  H  H20  1  0.913300  0.309000  0.818400  1.0  0.0716
  H  H21  1  0.138700  0.317500  0.960800  1.0  0.0773
  H  H22  1  0.183800  0.307200  0.911000  1.0  0.0791
  H  H23  1  0.156400  0.278700  0.767900  1.0  0.0628
  H  H24  1  0.187100  0.244000  0.817800  1.0  0.0596
  H  H25  1  0.266600  0.189900  0.160900  1.0  0.1004
  H  H26  1  0.108000  0.236600  0.982300  1.0  0.0601
  H  H27  1  0.120100  0.199200  0.917700  1.0  0.0687
  H  H28  1  0.241500  0.195800  0.586900  1.0  0.0877
  H  H29  1  0.259200  0.438300  0.917900  1.0  0.0994
  H  H30  1  0.248300  0.228700  0.048600  1.0  0.122
  H  H31  1  0.122300  0.169000  0.047100  1.0  0.1032
  H  H32  1  0.214400  0.230100  0.704200  1.0  0.1154
  H  H33  1  0.137800  0.133100  0.164000  1.0  0.1097
  H  H34  1  0.094700  0.157400  0.677700  1.0  0.1278
  H  H35  1  0.148600  0.497700  0.821200  1.0  0.1076
  H  H36  1  0.123000  0.123900  0.563400  1.0  0.1075
  H  H37  1  0.222600  0.365900  0.913700  1.0  0.1176
  H  H38  1  0.110800  0.426200  0.817200  1.0  0.13
  H  H39  1  0.011600  0.334500  0.021900  1.0  0.0974
  H  H40  1  0.936400  0.355900  0.032400  1.0  0.1214
  H  H41  1  0.938100  0.756000  0.839500  1.0  0.0645
  H  H42  1  0.926500  0.704800  0.811000  1.0  0.0655
  H  H43  1  0.011500  0.719100  0.813700  1.0  0.1284
  H  H44  1  0.086700  0.691000  0.818400  1.0  0.0717
  H  H45  1  0.861300  0.682500  0.960800  1.0  0.0778
  H  H46  1  0.816200  0.692800  0.911000  1.0  0.077
  H  H47  1  0.843600  0.721300  0.767900  1.0  0.0636
  H  H48  1  0.812900  0.756000  0.817800  1.0  0.0598
  H  H49  1  0.733400  0.810100  0.160900  1.0  0.1001
  H  H50  1  0.892000  0.763400  0.982300  1.0  0.0607
  H  H51  1  0.879900  0.800800  0.917700  1.0  0.0699
  H  H52  1  0.758500  0.804200  0.586900  1.0  0.088
  H  H53  1  0.740800  0.561700  0.917900  1.0  0.1002
  H  H54  1  0.751700  0.771300  0.048600  1.0  0.1219
  H  H55  1  0.877700  0.831000  0.047100  1.0  0.1037
  H  H56  1  0.785600  0.769900  0.704200  1.0  0.1148
  H  H57  1  0.862200  0.866900  0.164000  1.0  0.1099
  H  H58  1  0.905300  0.842600  0.677700  1.0  0.1277
  H  H59  1  0.851400  0.502300  0.821200  1.0  0.1074
  H  H60  1  0.877000  0.876100  0.563400  1.0  0.1085
  H  H61  1  0.777400  0.634100  0.913700  1.0  0.118
  H  H62  1  0.889200  0.573800  0.817200  1.0  0.1303
  H  H63  1  0.988400  0.665500  0.021900  1.0  0.0972
  H  H64  1  0.063600  0.644100  0.032400  1.0  0.1216
  H  H65  1  0.561900  0.256000  0.339500  1.0  0.0648
  H  H66  1  0.573500  0.204800  0.311000  1.0  0.0645
  H  H67  1  0.488500  0.219100  0.313700  1.0  0.1282
  H  H68  1  0.413300  0.191000  0.318400  1.0  0.0715
  H  H69  1  0.638700  0.182500  0.460800  1.0  0.0785
  H  H70  1  0.683800  0.192800  0.411000  1.0  0.0788
  H  H71  1  0.656400  0.221300  0.267900  1.0  0.0639
  H  H72  1  0.687100  0.256000  0.317800  1.0  0.0585
  H  H73  1  0.766600  0.310100  0.660900  1.0  0.1006
  H  H74  1  0.608000  0.263400  0.482300  1.0  0.0603
  H  H75  1  0.620100  0.300800  0.417700  1.0  0.07
  H  H76  1  0.741500  0.304200  0.086900  1.0  0.088
  H  H77  1  0.759200  0.061700  0.417900  1.0  0.0995
  H  H78  1  0.748300  0.271300  0.548600  1.0  0.1221
  H  H79  1  0.622300  0.331000  0.547100  1.0  0.1053
  H  H80  1  0.714400  0.269900  0.204200  1.0  0.1158
  H  H81  1  0.637800  0.366900  0.664000  1.0  0.1089
  H  H82  1  0.594700  0.342600  0.177700  1.0  0.1264
  H  H83  1  0.648600  0.002300  0.321200  1.0  0.107
  H  H84  1  0.623000  0.376100  0.063400  1.0  0.1063
  H  H85  1  0.722600  0.134100  0.413700  1.0  0.1178
  H  H86  1  0.610800  0.073800  0.317200  1.0  0.1301
  H  H87  1  0.511600  0.165500  0.521900  1.0  0.0974
  H  H88  1  0.436400  0.144100  0.532400  1.0  0.1215
  H  H89  1  0.438100  0.744000  0.339500  1.0  0.0651
  H  H90  1  0.426500  0.795200  0.311000  1.0  0.0649
  H  H91  1  0.511500  0.780900  0.313700  1.0  0.128
  H  H92  1  0.586700  0.809000  0.318400  1.0  0.0718
  H  H93  1  0.361300  0.817500  0.460800  1.0  0.0779
  H  H94  1  0.316200  0.807200  0.411000  1.0  0.0771
  H  H95  1  0.343600  0.778700  0.267900  1.0  0.0627
  H  H96  1  0.312900  0.744000  0.317800  1.0  0.0616
  H  H97  1  0.233400  0.689900  0.660900  1.0  0.0998
  H  H98  1  0.392000  0.736600  0.482300  1.0  0.0608
  H  H99  1  0.379900  0.699200  0.417700  1.0  0.0689
  H  H100  1  0.258500  0.695800  0.086900  1.0  0.0877
  H  H101  1  0.240800  0.938300  0.417900  1.0  0.1001
  H  H102  1  0.251700  0.728700  0.548600  1.0  0.1219
  H  H103  1  0.377700  0.669000  0.547100  1.0  0.1046
  H  H104  1  0.285600  0.730100  0.204200  1.0  0.1148
  H  H105  1  0.362200  0.633100  0.664000  1.0  0.1088
  H  H106  1  0.405300  0.657400  0.177700  1.0  0.1263
  H  H107  1  0.351400  0.997700  0.321200  1.0  0.1073
  H  H108  1  0.377000  0.623900  0.063400  1.0  0.1057
  H  H109  1  0.277400  0.865900  0.413700  1.0  0.1176
  H  H110  1  0.389200  0.926200  0.317200  1.0  0.1303
  H  H111  1  0.488400  0.834500  0.521900  1.0  0.097
  H  H112  1  0.563600  0.855900  0.532400  1.0  0.1216
  H  H113  1  0.244000  0.938100  0.160500  1.0  0.0645
  H  H114  1  0.295200  0.926500  0.189000  1.0  0.0627
  H  H115  1  0.280900  0.011500  0.186300  1.0  0.1274
  H  H116  1  0.309000  0.086700  0.181600  1.0  0.0709
  H  H117  1  0.317500  0.861300  0.039200  1.0  0.0797
  H  H118  1  0.307200  0.816200  0.089000  1.0  0.0785
  H  H119  1  0.278700  0.843600  0.232100  1.0  0.0636
  H  H120  1  0.244000  0.812900  0.182200  1.0  0.0608
  H  H121  1  0.189900  0.733400  0.839100  1.0  0.1004
  H  H122  1  0.236600  0.892000  0.017700  1.0  0.0593
  H  H123  1  0.199200  0.879900  0.082300  1.0  0.0724
  H  H124  1  0.195800  0.758500  0.413100  1.0  0.0883
  H  H125  1  0.438300  0.740800  0.082100  1.0  0.1014
  H  H126  1  0.228700  0.751700  0.951400  1.0  0.1217
  H  H127  1  0.169000  0.877700  0.952900  1.0  0.1034
  H  H128  1  0.230100  0.785600  0.295800  1.0  0.1132
  H  H129  1  0.133100  0.862200  0.836000  1.0  0.1098
  H  H130  1  0.157400  0.905300  0.322300  1.0  0.1257
  H  H131  1  0.497700  0.851400  0.178800  1.0  0.1068
  H  H132  1  0.123900  0.877000  0.436600  1.0  0.1091
  H  H133  1  0.365900  0.777400  0.086300  1.0  0.118
  H  H134  1  0.426200  0.889200  0.182800  1.0  0.1267
  H  H135  1  0.334500  0.988400  0.978100  1.0  0.0975
  H  H136  1  0.355900  0.063600  0.967600  1.0  0.1215
  H  H137  1  0.756000  0.061900  0.160500  1.0  0.0642
  H  H138  1  0.704800  0.073500  0.189000  1.0  0.0631
  H  H139  1  0.719100  0.988500  0.186300  1.0  0.1284
  H  H140  1  0.691000  0.913300  0.181600  1.0  0.0712
  H  H141  1  0.682500  0.138700  0.039200  1.0  0.0791
  H  H142  1  0.692800  0.183800  0.089000  1.0  0.0787
  H  H143  1  0.721300  0.156400  0.232100  1.0  0.0638
  H  H144  1  0.756000  0.187100  0.182200  1.0  0.0597
  H  H145  1  0.810100  0.266600  0.839100  1.0  0.1006
  H  H146  1  0.763400  0.108000  0.017700  1.0  0.0584
  H  H147  1  0.800800  0.120100  0.082300  1.0  0.0696
  H  H148  1  0.804200  0.241500  0.413100  1.0  0.0883
  H  H149  1  0.561700  0.259200  0.082100  1.0  0.1008
  H  H150  1  0.771300  0.248300  0.951400  1.0  0.1212
  H  H151  1  0.831000  0.122300  0.952900  1.0  0.1025
  H  H152  1  0.769900  0.214400  0.295800  1.0  0.1167
  H  H153  1  0.866900  0.137800  0.836000  1.0  0.109
  H  H154  1  0.842600  0.094700  0.322300  1.0  0.1256
  H  H155  1  0.502300  0.148600  0.178800  1.0  0.1064
  H  H156  1  0.876100  0.123000  0.436600  1.0  0.1082
  H  H157  1  0.634100  0.222600  0.086300  1.0  0.1171
  H  H158  1  0.573800  0.110800  0.182800  1.0  0.1278
  H  H159  1  0.665500  0.011600  0.978100  1.0  0.0962
  H  H160  1  0.644100  0.936400  0.967600  1.0  0.1214
  H  H161  1  0.744000  0.561900  0.660500  1.0  0.0649
  H  H162  1  0.795200  0.573500  0.689000  1.0  0.0643
  H  H163  1  0.780900  0.488500  0.686300  1.0  0.128
  H  H164  1  0.809000  0.413300  0.681600  1.0  0.071
  H  H165  1  0.817500  0.638700  0.539200  1.0  0.0804
  H  H166  1  0.807200  0.683800  0.589000  1.0  0.0787
  H  H167  1  0.778700  0.656400  0.732100  1.0  0.0636
  H  H168  1  0.744000  0.687100  0.682200  1.0  0.0607
  H  H169  1  0.689900  0.766600  0.339100  1.0  0.1005
  H  H170  1  0.736600  0.608000  0.517700  1.0  0.0578
  H  H171  1  0.699200  0.620100  0.582300  1.0  0.0724
  H  H172  1  0.695800  0.741500  0.913100  1.0  0.0883
  H  H173  1  0.938300  0.759200  0.582100  1.0  0.1014
  H  H174  1  0.728700  0.748300  0.451400  1.0  0.1212
  H  H175  1  0.669000  0.622300  0.452900  1.0  0.1035
  H  H176  1  0.730100  0.714400  0.795800  1.0  0.1144
  H  H177  1  0.633100  0.637800  0.336000  1.0  0.108
  H  H178  1  0.657400  0.594700  0.822300  1.0  0.1241
  H  H179  1  0.997700  0.648600  0.678800  1.0  0.1066
  H  H180  1  0.623900  0.623000  0.936600  1.0  0.1065
  H  H181  1  0.865900  0.722600  0.586300  1.0  0.118
  H  H182  1  0.926200  0.610800  0.682800  1.0  0.1265
  H  H183  1  0.834500  0.511600  0.478100  1.0  0.0966
  H  H184  1  0.855900  0.436400  0.467600  1.0  0.1215
  H  H185  1  0.256000  0.438100  0.660500  1.0  0.0649
  H  H186  1  0.204800  0.426500  0.689000  1.0  0.0623
  H  H187  1  0.219100  0.511500  0.686300  1.0  0.1277
  H  H188  1  0.191000  0.586700  0.681600  1.0  0.0712
  H  H189  1  0.182500  0.361300  0.539200  1.0  0.08
  H  H190  1  0.192800  0.316200  0.589000  1.0  0.0784
  H  H191  1  0.221300  0.343600  0.732100  1.0  0.0637
  H  H192  1  0.256000  0.312900  0.682200  1.0  0.0606
  H  H193  1  0.310100  0.233400  0.339100  1.0  0.1001
  H  H194  1  0.263400  0.392000  0.517700  1.0  0.06
  H  H195  1  0.300800  0.379900  0.582300  1.0  0.07
  H  H196  1  0.304200  0.258500  0.913100  1.0  0.0882
  H  H197  1  0.061700  0.240800  0.582100  1.0  0.1003
  H  H198  1  0.271300  0.251700  0.451400  1.0  0.1215
  H  H199  1  0.331000  0.377700  0.452900  1.0  0.1038
  H  H200  1  0.269900  0.285600  0.795800  1.0  0.1152
  H  H201  1  0.366900  0.362200  0.336000  1.0  0.1089
  H  H202  1  0.342600  0.405300  0.822300  1.0  0.1246
  H  H203  1  0.002300  0.351400  0.678800  1.0  0.1067
  H  H204  1  0.376100  0.377000  0.936600  1.0  0.1065
  H  H205  1  0.134100  0.277400  0.586300  1.0  0.1172
  H  H206  1  0.073800  0.389200  0.682800  1.0  0.1278
  H  H207  1  0.165500  0.488400  0.478100  1.0  0.097
  H  H208  1  0.144100  0.563600  0.467600  1.0  0.1215
  C  C209  1  0.128080  0.266530  0.878300  1.0  -0.0335
  C  C210  1  0.152700  0.195700  0.701500  1.0  0.2974
  C  C211  1  0.076060  0.273600  0.854500  1.0  0.049
  C  C212  1  0.206930  0.474820  0.872500  1.0  -0.0863
  C  C213  1  0.186500  0.156700  0.564400  1.0  -0.1127
  C  C214  1  0.182840  0.201400  0.036700  1.0  0.2435
  C  C215  1  0.978100  0.297300  0.857300  1.0  -0.2985
  C  C216  1  0.932850  0.314200  0.861000  1.0  -0.0565
  C  C217  1  0.150100  0.310900  0.908400  1.0  0.0464
  C  C218  1  0.866000  0.353300  0.927600  1.0  0.714
  C  C219  1  0.155300  0.252580  0.804100  1.0  0.076
  C  C220  1  0.204100  0.157100  0.177200  1.0  -0.0731
  C  C221  1  0.237100  0.186200  0.139000  1.0  -0.028
  C  C222  1  0.129300  0.229000  0.940000  1.0  0.0854
  C  C223  1  0.231600  0.519830  0.874300  1.0  0.7206
  C  C224  1  0.214300  0.133400  0.251000  1.0  0.7556
  C  C225  1  0.212100  0.187700  0.605600  1.0  -0.001
  C  C226  1  0.163200  0.389100  0.866600  1.0  0.288
  C  C227  1  0.228900  0.435900  0.898200  1.0  -0.0148
  C  C228  1  0.007100  0.305500  0.919400  1.0  0.3153
  C  C229  1  0.204100  0.134600  0.492400  1.0  0.7466
  C  C230  1  0.226700  0.208700  0.071600  1.0  -0.1971
  C  C231  1  0.151200  0.173600  0.071000  1.0  -0.2434
  C  C232  1  0.196200  0.208700  0.676500  1.0  -0.2675
  C  C233  1  0.160600  0.151700  0.140700  1.0  -0.0472
  C  C234  1  0.124500  0.164700  0.659800  1.0  -0.217
  C  C235  1  0.163300  0.471200  0.841000  1.0  -0.0704
  C  C236  1  0.141400  0.144900  0.591500  1.0  -0.0635
  C  C237  1  0.207100  0.392500  0.895600  1.0  -0.2513
  C  C238  1  0.916200  0.336900  0.920600  1.0  -0.1163
  C  C239  1  0.140800  0.428500  0.838100  1.0  -0.1652
  C  C240  1  0.991200  0.328200  0.980800  1.0  -0.1854
  C  C241  1  0.947200  0.342400  0.986200  1.0  -0.1157
  C  C242  1  0.871920  0.733470  0.878300  1.0  -0.034
  C  C243  1  0.847300  0.804300  0.701500  1.0  0.2974
  C  C244  1  0.923940  0.726400  0.854500  1.0  0.0481
  C  C245  1  0.793070  0.525180  0.872500  1.0  -0.0828
  C  C246  1  0.813500  0.843300  0.564400  1.0  -0.1136
  C  C247  1  0.817160  0.798600  0.036700  1.0  0.2436
  C  C248  1  0.021900  0.702700  0.857300  1.0  -0.2982
  C  C249  1  0.067150  0.685800  0.861000  1.0  -0.0561
  C  C250  1  0.849900  0.689100  0.908400  1.0  0.0484
  C  C251  1  0.134000  0.646700  0.927600  1.0  0.7159
  C  C252  1  0.844700  0.747420  0.804100  1.0  0.0788
  C  C253  1  0.795900  0.842900  0.177200  1.0  -0.0744
  C  C254  1  0.762900  0.813800  0.139000  1.0  -0.0279
  C  C255  1  0.870700  0.771000  0.940000  1.0  0.0837
  C  C256  1  0.768400  0.480170  0.874300  1.0  0.7196
  C  C257  1  0.785700  0.866600  0.251000  1.0  0.7586
  C  C258  1  0.787900  0.812300  0.605600  1.0  -0.0011
  C  C259  1  0.836800  0.610900  0.866600  1.0  0.289
  C  C260  1  0.771100  0.564100  0.898200  1.0  -0.0165
  C  C261  1  0.992900  0.694500  0.919400  1.0  0.3155
  C  C262  1  0.795900  0.865400  0.492400  1.0  0.7477
  C  C263  1  0.773300  0.791300  0.071600  1.0  -0.197
  C  C264  1  0.848800  0.826400  0.071000  1.0  -0.2416
  C  C265  1  0.803800  0.791300  0.676500  1.0  -0.268
  C  C266  1  0.839400  0.848300  0.140700  1.0  -0.0471
  C  C267  1  0.875500  0.835300  0.659800  1.0  -0.2142
  C  C268  1  0.836700  0.528800  0.841000  1.0  -0.07
  C  C269  1  0.858600  0.855100  0.591500  1.0  -0.0645
  C  C270  1  0.792900  0.607500  0.895600  1.0  -0.2521
  C  C271  1  0.083800  0.663100  0.920600  1.0  -0.1146
  C  C272  1  0.859200  0.571500  0.838100  1.0  -0.1655
  C  C273  1  0.008800  0.671800  0.980800  1.0  -0.1869
  C  C274  1  0.052800  0.657600  0.986200  1.0  -0.1132
  C  C275  1  0.628080  0.233470  0.378300  1.0  -0.034
  C  C276  1  0.652700  0.304300  0.201500  1.0  0.2982
  C  C277  1  0.576060  0.226400  0.354500  1.0  0.0496
  C  C278  1  0.706930  0.025180  0.372500  1.0  -0.0823
  C  C279  1  0.686500  0.343300  0.064400  1.0  -0.1131
  C  C280  1  0.682840  0.298600  0.536700  1.0  0.2437
  C  C281  1  0.478100  0.202700  0.357300  1.0  -0.2976
  C  C282  1  0.432850  0.185800  0.361000  1.0  -0.0558
  C  C283  1  0.650100  0.189100  0.408400  1.0  0.0483
  C  C284  1  0.366000  0.146700  0.427600  1.0  0.7144
  C  C285  1  0.655300  0.247420  0.304100  1.0  0.0769
  C  C286  1  0.704100  0.342900  0.677200  1.0  -0.073
  C  C287  1  0.737100  0.313800  0.639000  1.0  -0.0271
  C  C288  1  0.629300  0.271000  0.440000  1.0  0.0844
  C  C289  1  0.731600  0.980170  0.374300  1.0  0.7207
  C  C290  1  0.714300  0.366600  0.751000  1.0  0.7559
  C  C291  1  0.712100  0.312300  0.105600  1.0  -0.0015
  C  C292  1  0.663200  0.110900  0.366600  1.0  0.2879
  C  C293  1  0.728900  0.064100  0.398200  1.0  -0.0148
  C  C294  1  0.507100  0.194500  0.419400  1.0  0.315
  C  C295  1  0.704100  0.365400  0.992400  1.0  0.747
  C  C296  1  0.726700  0.291300  0.571600  1.0  -0.1974
  C  C297  1  0.651200  0.326400  0.571000  1.0  -0.243
  C  C298  1  0.696200  0.291300  0.176500  1.0  -0.2685
  C  C299  1  0.660600  0.348300  0.640700  1.0  -0.0487
  C  C300  1  0.624500  0.335300  0.159800  1.0  -0.2125
  C  C301  1  0.663300  0.028800  0.341000  1.0  -0.0692
  C  C302  1  0.641400  0.355100  0.091500  1.0  -0.0661
  C  C303  1  0.707100  0.107500  0.395600  1.0  -0.2501
  C  C304  1  0.416200  0.163100  0.420600  1.0  -0.1166
  C  C305  1  0.640800  0.071500  0.338100  1.0  -0.1656
  C  C306  1  0.491200  0.171800  0.480800  1.0  -0.1857
  C  C307  1  0.447200  0.157600  0.486200  1.0  -0.1143
  C  C308  1  0.371920  0.766530  0.378300  1.0  -0.0333
  C  C309  1  0.347300  0.695700  0.201500  1.0  0.297
  C  C310  1  0.423940  0.773600  0.354500  1.0  0.0476
  C  C311  1  0.293070  0.974820  0.372500  1.0  -0.0866
  C  C312  1  0.313500  0.656700  0.064400  1.0  -0.1132
  C  C313  1  0.317160  0.701400  0.536700  1.0  0.2429
  C  C314  1  0.521900  0.797300  0.357300  1.0  -0.2988
  C  C315  1  0.567150  0.814200  0.361000  1.0  -0.0564
  C  C316  1  0.349900  0.810900  0.408400  1.0  0.0453
  C  C317  1  0.634000  0.853300  0.427600  1.0  0.716
  C  C318  1  0.344700  0.752580  0.304100  1.0  0.0788
  C  C319  1  0.295900  0.657100  0.677200  1.0  -0.0747
  C  C320  1  0.262900  0.686200  0.639000  1.0  -0.029
  C  C321  1  0.370700  0.729000  0.440000  1.0  0.0841
  C  C322  1  0.268400  0.019830  0.374300  1.0  0.7193
  C  C323  1  0.285700  0.633400  0.751000  1.0  0.7582
  C  C324  1  0.287900  0.687700  0.105600  1.0  -0.0002
  C  C325  1  0.336800  0.889100  0.366600  1.0  0.2883
  C  C326  1  0.271100  0.935900  0.398200  1.0  -0.0173
  C  C327  1  0.492900  0.805500  0.419400  1.0  0.3156
  C  C328  1  0.295900  0.634600  0.992400  1.0  0.7473
  C  C329  1  0.273300  0.708700  0.571600  1.0  -0.197
  C  C330  1  0.348800  0.673600  0.571000  1.0  -0.2413
  C  C331  1  0.303800  0.708700  0.176500  1.0  -0.2691
  C  C332  1  0.339400  0.651700  0.640700  1.0  -0.0472
  C  C333  1  0.375500  0.664700  0.159800  1.0  -0.2166
  C  C334  1  0.336700  0.971200  0.341000  1.0  -0.07
  C  C335  1  0.358600  0.644900  0.091500  1.0  -0.0636
  C  C336  1  0.292900  0.892500  0.395600  1.0  -0.2541
  C  C337  1  0.583800  0.836900  0.420600  1.0  -0.1146
  C  C338  1  0.359200  0.928500  0.338100  1.0  -0.1656
  C  C339  1  0.508800  0.828200  0.480800  1.0  -0.1867
  C  C340  1  0.552800  0.842400  0.486200  1.0  -0.1144
  C  C341  1  0.266530  0.871920  0.121700  1.0  -0.034
  C  C342  1  0.195700  0.847300  0.298500  1.0  0.2966
  C  C343  1  0.273600  0.923940  0.145500  1.0  0.0483
  C  C344  1  0.474820  0.793070  0.127500  1.0  -0.0859
  C  C345  1  0.156700  0.813500  0.435600  1.0  -0.1138
  C  C346  1  0.201400  0.817160  0.963300  1.0  0.2433
  C  C347  1  0.297300  0.021900  0.142700  1.0  -0.2981
  C  C348  1  0.314200  0.067150  0.139000  1.0  -0.057
  C  C349  1  0.310900  0.849900  0.091600  1.0  0.046
  C  C350  1  0.353300  0.134000  0.072400  1.0  0.7175
  C  C351  1  0.252580  0.844700  0.195900  1.0  0.0773
  C  C352  1  0.157100  0.795900  0.822800  1.0  -0.0734
  C  C353  1  0.186200  0.762900  0.861000  1.0  -0.0288
  C  C354  1  0.229000  0.870700  0.060000  1.0  0.0829
  C  C355  1  0.519830  0.768400  0.125700  1.0  0.7202
  C  C356  1  0.133400  0.785700  0.749000  1.0  0.7541
  C  C357  1  0.187700  0.787900  0.394400  1.0  -0.0053
  C  C358  1  0.389100  0.836800  0.133400  1.0  0.2888
  C  C359  1  0.435900  0.771100  0.101800  1.0  -0.017
  C  C360  1  0.305500  0.992900  0.080600  1.0  0.313
  C  C361  1  0.134600  0.795900  0.507600  1.0  0.7487
  C  C362  1  0.208700  0.773300  0.928400  1.0  -0.1984
  C  C363  1  0.173600  0.848800  0.929000  1.0  -0.2412
  C  C364  1  0.208700  0.803800  0.323500  1.0  -0.272
  C  C365  1  0.151700  0.839400  0.859300  1.0  -0.0525
  C  C366  1  0.164700  0.875500  0.340200  1.0  -0.2167
  C  C367  1  0.471200  0.836700  0.159000  1.0  -0.0691
  C  C368  1  0.144900  0.858600  0.408500  1.0  -0.0651
  C  C369  1  0.392500  0.792900  0.104400  1.0  -0.2519
  C  C370  1  0.336900  0.083800  0.079400  1.0  -0.1172
  C  C371  1  0.428500  0.859200  0.161900  1.0  -0.1627
  C  C372  1  0.328200  0.008800  0.019200  1.0  -0.1859
  C  C373  1  0.342400  0.052800  0.013800  1.0  -0.1137
  C  C374  1  0.733470  0.128080  0.121700  1.0  -0.0324
  C  C375  1  0.804300  0.152700  0.298500  1.0  0.2959
  C  C376  1  0.726400  0.076060  0.145500  1.0  0.0483
  C  C377  1  0.525180  0.206930  0.127500  1.0  -0.0852
  C  C378  1  0.843300  0.186500  0.435600  1.0  -0.1138
  C  C379  1  0.798600  0.182840  0.963300  1.0  0.2437
  C  C380  1  0.702700  0.978100  0.142700  1.0  -0.2973
  C  C381  1  0.685800  0.932850  0.139000  1.0  -0.058
  C  C382  1  0.689100  0.150100  0.091600  1.0  0.0473
  C  C383  1  0.646700  0.866000  0.072400  1.0  0.7193
  C  C384  1  0.747420  0.155300  0.195900  1.0  0.077
  C  C385  1  0.842900  0.204100  0.822800  1.0  -0.0725
  C  C386  1  0.813800  0.237100  0.861000  1.0  -0.0285
  C  C387  1  0.771000  0.129300  0.060000  1.0  0.0827
  C  C388  1  0.480170  0.231600  0.125700  1.0  0.721
  C  C389  1  0.866600  0.214300  0.749000  1.0  0.7536
  C  C390  1  0.812300  0.212100  0.394400  1.0  -0.0039
  C  C391  1  0.610900  0.163200  0.133400  1.0  0.2865
  C  C392  1  0.564100  0.228900  0.101800  1.0  -0.0178
  C  C393  1  0.694500  0.007100  0.080600  1.0  0.3148
  C  C394  1  0.865400  0.204100  0.507600  1.0  0.7487
  C  C395  1  0.791300  0.226700  0.928400  1.0  -0.1988
  C  C396  1  0.826400  0.151200  0.929000  1.0  -0.2418
  C  C397  1  0.791300  0.196200  0.323500  1.0  -0.2693
  C  C398  1  0.848300  0.160600  0.859300  1.0  -0.0509
  C  C399  1  0.835300  0.124500  0.340200  1.0  -0.2161
  C  C400  1  0.528800  0.163300  0.159000  1.0  -0.0711
  C  C401  1  0.855100  0.141400  0.408500  1.0  -0.0627
  C  C402  1  0.607500  0.207100  0.104400  1.0  -0.253
  C  C403  1  0.663100  0.916200  0.079400  1.0  -0.1168
  C  C404  1  0.571500  0.140800  0.161900  1.0  -0.1641
  C  C405  1  0.671800  0.991200  0.019200  1.0  -0.1874
  C  C406  1  0.657600  0.947200  0.013800  1.0  -0.1116
  C  C407  1  0.766530  0.628080  0.621700  1.0  -0.0335
  C  C408  1  0.695700  0.652700  0.798500  1.0  0.2963
  C  C409  1  0.773600  0.576060  0.645500  1.0  0.0479
  C  C410  1  0.974820  0.706930  0.627500  1.0  -0.0858
  C  C411  1  0.656700  0.686500  0.935600  1.0  -0.1138
  C  C412  1  0.701400  0.682840  0.463300  1.0  0.2434
  C  C413  1  0.797300  0.478100  0.642700  1.0  -0.2982
  C  C414  1  0.814200  0.432850  0.639000  1.0  -0.0583
  C  C415  1  0.810900  0.650100  0.591600  1.0  0.0456
  C  C416  1  0.853300  0.366000  0.572400  1.0  0.7181
  C  C417  1  0.752580  0.655300  0.695900  1.0  0.078
  C  C418  1  0.657100  0.704100  0.322800  1.0  -0.0726
  C  C419  1  0.686200  0.737100  0.361000  1.0  -0.0294
  C  C420  1  0.729000  0.629300  0.560000  1.0  0.0836
  C  C421  1  0.019830  0.731600  0.625700  1.0  0.7201
  C  C422  1  0.633400  0.714300  0.249000  1.0  0.754
  C  C423  1  0.687700  0.712100  0.894400  1.0  -0.0056
  C  C424  1  0.889100  0.663200  0.633400  1.0  0.2869
  C  C425  1  0.935900  0.728900  0.601800  1.0  -0.0175
  C  C426  1  0.805500  0.507100  0.580600  1.0  0.3141
  C  C427  1  0.634600  0.704100  0.007600  1.0  0.7486
  C  C428  1  0.708700  0.726700  0.428400  1.0  -0.1993
  C  C429  1  0.673600  0.651200  0.429000  1.0  -0.2414
  C  C430  1  0.708700  0.696200  0.823500  1.0  -0.2706
  C  C431  1  0.651700  0.660600  0.359300  1.0  -0.0508
  C  C432  1  0.664700  0.624500  0.840200  1.0  -0.2172
  C  C433  1  0.971200  0.663300  0.659000  1.0  -0.0714
  C  C434  1  0.644900  0.641400  0.908500  1.0  -0.063
  C  C435  1  0.892500  0.707100  0.604400  1.0  -0.2511
  C  C436  1  0.836900  0.416200  0.579400  1.0  -0.1165
  C  C437  1  0.928500  0.640800  0.661900  1.0  -0.164
  C  C438  1  0.828200  0.491200  0.519200  1.0  -0.1863
  C  C439  1  0.842400  0.447200  0.513800  1.0  -0.114
  C  C440  1  0.233470  0.371920  0.621700  1.0  -0.0333
  C  C441  1  0.304300  0.347300  0.798500  1.0  0.2963
  C  C442  1  0.226400  0.423940  0.645500  1.0  0.0492
  C  C443  1  0.025180  0.293070  0.627500  1.0  -0.0862
  C  C444  1  0.343300  0.313500  0.935600  1.0  -0.1134
  C  C445  1  0.298600  0.317160  0.463300  1.0  0.244
  C  C446  1  0.202700  0.521900  0.642700  1.0  -0.2972
  C  C447  1  0.185800  0.567150  0.639000  1.0  -0.0568
  C  C448  1  0.189100  0.349900  0.591600  1.0  0.0479
  C  C449  1  0.146700  0.634000  0.572400  1.0  0.7188
  C  C450  1  0.247420  0.344700  0.695900  1.0  0.0773
  C  C451  1  0.342900  0.295900  0.322800  1.0  -0.0739
  C  C452  1  0.313800  0.262900  0.361000  1.0  -0.0279
  C  C453  1  0.271000  0.370700  0.560000  1.0  0.0816
  C  C454  1  0.980170  0.268400  0.625700  1.0  0.7214
  C  C455  1  0.366600  0.285700  0.249000  1.0  0.754
  C  C456  1  0.312300  0.287900  0.894400  1.0  -0.0045
  C  C457  1  0.110900  0.336800  0.633400  1.0  0.2898
  C  C458  1  0.064100  0.271100  0.601800  1.0  -0.0176
  C  C459  1  0.194500  0.492900  0.580600  1.0  0.3138
  C  C460  1  0.365400  0.295900  0.007600  1.0  0.7487
  C  C461  1  0.291300  0.273300  0.428400  1.0  -0.1981
  C  C462  1  0.326400  0.348800  0.429000  1.0  -0.2426
  C  C463  1  0.291300  0.303800  0.823500  1.0  -0.2699
  C  C464  1  0.348300  0.339400  0.359300  1.0  -0.0517
  C  C465  1  0.335300  0.375500  0.840200  1.0  -0.2151
  C  C466  1  0.028800  0.336700  0.659000  1.0  -0.071
  C  C467  1  0.355100  0.358600  0.908500  1.0  -0.0634
  C  C468  1  0.107500  0.292900  0.604400  1.0  -0.2537
  C  C469  1  0.163100  0.583800  0.579400  1.0  -0.116
  C  C470  1  0.071500  0.359200  0.661900  1.0  -0.1624
  C  C471  1  0.171800  0.508800  0.519200  1.0  -0.187
  C  C472  1  0.157600  0.552800  0.513800  1.0  -0.1115
  O  O473  1  0.176370  0.226530  0.968800  1.0  -0.2779
  O  O474  1  0.132080  0.213770  0.768600  1.0  -0.2673
  O  O475  1  0.053810  0.292250  0.923200  1.0  -0.2641
  O  O476  1  0.138980  0.347950  0.858800  1.0  -0.2669
  O  O477  1  0.187960  0.101350  0.272600  1.0  -0.6449
  O  O478  1  0.274950  0.520120  0.885200  1.0  -0.6479
  O  O479  1  0.841500  0.348150  0.869400  1.0  -0.5691
  O  O480  1  0.245640  0.142140  0.471900  1.0  -0.6096
  O  O481  1  0.249010  0.145930  0.287800  1.0  -0.6108
  O  O482  1  0.176410  0.108200  0.457500  1.0  -0.651
  O  O483  1  0.207550  0.556190  0.864300  1.0  -0.6212
  O  O484  1  0.852000  0.373400  0.983800  1.0  -0.4748
  O  O485  1  0.823630  0.773470  0.968800  1.0  -0.2783
  O  O486  1  0.867920  0.786230  0.768600  1.0  -0.2676
  O  O487  1  0.946190  0.707750  0.923200  1.0  -0.2627
  O  O488  1  0.861020  0.652050  0.858800  1.0  -0.2632
  O  O489  1  0.812040  0.898650  0.272600  1.0  -0.6391
  O  O490  1  0.725050  0.479880  0.885200  1.0  -0.649
  O  O491  1  0.158500  0.651850  0.869400  1.0  -0.5692
  O  O492  1  0.754360  0.857860  0.471900  1.0  -0.609
  O  O493  1  0.750990  0.854070  0.287800  1.0  -0.6098
  O  O494  1  0.823590  0.891800  0.457500  1.0  -0.6475
  O  O495  1  0.792450  0.443810  0.864300  1.0  -0.6211
  O  O496  1  0.148000  0.626600  0.983800  1.0  -0.4743
  O  O497  1  0.676370  0.273470  0.468800  1.0  -0.2772
  O  O498  1  0.632080  0.286230  0.268600  1.0  -0.2674
  O  O499  1  0.553810  0.207750  0.423200  1.0  -0.2637
  O  O500  1  0.638980  0.152050  0.358800  1.0  -0.2659
  O  O501  1  0.687960  0.398650  0.772600  1.0  -0.6445
  O  O502  1  0.774950  0.979880  0.385200  1.0  -0.648
  O  O503  1  0.341500  0.151850  0.369400  1.0  -0.5689
  O  O504  1  0.745640  0.357860  0.971900  1.0  -0.6098
  O  O505  1  0.749010  0.354070  0.787800  1.0  -0.6102
  O  O506  1  0.676410  0.391800  0.957500  1.0  -0.65
  O  O507  1  0.707550  0.943810  0.364300  1.0  -0.6219
  O  O508  1  0.352000  0.126600  0.483800  1.0  -0.4747
  O  O509  1  0.323630  0.726530  0.468800  1.0  -0.2785
  O  O510  1  0.367920  0.713770  0.268600  1.0  -0.2669
  O  O511  1  0.446190  0.792250  0.423200  1.0  -0.2628
  O  O512  1  0.361020  0.847950  0.358800  1.0  -0.2641
  O  O513  1  0.312040  0.601350  0.772600  1.0  -0.6393
  O  O514  1  0.225050  0.020120  0.385200  1.0  -0.6489
  O  O515  1  0.658500  0.848150  0.369400  1.0  -0.5691
  O  O516  1  0.254360  0.642140  0.971900  1.0  -0.6088
  O  O517  1  0.250990  0.645930  0.787800  1.0  -0.6103
  O  O518  1  0.323590  0.608200  0.957500  1.0  -0.6482
  O  O519  1  0.292450  0.056190  0.364300  1.0  -0.6218
  O  O520  1  0.648000  0.873400  0.483800  1.0  -0.4745
  O  O521  1  0.226530  0.823630  0.031200  1.0  -0.2798
  O  O522  1  0.213770  0.867920  0.231400  1.0  -0.2681
  O  O523  1  0.292250  0.946190  0.076800  1.0  -0.2625
  O  O524  1  0.347950  0.861020  0.141200  1.0  -0.2609
  O  O525  1  0.101350  0.812040  0.727400  1.0  -0.641
  O  O526  1  0.520120  0.725050  0.114800  1.0  -0.6459
  O  O527  1  0.348150  0.158500  0.130600  1.0  -0.5708
  O  O528  1  0.142140  0.754360  0.528100  1.0  -0.612
  O  O529  1  0.145930  0.750990  0.712200  1.0  -0.61
  O  O530  1  0.108200  0.823590  0.542500  1.0  -0.6479
  O  O531  1  0.556190  0.792450  0.135700  1.0  -0.6182
  O  O532  1  0.373400  0.148000  0.016200  1.0  -0.4726
  O  O533  1  0.773470  0.176370  0.031200  1.0  -0.278
  O  O534  1  0.786230  0.132080  0.231400  1.0  -0.2669
  O  O535  1  0.707750  0.053810  0.076800  1.0  -0.2635
  O  O536  1  0.652050  0.138980  0.141200  1.0  -0.2646
  O  O537  1  0.898650  0.187960  0.727400  1.0  -0.6409
  O  O538  1  0.479880  0.274950  0.114800  1.0  -0.6475
  O  O539  1  0.651850  0.841500  0.130600  1.0  -0.5711
  O  O540  1  0.857860  0.245640  0.528100  1.0  -0.6125
  O  O541  1  0.854070  0.249010  0.712200  1.0  -0.6108
  O  O542  1  0.891800  0.176410  0.542500  1.0  -0.6503
  O  O543  1  0.443810  0.207550  0.135700  1.0  -0.6177
  O  O544  1  0.626600  0.852000  0.016200  1.0  -0.4754
  O  O545  1  0.726530  0.676370  0.531200  1.0  -0.2784
  O  O546  1  0.713770  0.632080  0.731400  1.0  -0.2682
  O  O547  1  0.792250  0.553810  0.576800  1.0  -0.2631
  O  O548  1  0.847950  0.638980  0.641200  1.0  -0.2622
  O  O549  1  0.601350  0.687960  0.227400  1.0  -0.6421
  O  O550  1  0.020120  0.774950  0.614800  1.0  -0.6477
  O  O551  1  0.848150  0.341500  0.630600  1.0  -0.5706
  O  O552  1  0.642140  0.745640  0.028100  1.0  -0.6126
  O  O553  1  0.645930  0.749010  0.212200  1.0  -0.6106
  O  O554  1  0.608200  0.676410  0.042500  1.0  -0.6505
  O  O555  1  0.056190  0.707550  0.635700  1.0  -0.6178
  O  O556  1  0.873400  0.352000  0.516200  1.0  -0.4731
  O  O557  1  0.273470  0.323630  0.531200  1.0  -0.2793
  O  O558  1  0.286230  0.367920  0.731400  1.0  -0.268
  O  O559  1  0.207750  0.446190  0.576800  1.0  -0.2631
  O  O560  1  0.152050  0.361020  0.641200  1.0  -0.2627
  O  O561  1  0.398650  0.312040  0.227400  1.0  -0.6414
  O  O562  1  0.979880  0.225050  0.614800  1.0  -0.6454
  O  O563  1  0.151850  0.658500  0.630600  1.0  -0.5709
  O  O564  1  0.357860  0.254360  0.028100  1.0  -0.6116
  O  O565  1  0.354070  0.250990  0.212200  1.0  -0.6102
  O  O566  1  0.391800  0.323590  0.042500  1.0  -0.6483
  O  O567  1  0.943810  0.292450  0.635700  1.0  -0.6182
  O  O568  1  0.126600  0.648000  0.516200  1.0  -0.4747
