# generated using pymatgen
data_TbH6(C3O4)3
_symmetry_space_group_name_H-M   'P 1'
_cell_length_a   6.07830000
_cell_length_b   8.64570000
_cell_length_c   16.19540000
_cell_angle_alpha   77.80100000
_cell_angle_beta   88.35100000
_cell_angle_gamma   83.63700000
_symmetry_Int_Tables_number   1
_chemical_formula_structural   TbH6(C3O4)3
_chemical_formula_sum   'Tb2 H12 C18 O24'
_cell_volume   826.73198586
_cell_formula_units_Z   2
loop_
 _symmetry_equiv_pos_site_id
 _symmetry_equiv_pos_as_xyz
  1  'x, y, z'
loop_
 _atom_site_type_symbol
 _atom_site_label
 _atom_site_symmetry_multiplicity
 _atom_site_fract_x
 _atom_site_fract_y
 _atom_site_fract_z
 _atom_site_occupancy
 _atom_site_charge
  Tb  Tb1  1  0.880100  0.102630  0.218090  1.0  2.2843
  Tb  Tb2  1  0.119900  0.897370  0.781910  1.0  2.2848
  H  H3  1  0.431600  0.489600  0.142500  1.0  0.1597
  H  H4  1  0.276700  0.466500  0.016900  1.0  0.1563
  H  H5  1  0.127400  0.757900  0.084100  1.0  0.1616
  H  H6  1  0.812200  0.911500  0.005100  1.0  0.1564
  H  H7  1  0.856700  0.019300  0.461900  1.0  0.1679
  H  H8  1  0.545000  0.145000  0.519900  1.0  0.1537
  H  H9  1  0.568400  0.510400  0.857500  1.0  0.1613
  H  H10  1  0.723300  0.533500  0.983100  1.0  0.1532
  H  H11  1  0.872600  0.242100  0.915900  1.0  0.162
  H  H12  1  0.187800  0.088500  0.994900  1.0  0.156
  H  H13  1  0.143300  0.980700  0.538100  1.0  0.1682
  H  H14  1  0.455000  0.855000  0.480100  1.0  0.1533
  C  C15  1  0.368700  0.253400  0.165500  1.0  0.7436
  C  C16  1  0.485100  0.396400  0.119200  1.0  0.1022
  C  C17  1  0.435400  0.433400  0.024800  1.0  0.1522
  C  C18  1  0.857300  0.770300  0.164400  1.0  0.7501
  C  C19  1  0.034000  0.841100  0.105300  1.0  0.1159
  C  C20  1  0.918500  0.961800  0.032400  1.0  0.149
  C  C21  1  0.800200  0.243300  0.387700  1.0  0.7678
  C  C22  1  0.736900  0.076600  0.424600  1.0  0.1034
  C  C23  1  0.524900  0.082600  0.477300  1.0  0.1474
  C  C24  1  0.631300  0.746600  0.834500  1.0  0.7422
  C  C25  1  0.514900  0.603600  0.880800  1.0  0.102
  C  C26  1  0.564600  0.566600  0.975200  1.0  0.1516
  C  C27  1  0.142700  0.229700  0.835600  1.0  0.7499
  C  C28  1  0.966000  0.158900  0.894700  1.0  0.1151
  C  C29  1  0.081500  0.038200  0.967600  1.0  0.1448
  C  C30  1  0.199800  0.756700  0.612300  1.0  0.7701
  C  C31  1  0.263100  0.923400  0.575400  1.0  0.1033
  C  C32  1  0.475100  0.917400  0.522700  1.0  0.1465
  O  O33  1  0.489700  0.135200  0.204800  1.0  -0.6241
  O  O34  1  0.161300  0.266300  0.162000  1.0  -0.6523
  O  O35  1  0.716800  0.360600  0.134000  1.0  -0.5033
  O  O36  1  0.490400  0.291700  0.992700  1.0  -0.3344
  O  O37  1  0.810100  0.830100  0.228000  1.0  -0.5865
  O  O38  1  0.764200  0.660500  0.145400  1.0  -0.5377
  O  O39  1  0.164600  0.929500  0.146400  1.0  -0.519
  O  O40  1  0.805100  0.081400  0.072400  1.0  -0.5609
  O  O41  1  0.847800  0.276700  0.309600  1.0  -0.6051
  O  O42  1  0.806300  0.334000  0.436700  1.0  -0.4564
  O  O43  1  0.717200  0.992100  0.358400  1.0  -0.5403
  O  O44  1  0.343000  0.158300  0.426400  1.0  -0.3517
  O  O45  1  0.510300  0.864800  0.795200  1.0  -0.6233
  O  O46  1  0.838700  0.733700  0.838000  1.0  -0.6506
  O  O47  1  0.283200  0.639400  0.866000  1.0  -0.4993
  O  O48  1  0.509600  0.708300  0.007300  1.0  -0.335
  O  O49  1  0.189900  0.169900  0.772000  1.0  -0.5883
  O  O50  1  0.235800  0.339500  0.854600  1.0  -0.539
  O  O51  1  0.835400  0.070500  0.853600  1.0  -0.5181
  O  O52  1  0.194900  0.918600  0.927600  1.0  -0.559
  O  O53  1  0.152200  0.723300  0.690400  1.0  -0.6054
  O  O54  1  0.193700  0.666000  0.563300  1.0  -0.4562
  O  O55  1  0.282800  0.007900  0.641600  1.0  -0.5399
  O  O56  1  0.657000  0.841700  0.573600  1.0  -0.3498
