# generated using pymatgen
data_Cu3H20C17(N2O3)4
_symmetry_space_group_name_H-M   'P 1'
_cell_length_a   12.08640000
_cell_length_b   12.96620000
_cell_length_c   21.57800000
_cell_angle_alpha   90.00000000
_cell_angle_beta   90.00000000
_cell_angle_gamma   115.30900000
_symmetry_Int_Tables_number   1
_chemical_formula_structural   Cu3H20C17(N2O3)4
_chemical_formula_sum   'Cu12 H80 C68 N32 O48'
_cell_volume   3057.00888765
_cell_formula_units_Z   4
loop_
 _symmetry_equiv_pos_site_id
 _symmetry_equiv_pos_as_xyz
  1  'x, y, z'
loop_
 _atom_site_type_symbol
 _atom_site_label
 _atom_site_symmetry_multiplicity
 _atom_site_fract_x
 _atom_site_fract_y
 _atom_site_fract_z
 _atom_site_occupancy
 _atom_site_charge
  Cu  Cu1  1  0.017250  0.109850  0.093810  1.0  0.8191
  Cu  Cu2  1  0.271700  0.694980  0.289000  1.0  0.696
  Cu  Cu3  1  0.153280  0.579700  0.995270  1.0  0.8444
  Cu  Cu4  1  0.482750  0.390150  0.593810  1.0  0.8184
  Cu  Cu5  1  0.228300  0.805020  0.789000  1.0  0.6948
  Cu  Cu6  1  0.346720  0.920300  0.495270  1.0  0.8437
  Cu  Cu7  1  0.982750  0.890150  0.906190  1.0  0.8163
  Cu  Cu8  1  0.728300  0.305020  0.711000  1.0  0.6962
  Cu  Cu9  1  0.846720  0.420300  0.004730  1.0  0.8432
  Cu  Cu10  1  0.517250  0.609850  0.406190  1.0  0.8178
  Cu  Cu11  1  0.771700  0.194980  0.211000  1.0  0.6963
  Cu  Cu12  1  0.653280  0.079700  0.504730  1.0  0.8449
  H  H13  1  0.633000  0.944400  0.143400  1.0  0.1341
  H  H14  1  0.610500  0.947300  0.072200  1.0  0.1352
  H  H15  1  0.613200  0.763200  0.189000  1.0  0.1358
  H  H16  1  0.524400  0.651600  0.155100  1.0  0.1347
  H  H17  1  0.623600  0.949000  0.922400  1.0  0.1126
  H  H18  1  0.651400  0.941600  0.852100  1.0  0.1435
  H  H19  1  0.498800  0.654600  0.836800  1.0  0.1429
  H  H20  1  0.581300  0.767900  0.802400  1.0  0.1366
  H  H21  1  0.215700  0.334200  0.945600  1.0  0.1465
  H  H22  1  0.338700  0.421400  0.916600  1.0  0.1351
  H  H23  1  0.297600  0.451700  0.087200  1.0  0.1361
  H  H24  1  0.261000  0.338700  0.049400  1.0  0.1315
  H  H25  1  0.274600  0.891400  0.013400  1.0  0.082
  H  H26  1  0.348800  0.824100  0.036200  1.0  0.0727
  H  H27  1  0.203200  0.802800  0.112000  1.0  0.1016
  H  H28  1  0.097800  0.760800  0.062200  1.0  0.0907
  H  H29  1  0.292700  0.754200  0.942300  1.0  0.3153
  H  H30  1  0.173200  0.756800  0.945600  1.0  0.3288
  H  H31  1  0.095100  0.601700  0.101800  1.0  0.343
  H  H32  1  0.228200  0.644100  0.100500  1.0  0.3077
  H  H33  1  0.867000  0.555600  0.643400  1.0  0.1363
  H  H34  1  0.889500  0.552700  0.572200  1.0  0.1344
  H  H35  1  0.886800  0.736800  0.689000  1.0  0.1358
  H  H36  1  0.975600  0.848400  0.655100  1.0  0.1342
  H  H37  1  0.876400  0.551000  0.422400  1.0  0.1127
  H  H38  1  0.848600  0.558400  0.352100  1.0  0.1432
  H  H39  1  0.001200  0.845400  0.336800  1.0  0.1406
  H  H40  1  0.918700  0.732100  0.302400  1.0  0.1367
  H  H41  1  0.284300  0.165800  0.445600  1.0  0.1444
  H  H42  1  0.161300  0.078600  0.416600  1.0  0.1348
  H  H43  1  0.202400  0.048300  0.587200  1.0  0.1337
  H  H44  1  0.239000  0.161300  0.549400  1.0  0.1299
  H  H45  1  0.225400  0.608600  0.513400  1.0  0.0823
  H  H46  1  0.151200  0.675900  0.536200  1.0  0.0745
  H  H47  1  0.296800  0.697200  0.612000  1.0  0.101
  H  H48  1  0.402200  0.739200  0.562200  1.0  0.0859
  H  H49  1  0.207300  0.745800  0.442300  1.0  0.3139
  H  H50  1  0.326800  0.743200  0.445600  1.0  0.3282
  H  H51  1  0.404900  0.898300  0.601800  1.0  0.3427
  H  H52  1  0.271800  0.855900  0.600500  1.0  0.31
  H  H53  1  0.367000  0.055600  0.856600  1.0  0.1352
  H  H54  1  0.389500  0.052700  0.927800  1.0  0.136
  H  H55  1  0.386800  0.236800  0.811000  1.0  0.136
  H  H56  1  0.475600  0.348400  0.844900  1.0  0.1325
  H  H57  1  0.376400  0.051000  0.077600  1.0  0.1119
  H  H58  1  0.348600  0.058400  0.147900  1.0  0.1442
  H  H59  1  0.501200  0.345400  0.163200  1.0  0.1412
  H  H60  1  0.418700  0.232100  0.197600  1.0  0.1365
  H  H61  1  0.784300  0.665800  0.054400  1.0  0.1433
  H  H62  1  0.661300  0.578600  0.083400  1.0  0.134
  H  H63  1  0.702400  0.548300  0.912800  1.0  0.1395
  H  H64  1  0.739000  0.661300  0.950600  1.0  0.1307
  H  H65  1  0.725400  0.108600  0.986600  1.0  0.0815
  H  H66  1  0.651200  0.175900  0.963800  1.0  0.0735
  H  H67  1  0.796800  0.197200  0.888000  1.0  0.1022
  H  H68  1  0.902200  0.239200  0.937800  1.0  0.0871
  H  H69  1  0.707300  0.245800  0.057700  1.0  0.3144
  H  H70  1  0.826800  0.243200  0.054400  1.0  0.3288
  H  H71  1  0.904900  0.398300  0.898200  1.0  0.343
  H  H72  1  0.771800  0.355900  0.899500  1.0  0.3093
  H  H73  1  0.133000  0.444400  0.356600  1.0  0.1345
  H  H74  1  0.110500  0.447300  0.427800  1.0  0.1354
  H  H75  1  0.113200  0.263200  0.311000  1.0  0.1366
  H  H76  1  0.024400  0.151600  0.344900  1.0  0.134
  H  H77  1  0.123600  0.449000  0.577600  1.0  0.1127
  H  H78  1  0.151400  0.441600  0.647900  1.0  0.1433
  H  H79  1  0.998800  0.154600  0.663200  1.0  0.143
  H  H80  1  0.081300  0.267900  0.697600  1.0  0.1359
  H  H81  1  0.715700  0.834200  0.554400  1.0  0.1461
  H  H82  1  0.838700  0.921400  0.583400  1.0  0.1352
  H  H83  1  0.797600  0.951700  0.412800  1.0  0.1401
  H  H84  1  0.761000  0.838700  0.450600  1.0  0.1318
  H  H85  1  0.774600  0.391400  0.486600  1.0  0.0814
  H  H86  1  0.848800  0.324100  0.463800  1.0  0.0719
  H  H87  1  0.703200  0.302800  0.388000  1.0  0.1015
  H  H88  1  0.597800  0.260800  0.437800  1.0  0.0908
  H  H89  1  0.792700  0.254200  0.557700  1.0  0.3142
  H  H90  1  0.673200  0.256800  0.554400  1.0  0.329
  H  H91  1  0.595100  0.101700  0.398200  1.0  0.342
  H  H92  1  0.728200  0.144100  0.399500  1.0  0.306
  C  C93  1  0.525400  0.736200  0.049400  1.0  0.5753
  C  C94  1  0.522200  0.735800  0.946000  1.0  0.5671
  C  C95  1  0.397100  0.580100  0.997900  1.0  0.5472
  C  C96  1  0.643300  0.914600  0.103600  1.0  -0.1974
  C  C97  1  0.778000  0.954800  0.091900  1.0  0.6796
  C  C98  1  0.541900  0.730900  0.162300  1.0  -0.2149
  C  C99  1  0.433400  0.736500  0.195500  1.0  0.6708
  C  C100  1  0.650700  0.908700  0.892500  1.0  -0.1879
  C  C101  1  0.779300  0.928000  0.908600  1.0  0.6885
  C  C102  1  0.517100  0.734900  0.833100  1.0  -0.2287
  C  C103  1  0.403800  0.745000  0.810100  1.0  0.6901
  C  C104  1  0.264700  0.414600  0.937400  1.0  -0.2287
  C  C105  1  0.193600  0.455300  0.893000  1.0  0.6953
  C  C106  1  0.250600  0.408700  0.051900  1.0  -0.24
  C  C107  1  0.115500  0.378500  0.063300  1.0  0.7139
  C  C108  1  0.268900  0.816200  0.022900  1.0  0.0328
  C  C109  1  0.175700  0.761300  0.073500  1.0  0.0292
  C  C110  1  0.974600  0.763800  0.549400  1.0  0.5742
  C  C111  1  0.977800  0.764200  0.446000  1.0  0.5662
  C  C112  1  0.102900  0.919900  0.497900  1.0  0.5464
  C  C113  1  0.856700  0.585400  0.603600  1.0  -0.202
  C  C114  1  0.722000  0.545200  0.591900  1.0  0.6808
  C  C115  1  0.958100  0.769100  0.662300  1.0  -0.2152
  C  C116  1  0.066600  0.763500  0.695500  1.0  0.6726
  C  C117  1  0.849300  0.591300  0.392500  1.0  -0.1937
  C  C118  1  0.720700  0.572000  0.408600  1.0  0.6905
  C  C119  1  0.982900  0.765100  0.333100  1.0  -0.2285
  C  C120  1  0.096200  0.755000  0.310100  1.0  0.6891
  C  C121  1  0.235300  0.085400  0.437400  1.0  -0.2292
  C  C122  1  0.306400  0.044700  0.393000  1.0  0.6903
  C  C123  1  0.249400  0.091300  0.551900  1.0  -0.2346
  C  C124  1  0.384500  0.121500  0.563300  1.0  0.7171
  C  C125  1  0.231100  0.683800  0.522900  1.0  0.0334
  C  C126  1  0.324300  0.738700  0.573500  1.0  0.0299
  C  C127  1  0.474600  0.263800  0.950600  1.0  0.5736
  C  C128  1  0.477800  0.264200  0.054000  1.0  0.5661
  C  C129  1  0.602900  0.419900  0.002100  1.0  0.5463
  C  C130  1  0.356700  0.085400  0.896400  1.0  -0.2038
  C  C131  1  0.222000  0.045200  0.908100  1.0  0.6812
  C  C132  1  0.458100  0.269100  0.837700  1.0  -0.2148
  C  C133  1  0.566600  0.263500  0.804500  1.0  0.6732
  C  C134  1  0.349300  0.091300  0.107500  1.0  -0.1935
  C  C135  1  0.220700  0.072000  0.091400  1.0  0.6924
  C  C136  1  0.482900  0.265100  0.166900  1.0  -0.2325
  C  C137  1  0.596200  0.255000  0.189900  1.0  0.6928
  C  C138  1  0.735300  0.585400  0.062600  1.0  -0.2284
  C  C139  1  0.806400  0.544700  0.107000  1.0  0.6877
  C  C140  1  0.749400  0.591300  0.948100  1.0  -0.2261
  C  C141  1  0.884500  0.621500  0.936700  1.0  0.7148
  C  C142  1  0.731100  0.183800  0.977100  1.0  0.0333
  C  C143  1  0.824300  0.238700  0.926500  1.0  0.0293
  C  C144  1  0.025400  0.236200  0.450600  1.0  0.575
  C  C145  1  0.022200  0.235800  0.554000  1.0  0.5666
  C  C146  1  0.897100  0.080100  0.502100  1.0  0.547
  C  C147  1  0.143300  0.414600  0.396400  1.0  -0.1996
  C  C148  1  0.278000  0.454800  0.408100  1.0  0.6799
  C  C149  1  0.041900  0.230900  0.337700  1.0  -0.2156
  C  C150  1  0.933400  0.236500  0.304500  1.0  0.6725
  C  C151  1  0.150700  0.408700  0.607500  1.0  -0.194
  C  C152  1  0.279300  0.428000  0.591400  1.0  0.6897
  C  C153  1  0.017100  0.234900  0.666900  1.0  -0.2307
  C  C154  1  0.903800  0.245000  0.689900  1.0  0.6906
  C  C155  1  0.764700  0.914600  0.562600  1.0  -0.2291
  C  C156  1  0.693600  0.955300  0.607000  1.0  0.6846
  C  C157  1  0.750600  0.908700  0.448100  1.0  -0.2354
  C  C158  1  0.615500  0.878500  0.436700  1.0  0.7166
  C  C159  1  0.768900  0.316200  0.477100  1.0  0.0328
  C  C160  1  0.675700  0.261300  0.426500  1.0  0.0294
  N  N161  1  0.568000  0.794800  0.997600  1.0  -0.6193
  N  N162  1  0.436100  0.626900  0.942800  1.0  -0.6262
  N  N163  1  0.438200  0.627200  0.053500  1.0  -0.6505
  N  N164  1  0.570500  0.790600  0.103800  1.0  -0.0759
  N  N165  1  0.562600  0.789300  0.891600  1.0  -0.0237
  N  N166  1  0.299300  0.474100  0.996500  1.0  -0.1089
  N  N167  1  0.228300  0.741500  0.967100  1.0  -0.6073
  N  N168  1  0.163200  0.644100  0.080100  1.0  -0.6205
  N  N169  1  0.932000  0.705200  0.497600  1.0  -0.6197
  N  N170  1  0.063900  0.873100  0.442800  1.0  -0.6251
  N  N171  1  0.061800  0.872800  0.553500  1.0  -0.6523
  N  N172  1  0.929500  0.709400  0.603800  1.0  -0.0758
  N  N173  1  0.937400  0.710700  0.391600  1.0  -0.0242
  N  N174  1  0.200700  0.025900  0.496500  1.0  -0.1094
  N  N175  1  0.271700  0.758500  0.467100  1.0  -0.6066
  N  N176  1  0.336800  0.855900  0.580100  1.0  -0.6199
  N  N177  1  0.432000  0.205200  0.002400  1.0  -0.6197
  N  N178  1  0.563900  0.373100  0.057200  1.0  -0.6247
  N  N179  1  0.561800  0.372800  0.946500  1.0  -0.653
  N  N180  1  0.429500  0.209400  0.896200  1.0  -0.0752
  N  N181  1  0.437400  0.210700  0.108400  1.0  -0.0233
  N  N182  1  0.700700  0.525900  0.003500  1.0  -0.1092
  N  N183  1  0.771700  0.258500  0.032900  1.0  -0.6063
  N  N184  1  0.836800  0.355900  0.919900  1.0  -0.62
  N  N185  1  0.068000  0.294800  0.502400  1.0  -0.6195
  N  N186  1  0.936100  0.126900  0.557200  1.0  -0.6236
  N  N187  1  0.938200  0.127200  0.446500  1.0  -0.6533
  N  N188  1  0.070500  0.290600  0.396200  1.0  -0.0754
  N  N189  1  0.062600  0.289300  0.608400  1.0  -0.0223
  N  N190  1  0.799300  0.974100  0.503500  1.0  -0.1087
  N  N191  1  0.728300  0.241500  0.532900  1.0  -0.6073
  N  N192  1  0.663200  0.144100  0.419900  1.0  -0.6205
  O  O193  1  0.839900  0.063300  0.094400  1.0  -0.6218
  O  O194  1  0.822500  0.886600  0.081400  1.0  -0.5604
  O  O195  1  0.407800  0.683300  0.248060  1.0  -0.6039
  O  O196  1  0.376900  0.786200  0.174500  1.0  -0.5625
  O  O197  1  0.851500  0.025800  0.924300  1.0  -0.5637
  O  O198  1  0.808500  0.846600  0.902700  1.0  -0.5931
  O  O199  1  0.362900  0.802300  0.840300  1.0  -0.5812
  O  O200  1  0.356200  0.695400  0.761200  1.0  -0.528
  O  O201  1  0.149600  0.522500  0.910990  1.0  -0.5734
  O  O202  1  0.180300  0.418200  0.839800  1.0  -0.4955
  O  O203  1  0.062100  0.424700  0.030400  1.0  -0.6084
  O  O204  1  0.063500  0.307600  0.104800  1.0  -0.5811
  O  O205  1  0.660100  0.436700  0.594400  1.0  -0.6223
  O  O206  1  0.677500  0.613400  0.581400  1.0  -0.5605
  O  O207  1  0.092200  0.816700  0.748060  1.0  -0.6043
  O  O208  1  0.123100  0.713800  0.674500  1.0  -0.5615
  O  O209  1  0.648500  0.474200  0.424300  1.0  -0.5654
  O  O210  1  0.691500  0.653400  0.402700  1.0  -0.5921
  O  O211  1  0.137100  0.697700  0.340300  1.0  -0.5815
  O  O212  1  0.143800  0.804600  0.261200  1.0  -0.5264
  O  O213  1  0.350400  0.977500  0.410990  1.0  -0.5744
  O  O214  1  0.319700  0.081800  0.339800  1.0  -0.4939
  O  O215  1  0.437900  0.075300  0.530400  1.0  -0.6083
  O  O216  1  0.436500  0.192400  0.604800  1.0  -0.5814
  O  O217  1  0.160100  0.936700  0.905600  1.0  -0.6224
  O  O218  1  0.177500  0.113400  0.918600  1.0  -0.5612
  O  O219  1  0.592200  0.316700  0.751940  1.0  -0.6056
  O  O220  1  0.623100  0.213800  0.825500  1.0  -0.5632
  O  O221  1  0.148500  0.974200  0.075700  1.0  -0.5663
  O  O222  1  0.191500  0.153400  0.097300  1.0  -0.5927
  O  O223  1  0.637100  0.197700  0.159700  1.0  -0.5808
  O  O224  1  0.643800  0.304600  0.238800  1.0  -0.5257
  O  O225  1  0.850400  0.477500  0.089010  1.0  -0.5756
  O  O226  1  0.819700  0.581800  0.160200  1.0  -0.4949
  O  O227  1  0.937900  0.575300  0.969600  1.0  -0.6085
  O  O228  1  0.936500  0.692400  0.895200  1.0  -0.5814
  O  O229  1  0.339900  0.563300  0.405600  1.0  -0.623
  O  O230  1  0.322500  0.386600  0.418600  1.0  -0.5601
  O  O231  1  0.907800  0.183300  0.251940  1.0  -0.6045
  O  O232  1  0.876900  0.286200  0.325500  1.0  -0.5624
  O  O233  1  0.351500  0.525800  0.575700  1.0  -0.5651
  O  O234  1  0.308500  0.346600  0.597300  1.0  -0.5932
  O  O235  1  0.862900  0.302300  0.659700  1.0  -0.5813
  O  O236  1  0.856200  0.195400  0.738800  1.0  -0.5277
  O  O237  1  0.649600  0.022500  0.589010  1.0  -0.5766
  O  O238  1  0.680300  0.918200  0.660200  1.0  -0.495
  O  O239  1  0.562100  0.924700  0.469600  1.0  -0.6083
  O  O240  1  0.563500  0.807600  0.395200  1.0  -0.582
