# generated using pymatgen
data_Cd3(C4N3)2
_symmetry_space_group_name_H-M   'P 1'
_cell_length_a   8.72100000
_cell_length_b   11.02600000
_cell_length_c   13.54000000
_cell_angle_alpha   90.00000000
_cell_angle_beta   90.00000000
_cell_angle_gamma   90.00000000
_symmetry_Int_Tables_number   1
_chemical_formula_structural   Cd3(C4N3)2
_chemical_formula_sum   'Cd6 C16 N12'
_cell_volume   1301.97588084
_cell_formula_units_Z   2
loop_
 _symmetry_equiv_pos_site_id
 _symmetry_equiv_pos_as_xyz
  1  'x, y, z'
loop_
 _atom_site_type_symbol
 _atom_site_label
 _atom_site_symmetry_multiplicity
 _atom_site_fract_x
 _atom_site_fract_y
 _atom_site_fract_z
 _atom_site_occupancy
 _atom_site_charge
  Cd  Cd1  1  0.000000  0.767680  0.000000  1.0  0.9756
  Cd  Cd2  1  0.500000  0.232320  0.500000  1.0  0.9758
  Cd  Cd3  1  0.500000  0.069470  0.102510  1.0  0.6011
  Cd  Cd4  1  0.500000  0.486630  0.864650  1.0  0.6422
  Cd  Cd5  1  0.000000  0.930530  0.602510  1.0  0.6021
  Cd  Cd6  1  0.000000  0.513370  0.364650  1.0  0.6418
  C  C7  1  0.708500  0.958800  0.065600  1.0  -0.0271
  C  C8  1  0.708600  0.581800  0.912700  1.0  -0.0377
  C  C9  1  0.791500  0.041200  0.565600  1.0  -0.0269
  C  C10  1  0.791400  0.418200  0.412700  1.0  -0.0377
  C  C11  1  0.208500  0.041200  0.565600  1.0  -0.0275
  C  C12  1  0.208600  0.418200  0.412700  1.0  -0.0377
  C  C13  1  0.291500  0.958800  0.065600  1.0  -0.0264
  C  C14  1  0.291400  0.581800  0.912700  1.0  -0.0377
  C  C15  1  0.000000  0.881100  0.759400  1.0  -0.0376
  C  C16  1  0.000000  0.616100  0.223000  1.0  -0.0249
  C  C17  1  0.500000  0.118900  0.259400  1.0  -0.0379
  C  C18  1  0.500000  0.383900  0.723000  1.0  -0.0254
  C  C19  1  0.500000  0.244000  0.017900  1.0  -0.1833
  C  C20  1  0.500000  0.325900  0.968200  1.0  -0.122
  C  C21  1  0.000000  0.756000  0.517900  1.0  -0.1855
  C  C22  1  0.000000  0.674100  0.468200  1.0  -0.1206
  N  N23  1  0.809300  0.899800  0.046000  1.0  -0.2917
  N  N24  1  0.808700  0.634700  0.941700  1.0  -0.2777
  N  N25  1  0.690700  0.100200  0.546000  1.0  -0.2916
  N  N26  1  0.691300  0.365300  0.441700  1.0  -0.2787
  N  N27  1  0.309300  0.100200  0.546000  1.0  -0.2913
  N  N28  1  0.308700  0.365300  0.441700  1.0  -0.2781
  N  N29  1  0.190700  0.899800  0.046000  1.0  -0.2924
  N  N30  1  0.191300  0.634700  0.941700  1.0  -0.2779
  N  N31  1  0.000000  0.850700  0.838500  1.0  -0.2929
  N  N32  1  0.000000  0.666300  0.149200  1.0  -0.2886
  N  N33  1  0.500000  0.149300  0.338500  1.0  -0.2932
  N  N34  1  0.500000  0.333700  0.649200  1.0  -0.2889
