# generated using pymatgen
data_Mn3H40C66N4O15
_symmetry_space_group_name_H-M   'P 1'
_cell_length_a   11.29620000
_cell_length_b   11.29620000
_cell_length_c   25.85440000
_cell_angle_alpha   90.17490000
_cell_angle_beta   90.17490000
_cell_angle_gamma   95.42630000
_symmetry_Int_Tables_number   1
_chemical_formula_structural   Mn3H40C66N4O15
_chemical_formula_sum   'Mn6 H80 C132 N8 O30'
_cell_volume   3284.31002343
_cell_formula_units_Z   2
loop_
 _symmetry_equiv_pos_site_id
 _symmetry_equiv_pos_as_xyz
  1  'x, y, z'
loop_
 _atom_site_type_symbol
 _atom_site_label
 _atom_site_symmetry_multiplicity
 _atom_site_fract_x
 _atom_site_fract_y
 _atom_site_fract_z
 _atom_site_occupancy
 _atom_site_charge
  Mn  Mn1  1  0.653360  0.296080  0.998990  1.0  0.9641
  Mn  Mn2  1  0.703920  0.346640  0.501010  1.0  0.963
  Mn  Mn3  1  0.346640  0.703920  0.001010  1.0  0.9678
  Mn  Mn4  1  0.296080  0.653360  0.498990  1.0  0.9632
  Mn  Mn5  1  0.000000  0.500000  0.500000  1.0  1.2071
  Mn  Mn6  1  0.500000  0.000000  0.000000  1.0  1.2071
  H  H7  1  0.289400  0.110000  0.123600  1.0  0.1004
  H  H8  1  0.152800  0.163000  0.184600  1.0  0.1244
  H  H9  1  0.265200  0.505600  0.164700  1.0  0.1339
  H  H10  1  0.405500  0.453300  0.105400  1.0  0.0962
  H  H11  1  0.313200  0.382400  0.262800  1.0  0.1202
  H  H12  1  0.352400  0.453200  0.345700  1.0  0.1016
  H  H13  1  0.013300  0.522700  0.360800  1.0  0.0955
  H  H14  1  0.974100  0.453900  0.277300  1.0  0.1314
  H  H15  1  0.764400  0.192400  0.367100  1.0  0.1024
  H  H16  1  0.782300  0.090100  0.290500  1.0  0.1256
  H  H17  1  0.137400  0.124800  0.307500  1.0  0.1261
  H  H18  1  0.117200  0.225000  0.385000  1.0  0.087
  H  H19  1  0.617400  0.559000  0.046700  1.0  0.0748
  H  H20  1  0.698500  0.754300  0.041900  1.0  0.116
  H  H21  1  0.865800  0.800000  0.992500  1.0  0.1136
  H  H22  1  0.028600  0.727200  0.935300  1.0  0.0989
  H  H23  1  0.100300  0.578700  0.890900  1.0  0.1098
  H  H24  1  0.083200  0.359600  0.866500  1.0  0.1182
  H  H25  1  0.987200  0.173200  0.875900  1.0  0.1114
  H  H26  1  0.821200  0.145400  0.928700  1.0  0.0864
  H  H27  1  0.890000  0.710600  0.376400  1.0  0.1005
  H  H28  1  0.837000  0.847200  0.315400  1.0  0.1262
  H  H29  1  0.494400  0.734800  0.335300  1.0  0.1367
  H  H30  1  0.546700  0.594500  0.394600  1.0  0.0958
  H  H31  1  0.617600  0.686800  0.237200  1.0  0.1197
  H  H32  1  0.546800  0.647600  0.154300  1.0  0.1024
  H  H33  1  0.477300  0.986700  0.139200  1.0  0.0963
  H  H34  1  0.546100  0.025900  0.222700  1.0  0.1317
  H  H35  1  0.807600  0.235600  0.132900  1.0  0.1029
  H  H36  1  0.909900  0.217700  0.209500  1.0  0.1251
  H  H37  1  0.875200  0.862600  0.192500  1.0  0.1252
  H  H38  1  0.775000  0.882800  0.115000  1.0  0.0867
  H  H39  1  0.441000  0.382600  0.453300  1.0  0.0751
  H  H40  1  0.245700  0.301500  0.458100  1.0  0.1159
  H  H41  1  0.200000  0.134200  0.507500  1.0  0.1124
  H  H42  1  0.272800  0.971400  0.564700  1.0  0.0992
  H  H43  1  0.421300  0.899700  0.609100  1.0  0.1097
  H  H44  1  0.640400  0.916800  0.633500  1.0  0.1174
  H  H45  1  0.826800  0.012800  0.624100  1.0  0.1107
  H  H46  1  0.854600  0.178800  0.571300  1.0  0.0856
  H  H47  1  0.710600  0.890000  0.876400  1.0  0.0995
  H  H48  1  0.847200  0.837000  0.815400  1.0  0.1253
  H  H49  1  0.734800  0.494400  0.835300  1.0  0.1345
  H  H50  1  0.594500  0.546700  0.894600  1.0  0.0962
  H  H51  1  0.686800  0.617600  0.737200  1.0  0.1197
  H  H52  1  0.647600  0.546800  0.654300  1.0  0.102
  H  H53  1  0.986700  0.477300  0.639200  1.0  0.096
  H  H54  1  0.025900  0.546100  0.722700  1.0  0.1318
  H  H55  1  0.235600  0.807600  0.632900  1.0  0.1023
  H  H56  1  0.217700  0.909900  0.709500  1.0  0.1259
  H  H57  1  0.862600  0.875200  0.692500  1.0  0.1251
  H  H58  1  0.882800  0.775000  0.615000  1.0  0.087
  H  H59  1  0.382600  0.441000  0.953300  1.0  0.075
  H  H60  1  0.301500  0.245700  0.958100  1.0  0.1157
  H  H61  1  0.134200  0.200000  0.007500  1.0  0.1136
  H  H62  1  0.971400  0.272800  0.064700  1.0  0.099
  H  H63  1  0.899700  0.421300  0.109100  1.0  0.1097
  H  H64  1  0.916800  0.640400  0.133500  1.0  0.1175
  H  H65  1  0.012800  0.826800  0.124100  1.0  0.1112
  H  H66  1  0.178800  0.854600  0.071300  1.0  0.0859
  H  H67  1  0.110000  0.289400  0.623600  1.0  0.1012
  H  H68  1  0.163000  0.152800  0.684600  1.0  0.1258
  H  H69  1  0.505600  0.265200  0.664700  1.0  0.1361
  H  H70  1  0.453300  0.405500  0.605400  1.0  0.0963
  H  H71  1  0.382400  0.313200  0.762800  1.0  0.1202
  H  H72  1  0.453200  0.352400  0.845700  1.0  0.1015
  H  H73  1  0.522700  0.013300  0.860800  1.0  0.0957
  H  H74  1  0.453900  0.974100  0.777300  1.0  0.1315
  H  H75  1  0.192400  0.764400  0.867100  1.0  0.1026
  H  H76  1  0.090100  0.782300  0.790500  1.0  0.1248
  H  H77  1  0.124800  0.137400  0.807500  1.0  0.1249
  H  H78  1  0.225000  0.117200  0.885000  1.0  0.0873
  H  H79  1  0.559000  0.617400  0.546700  1.0  0.0752
  H  H80  1  0.754300  0.698500  0.541900  1.0  0.1162
  H  H81  1  0.800000  0.865800  0.492500  1.0  0.1136
  H  H82  1  0.727200  0.028600  0.435300  1.0  0.0992
  H  H83  1  0.578700  0.100300  0.390900  1.0  0.1098
  H  H84  1  0.359600  0.083200  0.366500  1.0  0.1173
  H  H85  1  0.173200  0.987200  0.375900  1.0  0.1106
  H  H86  1  0.145400  0.821200  0.428700  1.0  0.0848
  C  C87  1  0.449360  0.242080  0.068550  1.0  0.6874
  C  C88  1  0.361590  0.275690  0.108430  1.0  -0.177
  C  C89  1  0.285590  0.189650  0.132000  1.0  -0.0064
  C  C90  1  0.203070  0.221190  0.168390  1.0  -0.2335
  C  C91  1  0.197000  0.338640  0.179880  1.0  0.2781
  C  C92  1  0.270900  0.426160  0.156670  1.0  -0.2273
  C  C93  1  0.354400  0.394700  0.120940  1.0  0.0074
  C  C94  1  0.140140  0.412340  0.262260  1.0  0.3056
  C  C95  1  0.253200  0.411180  0.282340  1.0  -0.2592
  C  C96  1  0.276290  0.453370  0.332020  1.0  0.0127
  C  C97  1  0.187160  0.495900  0.361580  1.0  -0.1958
  C  C98  1  0.073880  0.495220  0.341050  1.0  0.0138
  C  C99  1  0.050230  0.453750  0.291170  1.0  -0.2538
  C  C100  1  0.216840  0.542640  0.414410  1.0  0.6528
  C  C101  1  0.921350  0.279750  0.435050  1.0  0.7026
  C  C102  1  0.939080  0.216400  0.384530  1.0  -0.1847
  C  C103  1  0.839390  0.177170  0.355510  1.0  -0.0042
  C  C104  1  0.849560  0.116020  0.309760  1.0  -0.2426
  C  C105  1  0.961130  0.094030  0.293070  1.0  0.2821
  C  C106  1  0.062360  0.136620  0.320070  1.0  -0.2402
  C  C107  1  0.049820  0.197140  0.366190  1.0  0.0075
  C  C108  1  0.685270  0.576730  0.026920  1.0  0.1951
  C  C109  1  0.733410  0.694930  0.024200  1.0  -0.1564
  C  C110  1  0.832860  0.721660  0.994930  1.0  -0.0211
  C  C111  1  0.885560  0.631460  0.968500  1.0  -0.0117
  C  C112  1  0.829610  0.514870  0.973220  1.0  0.1508
  C  C113  1  0.876000  0.420340  0.945480  1.0  0.1417
  C  C114  1  0.977560  0.443240  0.913700  1.0  -1e-04
  C  C115  1  0.989810  0.651010  0.937400  1.0  -0.0797
  C  C116  1  0.033000  0.562600  0.911190  1.0  -0.1094
  C  C117  1  0.016900  0.348100  0.887860  1.0  -0.0241
  C  C118  1  0.960000  0.237600  0.893220  1.0  -0.1588
  C  C119  1  0.859930  0.221270  0.925140  1.0  0.173
  C  C120  1  0.757920  0.550640  0.431450  1.0  0.691
  C  C121  1  0.724310  0.638410  0.391570  1.0  -0.1753
  C  C122  1  0.810350  0.714410  0.368000  1.0  -0.0057
  C  C123  1  0.778810  0.796930  0.331610  1.0  -0.2316
  C  C124  1  0.661360  0.803000  0.320120  1.0  0.2788
  C  C125  1  0.573840  0.729100  0.343330  1.0  -0.2297
  C  C126  1  0.605300  0.645600  0.379060  1.0  0.0085
  C  C127  1  0.587660  0.859860  0.237740  1.0  0.3044
  C  C128  1  0.588820  0.746800  0.217660  1.0  -0.26
  C  C129  1  0.546630  0.723710  0.167980  1.0  0.0111
  C  C130  1  0.504100  0.812840  0.138420  1.0  -0.1966
  C  C131  1  0.504780  0.926120  0.158950  1.0  0.0142
  C  C132  1  0.546250  0.949770  0.208830  1.0  -0.2512
  C  C133  1  0.457360  0.783160  0.085590  1.0  0.6529
  C  C134  1  0.720250  0.078650  0.064950  1.0  0.7011
  C  C135  1  0.783600  0.060920  0.115470  1.0  -0.182
  C  C136  1  0.822830  0.160610  0.144490  1.0  -0.0124
  C  C137  1  0.883980  0.150440  0.190240  1.0  -0.2438
  C  C138  1  0.905970  0.038870  0.206930  1.0  0.2823
  C  C139  1  0.863380  0.937640  0.179930  1.0  -0.2395
  C  C140  1  0.802860  0.950180  0.133810  1.0  -0.0009
  C  C141  1  0.423270  0.314730  0.473080  1.0  0.1949
  C  C142  1  0.305070  0.266590  0.475800  1.0  -0.1604
  C  C143  1  0.278340  0.167140  0.505070  1.0  -0.0222
  C  C144  1  0.368540  0.114440  0.531500  1.0  -0.0151
  C  C145  1  0.485130  0.170390  0.526780  1.0  0.1508
  C  C146  1  0.579660  0.124000  0.554520  1.0  0.1441
  C  C147  1  0.556760  0.022440  0.586300  1.0  0.0008
  C  C148  1  0.348990  0.010190  0.562600  1.0  -0.0772
  C  C149  1  0.437400  0.967000  0.588810  1.0  -0.1096
  C  C150  1  0.651900  0.983100  0.612140  1.0  -0.033
  C  C151  1  0.762400  0.040000  0.606780  1.0  -0.161
  C  C152  1  0.778730  0.140070  0.574860  1.0  0.1766
  C  C153  1  0.550640  0.757920  0.931450  1.0  0.6887
  C  C154  1  0.638410  0.724310  0.891570  1.0  -0.1759
  C  C155  1  0.714410  0.810350  0.868000  1.0  -0.0077
  C  C156  1  0.796930  0.778810  0.831610  1.0  -0.2312
  C  C157  1  0.803000  0.661360  0.820120  1.0  0.2779
  C  C158  1  0.729100  0.573840  0.843330  1.0  -0.2248
  C  C159  1  0.645600  0.605300  0.879060  1.0  0.0074
  C  C160  1  0.859860  0.587660  0.737740  1.0  0.3044
  C  C161  1  0.746800  0.588820  0.717660  1.0  -0.2639
  C  C162  1  0.723710  0.546630  0.667980  1.0  0.0134
  C  C163  1  0.812840  0.504100  0.638420  1.0  -0.1964
  C  C164  1  0.926120  0.504780  0.658950  1.0  0.0125
  C  C165  1  0.949770  0.546250  0.708830  1.0  -0.253
  C  C166  1  0.783160  0.457360  0.585590  1.0  0.6531
  C  C167  1  0.078650  0.720250  0.564950  1.0  0.7017
  C  C168  1  0.060920  0.783600  0.615470  1.0  -0.1826
  C  C169  1  0.160610  0.822830  0.644490  1.0  -0.0038
  C  C170  1  0.150440  0.883980  0.690240  1.0  -0.2394
  C  C171  1  0.038870  0.905970  0.706930  1.0  0.2834
  C  C172  1  0.937640  0.863380  0.679930  1.0  -0.242
  C  C173  1  0.950180  0.802860  0.633810  1.0  0.0048
  C  C174  1  0.314730  0.423270  0.973080  1.0  0.1938
  C  C175  1  0.266590  0.305070  0.975800  1.0  -0.156
  C  C176  1  0.167140  0.278340  0.005070  1.0  -0.0214
  C  C177  1  0.114440  0.368540  0.031500  1.0  -0.0122
  C  C178  1  0.170390  0.485130  0.026780  1.0  0.1513
  C  C179  1  0.124000  0.579660  0.054520  1.0  0.1421
  C  C180  1  0.022440  0.556760  0.086300  1.0  -0.0002
  C  C181  1  0.010190  0.348990  0.062600  1.0  -0.0781
  C  C182  1  0.967000  0.437400  0.088810  1.0  -0.1083
  C  C183  1  0.983100  0.651900  0.112140  1.0  -0.0296
  C  C184  1  0.040000  0.762400  0.106780  1.0  -0.1604
  C  C185  1  0.140070  0.778730  0.074860  1.0  0.1736
  C  C186  1  0.242080  0.449360  0.568550  1.0  0.6908
  C  C187  1  0.275690  0.361590  0.608430  1.0  -0.1768
  C  C188  1  0.189650  0.285590  0.632000  1.0  -0.0031
  C  C189  1  0.221190  0.203070  0.668390  1.0  -0.2293
  C  C190  1  0.338640  0.197000  0.679880  1.0  0.2788
  C  C191  1  0.426160  0.270900  0.656670  1.0  -0.2276
  C  C192  1  0.394700  0.354400  0.620940  1.0  0.0096
  C  C193  1  0.412340  0.140140  0.762260  1.0  0.3053
  C  C194  1  0.411180  0.253200  0.782340  1.0  -0.2555
  C  C195  1  0.453370  0.276290  0.832020  1.0  0.0112
  C  C196  1  0.495900  0.187160  0.861580  1.0  -0.1959
  C  C197  1  0.495220  0.073880  0.841050  1.0  0.0105
  C  C198  1  0.453750  0.050230  0.791170  1.0  -0.2514
  C  C199  1  0.542640  0.216840  0.914410  1.0  0.6531
  C  C200  1  0.279750  0.921350  0.935050  1.0  0.7023
  C  C201  1  0.216400  0.939080  0.884530  1.0  -0.1831
  C  C202  1  0.177170  0.839390  0.855510  1.0  -0.0078
  C  C203  1  0.116020  0.849560  0.809760  1.0  -0.2444
  C  C204  1  0.094030  0.961130  0.793070  1.0  0.2832
  C  C205  1  0.136620  0.062360  0.820070  1.0  -0.2421
  C  C206  1  0.197140  0.049820  0.866190  1.0  0.0042
  C  C207  1  0.576730  0.685270  0.526920  1.0  0.1945
  C  C208  1  0.694930  0.733410  0.524200  1.0  -0.1574
  C  C209  1  0.721660  0.832860  0.494930  1.0  -0.0212
  C  C210  1  0.631460  0.885560  0.468500  1.0  -0.013
  C  C211  1  0.514870  0.829610  0.473220  1.0  0.1497
  C  C212  1  0.420340  0.876000  0.445480  1.0  0.1441
  C  C213  1  0.443240  0.977560  0.413700  1.0  -0.0011
  C  C214  1  0.651010  0.989810  0.437400  1.0  -0.0788
  C  C215  1  0.562600  0.033000  0.411190  1.0  -0.1091
  C  C216  1  0.348100  0.016900  0.387860  1.0  -0.0281
  C  C217  1  0.237600  0.960000  0.393220  1.0  -0.161
  C  C218  1  0.221270  0.859930  0.425140  1.0  0.1769
  N  N219  1  0.731350  0.488670  0.002700  1.0  -0.3574
  N  N220  1  0.819270  0.310310  0.950160  1.0  -0.3382
  N  N221  1  0.511330  0.268650  0.497300  1.0  -0.3606
  N  N222  1  0.689690  0.180730  0.549840  1.0  -0.3374
  N  N223  1  0.268650  0.511330  0.997300  1.0  -0.359
  N  N224  1  0.180730  0.689690  0.049840  1.0  -0.3381
  N  N225  1  0.488670  0.731350  0.502700  1.0  -0.3588
  N  N226  1  0.310310  0.819270  0.450160  1.0  -0.3362
  O  O227  1  0.523850  0.324730  0.053910  1.0  -0.5871
  O  O228  1  0.136450  0.578250  0.443610  1.0  -0.6513
  O  O229  1  0.323410  0.550810  0.428930  1.0  -0.5673
  O  O230  1  0.818380  0.265380  0.452960  1.0  -0.6163
  O  O231  1  0.443260  0.137300  0.052930  1.0  -0.6373
  O  O232  1  0.007720  0.339000  0.455190  1.0  -0.6039
  O  O233  1  0.107780  0.369320  0.213480  1.0  -0.2694
  O  O234  1  0.675270  0.476150  0.446090  1.0  -0.587
  O  O235  1  0.421750  0.863550  0.056390  1.0  -0.6508
  O  O236  1  0.449190  0.676590  0.071070  1.0  -0.5653
  O  O237  1  0.734620  0.181620  0.047040  1.0  -0.6171
  O  O238  1  0.862700  0.556740  0.447070  1.0  -0.6358
  O  O239  1  0.661000  0.992280  0.044810  1.0  -0.6055
  O  O240  1  0.630680  0.892220  0.286520  1.0  -0.2702
  O  O241  1  0.476150  0.675270  0.946090  1.0  -0.5878
  O  O242  1  0.863550  0.421750  0.556390  1.0  -0.6513
  O  O243  1  0.676590  0.449190  0.571070  1.0  -0.5673
  O  O244  1  0.181620  0.734620  0.547040  1.0  -0.6173
  O  O245  1  0.556740  0.862700  0.947070  1.0  -0.6363
  O  O246  1  0.992280  0.661000  0.544810  1.0  -0.6034
  O  O247  1  0.892220  0.630680  0.786520  1.0  -0.268
  O  O248  1  0.324730  0.523850  0.553910  1.0  -0.5864
  O  O249  1  0.578250  0.136450  0.943610  1.0  -0.6512
  O  O250  1  0.550810  0.323410  0.928930  1.0  -0.5654
  O  O251  1  0.265380  0.818380  0.952960  1.0  -0.6172
  O  O252  1  0.137300  0.443260  0.552930  1.0  -0.6367
  O  O253  1  0.339000  0.007720  0.955190  1.0  -0.6057
  O  O254  1  0.369320  0.107780  0.713480  1.0  -0.2697
  O  O255  1  0.976450  0.023550  0.250000  1.0  -0.2683
  O  O256  1  0.023550  0.976450  0.750000  1.0  -0.2646
