# generated using pymatgen
data_KCd3H48C72(NO2)6
_symmetry_space_group_name_H-M   'P 1'
_cell_length_a   18.00700000
_cell_length_b   18.00700000
_cell_length_c   19.28800000
_cell_angle_alpha   90.00000000
_cell_angle_beta   90.00000000
_cell_angle_gamma   120.00000000
_symmetry_Int_Tables_number   1
_chemical_formula_structural   KCd3H48C72(NO2)6
_chemical_formula_sum   'K2 Cd6 H96 C144 N12 O24'
_cell_volume   5416.27314896
_cell_formula_units_Z   2
loop_
 _symmetry_equiv_pos_site_id
 _symmetry_equiv_pos_as_xyz
  1  'x, y, z'
loop_
 _atom_site_type_symbol
 _atom_site_label
 _atom_site_symmetry_multiplicity
 _atom_site_fract_x
 _atom_site_fract_y
 _atom_site_fract_z
 _atom_site_occupancy
 _atom_site_charge
  K  K1  1  0.666667  0.333333  0.250000  1.0  0.9922
  K  K2  1  0.333333  0.666667  0.750000  1.0  0.9917
  Cd  Cd3  1  0.792770  0.585540  0.250000  1.0  0.9718
  Cd  Cd4  1  0.792770  0.207240  0.250000  1.0  0.9726
  Cd  Cd5  1  0.414470  0.207240  0.250000  1.0  0.9722
  Cd  Cd6  1  0.207230  0.414460  0.750000  1.0  0.9709
  Cd  Cd7  1  0.207230  0.792760  0.750000  1.0  0.974
  Cd  Cd8  1  0.585530  0.792760  0.750000  1.0  0.9726
  H  H9  1  0.928900  0.591600  0.462300  1.0  0.0953
  H  H10  1  0.873900  0.404400  0.598800  1.0  0.1059
  H  H11  1  0.777400  0.306200  0.521600  1.0  0.0994
  H  H12  1  0.759700  0.349400  0.413500  1.0  0.093
  H  H13  1  0.059800  0.596300  0.737800  1.0  0.0593
  H  H14  1  0.960700  0.495200  0.667400  1.0  0.1214
  H  H15  1  0.024100  0.674900  0.526300  1.0  0.1233
  H  H16  1  0.124100  0.770300  0.600100  1.0  0.0784
  H  H17  1  0.662700  0.071100  0.462300  1.0  0.0949
  H  H18  1  0.530500  0.126100  0.598800  1.0  0.1038
  H  H19  1  0.528800  0.222600  0.521600  1.0  0.1002
  H  H20  1  0.589700  0.240300  0.413500  1.0  0.0933
  H  H21  1  0.536500  0.940200  0.737800  1.0  0.0586
  H  H22  1  0.534500  0.039300  0.667400  1.0  0.1202
  H  H23  1  0.650800  0.975900  0.526300  1.0  0.1215
  H  H24  1  0.646200  0.875900  0.600100  1.0  0.0792
  H  H25  1  0.408400  0.337300  0.462300  1.0  0.0956
  H  H26  1  0.595600  0.469500  0.598800  1.0  0.1038
  H  H27  1  0.693800  0.471200  0.521600  1.0  0.0999
  H  H28  1  0.650600  0.410300  0.413500  1.0  0.0925
  H  H29  1  0.403700  0.463500  0.737800  1.0  0.0583
  H  H30  1  0.504800  0.465500  0.667400  1.0  0.1193
  H  H31  1  0.325100  0.349200  0.526300  1.0  0.122
  H  H32  1  0.229700  0.353800  0.600100  1.0  0.08
  H  H33  1  0.662700  0.591600  0.037700  1.0  0.0949
  H  H34  1  0.530500  0.404400  0.901200  1.0  0.1045
  H  H35  1  0.528800  0.306200  0.978400  1.0  0.0999
  H  H36  1  0.589700  0.349400  0.086500  1.0  0.0932
  H  H37  1  0.536500  0.596300  0.762200  1.0  0.06
  H  H38  1  0.534500  0.495200  0.832600  1.0  0.1215
  H  H39  1  0.650800  0.674900  0.973700  1.0  0.123
  H  H40  1  0.646200  0.770300  0.899900  1.0  0.0762
  H  H41  1  0.408400  0.071100  0.037700  1.0  0.095
  H  H42  1  0.595600  0.126100  0.901200  1.0  0.1035
  H  H43  1  0.693800  0.222600  0.978400  1.0  0.1007
  H  H44  1  0.650600  0.240300  0.086500  1.0  0.0929
  H  H45  1  0.403700  0.940200  0.762200  1.0  0.0591
  H  H46  1  0.504800  0.039300  0.832600  1.0  0.1204
  H  H47  1  0.325100  0.975900  0.973700  1.0  0.1203
  H  H48  1  0.229700  0.875900  0.899900  1.0  0.0789
  H  H49  1  0.928900  0.337300  0.037700  1.0  0.0952
  H  H50  1  0.873900  0.469500  0.901200  1.0  0.1042
  H  H51  1  0.777400  0.471200  0.978400  1.0  0.1003
  H  H52  1  0.759700  0.410300  0.086500  1.0  0.0924
  H  H53  1  0.059800  0.463500  0.762200  1.0  0.0591
  H  H54  1  0.960700  0.465500  0.832600  1.0  0.1192
  H  H55  1  0.024100  0.349200  0.973700  1.0  0.1224
  H  H56  1  0.124100  0.353800  0.899900  1.0  0.0808
  H  H57  1  0.071100  0.408400  0.537700  1.0  0.0955
  H  H58  1  0.126100  0.595600  0.401200  1.0  0.1045
  H  H59  1  0.222600  0.693800  0.478400  1.0  0.0994
  H  H60  1  0.240300  0.650600  0.586500  1.0  0.0928
  H  H61  1  0.940200  0.403700  0.262200  1.0  0.0599
  H  H62  1  0.039300  0.504800  0.332600  1.0  0.1214
  H  H63  1  0.975900  0.325100  0.473700  1.0  0.1221
  H  H64  1  0.875900  0.229700  0.399900  1.0  0.0779
  H  H65  1  0.337300  0.928900  0.537700  1.0  0.0952
  H  H66  1  0.469500  0.873900  0.401200  1.0  0.1034
  H  H67  1  0.471200  0.777400  0.478400  1.0  0.1007
  H  H68  1  0.410300  0.759700  0.586500  1.0  0.0931
  H  H69  1  0.463500  0.059800  0.262200  1.0  0.0593
  H  H70  1  0.465500  0.960700  0.332600  1.0  0.12
  H  H71  1  0.349200  0.024100  0.473700  1.0  0.1203
  H  H72  1  0.353800  0.124100  0.399900  1.0  0.0796
  H  H73  1  0.591600  0.662700  0.537700  1.0  0.0947
  H  H74  1  0.404400  0.530500  0.401200  1.0  0.104
  H  H75  1  0.306200  0.528800  0.478400  1.0  0.1002
  H  H76  1  0.349400  0.589700  0.586500  1.0  0.0925
  H  H77  1  0.596300  0.536500  0.262200  1.0  0.0589
  H  H78  1  0.495200  0.534500  0.332600  1.0  0.1194
  H  H79  1  0.674900  0.650800  0.473700  1.0  0.1231
  H  H80  1  0.770300  0.646200  0.399900  1.0  0.08
  H  H81  1  0.337300  0.408400  0.962300  1.0  0.0955
  H  H82  1  0.469500  0.595600  0.098800  1.0  0.105
  H  H83  1  0.471200  0.693800  0.021600  1.0  0.0985
  H  H84  1  0.410300  0.650600  0.913500  1.0  0.0933
  H  H85  1  0.463500  0.403700  0.237800  1.0  0.0592
  H  H86  1  0.465500  0.504800  0.167400  1.0  0.1213
  H  H87  1  0.349200  0.325100  0.026300  1.0  0.1223
  H  H88  1  0.353800  0.229700  0.100100  1.0  0.0779
  H  H89  1  0.591600  0.928900  0.962300  1.0  0.0955
  H  H90  1  0.404400  0.873900  0.098800  1.0  0.1041
  H  H91  1  0.306200  0.777400  0.021600  1.0  0.0999
  H  H92  1  0.349400  0.759700  0.913500  1.0  0.0929
  H  H93  1  0.596300  0.059800  0.237800  1.0  0.0589
  H  H94  1  0.495200  0.960700  0.167400  1.0  0.12
  H  H95  1  0.674900  0.024100  0.026300  1.0  0.1215
  H  H96  1  0.770300  0.124100  0.100100  1.0  0.0799
  H  H97  1  0.071100  0.662700  0.962300  1.0  0.0956
  H  H98  1  0.126100  0.530500  0.098800  1.0  0.1032
  H  H99  1  0.222600  0.528800  0.021600  1.0  0.1001
  H  H100  1  0.240300  0.589700  0.913500  1.0  0.0924
  H  H101  1  0.940200  0.536500  0.237800  1.0  0.0581
  H  H102  1  0.039300  0.534500  0.167400  1.0  0.1189
  H  H103  1  0.975900  0.650800  0.026300  1.0  0.1234
  H  H104  1  0.875900  0.646200  0.100100  1.0  0.0808
  C  C105  1  0.840600  0.474800  0.428000  1.0  -0.1369
  C  C106  1  0.898600  0.533900  0.474600  1.0  -0.0684
  C  C107  1  0.912400  0.508900  0.539200  1.0  -0.0287
  C  C108  1  0.866100  0.422800  0.555800  1.0  -0.0985
  C  C109  1  0.808600  0.363900  0.509400  1.0  -0.1029
  C  C110  1  0.797100  0.389700  0.445200  1.0  -0.0343
  C  C111  1  0.825600  0.505400  0.359200  1.0  0.6699
  C  C112  1  0.052700  0.613300  0.693900  1.0  0.1899
  C  C113  1  0.991900  0.551700  0.652000  1.0  -0.2208
  C  C114  1  0.976800  0.572900  0.587500  1.0  0.1233
  C  C115  1  0.029300  0.656300  0.570100  1.0  -0.2139
  C  C116  1  0.089800  0.714100  0.614900  1.0  0.1626
  C  C117  1  0.634200  0.159400  0.428000  1.0  -0.1373
  C  C118  1  0.635300  0.101400  0.474600  1.0  -0.0655
  C  C119  1  0.596500  0.087600  0.539200  1.0  -0.0299
  C  C120  1  0.556700  0.133900  0.555800  1.0  -0.0967
  C  C121  1  0.555300  0.191400  0.509400  1.0  -0.1059
  C  C122  1  0.592600  0.202900  0.445200  1.0  -0.0338
  C  C123  1  0.679800  0.174400  0.359200  1.0  0.6694
  C  C124  1  0.560600  0.947300  0.693900  1.0  0.1904
  C  C125  1  0.559800  0.008100  0.652000  1.0  -0.2232
  C  C126  1  0.596100  0.023200  0.587500  1.0  0.1228
  C  C127  1  0.627000  0.970700  0.570100  1.0  -0.2083
  C  C128  1  0.624300  0.910200  0.614900  1.0  0.1633
  C  C129  1  0.525200  0.365800  0.428000  1.0  -0.1395
  C  C130  1  0.466100  0.364700  0.474600  1.0  -0.0685
  C  C131  1  0.491100  0.403500  0.539200  1.0  -0.0249
  C  C132  1  0.577200  0.443300  0.555800  1.0  -0.0977
  C  C133  1  0.636100  0.444700  0.509400  1.0  -0.1055
  C  C134  1  0.610300  0.407400  0.445200  1.0  -0.0329
  C  C135  1  0.494600  0.320200  0.359200  1.0  0.6704
  C  C136  1  0.386700  0.439400  0.693900  1.0  0.1886
  C  C137  1  0.448300  0.440200  0.652000  1.0  -0.2204
  C  C138  1  0.427100  0.403900  0.587500  1.0  0.1237
  C  C139  1  0.343700  0.373000  0.570100  1.0  -0.2156
  C  C140  1  0.285900  0.375700  0.614900  1.0  0.165
  C  C141  1  0.634200  0.474800  0.072000  1.0  -0.1372
  C  C142  1  0.635300  0.533900  0.025400  1.0  -0.0688
  C  C143  1  0.596500  0.508900  0.960800  1.0  -0.0287
  C  C144  1  0.556700  0.422800  0.944200  1.0  -0.0985
  C  C145  1  0.555300  0.363900  0.990600  1.0  -0.103
  C  C146  1  0.592600  0.389700  0.054800  1.0  -0.0346
  C  C147  1  0.679800  0.505400  0.140800  1.0  0.67
  C  C148  1  0.560600  0.613300  0.806100  1.0  0.1911
  C  C149  1  0.559800  0.551700  0.848000  1.0  -0.2209
  C  C150  1  0.596100  0.572900  0.912500  1.0  0.1225
  C  C151  1  0.627000  0.656300  0.929900  1.0  -0.2135
  C  C152  1  0.624300  0.714100  0.885100  1.0  0.163
  C  C153  1  0.525200  0.159400  0.072000  1.0  -0.1377
  C  C154  1  0.466100  0.101400  0.025400  1.0  -0.0642
  C  C155  1  0.491100  0.087600  0.960800  1.0  -0.0299
  C  C156  1  0.577200  0.133900  0.944200  1.0  -0.0965
  C  C157  1  0.636100  0.191400  0.990600  1.0  -0.1043
  C  C158  1  0.610300  0.202900  0.054800  1.0  -0.0352
  C  C159  1  0.494600  0.174400  0.140800  1.0  0.6704
  C  C160  1  0.386700  0.947300  0.806100  1.0  0.1887
  C  C161  1  0.448300  0.008100  0.848000  1.0  -0.2236
  C  C162  1  0.427100  0.023200  0.912500  1.0  0.1243
  C  C163  1  0.343700  0.970700  0.929900  1.0  -0.2094
  C  C164  1  0.285900  0.910200  0.885100  1.0  0.1642
  C  C165  1  0.840600  0.365800  0.072000  1.0  -0.1382
  C  C166  1  0.898600  0.364700  0.025400  1.0  -0.0693
  C  C167  1  0.912400  0.403500  0.960800  1.0  -0.0256
  C  C168  1  0.866100  0.443300  0.944200  1.0  -0.0952
  C  C169  1  0.808600  0.444700  0.990600  1.0  -0.1061
  C  C170  1  0.797100  0.407400  0.054800  1.0  -0.0337
  C  C171  1  0.825600  0.320200  0.140800  1.0  0.671
  C  C172  1  0.052700  0.439400  0.806100  1.0  0.1882
  C  C173  1  0.991900  0.440200  0.848000  1.0  -0.2213
  C  C174  1  0.976800  0.403900  0.912500  1.0  0.1231
  C  C175  1  0.029300  0.373000  0.929900  1.0  -0.2154
  C  C176  1  0.089800  0.375700  0.885100  1.0  0.1644
  C  C177  1  0.159400  0.525200  0.572000  1.0  -0.1366
  C  C178  1  0.101400  0.466100  0.525400  1.0  -0.068
  C  C179  1  0.087600  0.491100  0.460800  1.0  -0.0293
  C  C180  1  0.133900  0.577200  0.444200  1.0  -0.0987
  C  C181  1  0.191400  0.636100  0.490600  1.0  -0.1025
  C  C182  1  0.202900  0.610300  0.554800  1.0  -0.035
  C  C183  1  0.174400  0.494600  0.640800  1.0  0.67
  C  C184  1  0.947300  0.386700  0.306100  1.0  0.1906
  C  C185  1  0.008100  0.448300  0.348000  1.0  -0.2204
  C  C186  1  0.023200  0.427100  0.412500  1.0  0.1221
  C  C187  1  0.970700  0.343700  0.429900  1.0  -0.2127
  C  C188  1  0.910200  0.285900  0.385100  1.0  0.1634
  C  C189  1  0.365800  0.840600  0.572000  1.0  -0.1377
  C  C190  1  0.364700  0.898600  0.525400  1.0  -0.0641
  C  C191  1  0.403500  0.912400  0.460800  1.0  -0.0294
  C  C192  1  0.443300  0.866100  0.444200  1.0  -0.0977
  C  C193  1  0.444700  0.808600  0.490600  1.0  -0.1041
  C  C194  1  0.407400  0.797100  0.554800  1.0  -0.0344
  C  C195  1  0.320200  0.825600  0.640800  1.0  0.67
  C  C196  1  0.439400  0.052700  0.306100  1.0  0.1891
  C  C197  1  0.440200  0.991900  0.348000  1.0  -0.2233
  C  C198  1  0.403900  0.976800  0.412500  1.0  0.1238
  C  C199  1  0.373000  0.029300  0.429900  1.0  -0.2096
  C  C200  1  0.375700  0.089800  0.385100  1.0  0.164
  C  C201  1  0.474800  0.634200  0.572000  1.0  -0.1385
  C  C202  1  0.533900  0.635300  0.525400  1.0  -0.0694
  C  C203  1  0.508900  0.596500  0.460800  1.0  -0.0255
  C  C204  1  0.422800  0.556700  0.444200  1.0  -0.0949
  C  C205  1  0.363900  0.555300  0.490600  1.0  -0.1058
  C  C206  1  0.389700  0.592600  0.554800  1.0  -0.0338
  C  C207  1  0.505400  0.679800  0.640800  1.0  0.6708
  C  C208  1  0.613300  0.560600  0.306100  1.0  0.1875
  C  C209  1  0.551700  0.559800  0.348000  1.0  -0.2218
  C  C210  1  0.572900  0.596100  0.412500  1.0  0.1232
  C  C211  1  0.656300  0.627000  0.429900  1.0  -0.2146
  C  C212  1  0.714100  0.624300  0.385100  1.0  0.1626
  C  C213  1  0.365800  0.525200  0.928000  1.0  -0.137
  C  C214  1  0.364700  0.466100  0.974600  1.0  -0.0678
  C  C215  1  0.403500  0.491100  0.039200  1.0  -0.028
  C  C216  1  0.443300  0.577200  0.055800  1.0  -0.0998
  C  C217  1  0.444700  0.636100  0.009400  1.0  -0.1023
  C  C218  1  0.407400  0.610300  0.945200  1.0  -0.0343
  C  C219  1  0.320200  0.494600  0.859200  1.0  0.6699
  C  C220  1  0.439400  0.386700  0.193900  1.0  0.1904
  C  C221  1  0.440200  0.448300  0.152000  1.0  -0.221
  C  C222  1  0.403900  0.427100  0.087500  1.0  0.1224
  C  C223  1  0.373000  0.343700  0.070100  1.0  -0.2145
  C  C224  1  0.375700  0.285900  0.114900  1.0  0.162
  C  C225  1  0.474800  0.840600  0.928000  1.0  -0.1372
  C  C226  1  0.533900  0.898600  0.974600  1.0  -0.0655
  C  C227  1  0.508900  0.912400  0.039200  1.0  -0.0298
  C  C228  1  0.422800  0.866100  0.055800  1.0  -0.0963
  C  C229  1  0.363900  0.808600  0.009400  1.0  -0.1056
  C  C230  1  0.389700  0.797100  0.945200  1.0  -0.0333
  C  C231  1  0.505400  0.825600  0.859200  1.0  0.6696
  C  C232  1  0.613300  0.052700  0.193900  1.0  0.1911
  C  C233  1  0.551700  0.991900  0.152000  1.0  -0.2227
  C  C234  1  0.572900  0.976800  0.087500  1.0  0.1223
  C  C235  1  0.656300  0.029300  0.070100  1.0  -0.2088
  C  C236  1  0.714100  0.089800  0.114900  1.0  0.1634
  C  C237  1  0.159400  0.634200  0.928000  1.0  -0.1387
  C  C238  1  0.101400  0.635300  0.974600  1.0  -0.0692
  C  C239  1  0.087600  0.596500  0.039200  1.0  -0.0255
  C  C240  1  0.133900  0.556700  0.055800  1.0  -0.0976
  C  C241  1  0.191400  0.555300  0.009400  1.0  -0.1048
  C  C242  1  0.202900  0.592600  0.945200  1.0  -0.033
  C  C243  1  0.174400  0.679800  0.859200  1.0  0.6709
  C  C244  1  0.947300  0.560600  0.193900  1.0  0.1877
  C  C245  1  0.008100  0.559800  0.152000  1.0  -0.2207
  C  C246  1  0.023200  0.596100  0.087500  1.0  0.1235
  C  C247  1  0.970700  0.627000  0.070100  1.0  -0.2147
  C  C248  1  0.910200  0.624300  0.114900  1.0  0.1628
  N  N249  1  0.101600  0.693700  0.677800  1.0  -0.3687
  N  N250  1  0.592100  0.898400  0.677800  1.0  -0.3638
  N  N251  1  0.306300  0.407900  0.677800  1.0  -0.3711
  N  N252  1  0.592100  0.693700  0.822200  1.0  -0.3709
  N  N253  1  0.306300  0.898400  0.822200  1.0  -0.3679
  N  N254  1  0.101600  0.407900  0.822200  1.0  -0.3701
  N  N255  1  0.898400  0.306300  0.322200  1.0  -0.3698
  N  N256  1  0.407900  0.101600  0.322200  1.0  -0.3671
  N  N257  1  0.693700  0.592100  0.322200  1.0  -0.3718
  N  N258  1  0.407900  0.306300  0.177800  1.0  -0.3677
  N  N259  1  0.693700  0.101600  0.177800  1.0  -0.3652
  N  N260  1  0.898400  0.592100  0.177800  1.0  -0.3694
  O  O261  1  0.866800  0.584000  0.347170  1.0  -0.6284
  O  O262  1  0.772900  0.452700  0.317810  1.0  -0.6697
  O  O263  1  0.717200  0.133200  0.347170  1.0  -0.6277
  O  O264  1  0.679800  0.227100  0.317810  1.0  -0.6711
  O  O265  1  0.416000  0.282800  0.347170  1.0  -0.6296
  O  O266  1  0.547300  0.320200  0.317810  1.0  -0.6681
  O  O267  1  0.717200  0.584000  0.152830  1.0  -0.6279
  O  O268  1  0.679800  0.452700  0.182190  1.0  -0.6702
  O  O269  1  0.416000  0.133200  0.152830  1.0  -0.6293
  O  O270  1  0.547300  0.227100  0.182190  1.0  -0.6731
  O  O271  1  0.866800  0.282800  0.152830  1.0  -0.6278
  O  O272  1  0.772900  0.320200  0.182190  1.0  -0.6701
  O  O273  1  0.133200  0.416000  0.652830  1.0  -0.6271
  O  O274  1  0.227100  0.547300  0.682190  1.0  -0.6707
  O  O275  1  0.282800  0.866800  0.652830  1.0  -0.629
  O  O276  1  0.320200  0.772900  0.682190  1.0  -0.6725
  O  O277  1  0.584000  0.717200  0.652830  1.0  -0.6276
  O  O278  1  0.452700  0.679800  0.682190  1.0  -0.6703
  O  O279  1  0.282800  0.416000  0.847170  1.0  -0.6272
  O  O280  1  0.320200  0.547300  0.817810  1.0  -0.6697
  O  O281  1  0.584000  0.866800  0.847170  1.0  -0.6271
  O  O282  1  0.452700  0.772900  0.817810  1.0  -0.6717
  O  O283  1  0.133200  0.717200  0.847170  1.0  -0.6301
  O  O284  1  0.227100  0.679800  0.817810  1.0  -0.668
