# generated using pymatgen
data_NiH13C21N7O4
_symmetry_space_group_name_H-M   'P 1'
_cell_length_a   11.14400000
_cell_length_b   15.23920000
_cell_length_c   16.69500000
_cell_angle_alpha   114.41900000
_cell_angle_beta   90.00000000
_cell_angle_gamma   111.44700000
_symmetry_Int_Tables_number   1
_chemical_formula_structural   NiH13C21N7O4
_chemical_formula_sum   'Ni4 H52 C84 N28 O16'
_cell_volume   2364.32806486
_cell_formula_units_Z   4
loop_
 _symmetry_equiv_pos_site_id
 _symmetry_equiv_pos_as_xyz
  1  'x, y, z'
loop_
 _atom_site_type_symbol
 _atom_site_label
 _atom_site_symmetry_multiplicity
 _atom_site_fract_x
 _atom_site_fract_y
 _atom_site_fract_z
 _atom_site_occupancy
 _atom_site_charge
  Ni  Ni1  1  0.000000  0.500000  0.000000  1.0  0.712
  Ni  Ni2  1  0.500000  0.500000  0.500000  1.0  0.712
  Ni  Ni3  1  0.500000  0.500000  0.000000  1.0  0.89
  Ni  Ni4  1  0.000000  0.500000  0.500000  1.0  0.89
  H  H5  1  0.205900  0.329800  0.630000  1.0  0.1258
  H  H6  1  0.042900  0.570800  0.820100  1.0  0.1092
  H  H7  1  0.062900  0.304400  0.894700  1.0  0.0926
  H  H8  1  0.714200  0.328000  0.882400  1.0  0.075
  H  H9  1  0.573100  0.158000  0.842200  1.0  0.1261
  H  H10  1  0.815000  0.146200  0.010900  1.0  0.126
  H  H11  1  0.947100  0.316800  0.047100  1.0  0.0676
  H  H12  1  0.684200  0.867400  0.020200  1.0  0.1316
  H  H13  1  0.671600  0.732400  0.053100  1.0  0.0859
  H  H14  1  0.351700  0.540200  0.876000  1.0  0.0754
  H  H15  1  0.354400  0.669400  0.839000  1.0  0.1122
  H  H16  1  0.344300  0.828600  0.824300  1.0  0.3097
  H  H17  1  0.135200  0.245600  0.759300  1.0  0.3466
  H  H18  1  0.876100  0.670200  0.870000  1.0  0.1252
  H  H19  1  0.472100  0.429200  0.679900  1.0  0.1091
  H  H20  1  0.758500  0.695600  0.605300  1.0  0.092
  H  H21  1  0.386200  0.672000  0.617600  1.0  0.0758
  H  H22  1  0.415100  0.842000  0.657800  1.0  0.1269
  H  H23  1  0.668800  0.853800  0.489100  1.0  0.1266
  H  H24  1  0.630300  0.683200  0.452900  1.0  0.0673
  H  H25  1  0.816800  0.132600  0.479800  1.0  0.1321
  H  H26  1  0.939200  0.267600  0.446900  1.0  0.0855
  H  H27  1  0.811500  0.459800  0.624000  1.0  0.0754
  H  H28  1  0.685000  0.330600  0.661000  1.0  0.1123
  H  H29  1  0.515700  0.171400  0.675700  1.0  0.3099
  H  H30  1  0.889600  0.754400  0.740700  1.0  0.3486
  H  H31  1  0.794100  0.670200  0.370000  1.0  0.1252
  H  H32  1  0.957100  0.429200  0.179900  1.0  0.1092
  H  H33  1  0.937100  0.695600  0.105300  1.0  0.092
  H  H34  1  0.285800  0.672000  0.117600  1.0  0.0738
  H  H35  1  0.426900  0.842000  0.157800  1.0  0.1271
  H  H36  1  0.185000  0.853800  0.989100  1.0  0.1269
  H  H37  1  0.052900  0.683200  0.952900  1.0  0.0674
  H  H38  1  0.315800  0.132600  0.979800  1.0  0.1317
  H  H39  1  0.328400  0.267600  0.946900  1.0  0.0854
  H  H40  1  0.648300  0.459800  0.124000  1.0  0.0751
  H  H41  1  0.645600  0.330600  0.161000  1.0  0.1124
  H  H42  1  0.655700  0.171400  0.175700  1.0  0.3101
  H  H43  1  0.864800  0.754400  0.240700  1.0  0.349
  H  H44  1  0.123900  0.329800  0.130000  1.0  0.1256
  H  H45  1  0.527900  0.570800  0.320100  1.0  0.1091
  H  H46  1  0.241500  0.304400  0.394700  1.0  0.0932
  H  H47  1  0.613800  0.328000  0.382400  1.0  0.0732
  H  H48  1  0.584900  0.158000  0.342200  1.0  0.1269
  H  H49  1  0.331200  0.146200  0.510900  1.0  0.1274
  H  H50  1  0.369700  0.316800  0.547100  1.0  0.0675
  H  H51  1  0.183200  0.867400  0.520200  1.0  0.132
  H  H52  1  0.060800  0.732400  0.553100  1.0  0.0856
  H  H53  1  0.188500  0.540200  0.376000  1.0  0.0738
  H  H54  1  0.315000  0.669400  0.339000  1.0  0.1123
  H  H55  1  0.484300  0.828600  0.324300  1.0  0.3084
  H  H56  1  0.110400  0.245600  0.259300  1.0  0.3495
  C  C57  1  0.233600  0.470600  0.571700  1.0  0.6438
  C  C58  1  0.171100  0.459000  0.650000  1.0  -0.0925
  C  C59  1  0.122800  0.532600  0.707700  1.0  -0.1076
  C  C60  1  0.121700  0.626800  0.697000  1.0  0.6867
  C  C61  1  0.173200  0.377400  0.667200  1.0  -0.14
  C  C62  1  0.124100  0.369200  0.742700  1.0  0.1109
  C  C63  1  0.079000  0.442800  0.801300  1.0  0.156
  C  C64  1  0.075900  0.523600  0.782800  1.0  -0.1278
  C  C65  1  0.074500  0.336400  0.856600  1.0  0.2511
  C  C66  1  0.735100  0.291400  0.909100  1.0  0.1616
  C  C67  1  0.648800  0.188400  0.884300  1.0  -0.1536
  C  C68  1  0.676200  0.130800  0.922900  1.0  0.0314
  C  C69  1  0.791200  0.181400  0.983900  1.0  -0.1756
  C  C70  1  0.871100  0.284800  0.004900  1.0  0.145
  C  C71  1  0.590900  0.020800  0.901600  1.0  0.3298
  C  C72  1  0.529300  0.873000  0.904900  1.0  0.2978
  C  C73  1  0.521000  0.783200  0.924100  1.0  0.0128
  C  C74  1  0.616000  0.801400  0.989900  1.0  -0.1517
  C  C75  1  0.607100  0.719600  0.009500  1.0  0.1683
  C  C76  1  0.419100  0.606800  0.905500  1.0  0.1822
  C  C77  1  0.420400  0.683800  0.882400  1.0  -0.1557
  C  C78  1  0.763000  0.529400  0.928300  1.0  0.6437
  C  C79  1  0.712100  0.541000  0.850000  1.0  -0.0922
  C  C80  1  0.590200  0.467400  0.792300  1.0  -0.1076
  C  C81  1  0.494900  0.373200  0.803000  1.0  0.6874
  C  C82  1  0.795800  0.622600  0.832800  1.0  -0.1404
  C  C83  1  0.754900  0.630800  0.757300  1.0  0.1088
  C  C84  1  0.636200  0.557200  0.698700  1.0  0.1557
  C  C85  1  0.552300  0.476400  0.717200  1.0  -0.1273
  C  C86  1  0.738100  0.663600  0.643400  1.0  0.251
  C  C87  1  0.443700  0.708600  0.590900  1.0  0.1628
  C  C88  1  0.460400  0.811600  0.615700  1.0  -0.1536
  C  C89  1  0.545400  0.869200  0.577100  1.0  0.032
  C  C90  1  0.609800  0.818600  0.516100  1.0  -0.173
  C  C91  1  0.586300  0.715200  0.495100  1.0  0.1469
  C  C92  1  0.570100  0.979200  0.598400  1.0  0.3306
  C  C93  1  0.656300  0.127000  0.595100  1.0  0.2995
  C  C94  1  0.737800  0.216800  0.575900  1.0  0.0017
  C  C95  1  0.814600  0.198600  0.510100  1.0  -0.1556
  C  C96  1  0.887500  0.280400  0.490500  1.0  0.1686
  C  C97  1  0.812300  0.393200  0.594500  1.0  0.1836
  C  C98  1  0.736600  0.316200  0.617600  1.0  -0.1568
  C  C99  1  0.766400  0.529400  0.428300  1.0  0.6439
  C  C100  1  0.828900  0.541000  0.350000  1.0  -0.092
  C  C101  1  0.877200  0.467400  0.292300  1.0  -0.1076
  C  C102  1  0.878300  0.373200  0.303000  1.0  0.6875
  C  C103  1  0.826800  0.622600  0.332800  1.0  -0.1411
  C  C104  1  0.875900  0.630800  0.257300  1.0  0.1092
  C  C105  1  0.921000  0.557200  0.198700  1.0  0.1557
  C  C106  1  0.924100  0.476400  0.217200  1.0  -0.1276
  C  C107  1  0.925500  0.663600  0.143400  1.0  0.2476
  C  C108  1  0.264900  0.708600  0.090900  1.0  0.1632
  C  C109  1  0.351200  0.811600  0.115700  1.0  -0.1546
  C  C110  1  0.323800  0.869200  0.077100  1.0  0.0312
  C  C111  1  0.208800  0.818600  0.016100  1.0  -0.1719
  C  C112  1  0.128900  0.715200  0.995100  1.0  0.147
  C  C113  1  0.409100  0.979200  0.098400  1.0  0.3318
  C  C114  1  0.470700  0.127000  0.095100  1.0  0.2988
  C  C115  1  0.479000  0.216800  0.075900  1.0  0.0031
  C  C116  1  0.384000  0.198600  0.010100  1.0  -0.1599
  C  C117  1  0.392900  0.280400  0.990500  1.0  0.1681
  C  C118  1  0.580900  0.393200  0.094500  1.0  0.1795
  C  C119  1  0.579600  0.316200  0.117600  1.0  -0.1585
  C  C120  1  0.237000  0.470600  0.071700  1.0  0.644
  C  C121  1  0.287900  0.459000  0.150000  1.0  -0.0922
  C  C122  1  0.409800  0.532600  0.207700  1.0  -0.1078
  C  C123  1  0.505100  0.626800  0.197000  1.0  0.6869
  C  C124  1  0.204200  0.377400  0.167200  1.0  -0.1399
  C  C125  1  0.245100  0.369200  0.242700  1.0  0.1108
  C  C126  1  0.363800  0.442800  0.301300  1.0  0.1558
  C  C127  1  0.447700  0.523600  0.282800  1.0  -0.127
  C  C128  1  0.261900  0.336400  0.356600  1.0  0.2525
  C  C129  1  0.556300  0.291400  0.409100  1.0  0.1621
  C  C130  1  0.539600  0.188400  0.384300  1.0  -0.1529
  C  C131  1  0.454600  0.130800  0.422900  1.0  0.0312
  C  C132  1  0.390200  0.181400  0.483900  1.0  -0.178
  C  C133  1  0.413700  0.284800  0.504900  1.0  0.1475
  C  C134  1  0.429900  0.020800  0.401600  1.0  0.3318
  C  C135  1  0.343700  0.873000  0.404900  1.0  0.2974
  C  C136  1  0.262200  0.783200  0.424100  1.0  0.0128
  C  C137  1  0.185400  0.801400  0.489900  1.0  -0.1523
  C  C138  1  0.112500  0.719600  0.509500  1.0  0.1684
  C  C139  1  0.187700  0.606800  0.405500  1.0  0.1789
  C  C140  1  0.263400  0.683800  0.382400  1.0  -0.1572
  N  N141  1  0.847300  0.342400  0.969100  1.0  -0.3159
  N  N142  1  0.630300  0.966800  0.938100  1.0  -0.4941
  N  N143  1  0.472300  0.965400  0.850000  1.0  -0.3516
  N  N144  1  0.432000  0.869000  0.852100  1.0  -0.1069
  N  N145  1  0.510400  0.623000  0.968800  1.0  -0.3223
  N  N146  1  0.118500  0.300400  0.778500  1.0  -0.3039
  N  N147  1  0.049000  0.421400  0.874600  1.0  -0.3904
  N  N148  1  0.504900  0.657600  0.530900  1.0  -0.3128
  N  N149  1  0.663500  0.033200  0.561900  1.0  -0.5002
  N  N150  1  0.506900  0.034600  0.650000  1.0  -0.3403
  N  N151  1  0.563000  0.131000  0.647900  1.0  -0.1063
  N  N152  1  0.887400  0.377000  0.531200  1.0  -0.3241
  N  N153  1  0.818100  0.699600  0.721500  1.0  -0.2992
  N  N154  1  0.627600  0.578600  0.625400  1.0  -0.3958
  N  N155  1  0.152700  0.657600  0.030900  1.0  -0.3115
  N  N156  1  0.369700  0.033200  0.061900  1.0  -0.4975
  N  N157  1  0.527700  0.034600  0.150000  1.0  -0.3413
  N  N158  1  0.568000  0.131000  0.147900  1.0  -0.1086
  N  N159  1  0.489600  0.377000  0.031200  1.0  -0.324
  N  N160  1  0.881500  0.699600  0.221500  1.0  -0.3011
  N  N161  1  0.951000  0.578600  0.125400  1.0  -0.3891
  N  N162  1  0.495100  0.342400  0.469100  1.0  -0.3147
  N  N163  1  0.336500  0.966800  0.438100  1.0  -0.4957
  N  N164  1  0.493100  0.965400  0.350000  1.0  -0.3495
  N  N165  1  0.437000  0.869000  0.352100  1.0  -0.1099
  N  N166  1  0.112600  0.623000  0.468800  1.0  -0.3234
  N  N167  1  0.181900  0.300400  0.278500  1.0  -0.3022
  N  N168  1  0.372400  0.421400  0.374600  1.0  -0.3885
  O  O169  1  0.346150  0.469700  0.569600  1.0  -0.5455
  O  O170  1  0.171320  0.479440  0.513600  1.0  -0.5767
  O  O171  1  0.049570  0.613140  0.631300  1.0  -0.6031
  O  O172  1  0.190400  0.716200  0.758700  1.0  -0.6455
  O  O173  1  0.876450  0.530300  0.930400  1.0  -0.5451
  O  O174  1  0.691880  0.520560  0.986400  1.0  -0.5779
  O  O175  1  0.436430  0.386860  0.868700  1.0  -0.6043
  O  O176  1  0.474200  0.283800  0.741300  1.0  -0.645
  O  O177  1  0.653850  0.530300  0.430400  1.0  -0.5465
  O  O178  1  0.828680  0.520560  0.486400  1.0  -0.5775
  O  O179  1  0.950430  0.386860  0.368700  1.0  -0.6051
  O  O180  1  0.809600  0.283800  0.241300  1.0  -0.6452
  O  O181  1  0.123550  0.469700  0.069600  1.0  -0.546
  O  O182  1  0.308120  0.479440  0.013600  1.0  -0.5759
  O  O183  1  0.563570  0.613140  0.131300  1.0  -0.6034
  O  O184  1  0.525800  0.716200  0.258700  1.0  -0.6451
