# generated using pymatgen
data_CaZnH8(C2O)8
_symmetry_space_group_name_H-M   'P 1'
_cell_length_a   10.31100000
_cell_length_b   14.36660000
_cell_length_c   18.40140000
_cell_angle_alpha   90.00000000
_cell_angle_beta   90.00000000
_cell_angle_gamma   99.82500000
_symmetry_Int_Tables_number   1
_chemical_formula_structural   CaZnH8(C2O)8
_chemical_formula_sum   'Ca4 Zn4 H32 C64 O32'
_cell_volume   2685.89430014
_cell_formula_units_Z   4
loop_
 _symmetry_equiv_pos_site_id
 _symmetry_equiv_pos_as_xyz
  1  'x, y, z'
loop_
 _atom_site_type_symbol
 _atom_site_label
 _atom_site_symmetry_multiplicity
 _atom_site_fract_x
 _atom_site_fract_y
 _atom_site_fract_z
 _atom_site_occupancy
 _atom_site_charge
  Ca  Ca1  1  0.623670  0.821100  0.308150  1.0  1.6618
  Ca  Ca2  1  0.876330  0.678900  0.808150  1.0  1.6609
  Ca  Ca3  1  0.376330  0.178900  0.691850  1.0  1.6611
  Ca  Ca4  1  0.123670  0.321100  0.191850  1.0  1.6623
  Zn  Zn5  1  0.707410  0.053020  0.186170  1.0  1.0583
  Zn  Zn6  1  0.792590  0.446980  0.686170  1.0  1.053
  Zn  Zn7  1  0.292590  0.946980  0.813830  1.0  1.0591
  Zn  Zn8  1  0.207410  0.553020  0.313830  1.0  1.0535
  H  H9  1  0.603300  0.012900  0.474000  1.0  0.0941
  H  H10  1  0.591700  0.101200  0.577500  1.0  0.0987
  H  H11  1  0.755900  0.332800  0.470300  1.0  0.1013
  H  H12  1  0.752400  0.246200  0.364700  1.0  0.0876
  H  H13  1  0.054900  0.827600  0.280400  1.0  0.1052
  H  H14  1  0.277400  0.828400  0.268000  1.0  0.1012
  H  H15  1  0.297000  0.036500  0.121800  1.0  0.1084
  H  H16  1  0.073200  0.031600  0.131300  1.0  0.1068
  H  H17  1  0.896700  0.487100  0.974000  1.0  0.0943
  H  H18  1  0.908300  0.398800  0.077500  1.0  0.0986
  H  H19  1  0.744100  0.167200  0.970300  1.0  0.1015
  H  H20  1  0.747600  0.253800  0.864700  1.0  0.0879
  H  H21  1  0.445100  0.672400  0.780400  1.0  0.105
  H  H22  1  0.222600  0.671600  0.768000  1.0  0.1002
  H  H23  1  0.203000  0.463500  0.621800  1.0  0.1078
  H  H24  1  0.426800  0.468400  0.631300  1.0  0.1068
  H  H25  1  0.396700  0.987100  0.526000  1.0  0.0941
  H  H26  1  0.408300  0.898800  0.422500  1.0  0.0994
  H  H27  1  0.244100  0.667200  0.529700  1.0  0.101
  H  H28  1  0.247600  0.753800  0.635300  1.0  0.0877
  H  H29  1  0.945100  0.172400  0.719600  1.0  0.105
  H  H30  1  0.722600  0.171600  0.732000  1.0  0.1001
  H  H31  1  0.703000  0.963500  0.878200  1.0  0.1081
  H  H32  1  0.926800  0.968400  0.868700  1.0  0.1067
  H  H33  1  0.103300  0.512900  0.026000  1.0  0.0939
  H  H34  1  0.091700  0.601200  0.922500  1.0  0.0991
  H  H35  1  0.255900  0.832800  0.029700  1.0  0.1011
  H  H36  1  0.252400  0.746200  0.135300  1.0  0.0874
  H  H37  1  0.554900  0.327600  0.219600  1.0  0.1043
  H  H38  1  0.777400  0.328400  0.232000  1.0  0.1008
  H  H39  1  0.797000  0.536500  0.378200  1.0  0.108
  H  H40  1  0.573200  0.531600  0.368700  1.0  0.1067
  C  C41  1  0.675600  0.120700  0.408000  1.0  -0.1593
  C  C42  1  0.630700  0.078000  0.472500  1.0  -0.0563
  C  C43  1  0.625900  0.130700  0.535000  1.0  -0.0906
  C  C44  1  0.671500  0.226600  0.534800  1.0  -0.1394
  C  C45  1  0.721600  0.268600  0.470900  1.0  -0.0588
  C  C46  1  0.721400  0.216400  0.407700  1.0  -0.0287
  C  C47  1  0.670900  0.063000  0.340200  1.0  0.7553
  C  C48  1  0.667700  0.283200  0.603200  1.0  0.7538
  C  C49  1  0.041800  0.930100  0.207900  1.0  -0.1358
  C  C50  1  0.103700  0.869500  0.248100  1.0  -0.0522
  C  C51  1  0.237200  0.870300  0.241000  1.0  -0.0475
  C  C52  1  0.311100  0.933000  0.194000  1.0  -0.1305
  C  C53  1  0.248200  0.993800  0.153500  1.0  -0.0611
  C  C54  1  0.114400  0.991700  0.159600  1.0  -0.0769
  C  C55  1  0.895900  0.931000  0.216600  1.0  0.7552
  C  C56  1  0.457200  0.937100  0.189200  1.0  0.7499
  C  C57  1  0.824400  0.379300  0.908000  1.0  -0.1592
  C  C58  1  0.869300  0.422000  0.972500  1.0  -0.0575
  C  C59  1  0.874100  0.369300  0.035000  1.0  -0.0913
  C  C60  1  0.828500  0.273400  0.034800  1.0  -0.1399
  C  C61  1  0.778400  0.231400  0.970900  1.0  -0.06
  C  C62  1  0.778600  0.283600  0.907700  1.0  -0.0288
  C  C63  1  0.829100  0.437000  0.840200  1.0  0.7559
  C  C64  1  0.832300  0.216800  0.103200  1.0  0.7542
  C  C65  1  0.458200  0.569900  0.707900  1.0  -0.1357
  C  C66  1  0.396300  0.630500  0.748100  1.0  -0.0524
  C  C67  1  0.262800  0.629700  0.741000  1.0  -0.0474
  C  C68  1  0.188900  0.567000  0.694000  1.0  -0.131
  C  C69  1  0.251800  0.506200  0.653500  1.0  -0.0608
  C  C70  1  0.385600  0.508300  0.659600  1.0  -0.0759
  C  C71  1  0.604100  0.569000  0.716600  1.0  0.7536
  C  C72  1  0.042800  0.562900  0.689200  1.0  0.7502
  C  C73  1  0.324400  0.879300  0.592000  1.0  -0.1593
  C  C74  1  0.369300  0.922000  0.527500  1.0  -0.0564
  C  C75  1  0.374100  0.869300  0.465000  1.0  -0.0905
  C  C76  1  0.328500  0.773400  0.465200  1.0  -0.1404
  C  C77  1  0.278400  0.731400  0.529100  1.0  -0.0597
  C  C78  1  0.278600  0.783600  0.592300  1.0  -0.0278
  C  C79  1  0.329100  0.937000  0.659800  1.0  0.7551
  C  C80  1  0.332300  0.716800  0.396800  1.0  0.753
  C  C81  1  0.958200  0.069900  0.792100  1.0  -0.1356
  C  C82  1  0.896300  0.130500  0.751900  1.0  -0.0535
  C  C83  1  0.762800  0.129700  0.759000  1.0  -0.0479
  C  C84  1  0.688900  0.067000  0.806000  1.0  -0.1311
  C  C85  1  0.751800  0.006200  0.846500  1.0  -0.0605
  C  C86  1  0.885600  0.008300  0.840400  1.0  -0.0768
  C  C87  1  0.104100  0.069000  0.783400  1.0  0.7536
  C  C88  1  0.542800  0.062900  0.810800  1.0  0.7488
  C  C89  1  0.175600  0.620700  0.092000  1.0  -0.1591
  C  C90  1  0.130700  0.578000  0.027500  1.0  -0.0556
  C  C91  1  0.125900  0.630700  0.965000  1.0  -0.0907
  C  C92  1  0.171500  0.726600  0.965200  1.0  -0.1395
  C  C93  1  0.221600  0.768600  0.029100  1.0  -0.0593
  C  C94  1  0.221400  0.716400  0.092300  1.0  -0.0281
  C  C95  1  0.170900  0.563000  0.159800  1.0  0.755
  C  C96  1  0.167700  0.783200  0.896800  1.0  0.7528
  C  C97  1  0.541800  0.430100  0.292100  1.0  -0.1361
  C  C98  1  0.603700  0.369500  0.251900  1.0  -0.051
  C  C99  1  0.737200  0.370300  0.259000  1.0  -0.0478
  C  C100  1  0.811100  0.433000  0.306000  1.0  -0.1305
  C  C101  1  0.748200  0.493800  0.346500  1.0  -0.0609
  C  C102  1  0.614400  0.491700  0.340400  1.0  -0.0777
  C  C103  1  0.395900  0.431000  0.283400  1.0  0.7555
  C  C104  1  0.957200  0.437100  0.310800  1.0  0.7492
  O  O105  1  0.709800  0.107600  0.282980  1.0  -0.612
  O  O106  1  0.627300  0.977200  0.343570  1.0  -0.7529
  O  O107  1  0.758100  0.354300  0.608080  1.0  -0.5921
  O  O108  1  0.581900  0.257100  0.649300  1.0  -0.7781
  O  O109  1  0.846200  0.980700  0.171320  1.0  -0.6343
  O  O110  1  0.836700  0.885200  0.267300  1.0  -0.7715
  O  O111  1  0.522700  0.011500  0.161350  1.0  -0.6063
  O  O112  1  0.506400  0.870400  0.213330  1.0  -0.7473
  O  O113  1  0.790200  0.392400  0.782980  1.0  -0.6118
  O  O114  1  0.872700  0.522800  0.843570  1.0  -0.7522
  O  O115  1  0.741900  0.145700  0.108080  1.0  -0.5916
  O  O116  1  0.918100  0.242900  0.149300  1.0  -0.7793
  O  O117  1  0.653800  0.519300  0.671320  1.0  -0.6344
  O  O118  1  0.663300  0.614800  0.767300  1.0  -0.7729
  O  O119  1  0.977300  0.488500  0.661350  1.0  -0.6055
  O  O120  1  0.993600  0.629600  0.713330  1.0  -0.7463
  O  O121  1  0.290200  0.892400  0.717020  1.0  -0.612
  O  O122  1  0.372700  0.022800  0.656430  1.0  -0.7524
  O  O123  1  0.241900  0.645700  0.391920  1.0  -0.5914
  O  O124  1  0.418100  0.742900  0.350700  1.0  -0.7806
  O  O125  1  0.153800  0.019300  0.828680  1.0  -0.6349
  O  O126  1  0.163300  0.114800  0.732700  1.0  -0.7719
  O  O127  1  0.477300  0.988500  0.838650  1.0  -0.6052
  O  O128  1  0.493600  0.129600  0.786670  1.0  -0.7464
  O  O129  1  0.209800  0.607600  0.217020  1.0  -0.6119
  O  O130  1  0.127300  0.477200  0.156430  1.0  -0.7528
  O  O131  1  0.258100  0.854300  0.891920  1.0  -0.5914
  O  O132  1  0.081900  0.757100  0.850700  1.0  -0.7788
  O  O133  1  0.346200  0.480700  0.328680  1.0  -0.6345
  O  O134  1  0.336700  0.385200  0.232700  1.0  -0.7714
  O  O135  1  0.022700  0.511500  0.338650  1.0  -0.6054
  O  O136  1  0.006400  0.370400  0.286670  1.0  -0.7472
