# generated using pymatgen
data_SrZnH8(C2O)8
_symmetry_space_group_name_H-M   'P 1'
_cell_length_a   10.40640000
_cell_length_b   14.49840000
_cell_length_c   18.53320000
_cell_angle_alpha   90.00000000
_cell_angle_beta   90.00000000
_cell_angle_gamma   100.15300000
_symmetry_Int_Tables_number   1
_chemical_formula_structural   SrZnH8(C2O)8
_chemical_formula_sum   'Sr4 Zn4 H32 C64 O32'
_cell_volume   2752.43059779
_cell_formula_units_Z   4
loop_
 _symmetry_equiv_pos_site_id
 _symmetry_equiv_pos_as_xyz
  1  'x, y, z'
loop_
 _atom_site_type_symbol
 _atom_site_label
 _atom_site_symmetry_multiplicity
 _atom_site_fract_x
 _atom_site_fract_y
 _atom_site_fract_z
 _atom_site_occupancy
 _atom_site_charge
  Sr  Sr1  1  0.893460  0.682490  0.304700  1.0  1.6766
  Sr  Sr2  1  0.606540  0.817510  0.804700  1.0  1.6804
  Sr  Sr3  1  0.106540  0.317510  0.695300  1.0  1.6805
  Sr  Sr4  1  0.393460  0.182490  0.195300  1.0  1.6781
  Zn  Zn5  1  0.805830  0.444000  0.181250  1.0  1.0435
  Zn  Zn6  1  0.694170  0.056000  0.681250  1.0  1.0482
  Zn  Zn7  1  0.194170  0.556000  0.818750  1.0  1.0446
  Zn  Zn8  1  0.305830  0.944000  0.318750  1.0  1.0491
  H  H9  1  0.583900  0.109300  0.068700  1.0  0.0946
  H  H10  1  0.584600  0.021600  0.965400  1.0  0.0848
  H  H11  1  0.770200  0.246600  0.860700  1.0  0.0935
  H  H12  1  0.780900  0.330800  0.966700  1.0  0.0969
  H  H13  1  0.239100  0.666500  0.261900  1.0  0.1009
  H  H14  1  0.459900  0.664700  0.274900  1.0  0.103
  H  H15  1  0.437200  0.461000  0.129400  1.0  0.1008
  H  H16  1  0.213600  0.457300  0.119200  1.0  0.108
  H  H17  1  0.916100  0.390700  0.568700  1.0  0.0947
  H  H18  1  0.915400  0.478400  0.465400  1.0  0.0841
  H  H19  1  0.729800  0.253400  0.360700  1.0  0.0937
  H  H20  1  0.719100  0.169200  0.466700  1.0  0.0971
  H  H21  1  0.260900  0.833500  0.761900  1.0  0.1014
  H  H22  1  0.040100  0.835300  0.774900  1.0  0.1032
  H  H23  1  0.062800  0.039000  0.629400  1.0  0.1007
  H  H24  1  0.286400  0.042700  0.619200  1.0  0.1085
  H  H25  1  0.416100  0.890700  0.931300  1.0  0.0946
  H  H26  1  0.415400  0.978400  0.034600  1.0  0.0843
  H  H27  1  0.229800  0.753400  0.139300  1.0  0.0938
  H  H28  1  0.219100  0.669200  0.033300  1.0  0.0964
  H  H29  1  0.760900  0.333500  0.738100  1.0  0.1008
  H  H30  1  0.540100  0.335300  0.725100  1.0  0.1025
  H  H31  1  0.562800  0.539000  0.870600  1.0  0.1002
  H  H32  1  0.786400  0.542700  0.880800  1.0  0.1082
  H  H33  1  0.083900  0.609300  0.431300  1.0  0.0947
  H  H34  1  0.084600  0.521600  0.534600  1.0  0.0849
  H  H35  1  0.270200  0.746600  0.639300  1.0  0.0936
  H  H36  1  0.280900  0.830800  0.533300  1.0  0.0967
  H  H37  1  0.739100  0.166500  0.238100  1.0  0.1005
  H  H38  1  0.959900  0.164700  0.225100  1.0  0.1035
  H  H39  1  0.937200  0.961000  0.370600  1.0  0.1006
  H  H40  1  0.713600  0.957300  0.380800  1.0  0.1083
  C  C41  1  0.683300  0.229200  0.028400  1.0  -0.1478
  C  C42  1  0.623400  0.136900  0.027100  1.0  -0.0842
  C  C43  1  0.621300  0.084900  0.964700  1.0  -0.0601
  C  C44  1  0.672900  0.125600  0.901600  1.0  -0.1398
  C  C45  1  0.733200  0.218200  0.902600  1.0  -0.0412
  C  C46  1  0.738700  0.268700  0.966200  1.0  -0.0423
  C  C47  1  0.687400  0.285500  0.097300  1.0  0.7408
  C  C48  1  0.662300  0.068700  0.833100  1.0  0.7466
  C  C49  1  0.203300  0.561100  0.189500  1.0  -0.1221
  C  C50  1  0.277800  0.624000  0.235700  1.0  -0.0612
  C  C51  1  0.410800  0.623500  0.242800  1.0  -0.0533
  C  C52  1  0.470700  0.563100  0.203200  1.0  -0.131
  C  C53  1  0.397400  0.501700  0.156800  1.0  -0.0721
  C  C54  1  0.262800  0.500000  0.150200  1.0  -0.0714
  C  C55  1  0.058600  0.559100  0.184200  1.0  0.7342
  C  C56  1  0.614800  0.562700  0.212300  1.0  0.7546
  C  C57  1  0.816700  0.270800  0.528400  1.0  -0.1471
  C  C58  1  0.876600  0.363100  0.527100  1.0  -0.0839
  C  C59  1  0.878700  0.415100  0.464700  1.0  -0.0583
  C  C60  1  0.827100  0.374400  0.401600  1.0  -0.1389
  C  C61  1  0.766800  0.281800  0.402600  1.0  -0.041
  C  C62  1  0.761300  0.231300  0.466200  1.0  -0.0441
  C  C63  1  0.812600  0.214500  0.597300  1.0  0.7415
  C  C64  1  0.837700  0.431300  0.333100  1.0  0.7475
  C  C65  1  0.296700  0.938900  0.689500  1.0  -0.1214
  C  C66  1  0.222200  0.876000  0.735700  1.0  -0.0617
  C  C67  1  0.089200  0.876500  0.742800  1.0  -0.0531
  C  C68  1  0.029300  0.936900  0.703200  1.0  -0.1321
  C  C69  1  0.102600  0.998300  0.656800  1.0  -0.0719
  C  C70  1  0.237200  0.000000  0.650200  1.0  -0.0707
  C  C71  1  0.441400  0.940900  0.684200  1.0  0.7334
  C  C72  1  0.885200  0.937300  0.712300  1.0  0.7548
  C  C73  1  0.316700  0.770800  0.971600  1.0  -0.1474
  C  C74  1  0.376600  0.863100  0.972900  1.0  -0.0834
  C  C75  1  0.378700  0.915100  0.035300  1.0  -0.0572
  C  C76  1  0.327100  0.874400  0.098400  1.0  -0.1397
  C  C77  1  0.266800  0.781800  0.097400  1.0  -0.0407
  C  C78  1  0.261300  0.731300  0.033800  1.0  -0.0435
  C  C79  1  0.312600  0.714500  0.902700  1.0  0.7421
  C  C80  1  0.337700  0.931300  0.166900  1.0  0.7464
  C  C81  1  0.796700  0.438900  0.810500  1.0  -0.1215
  C  C82  1  0.722200  0.376000  0.764300  1.0  -0.0615
  C  C83  1  0.589200  0.376500  0.757200  1.0  -0.0515
  C  C84  1  0.529300  0.436900  0.796800  1.0  -0.1323
  C  C85  1  0.602600  0.498300  0.843200  1.0  -0.072
  C  C86  1  0.737200  0.500000  0.849800  1.0  -0.0713
  C  C87  1  0.941400  0.440900  0.815800  1.0  0.7341
  C  C88  1  0.385200  0.437300  0.787700  1.0  0.755
  C  C89  1  0.183300  0.729200  0.471600  1.0  -0.147
  C  C90  1  0.123400  0.636900  0.472900  1.0  -0.0836
  C  C91  1  0.121300  0.584900  0.535300  1.0  -0.0594
  C  C92  1  0.172900  0.625600  0.598400  1.0  -0.1405
  C  C93  1  0.233200  0.718200  0.597400  1.0  -0.0411
  C  C94  1  0.238700  0.768700  0.533800  1.0  -0.0428
  C  C95  1  0.187400  0.785500  0.402700  1.0  0.7416
  C  C96  1  0.162300  0.568700  0.666900  1.0  0.747
  C  C97  1  0.703300  0.061100  0.310500  1.0  -0.1224
  C  C98  1  0.777800  0.124000  0.264300  1.0  -0.0614
  C  C99  1  0.910800  0.123500  0.257200  1.0  -0.054
  C  C100  1  0.970700  0.063100  0.296800  1.0  -0.1311
  C  C101  1  0.897400  0.001700  0.343200  1.0  -0.0717
  C  C102  1  0.762800  0.000000  0.349800  1.0  -0.071
  C  C103  1  0.558600  0.059100  0.315800  1.0  0.7346
  C  C104  1  0.114800  0.062700  0.287700  1.0  0.7547
  O  O105  1  0.607600  0.258100  0.145750  1.0  -0.7789
  O  O106  1  0.775800  0.356600  0.100440  1.0  -0.5827
  O  O107  1  0.705400  0.112600  0.776590  1.0  -0.6064
  O  O108  1  0.609800  0.984700  0.835740  1.0  -0.7391
  O  O109  1  0.990900  0.484400  0.159570  1.0  -0.6059
  O  O110  1  0.013000  0.628900  0.204150  1.0  -0.7416
  O  O111  1  0.664700  0.512800  0.167490  1.0  -0.6522
  O  O112  1  0.674000  0.610100  0.259900  1.0  -0.7542
  O  O113  1  0.892400  0.241900  0.645750  1.0  -0.779
  O  O114  1  0.724200  0.143400  0.600440  1.0  -0.5817
  O  O115  1  0.794600  0.387400  0.276590  1.0  -0.6067
  O  O116  1  0.890200  0.515300  0.335740  1.0  -0.7402
  O  O117  1  0.509100  0.015600  0.659570  1.0  -0.6066
  O  O118  1  0.487000  0.871100  0.704150  1.0  -0.7422
  O  O119  1  0.835300  0.987200  0.667490  1.0  -0.6522
  O  O120  1  0.826000  0.889900  0.759900  1.0  -0.7535
  O  O121  1  0.392400  0.741900  0.854250  1.0  -0.7782
  O  O122  1  0.224200  0.643400  0.899560  1.0  -0.5811
  O  O123  1  0.294600  0.887400  0.223410  1.0  -0.6064
  O  O124  1  0.390200  0.015300  0.164260  1.0  -0.7398
  O  O125  1  0.009100  0.515600  0.840430  1.0  -0.6063
  O  O126  1  0.987000  0.371100  0.795850  1.0  -0.7418
  O  O127  1  0.335300  0.487200  0.832510  1.0  -0.6515
  O  O128  1  0.326000  0.389900  0.740100  1.0  -0.754
  O  O129  1  0.107600  0.758100  0.354250  1.0  -0.7779
  O  O130  1  0.275800  0.856600  0.399560  1.0  -0.5818
  O  O131  1  0.205400  0.612600  0.723410  1.0  -0.6061
  O  O132  1  0.109800  0.484700  0.664260  1.0  -0.7389
  O  O133  1  0.490900  0.984400  0.340430  1.0  -0.6063
  O  O134  1  0.513000  0.128900  0.295850  1.0  -0.7418
  O  O135  1  0.164700  0.012800  0.332510  1.0  -0.6515
  O  O136  1  0.174000  0.110100  0.240100  1.0  -0.7547
