# generated using pymatgen
data_BaZn2H16(C12O7)2
_symmetry_space_group_name_H-M   'P 1'
_cell_length_a   12.17980000
_cell_length_b   12.17980000
_cell_length_c   12.66340000
_cell_angle_alpha   103.93900000
_cell_angle_beta   103.93900000
_cell_angle_gamma   103.00300000
_symmetry_Int_Tables_number   1
_chemical_formula_structural   BaZn2H16(C12O7)2
_chemical_formula_sum   'Ba2 Zn4 H32 C48 O28'
_cell_volume   1687.80795539
_cell_formula_units_Z   2
loop_
 _symmetry_equiv_pos_site_id
 _symmetry_equiv_pos_as_xyz
  1  'x, y, z'
loop_
 _atom_site_type_symbol
 _atom_site_label
 _atom_site_symmetry_multiplicity
 _atom_site_fract_x
 _atom_site_fract_y
 _atom_site_fract_z
 _atom_site_occupancy
 _atom_site_charge
  Ba  Ba1  1  0.819720  0.180280  0.750000  1.0  1.6374
  Ba  Ba2  1  0.180280  0.819720  0.250000  1.0  1.6382
  Zn  Zn3  1  0.826820  0.414000  0.038270  1.0  1.0331
  Zn  Zn4  1  0.586000  0.173180  0.461730  1.0  1.0345
  Zn  Zn5  1  0.173180  0.586000  0.961730  1.0  1.0337
  Zn  Zn6  1  0.414000  0.826820  0.538270  1.0  1.0342
  H  H7  1  0.061300  0.108500  0.016300  1.0  0.0957
  H  H8  1  0.204800  0.047200  0.120700  1.0  0.1027
  H  H9  1  0.315300  0.358100  0.369000  1.0  0.1105
  H  H10  1  0.168600  0.419200  0.267300  1.0  0.0904
  H  H11  1  0.591700  0.172700  0.150900  1.0  0.1066
  H  H12  1  0.526900  0.988100  0.823800  1.0  0.0952
  H  H13  1  0.873300  0.479700  0.877200  1.0  0.4373
  H  H14  1  0.759300  0.413900  0.833600  1.0  0.4392
  H  H15  1  0.891500  0.938700  0.483700  1.0  0.0963
  H  H16  1  0.952800  0.795200  0.379300  1.0  0.1025
  H  H17  1  0.641900  0.684700  0.131000  1.0  0.1104
  H  H18  1  0.580800  0.831400  0.232700  1.0  0.0905
  H  H19  1  0.827300  0.408300  0.349100  1.0  0.1067
  H  H20  1  0.011900  0.473100  0.676200  1.0  0.0965
  H  H21  1  0.520300  0.126700  0.622800  1.0  0.4342
  H  H22  1  0.586100  0.240700  0.666400  1.0  0.4345
  H  H23  1  0.938700  0.891500  0.983700  1.0  0.0957
  H  H24  1  0.795200  0.952800  0.879300  1.0  0.1023
  H  H25  1  0.684700  0.641900  0.631000  1.0  0.1104
  H  H26  1  0.831400  0.580800  0.732700  1.0  0.0901
  H  H27  1  0.408300  0.827300  0.849100  1.0  0.1064
  H  H28  1  0.473100  0.011900  0.176200  1.0  0.0957
  H  H29  1  0.126700  0.520300  0.122800  1.0  0.4342
  H  H30  1  0.240700  0.586100  0.166400  1.0  0.4393
  H  H31  1  0.108500  0.061300  0.516300  1.0  0.0962
  H  H32  1  0.047200  0.204800  0.620700  1.0  0.1027
  H  H33  1  0.358100  0.315300  0.869000  1.0  0.1106
  H  H34  1  0.419200  0.168600  0.767300  1.0  0.0905
  H  H35  1  0.172700  0.591700  0.650900  1.0  0.106
  H  H36  1  0.988100  0.526900  0.323800  1.0  0.096
  H  H37  1  0.479700  0.873300  0.377200  1.0  0.4358
  H  H38  1  0.413900  0.759300  0.333600  1.0  0.435
  C  C39  1  0.995080  0.299320  0.066600  1.0  0.6942
  C  C40  1  0.097220  0.268980  0.132500  1.0  -0.1494
  C  C41  1  0.110800  0.158200  0.088200  1.0  -0.0404
  C  C42  1  0.197100  0.121700  0.150500  1.0  -0.0873
  C  C43  1  0.272540  0.195260  0.257200  1.0  -0.1136
  C  C44  1  0.262600  0.307000  0.299000  1.0  -0.0647
  C  C45  1  0.175090  0.344110  0.237700  1.0  -0.0696
  C  C46  1  0.360580  0.149620  0.326100  1.0  0.7122
  C  C47  1  0.652770  0.199630  0.967100  1.0  0.6959
  C  C48  1  0.572700  0.096100  0.984600  1.0  -0.1359
  C  C49  1  0.555000  0.102800  0.090100  1.0  -0.0512
  C  C50  1  0.516500  0.993100  0.895000  1.0  -0.0427
  C  C51  1  0.700680  0.004920  0.433400  1.0  0.6963
  C  C52  1  0.731020  0.902780  0.367500  1.0  -0.1502
  C  C53  1  0.841800  0.889200  0.411800  1.0  -0.0406
  C  C54  1  0.878300  0.802900  0.349500  1.0  -0.0873
  C  C55  1  0.804740  0.727460  0.242800  1.0  -0.1133
  C  C56  1  0.693000  0.737400  0.201000  1.0  -0.0618
  C  C57  1  0.655890  0.824910  0.262300  1.0  -0.0677
  C  C58  1  0.850380  0.639420  0.173900  1.0  0.714
  C  C59  1  0.800370  0.347230  0.532900  1.0  0.6968
  C  C60  1  0.903900  0.427300  0.515400  1.0  -0.1394
  C  C61  1  0.897200  0.445000  0.409900  1.0  -0.0506
  C  C62  1  0.006900  0.483500  0.605000  1.0  -0.0443
  C  C63  1  0.004920  0.700680  0.933400  1.0  0.6946
  C  C64  1  0.902780  0.731020  0.867500  1.0  -0.1481
  C  C65  1  0.889200  0.841800  0.911800  1.0  -0.0413
  C  C66  1  0.802900  0.878300  0.849500  1.0  -0.0877
  C  C67  1  0.727460  0.804740  0.742800  1.0  -0.1131
  C  C68  1  0.737400  0.693000  0.701000  1.0  -0.0626
  C  C69  1  0.824910  0.655890  0.762300  1.0  -0.0682
  C  C70  1  0.639420  0.850380  0.673900  1.0  0.7122
  C  C71  1  0.347230  0.800370  0.032900  1.0  0.6979
  C  C72  1  0.427300  0.903900  0.015400  1.0  -0.1365
  C  C73  1  0.445000  0.897200  0.909900  1.0  -0.0511
  C  C74  1  0.483500  0.006900  0.105000  1.0  -0.0439
  C  C75  1  0.299320  0.995080  0.566600  1.0  0.6962
  C  C76  1  0.268980  0.097220  0.632500  1.0  -0.1494
  C  C77  1  0.158200  0.110800  0.588200  1.0  -0.0404
  C  C78  1  0.121700  0.197100  0.650500  1.0  -0.0873
  C  C79  1  0.195260  0.272540  0.757200  1.0  -0.1137
  C  C80  1  0.307000  0.262600  0.799000  1.0  -0.0633
  C  C81  1  0.344110  0.175090  0.737700  1.0  -0.067
  C  C82  1  0.149620  0.360580  0.826100  1.0  0.7136
  C  C83  1  0.199630  0.652770  0.467100  1.0  0.6935
  C  C84  1  0.096100  0.572700  0.484600  1.0  -0.1391
  C  C85  1  0.102800  0.555000  0.590100  1.0  -0.0505
  C  C86  1  0.993100  0.516500  0.395000  1.0  -0.0437
  O  O87  1  0.921530  0.224270  0.980100  1.0  -0.6412
  O  O88  1  0.986820  0.404040  0.106500  1.0  -0.6238
  O  O89  1  0.339470  0.043330  0.313200  1.0  -0.6632
  O  O90  1  0.454250  0.227590  0.394700  1.0  -0.6158
  O  O91  1  0.711450  0.287690  0.057000  1.0  -0.6048
  O  O92  1  0.659350  0.194030  0.870300  1.0  -0.6734
  O  O93  1  0.824830  0.419230  0.880400  1.0  -0.8493
  O  O94  1  0.775730  0.078470  0.519900  1.0  -0.6418
  O  O95  1  0.595960  0.013180  0.393500  1.0  -0.6246
  O  O96  1  0.956670  0.660530  0.186800  1.0  -0.6668
  O  O97  1  0.772410  0.545750  0.105300  1.0  -0.6185
  O  O98  1  0.712310  0.288550  0.443000  1.0  -0.6042
  O  O99  1  0.805970  0.340650  0.629700  1.0  -0.6757
  O  O100  1  0.580770  0.175170  0.619600  1.0  -0.8503
  O  O101  1  0.078470  0.775730  0.019900  1.0  -0.6411
  O  O102  1  0.013180  0.595960  0.893500  1.0  -0.6243
  O  O103  1  0.660530  0.956670  0.686800  1.0  -0.6627
  O  O104  1  0.545750  0.772410  0.605300  1.0  -0.6181
  O  O105  1  0.288550  0.712310  0.943000  1.0  -0.6047
  O  O106  1  0.340650  0.805970  0.129700  1.0  -0.6736
  O  O107  1  0.175170  0.580770  0.119600  1.0  -0.8495
  O  O108  1  0.224270  0.921530  0.480100  1.0  -0.6418
  O  O109  1  0.404040  0.986820  0.606500  1.0  -0.6244
  O  O110  1  0.043330  0.339470  0.813200  1.0  -0.6662
  O  O111  1  0.227590  0.454250  0.894700  1.0  -0.6202
  O  O112  1  0.287690  0.711450  0.557000  1.0  -0.6039
  O  O113  1  0.194030  0.659350  0.370300  1.0  -0.6744
  O  O114  1  0.419230  0.824830  0.380400  1.0  -0.8495
