# generated using pymatgen
data_CdH4(C3N2)2
_symmetry_space_group_name_H-M   'P 1'
_cell_length_a   10.09030000
_cell_length_b   10.09030000
_cell_length_c   21.25680000
_cell_angle_alpha   90.00000000
_cell_angle_beta   90.00000000
_cell_angle_gamma   120.00000000
_symmetry_Int_Tables_number   1
_chemical_formula_structural   CdH4(C3N2)2
_chemical_formula_sum   'Cd6 H24 C36 N24'
_cell_volume   1874.28951380
_cell_formula_units_Z   6
loop_
 _symmetry_equiv_pos_site_id
 _symmetry_equiv_pos_as_xyz
  1  'x, y, z'
loop_
 _atom_site_type_symbol
 _atom_site_label
 _atom_site_symmetry_multiplicity
 _atom_site_fract_x
 _atom_site_fract_y
 _atom_site_fract_z
 _atom_site_occupancy
 _atom_site_charge
  Cd  Cd1  1  0.911810  0.088180  0.750000  1.0  0.8132
  Cd  Cd2  1  0.176370  0.088180  0.416670  1.0  0.8154
  Cd  Cd3  1  0.911810  0.823620  0.083330  1.0  0.8128
  Cd  Cd4  1  0.088180  0.911810  0.250000  1.0  0.814
  Cd  Cd5  1  0.823630  0.911820  0.916670  1.0  0.8115
  Cd  Cd6  1  0.088180  0.176370  0.583330  1.0  0.8155
  H  H7  1  0.210320  0.398910  0.806020  1.0  0.0977
  H  H8  1  0.441730  0.510800  0.643260  1.0  0.1055
  H  H9  1  0.188590  0.789680  0.472690  1.0  0.0976
  H  H10  1  0.069070  0.558270  0.309930  1.0  0.1054
  H  H11  1  0.601090  0.811410  0.139350  1.0  0.0976
  H  H12  1  0.489200  0.930930  0.976590  1.0  0.1045
  H  H13  1  0.789680  0.601090  0.306020  1.0  0.0979
  H  H14  1  0.558270  0.489200  0.143260  1.0  0.1053
  H  H15  1  0.811410  0.210320  0.972690  1.0  0.0976
  H  H16  1  0.930930  0.441730  0.809930  1.0  0.1053
  H  H17  1  0.398910  0.188590  0.639350  1.0  0.0972
  H  H18  1  0.510800  0.069070  0.476590  1.0  0.1048
  H  H19  1  0.811410  0.601090  0.860650  1.0  0.1003
  H  H20  1  0.930930  0.489200  0.023410  1.0  0.1058
  H  H21  1  0.398910  0.210320  0.193980  1.0  0.0999
  H  H22  1  0.510800  0.441730  0.356740  1.0  0.1057
  H  H23  1  0.789680  0.188590  0.527310  1.0  0.1001
  H  H24  1  0.558270  0.069070  0.690070  1.0  0.1052
  H  H25  1  0.188590  0.398910  0.360650  1.0  0.1004
  H  H26  1  0.069070  0.510800  0.523410  1.0  0.1056
  H  H27  1  0.601090  0.789680  0.693980  1.0  0.1001
  H  H28  1  0.489200  0.558270  0.856740  1.0  0.1061
  H  H29  1  0.210320  0.811410  0.027310  1.0  0.1
  H  H30  1  0.441730  0.930930  0.190070  1.0  0.1053
  C  C31  1  0.369930  0.501000  0.735060  1.0  -0.074
  C  C32  1  0.237010  0.397350  0.763280  1.0  -0.0025
  C  C33  1  0.364080  0.458790  0.673910  1.0  -0.0037
  C  C34  1  0.131070  0.630070  0.401730  1.0  -0.0739
  C  C35  1  0.160340  0.762990  0.429950  1.0  -0.0031
  C  C36  1  0.094710  0.635920  0.340580  1.0  -0.0035
  C  C37  1  0.499000  0.868930  0.068390  1.0  -0.0741
  C  C38  1  0.602650  0.839660  0.096610  1.0  -0.0022
  C  C39  1  0.541210  0.905290  0.007240  1.0  -0.004
  C  C40  1  0.630070  0.499000  0.235060  1.0  -0.074
  C  C41  1  0.762990  0.602650  0.263280  1.0  -0.0026
  C  C42  1  0.635920  0.541210  0.173910  1.0  -0.0025
  C  C43  1  0.868930  0.369930  0.901730  1.0  -0.0744
  C  C44  1  0.839660  0.237010  0.929950  1.0  -0.0027
  C  C45  1  0.905290  0.364080  0.840580  1.0  -0.0016
  C  C46  1  0.501000  0.131070  0.568390  1.0  -0.0728
  C  C47  1  0.397350  0.160340  0.596610  1.0  -0.0031
  C  C48  1  0.458790  0.094710  0.507240  1.0  -0.0019
  C  C49  1  0.868930  0.499000  0.931610  1.0  -0.0738
  C  C50  1  0.839660  0.602650  0.903390  1.0  -0.0021
  C  C51  1  0.905290  0.541210  0.992760  1.0  -0.0023
  C  C52  1  0.501000  0.369930  0.264940  1.0  -0.074
  C  C53  1  0.397350  0.237010  0.236720  1.0  -0.0026
  C  C54  1  0.458790  0.364080  0.326090  1.0  -0.0024
  C  C55  1  0.630070  0.131070  0.598270  1.0  -0.0739
  C  C56  1  0.762990  0.160340  0.570050  1.0  -0.0024
  C  C57  1  0.635920  0.094710  0.659420  1.0  -0.003
  C  C58  1  0.131070  0.501000  0.431610  1.0  -0.0741
  C  C59  1  0.160340  0.397350  0.403390  1.0  -0.0023
  C  C60  1  0.094710  0.458790  0.492760  1.0  -0.0037
  C  C61  1  0.499000  0.630070  0.764940  1.0  -0.0743
  C  C62  1  0.602650  0.762990  0.736720  1.0  -0.0024
  C  C63  1  0.541210  0.635920  0.826090  1.0  -0.0018
  C  C64  1  0.369930  0.868930  0.098270  1.0  -0.0731
  C  C65  1  0.237010  0.839660  0.070050  1.0  -0.002
  C  C66  1  0.364080  0.905290  0.159420  1.0  -0.0025
  N  N67  1  0.149010  0.291100  0.719560  1.0  -0.2931
  N  N68  1  0.227540  0.329070  0.664330  1.0  -0.2372
  N  N69  1  0.142090  0.850990  0.386230  1.0  -0.293
  N  N70  1  0.101530  0.772460  0.331000  1.0  -0.2393
  N  N71  1  0.708900  0.857910  0.052890  1.0  -0.2946
  N  N72  1  0.670930  0.898470  0.997660  1.0  -0.2391
  N  N73  1  0.850990  0.708900  0.219560  1.0  -0.2935
  N  N74  1  0.772460  0.670930  0.164330  1.0  -0.2391
  N  N75  1  0.857910  0.149010  0.886230  1.0  -0.2929
  N  N76  1  0.898470  0.227540  0.831000  1.0  -0.2382
  N  N77  1  0.291100  0.142090  0.552890  1.0  -0.2922
  N  N78  1  0.329070  0.101530  0.497660  1.0  -0.2383
  N  N79  1  0.857910  0.708900  0.947110  1.0  -0.2925
  N  N80  1  0.898470  0.670930  0.002340  1.0  -0.2395
  N  N81  1  0.291100  0.149010  0.280440  1.0  -0.2924
  N  N82  1  0.329070  0.227540  0.335670  1.0  -0.2394
  N  N83  1  0.850990  0.142090  0.613770  1.0  -0.2945
  N  N84  1  0.772460  0.101530  0.669000  1.0  -0.2392
  N  N85  1  0.142090  0.291100  0.447110  1.0  -0.2935
  N  N86  1  0.101530  0.329070  0.502340  1.0  -0.2379
  N  N87  1  0.708900  0.850990  0.780440  1.0  -0.2938
  N  N88  1  0.670930  0.772460  0.835670  1.0  -0.2402
  N  N89  1  0.149010  0.857910  0.113770  1.0  -0.2913
  N  N90  1  0.227540  0.898470  0.169000  1.0  -0.2394
