# generated using pymatgen
data_CuH4(C3N2)2
_symmetry_space_group_name_H-M   'P 1'
_cell_length_a   7.13280000
_cell_length_b   8.72070000
_cell_length_c   9.69840000
_cell_angle_alpha   116.71800000
_cell_angle_beta   111.57600000
_cell_angle_gamma   90.00000000
_symmetry_Int_Tables_number   1
_chemical_formula_structural   CuH4(C3N2)2
_chemical_formula_sum   'Cu2 H8 C12 N8'
_cell_volume   491.07450928
_cell_formula_units_Z   2
loop_
 _symmetry_equiv_pos_site_id
 _symmetry_equiv_pos_as_xyz
  1  'x, y, z'
loop_
 _atom_site_type_symbol
 _atom_site_label
 _atom_site_symmetry_multiplicity
 _atom_site_fract_x
 _atom_site_fract_y
 _atom_site_fract_z
 _atom_site_occupancy
 _atom_site_charge
  Cu  Cu1  1  0.000000  0.000000  0.000000  1.0  0.5443
  Cu  Cu2  1  0.500000  0.000000  0.000000  1.0  0.5443
  H  H3  1  0.757750  0.621640  0.616030  1.0  0.1135
  H  H4  1  0.742250  0.005610  0.383970  1.0  0.1122
  H  H5  1  0.641720  0.378360  0.383970  1.0  0.1125
  H  H6  1  0.858280  0.994390  0.616030  1.0  0.1102
  H  H7  1  0.242250  0.378360  0.383970  1.0  0.114
  H  H8  1  0.257750  0.994390  0.616030  1.0  0.1116
  H  H9  1  0.358280  0.621640  0.616030  1.0  0.1145
  H  H10  1  0.141720  0.005610  0.383970  1.0  0.1114
  C  C11  1  0.929880  0.672070  0.668280  1.0  -0.0432
  C  C12  1  0.570120  0.003790  0.331720  1.0  -0.046
  C  C13  1  0.761600  0.327930  0.331720  1.0  -0.0415
  C  C14  1  0.738400  0.996210  0.668280  1.0  -0.0446
  C  C15  1  0.070120  0.327930  0.331720  1.0  -0.0412
  C  C16  1  0.429880  0.996210  0.668280  1.0  -0.0486
  C  C17  1  0.238400  0.672070  0.668280  1.0  -0.0389
  C  C18  1  0.261600  0.003790  0.331720  1.0  -0.0472
  C  C19  1  0.039110  0.585160  0.578220  1.0  -0.0395
  C  C20  1  0.460890  0.006940  0.421780  1.0  -0.0387
  C  C21  1  0.960890  0.414840  0.421780  1.0  -0.0391
  C  C22  1  0.539110  0.993060  0.578220  1.0  -0.0387
  N  N23  1  0.061680  0.812720  0.814020  1.0  -0.1885
  N  N24  1  0.438320  0.998700  0.185980  1.0  -0.1783
  N  N25  1  0.747660  0.187280  0.185980  1.0  -0.1862
  N  N26  1  0.752340  0.001300  0.814020  1.0  -0.186
  N  N27  1  0.938320  0.187280  0.185980  1.0  -0.1903
  N  N28  1  0.561680  0.001300  0.814020  1.0  -0.1781
  N  N29  1  0.252340  0.812720  0.814020  1.0  -0.1865
  N  N30  1  0.247660  0.998700  0.185980  1.0  -0.1874
