# generated using pymatgen
data_Co15H60C156(N3O13)4
_symmetry_space_group_name_H-M   'P 1'
_cell_length_a   15.48400000
_cell_length_b   30.16300000
_cell_length_c   30.16300000
_cell_angle_alpha   90.00000000
_cell_angle_beta   90.00000000
_cell_angle_gamma   90.00000000
_symmetry_Int_Tables_number   1
_chemical_formula_structural   Co15H60C156(N3O13)4
_chemical_formula_sum   'Co30 H120 C312 N24 O104'
_cell_volume   14087.44491440
_cell_formula_units_Z   2
loop_
 _symmetry_equiv_pos_site_id
 _symmetry_equiv_pos_as_xyz
  1  'x, y, z'
loop_
 _atom_site_type_symbol
 _atom_site_label
 _atom_site_symmetry_multiplicity
 _atom_site_fract_x
 _atom_site_fract_y
 _atom_site_fract_z
 _atom_site_occupancy
 _atom_site_charge
  Co  Co1  1  0.622510  0.752800  0.982960  1.0  1.0539
  Co  Co2  1  0.622510  0.247200  0.017040  1.0  1.0562
  Co  Co3  1  0.622510  0.017040  0.752800  1.0  1.0534
  Co  Co4  1  0.622510  0.982960  0.247200  1.0  1.0531
  Co  Co5  1  0.377490  0.747200  0.482960  1.0  1.0554
  Co  Co6  1  0.377490  0.252800  0.517040  1.0  1.0585
  Co  Co7  1  0.377490  0.482960  0.252800  1.0  1.0566
  Co  Co8  1  0.377490  0.517040  0.747200  1.0  1.055
  Co  Co9  1  0.377490  0.247200  0.017040  1.0  1.0584
  Co  Co10  1  0.377490  0.752800  0.982960  1.0  1.0561
  Co  Co11  1  0.377490  0.982960  0.247200  1.0  1.0554
  Co  Co12  1  0.377490  0.017040  0.752800  1.0  1.0558
  Co  Co13  1  0.622510  0.252800  0.517040  1.0  1.0562
  Co  Co14  1  0.622510  0.747200  0.482960  1.0  1.0534
  Co  Co15  1  0.622510  0.517040  0.747200  1.0  1.0527
  Co  Co16  1  0.622510  0.482960  0.252800  1.0  1.0543
  Co  Co17  1  0.000000  0.500000  0.000000  1.0  0.8051
  Co  Co18  1  0.000000  0.000000  0.500000  1.0  0.8051
  Co  Co19  1  0.500000  0.838670  0.989700  1.0  1.1076
  Co  Co20  1  0.500000  0.161330  0.010300  1.0  1.1051
  Co  Co21  1  0.500000  0.010300  0.838670  1.0  1.1032
  Co  Co22  1  0.500000  0.989700  0.161330  1.0  1.1034
  Co  Co23  1  0.500000  0.661330  0.489700  1.0  1.1048
  Co  Co24  1  0.500000  0.338670  0.510300  1.0  1.1079
  Co  Co25  1  0.500000  0.489700  0.338670  1.0  1.103
  Co  Co26  1  0.500000  0.510300  0.661330  1.0  1.1031
  Co  Co27  1  0.000000  0.740570  0.240570  1.0  0.7776
  Co  Co28  1  0.000000  0.259430  0.759430  1.0  0.778
  Co  Co29  1  0.000000  0.759430  0.740570  1.0  0.7779
  Co  Co30  1  0.000000  0.240570  0.259430  1.0  0.7778
  H  H31  1  0.762200  0.630500  0.963300  1.0  0.1389
  H  H32  1  0.605500  0.882400  0.099100  1.0  0.1321
  H  H33  1  0.766000  0.869700  0.204100  1.0  0.1408
  H  H34  1  0.764600  0.778500  0.107500  1.0  0.1367
  H  H35  1  0.681700  0.765700  0.207000  1.0  0.1333
  H  H36  1  0.919600  0.856900  0.125800  1.0  0.1414
  H  H37  1  0.762200  0.369500  0.036700  1.0  0.14
  H  H38  1  0.605500  0.117600  0.900900  1.0  0.132
  H  H39  1  0.766000  0.130300  0.795900  1.0  0.1419
  H  H40  1  0.764600  0.221500  0.892500  1.0  0.1362
  H  H41  1  0.681700  0.234300  0.793000  1.0  0.1333
  H  H42  1  0.919600  0.143100  0.874200  1.0  0.141
  H  H43  1  0.762200  0.036700  0.630500  1.0  0.1382
  H  H44  1  0.605500  0.900900  0.882400  1.0  0.1318
  H  H45  1  0.766000  0.795900  0.869700  1.0  0.142
  H  H46  1  0.764600  0.892500  0.778500  1.0  0.1364
  H  H47  1  0.681700  0.793000  0.765700  1.0  0.1334
  H  H48  1  0.919600  0.874200  0.856900  1.0  0.1408
  H  H49  1  0.762200  0.963300  0.369500  1.0  0.1371
  H  H50  1  0.605500  0.099100  0.117600  1.0  0.1321
  H  H51  1  0.766000  0.204100  0.130300  1.0  0.1417
  H  H52  1  0.764600  0.107500  0.221500  1.0  0.1362
  H  H53  1  0.681700  0.207000  0.234300  1.0  0.1336
  H  H54  1  0.919600  0.125800  0.143100  1.0  0.1409
  H  H55  1  0.237800  0.869500  0.463300  1.0  0.1391
  H  H56  1  0.394500  0.617600  0.599100  1.0  0.1324
  H  H57  1  0.234000  0.630300  0.704100  1.0  0.1413
  H  H58  1  0.235400  0.721500  0.607500  1.0  0.1362
  H  H59  1  0.318300  0.734300  0.707000  1.0  0.1336
  H  H60  1  0.080400  0.643100  0.625800  1.0  0.1412
  H  H61  1  0.237800  0.130500  0.536700  1.0  0.1398
  H  H62  1  0.394500  0.382400  0.400900  1.0  0.132
  H  H63  1  0.234000  0.369700  0.295900  1.0  0.1417
  H  H64  1  0.235400  0.278500  0.392500  1.0  0.1371
  H  H65  1  0.318300  0.265700  0.293000  1.0  0.1338
  H  H66  1  0.080400  0.356900  0.374200  1.0  0.1412
  H  H67  1  0.237800  0.463300  0.130500  1.0  0.1376
  H  H68  1  0.394500  0.599100  0.382400  1.0  0.1322
  H  H69  1  0.234000  0.704100  0.369700  1.0  0.1422
  H  H70  1  0.235400  0.607500  0.278500  1.0  0.1365
  H  H71  1  0.318300  0.707000  0.265700  1.0  0.1337
  H  H72  1  0.080400  0.625800  0.356900  1.0  0.1412
  H  H73  1  0.237800  0.536700  0.869500  1.0  0.1384
  H  H74  1  0.394500  0.400900  0.617600  1.0  0.1321
  H  H75  1  0.234000  0.295900  0.630300  1.0  0.1419
  H  H76  1  0.235400  0.392500  0.721500  1.0  0.1365
  H  H77  1  0.318300  0.293000  0.734300  1.0  0.1338
  H  H78  1  0.080400  0.374200  0.643100  1.0  0.1413
  H  H79  1  0.237800  0.369500  0.036700  1.0  0.14
  H  H80  1  0.394500  0.117600  0.900900  1.0  0.1323
  H  H81  1  0.234000  0.130300  0.795900  1.0  0.1418
  H  H82  1  0.235400  0.221500  0.892500  1.0  0.1366
  H  H83  1  0.318300  0.234300  0.793000  1.0  0.1338
  H  H84  1  0.080400  0.143100  0.874200  1.0  0.1413
  H  H85  1  0.237800  0.630500  0.963300  1.0  0.1392
  H  H86  1  0.394500  0.882400  0.099100  1.0  0.1321
  H  H87  1  0.234000  0.869700  0.204100  1.0  0.1411
  H  H88  1  0.235400  0.778500  0.107500  1.0  0.1369
  H  H89  1  0.318300  0.765700  0.207000  1.0  0.1334
  H  H90  1  0.080400  0.856900  0.125800  1.0  0.1414
  H  H91  1  0.237800  0.963300  0.369500  1.0  0.1374
  H  H92  1  0.394500  0.099100  0.117600  1.0  0.1324
  H  H93  1  0.234000  0.204100  0.130300  1.0  0.1421
  H  H94  1  0.235400  0.107500  0.221500  1.0  0.1365
  H  H95  1  0.318300  0.207000  0.234300  1.0  0.1338
  H  H96  1  0.080400  0.125800  0.143100  1.0  0.1412
  H  H97  1  0.237800  0.036700  0.630500  1.0  0.1382
  H  H98  1  0.394500  0.900900  0.882400  1.0  0.1318
  H  H99  1  0.234000  0.795900  0.869700  1.0  0.142
  H  H100  1  0.235400  0.892500  0.778500  1.0  0.1365
  H  H101  1  0.318300  0.793000  0.765700  1.0  0.1336
  H  H102  1  0.080400  0.874200  0.856900  1.0  0.1411
  H  H103  1  0.762200  0.130500  0.536700  1.0  0.1396
  H  H104  1  0.605500  0.382400  0.400900  1.0  0.1321
  H  H105  1  0.766000  0.369700  0.295900  1.0  0.1416
  H  H106  1  0.764600  0.278500  0.392500  1.0  0.1369
  H  H107  1  0.681700  0.265700  0.293000  1.0  0.1332
  H  H108  1  0.919600  0.356900  0.374200  1.0  0.1409
  H  H109  1  0.762200  0.869500  0.463300  1.0  0.139
  H  H110  1  0.605500  0.617600  0.599100  1.0  0.1321
  H  H111  1  0.766000  0.630300  0.704100  1.0  0.1411
  H  H112  1  0.764600  0.721500  0.607500  1.0  0.1358
  H  H113  1  0.681700  0.734300  0.707000  1.0  0.1334
  H  H114  1  0.919600  0.643100  0.625800  1.0  0.141
  H  H115  1  0.762200  0.536700  0.869500  1.0  0.1384
  H  H116  1  0.605500  0.400900  0.617600  1.0  0.1321
  H  H117  1  0.766000  0.295900  0.630300  1.0  0.142
  H  H118  1  0.764600  0.392500  0.721500  1.0  0.1362
  H  H119  1  0.681700  0.293000  0.734300  1.0  0.1337
  H  H120  1  0.919600  0.374200  0.643100  1.0  0.1413
  H  H121  1  0.762200  0.463300  0.130500  1.0  0.1373
  H  H122  1  0.605500  0.599100  0.382400  1.0  0.1319
  H  H123  1  0.766000  0.704100  0.369700  1.0  0.1418
  H  H124  1  0.764600  0.607500  0.278500  1.0  0.1366
  H  H125  1  0.681700  0.707000  0.265700  1.0  0.1333
  H  H126  1  0.919600  0.625800  0.356900  1.0  0.1409
  H  H127  1  0.920500  0.616000  0.884000  1.0  0.1344
  H  H128  1  0.677100  0.529300  0.970700  1.0  0.1421
  H  H129  1  0.594200  0.636300  0.863700  1.0  0.129
  H  H130  1  0.920500  0.384000  0.116000  1.0  0.1344
  H  H131  1  0.677100  0.470700  0.029300  1.0  0.1421
  H  H132  1  0.594200  0.363700  0.136300  1.0  0.1304
  H  H133  1  0.920500  0.116000  0.616000  1.0  0.1345
  H  H134  1  0.677100  0.029300  0.529300  1.0  0.1419
  H  H135  1  0.594200  0.136300  0.636300  1.0  0.1297
  H  H136  1  0.920500  0.884000  0.384000  1.0  0.134
  H  H137  1  0.677100  0.970700  0.470700  1.0  0.1422
  H  H138  1  0.594200  0.863700  0.363700  1.0  0.1295
  H  H139  1  0.079500  0.884000  0.384000  1.0  0.1345
  H  H140  1  0.322900  0.970700  0.470700  1.0  0.1422
  H  H141  1  0.405800  0.863700  0.363700  1.0  0.1288
  H  H142  1  0.079500  0.116000  0.616000  1.0  0.1349
  H  H143  1  0.322900  0.029300  0.529300  1.0  0.1423
  H  H144  1  0.405800  0.136300  0.636300  1.0  0.129
  H  H145  1  0.079500  0.384000  0.116000  1.0  0.135
  H  H146  1  0.322900  0.470700  0.029300  1.0  0.1424
  H  H147  1  0.405800  0.363700  0.136300  1.0  0.1296
  H  H148  1  0.079500  0.616000  0.884000  1.0  0.1348
  H  H149  1  0.322900  0.529300  0.970700  1.0  0.142
  H  H150  1  0.405800  0.636300  0.863700  1.0  0.1284
  C  C151  1  0.740900  0.619300  0.935900  1.0  -0.1029
  C  C152  1  0.675800  0.640400  0.915500  1.0  -0.1071
  C  C153  1  0.640200  0.683500  0.934100  1.0  0.611
  C  C154  1  0.646000  0.809900  0.054200  1.0  0.734
  C  C155  1  0.679600  0.828400  0.097500  1.0  -0.0744
  C  C156  1  0.649500  0.866500  0.114200  1.0  -0.0336
  C  C157  1  0.683000  0.882700  0.153800  1.0  -0.1299
  C  C158  1  0.745200  0.859200  0.176400  1.0  -0.0934
  C  C159  1  0.776500  0.821100  0.158900  1.0  0.1188
  C  C160  1  0.743300  0.805500  0.119600  1.0  -0.107
  C  C161  1  0.645400  0.923600  0.173100  1.0  0.7619
  C  C162  1  0.843000  0.797000  0.182900  1.0  -0.0311
  C  C163  1  0.818400  0.763800  0.211200  1.0  0.1588
  C  C164  1  0.731200  0.753000  0.220500  1.0  -0.1374
  C  C165  1  0.927700  0.806800  0.175000  1.0  0.1673
  C  C166  1  0.955700  0.838700  0.143600  1.0  -0.1536
  C  C167  1  0.740900  0.380700  0.064100  1.0  -0.1019
  C  C168  1  0.675800  0.359600  0.084500  1.0  -0.1072
  C  C169  1  0.640200  0.316500  0.065900  1.0  0.612
  C  C170  1  0.646000  0.190100  0.945800  1.0  0.734
  C  C171  1  0.679600  0.171600  0.902500  1.0  -0.0744
  C  C172  1  0.649500  0.133500  0.885800  1.0  -0.0339
  C  C173  1  0.683000  0.117300  0.846200  1.0  -0.1291
  C  C174  1  0.745200  0.140800  0.823600  1.0  -0.0931
  C  C175  1  0.776500  0.178900  0.841100  1.0  0.1193
  C  C176  1  0.743300  0.194500  0.880400  1.0  -0.1072
  C  C177  1  0.645400  0.076400  0.826900  1.0  0.7625
  C  C178  1  0.843000  0.203000  0.817100  1.0  -0.0302
  C  C179  1  0.818400  0.236200  0.788800  1.0  0.1588
  C  C180  1  0.731200  0.247000  0.779500  1.0  -0.138
  C  C181  1  0.927700  0.193200  0.825000  1.0  0.1674
  C  C182  1  0.955700  0.161300  0.856400  1.0  -0.1525
  C  C183  1  0.740900  0.064100  0.619300  1.0  -0.103
  C  C184  1  0.675800  0.084500  0.640400  1.0  -0.1017
  C  C185  1  0.640200  0.065900  0.683500  1.0  0.6139
  C  C186  1  0.646000  0.945800  0.809900  1.0  0.7325
  C  C187  1  0.679600  0.902500  0.828400  1.0  -0.0765
  C  C188  1  0.649500  0.885800  0.866500  1.0  -0.0343
  C  C189  1  0.683000  0.846200  0.882700  1.0  -0.1286
  C  C190  1  0.745200  0.823600  0.859200  1.0  -0.0923
  C  C191  1  0.776500  0.841100  0.821100  1.0  0.1195
  C  C192  1  0.743300  0.880400  0.805500  1.0  -0.1071
  C  C193  1  0.645400  0.826900  0.923600  1.0  0.7608
  C  C194  1  0.843000  0.817100  0.797000  1.0  -0.0307
  C  C195  1  0.818400  0.788800  0.763800  1.0  0.1582
  C  C196  1  0.731200  0.779500  0.753000  1.0  -0.1383
  C  C197  1  0.927700  0.825000  0.806800  1.0  0.1667
  C  C198  1  0.955700  0.856400  0.838700  1.0  -0.1515
  C  C199  1  0.740900  0.935900  0.380700  1.0  -0.103
  C  C200  1  0.675800  0.915500  0.359600  1.0  -0.1018
  C  C201  1  0.640200  0.934100  0.316500  1.0  0.6122
  C  C202  1  0.646000  0.054200  0.190100  1.0  0.7322
  C  C203  1  0.679600  0.097500  0.171600  1.0  -0.0756
  C  C204  1  0.649500  0.114200  0.133500  1.0  -0.0332
  C  C205  1  0.683000  0.153800  0.117300  1.0  -0.1293
  C  C206  1  0.745200  0.176400  0.140800  1.0  -0.0925
  C  C207  1  0.776500  0.158900  0.178900  1.0  0.1195
  C  C208  1  0.743300  0.119600  0.194500  1.0  -0.1074
  C  C209  1  0.645400  0.173100  0.076400  1.0  0.7617
  C  C210  1  0.843000  0.182900  0.203000  1.0  -0.0308
  C  C211  1  0.818400  0.211200  0.236200  1.0  0.1581
  C  C212  1  0.731200  0.220500  0.247000  1.0  -0.1375
  C  C213  1  0.927700  0.175000  0.193200  1.0  0.1678
  C  C214  1  0.955700  0.143600  0.161300  1.0  -0.1528
  C  C215  1  0.259100  0.880700  0.435900  1.0  -0.1027
  C  C216  1  0.324200  0.859600  0.415500  1.0  -0.1073
  C  C217  1  0.359800  0.816500  0.434100  1.0  0.6123
  C  C218  1  0.354000  0.690100  0.554200  1.0  0.7334
  C  C219  1  0.320400  0.671600  0.597500  1.0  -0.0739
  C  C220  1  0.350500  0.633500  0.614200  1.0  -0.0344
  C  C221  1  0.317000  0.617300  0.653800  1.0  -0.1286
  C  C222  1  0.254800  0.640800  0.676400  1.0  -0.0932
  C  C223  1  0.223500  0.678900  0.658900  1.0  0.119
  C  C224  1  0.256700  0.694500  0.619600  1.0  -0.1085
  C  C225  1  0.354600  0.576400  0.673100  1.0  0.7615
  C  C226  1  0.157000  0.703000  0.682900  1.0  -0.0324
  C  C227  1  0.181600  0.736200  0.711200  1.0  0.1577
  C  C228  1  0.268800  0.747000  0.720500  1.0  -0.1378
  C  C229  1  0.072300  0.693200  0.675000  1.0  0.1675
  C  C230  1  0.044300  0.661300  0.643600  1.0  -0.1527
  C  C231  1  0.259100  0.119300  0.564100  1.0  -0.1032
  C  C232  1  0.324200  0.140400  0.584500  1.0  -0.1088
  C  C233  1  0.359800  0.183500  0.565900  1.0  0.6112
  C  C234  1  0.354000  0.309900  0.445800  1.0  0.7337
  C  C235  1  0.320400  0.328400  0.402500  1.0  -0.0743
  C  C236  1  0.350500  0.366500  0.385800  1.0  -0.0351
  C  C237  1  0.317000  0.382700  0.346200  1.0  -0.129
  C  C238  1  0.254800  0.359200  0.323600  1.0  -0.0931
  C  C239  1  0.223500  0.321100  0.341100  1.0  0.119
  C  C240  1  0.256700  0.305500  0.380400  1.0  -0.1072
  C  C241  1  0.354600  0.423600  0.326900  1.0  0.7615
  C  C242  1  0.157000  0.297000  0.317100  1.0  -0.0322
  C  C243  1  0.181600  0.263800  0.288800  1.0  0.1582
  C  C244  1  0.268800  0.253000  0.279500  1.0  -0.138
  C  C245  1  0.072300  0.306800  0.325000  1.0  0.1666
  C  C246  1  0.044300  0.338700  0.356400  1.0  -0.151
  C  C247  1  0.259100  0.435900  0.119300  1.0  -0.1042
  C  C248  1  0.324200  0.415500  0.140400  1.0  -0.1042
  C  C249  1  0.359800  0.434100  0.183500  1.0  0.614
  C  C250  1  0.354000  0.554200  0.309900  1.0  0.7314
  C  C251  1  0.320400  0.597500  0.328400  1.0  -0.0755
  C  C252  1  0.350500  0.614200  0.366500  1.0  -0.0337
  C  C253  1  0.317000  0.653800  0.382700  1.0  -0.128
  C  C254  1  0.254800  0.676400  0.359200  1.0  -0.0939
  C  C255  1  0.223500  0.658900  0.321100  1.0  0.1195
  C  C256  1  0.256700  0.619600  0.305500  1.0  -0.1068
  C  C257  1  0.354600  0.673100  0.423600  1.0  0.7604
  C  C258  1  0.157000  0.682900  0.297000  1.0  -0.0317
  C  C259  1  0.181600  0.711200  0.263800  1.0  0.1573
  C  C260  1  0.268800  0.720500  0.253000  1.0  -0.1381
  C  C261  1  0.072300  0.675000  0.306800  1.0  0.1669
  C  C262  1  0.044300  0.643600  0.338700  1.0  -0.1495
  C  C263  1  0.259100  0.564100  0.880700  1.0  -0.1037
  C  C264  1  0.324200  0.584500  0.859600  1.0  -0.1027
  C  C265  1  0.359800  0.565900  0.816500  1.0  0.6127
  C  C266  1  0.354000  0.445800  0.690100  1.0  0.7313
  C  C267  1  0.320400  0.402500  0.671600  1.0  -0.0767
  C  C268  1  0.350500  0.385800  0.633500  1.0  -0.0336
  C  C269  1  0.317000  0.346200  0.617300  1.0  -0.1284
  C  C270  1  0.254800  0.323600  0.640800  1.0  -0.0926
  C  C271  1  0.223500  0.341100  0.678900  1.0  0.1191
  C  C272  1  0.256700  0.380400  0.694500  1.0  -0.1102
  C  C273  1  0.354600  0.326900  0.576400  1.0  0.7608
  C  C274  1  0.157000  0.317100  0.703000  1.0  -0.033
  C  C275  1  0.181600  0.288800  0.736200  1.0  0.1573
  C  C276  1  0.268800  0.279500  0.747000  1.0  -0.1378
  C  C277  1  0.072300  0.325000  0.693200  1.0  0.1672
  C  C278  1  0.044300  0.356400  0.661300  1.0  -0.1519
  C  C279  1  0.259100  0.380700  0.064100  1.0  -0.1021
  C  C280  1  0.324200  0.359600  0.084500  1.0  -0.1076
  C  C281  1  0.359800  0.316500  0.065900  1.0  0.6122
  C  C282  1  0.354000  0.190100  0.945800  1.0  0.7333
  C  C283  1  0.320400  0.171600  0.902500  1.0  -0.0746
  C  C284  1  0.350500  0.133500  0.885800  1.0  -0.0346
  C  C285  1  0.317000  0.117300  0.846200  1.0  -0.1283
  C  C286  1  0.254800  0.140800  0.823600  1.0  -0.0931
  C  C287  1  0.223500  0.178900  0.841100  1.0  0.1192
  C  C288  1  0.256700  0.194500  0.880400  1.0  -0.1087
  C  C289  1  0.354600  0.076400  0.826900  1.0  0.7615
  C  C290  1  0.157000  0.203000  0.817100  1.0  -0.0318
  C  C291  1  0.181600  0.236200  0.788800  1.0  0.158
  C  C292  1  0.268800  0.247000  0.779500  1.0  -0.1375
  C  C293  1  0.072300  0.193200  0.825000  1.0  0.1675
  C  C294  1  0.044300  0.161300  0.856400  1.0  -0.1508
  C  C295  1  0.259100  0.619300  0.935900  1.0  -0.1044
  C  C296  1  0.324200  0.640400  0.915500  1.0  -0.1084
  C  C297  1  0.359800  0.683500  0.934100  1.0  0.6113
  C  C298  1  0.354000  0.809900  0.054200  1.0  0.7332
  C  C299  1  0.320400  0.828400  0.097500  1.0  -0.0745
  C  C300  1  0.350500  0.866500  0.114200  1.0  -0.0339
  C  C301  1  0.317000  0.882700  0.153800  1.0  -0.1292
  C  C302  1  0.254800  0.859200  0.176400  1.0  -0.0947
  C  C303  1  0.223500  0.821100  0.158900  1.0  0.1188
  C  C304  1  0.256700  0.805500  0.119600  1.0  -0.107
  C  C305  1  0.354600  0.923600  0.173100  1.0  0.7616
  C  C306  1  0.157000  0.797000  0.182900  1.0  -0.0327
  C  C307  1  0.181600  0.763800  0.211200  1.0  0.1579
  C  C308  1  0.268800  0.753000  0.220500  1.0  -0.138
  C  C309  1  0.072300  0.806800  0.175000  1.0  0.1674
  C  C310  1  0.044300  0.838700  0.143600  1.0  -0.1527
  C  C311  1  0.259100  0.935900  0.380700  1.0  -0.1036
  C  C312  1  0.324200  0.915500  0.359600  1.0  -0.1028
  C  C313  1  0.359800  0.934100  0.316500  1.0  0.6124
  C  C314  1  0.354000  0.054200  0.190100  1.0  0.7313
  C  C315  1  0.320400  0.097500  0.171600  1.0  -0.0756
  C  C316  1  0.350500  0.114200  0.133500  1.0  -0.0335
  C  C317  1  0.317000  0.153800  0.117300  1.0  -0.1286
  C  C318  1  0.254800  0.176400  0.140800  1.0  -0.0929
  C  C319  1  0.223500  0.158900  0.178900  1.0  0.1192
  C  C320  1  0.256700  0.119600  0.194500  1.0  -0.1085
  C  C321  1  0.354600  0.173100  0.076400  1.0  0.761
  C  C322  1  0.157000  0.182900  0.203000  1.0  -0.0325
  C  C323  1  0.181600  0.211200  0.236200  1.0  0.1572
  C  C324  1  0.268800  0.220500  0.247000  1.0  -0.1376
  C  C325  1  0.072300  0.175000  0.193200  1.0  0.1679
  C  C326  1  0.044300  0.143600  0.161300  1.0  -0.1519
  C  C327  1  0.259100  0.064100  0.619300  1.0  -0.1043
  C  C328  1  0.324200  0.084500  0.640400  1.0  -0.1032
  C  C329  1  0.359800  0.065900  0.683500  1.0  0.6142
  C  C330  1  0.354000  0.945800  0.809900  1.0  0.732
  C  C331  1  0.320400  0.902500  0.828400  1.0  -0.0765
  C  C332  1  0.350500  0.885800  0.866500  1.0  -0.0345
  C  C333  1  0.317000  0.846200  0.882700  1.0  -0.1279
  C  C334  1  0.254800  0.823600  0.859200  1.0  -0.0934
  C  C335  1  0.223500  0.841100  0.821100  1.0  0.1194
  C  C336  1  0.256700  0.880400  0.805500  1.0  -0.1077
  C  C337  1  0.354600  0.826900  0.923600  1.0  0.7602
  C  C338  1  0.157000  0.817100  0.797000  1.0  -0.0323
  C  C339  1  0.181600  0.788800  0.763800  1.0  0.1574
  C  C340  1  0.268800  0.779500  0.753000  1.0  -0.1381
  C  C341  1  0.072300  0.825000  0.806800  1.0  0.1671
  C  C342  1  0.044300  0.856400  0.838700  1.0  -0.1505
  C  C343  1  0.740900  0.119300  0.564100  1.0  -0.1022
  C  C344  1  0.675800  0.140400  0.584500  1.0  -0.1075
  C  C345  1  0.640200  0.183500  0.565900  1.0  0.6109
  C  C346  1  0.646000  0.309900  0.445800  1.0  0.7346
  C  C347  1  0.679600  0.328400  0.402500  1.0  -0.0742
  C  C348  1  0.649500  0.366500  0.385800  1.0  -0.0347
  C  C349  1  0.683000  0.382700  0.346200  1.0  -0.1297
  C  C350  1  0.745200  0.359200  0.323600  1.0  -0.0928
  C  C351  1  0.776500  0.321100  0.341100  1.0  0.1192
  C  C352  1  0.743300  0.305500  0.380400  1.0  -0.1066
  C  C353  1  0.645400  0.423600  0.326900  1.0  0.7616
  C  C354  1  0.843000  0.297000  0.317100  1.0  -0.0306
  C  C355  1  0.818400  0.263800  0.288800  1.0  0.159
  C  C356  1  0.731200  0.253000  0.279500  1.0  -0.138
  C  C357  1  0.927700  0.306800  0.325000  1.0  0.1671
  C  C358  1  0.955700  0.338700  0.356400  1.0  -0.1521
  C  C359  1  0.740900  0.880700  0.435900  1.0  -0.1012
  C  C360  1  0.675800  0.859600  0.415500  1.0  -0.1068
  C  C361  1  0.640200  0.816500  0.434100  1.0  0.6119
  C  C362  1  0.646000  0.690100  0.554200  1.0  0.7339
  C  C363  1  0.679600  0.671600  0.597500  1.0  -0.0738
  C  C364  1  0.649500  0.633500  0.614200  1.0  -0.0338
  C  C365  1  0.683000  0.617300  0.653800  1.0  -0.1293
  C  C366  1  0.745200  0.640800  0.676400  1.0  -0.0923
  C  C367  1  0.776500  0.678900  0.658900  1.0  0.119
  C  C368  1  0.743300  0.694500  0.619600  1.0  -0.1078
  C  C369  1  0.645400  0.576400  0.673100  1.0  0.7625
  C  C370  1  0.843000  0.703000  0.682900  1.0  -0.0308
  C  C371  1  0.818400  0.736200  0.711200  1.0  0.1586
  C  C372  1  0.731200  0.747000  0.720500  1.0  -0.1375
  C  C373  1  0.927700  0.693200  0.675000  1.0  0.1682
  C  C374  1  0.955700  0.661300  0.643600  1.0  -0.1536
  C  C375  1  0.740900  0.564100  0.880700  1.0  -0.1037
  C  C376  1  0.675800  0.584500  0.859600  1.0  -0.1021
  C  C377  1  0.640200  0.565900  0.816500  1.0  0.6125
  C  C378  1  0.646000  0.445800  0.690100  1.0  0.7319
  C  C379  1  0.679600  0.402500  0.671600  1.0  -0.0766
  C  C380  1  0.649500  0.385800  0.633500  1.0  -0.0335
  C  C381  1  0.683000  0.346200  0.617300  1.0  -0.1292
  C  C382  1  0.745200  0.323600  0.640800  1.0  -0.0921
  C  C383  1  0.776500  0.341100  0.678900  1.0  0.1194
  C  C384  1  0.743300  0.380400  0.694500  1.0  -0.1086
  C  C385  1  0.645400  0.326900  0.576400  1.0  0.7615
  C  C386  1  0.843000  0.317100  0.703000  1.0  -0.0313
  C  C387  1  0.818400  0.288800  0.736200  1.0  0.1582
  C  C388  1  0.731200  0.279500  0.747000  1.0  -0.1373
  C  C389  1  0.927700  0.325000  0.693200  1.0  0.1678
  C  C390  1  0.955700  0.356400  0.661300  1.0  -0.1527
  C  C391  1  0.740900  0.435900  0.119300  1.0  -0.1021
  C  C392  1  0.675800  0.415500  0.140400  1.0  -0.1024
  C  C393  1  0.640200  0.434100  0.183500  1.0  0.6136
  C  C394  1  0.646000  0.554200  0.309900  1.0  0.7321
  C  C395  1  0.679600  0.597500  0.328400  1.0  -0.0757
  C  C396  1  0.649500  0.614200  0.366500  1.0  -0.0332
  C  C397  1  0.683000  0.653800  0.382700  1.0  -0.1287
  C  C398  1  0.745200  0.676400  0.359200  1.0  -0.0927
  C  C399  1  0.776500  0.658900  0.321100  1.0  0.1196
  C  C400  1  0.743300  0.619600  0.305500  1.0  -0.1068
  C  C401  1  0.645400  0.673100  0.423600  1.0  0.7611
  C  C402  1  0.843000  0.682900  0.297000  1.0  -0.03
  C  C403  1  0.818400  0.711200  0.263800  1.0  0.1581
  C  C404  1  0.731200  0.720500  0.253000  1.0  -0.1386
  C  C405  1  0.927700  0.675000  0.306800  1.0  0.1674
  C  C406  1  0.955700  0.643600  0.338700  1.0  -0.1512
  C  C407  1  0.956700  0.598000  0.902000  1.0  -0.1424
  C  C408  1  0.928600  0.566100  0.933900  1.0  0.0743
  C  C409  1  0.842900  0.557300  0.942700  1.0  -0.0827
  C  C410  1  0.816700  0.525800  0.974200  1.0  0.0768
  C  C411  1  0.726300  0.516000  0.984000  1.0  -0.1289
  C  C412  1  0.777100  0.582100  0.917900  1.0  0.11
  C  C413  1  0.641900  0.622400  0.877600  1.0  0.0041
  C  C414  1  0.956700  0.402000  0.098000  1.0  -0.1412
  C  C415  1  0.928600  0.433900  0.066100  1.0  0.0735
  C  C416  1  0.842900  0.442700  0.057300  1.0  -0.0817
  C  C417  1  0.816700  0.474200  0.025800  1.0  0.0757
  C  C418  1  0.726300  0.484000  0.016000  1.0  -0.1298
  C  C419  1  0.777100  0.417900  0.082100  1.0  0.1096
  C  C420  1  0.641900  0.377600  0.122400  1.0  0.0041
  C  C421  1  0.956700  0.098000  0.598000  1.0  -0.1417
  C  C422  1  0.928600  0.066100  0.566100  1.0  0.0733
  C  C423  1  0.842900  0.057300  0.557300  1.0  -0.0819
  C  C424  1  0.816700  0.025800  0.525800  1.0  0.077
  C  C425  1  0.726300  0.016000  0.516000  1.0  -0.1291
  C  C426  1  0.777100  0.082100  0.582100  1.0  0.1096
  C  C427  1  0.641900  0.122400  0.622400  1.0  0.0035
  C  C428  1  0.956700  0.902000  0.402000  1.0  -0.1424
  C  C429  1  0.928600  0.933900  0.433900  1.0  0.0747
  C  C430  1  0.842900  0.942700  0.442700  1.0  -0.0823
  C  C431  1  0.816700  0.974200  0.474200  1.0  0.0754
  C  C432  1  0.726300  0.984000  0.484000  1.0  -0.1296
  C  C433  1  0.777100  0.917900  0.417900  1.0  0.1099
  C  C434  1  0.641900  0.877600  0.377600  1.0  0.0042
  C  C435  1  0.043300  0.902000  0.402000  1.0  -0.1419
  C  C436  1  0.071400  0.933900  0.433900  1.0  0.0742
  C  C437  1  0.157100  0.942700  0.442700  1.0  -0.0838
  C  C438  1  0.183300  0.974200  0.474200  1.0  0.0747
  C  C439  1  0.273700  0.984000  0.484000  1.0  -0.1277
  C  C440  1  0.222900  0.917900  0.417900  1.0  0.1104
  C  C441  1  0.358100  0.877600  0.377600  1.0  0.0027
  C  C442  1  0.043300  0.098000  0.598000  1.0  -0.1415
  C  C443  1  0.071400  0.066100  0.566100  1.0  0.0727
  C  C444  1  0.157100  0.057300  0.557300  1.0  -0.0831
  C  C445  1  0.183300  0.025800  0.525800  1.0  0.0759
  C  C446  1  0.273700  0.016000  0.516000  1.0  -0.1275
  C  C447  1  0.222900  0.082100  0.582100  1.0  0.1098
  C  C448  1  0.358100  0.122400  0.622400  1.0  0.0023
  C  C449  1  0.043300  0.402000  0.098000  1.0  -0.1401
  C  C450  1  0.071400  0.433900  0.066100  1.0  0.0731
  C  C451  1  0.157100  0.442700  0.057300  1.0  -0.0831
  C  C452  1  0.183300  0.474200  0.025800  1.0  0.0749
  C  C453  1  0.273700  0.484000  0.016000  1.0  -0.1275
  C  C454  1  0.222900  0.417900  0.082100  1.0  0.1099
  C  C455  1  0.358100  0.377600  0.122400  1.0  0.0024
  C  C456  1  0.043300  0.598000  0.902000  1.0  -0.1418
  C  C457  1  0.071400  0.566100  0.933900  1.0  0.0738
  C  C458  1  0.157100  0.557300  0.942700  1.0  -0.0839
  C  C459  1  0.183300  0.525800  0.974200  1.0  0.0757
  C  C460  1  0.273700  0.516000  0.984000  1.0  -0.1276
  C  C461  1  0.222900  0.582100  0.917900  1.0  0.1104
  C  C462  1  0.358100  0.622400  0.877600  1.0  0.0029
  N  N463  1  0.876900  0.500000  0.000000  1.0  -0.4345
  N  N464  1  0.876900  0.000000  0.500000  1.0  -0.4345
  N  N465  1  0.123100  0.000000  0.500000  1.0  -0.434
  N  N466  1  0.123100  0.500000  0.000000  1.0  -0.434
  N  N467  1  0.000000  0.544800  0.955200  1.0  -0.4263
  N  N468  1  0.000000  0.455200  0.044800  1.0  -0.427
  N  N469  1  0.000000  0.044800  0.544800  1.0  -0.4273
  N  N470  1  0.000000  0.955200  0.455200  1.0  -0.426
  N  N471  1  0.874100  0.739000  0.239000  1.0  -0.3796
  N  N472  1  0.874100  0.261000  0.761000  1.0  -0.3798
  N  N473  1  0.874100  0.761000  0.739000  1.0  -0.3797
  N  N474  1  0.874100  0.239000  0.261000  1.0  -0.3797
  N  N475  1  0.125900  0.761000  0.739000  1.0  -0.3781
  N  N476  1  0.125900  0.239000  0.261000  1.0  -0.3781
  N  N477  1  0.125900  0.739000  0.239000  1.0  -0.378
  N  N478  1  0.125900  0.261000  0.761000  1.0  -0.3781
  N  N479  1  0.000000  0.787500  0.193600  1.0  -0.358
  N  N480  1  0.000000  0.212500  0.806400  1.0  -0.3578
  N  N481  1  0.000000  0.806400  0.787500  1.0  -0.358
  N  N482  1  0.000000  0.193600  0.212500  1.0  -0.358
  N  N483  1  0.000000  0.712500  0.693600  1.0  -0.3584
  N  N484  1  0.000000  0.287500  0.306400  1.0  -0.3585
  N  N485  1  0.000000  0.693600  0.287500  1.0  -0.3576
  N  N486  1  0.000000  0.306400  0.712500  1.0  -0.3576
  O  O487  1  0.667100  0.697700  0.972100  1.0  -0.5727
  O  O488  1  0.588300  0.707300  0.917600  1.0  -0.5717
  O  O489  1  0.664300  0.774100  0.038600  1.0  -0.5481
  O  O490  1  0.595500  0.837600  0.035000  1.0  -0.6315
  O  O491  1  0.589800  0.941700  0.151500  1.0  -0.6002
  O  O492  1  0.671200  0.936500  0.209500  1.0  -0.5562
  O  O493  1  0.667100  0.302300  0.027900  1.0  -0.5746
  O  O494  1  0.588300  0.292700  0.082400  1.0  -0.5712
  O  O495  1  0.664300  0.225900  0.961400  1.0  -0.548
  O  O496  1  0.595500  0.162400  0.965000  1.0  -0.6303
  O  O497  1  0.589800  0.058300  0.848500  1.0  -0.6015
  O  O498  1  0.671200  0.063500  0.790500  1.0  -0.5558
  O  O499  1  0.667100  0.027900  0.697700  1.0  -0.5735
  O  O500  1  0.588300  0.082400  0.707300  1.0  -0.5708
  O  O501  1  0.664300  0.961400  0.774100  1.0  -0.5475
  O  O502  1  0.595500  0.965000  0.837600  1.0  -0.6284
  O  O503  1  0.589800  0.848500  0.941700  1.0  -0.6021
  O  O504  1  0.671200  0.790500  0.936500  1.0  -0.5574
  O  O505  1  0.667100  0.972100  0.302300  1.0  -0.5724
  O  O506  1  0.588300  0.917600  0.292700  1.0  -0.5712
  O  O507  1  0.664300  0.038600  0.225900  1.0  -0.5473
  O  O508  1  0.595500  0.035000  0.162400  1.0  -0.6277
  O  O509  1  0.589800  0.151500  0.058300  1.0  -0.6034
  O  O510  1  0.671200  0.209500  0.063500  1.0  -0.5577
  O  O511  1  0.332900  0.802300  0.472100  1.0  -0.5733
  O  O512  1  0.411700  0.792700  0.417600  1.0  -0.573
  O  O513  1  0.335700  0.725900  0.538600  1.0  -0.5488
  O  O514  1  0.404500  0.662400  0.535000  1.0  -0.6299
  O  O515  1  0.410200  0.558300  0.651500  1.0  -0.6016
  O  O516  1  0.328800  0.563500  0.709500  1.0  -0.5554
  O  O517  1  0.332900  0.197700  0.527900  1.0  -0.5741
  O  O518  1  0.411700  0.207300  0.582400  1.0  -0.5729
  O  O519  1  0.335700  0.274100  0.461400  1.0  -0.5483
  O  O520  1  0.404500  0.337600  0.465000  1.0  -0.6313
  O  O521  1  0.410200  0.441700  0.348500  1.0  -0.6028
  O  O522  1  0.328800  0.436500  0.290500  1.0  -0.5549
  O  O523  1  0.332900  0.472100  0.197700  1.0  -0.5727
  O  O524  1  0.411700  0.417600  0.207300  1.0  -0.5721
  O  O525  1  0.335700  0.538600  0.274100  1.0  -0.5481
  O  O526  1  0.404500  0.535000  0.337600  1.0  -0.6289
  O  O527  1  0.410200  0.651500  0.441700  1.0  -0.6031
  O  O528  1  0.328800  0.709500  0.436500  1.0  -0.5572
  O  O529  1  0.332900  0.527900  0.802300  1.0  -0.5727
  O  O530  1  0.411700  0.582400  0.792700  1.0  -0.5729
  O  O531  1  0.335700  0.461400  0.725900  1.0  -0.5492
  O  O532  1  0.404500  0.465000  0.662400  1.0  -0.6276
  O  O533  1  0.410200  0.348500  0.558300  1.0  -0.6043
  O  O534  1  0.328800  0.290500  0.563500  1.0  -0.5565
  O  O535  1  0.332900  0.302300  0.027900  1.0  -0.5739
  O  O536  1  0.411700  0.292700  0.082400  1.0  -0.5728
  O  O537  1  0.335700  0.225900  0.961400  1.0  -0.5484
  O  O538  1  0.404500  0.162400  0.965000  1.0  -0.63
  O  O539  1  0.410200  0.058300  0.848500  1.0  -0.6024
  O  O540  1  0.328800  0.063500  0.790500  1.0  -0.5551
  O  O541  1  0.332900  0.697700  0.972100  1.0  -0.5741
  O  O542  1  0.411700  0.707300  0.917600  1.0  -0.5735
  O  O543  1  0.335700  0.774100  0.038600  1.0  -0.5486
  O  O544  1  0.404500  0.837600  0.035000  1.0  -0.6317
  O  O545  1  0.410200  0.941700  0.151500  1.0  -0.6015
  O  O546  1  0.328800  0.936500  0.209500  1.0  -0.556
  O  O547  1  0.332900  0.972100  0.302300  1.0  -0.5727
  O  O548  1  0.411700  0.917600  0.292700  1.0  -0.573
  O  O549  1  0.335700  0.038600  0.225900  1.0  -0.5493
  O  O550  1  0.404500  0.035000  0.162400  1.0  -0.6277
  O  O551  1  0.410200  0.151500  0.058300  1.0  -0.6041
  O  O552  1  0.328800  0.209500  0.063500  1.0  -0.5573
  O  O553  1  0.332900  0.027900  0.697700  1.0  -0.5728
  O  O554  1  0.411700  0.082400  0.707300  1.0  -0.5725
  O  O555  1  0.335700  0.961400  0.774100  1.0  -0.5477
  O  O556  1  0.404500  0.965000  0.837600  1.0  -0.6285
  O  O557  1  0.410200  0.848500  0.941700  1.0  -0.6038
  O  O558  1  0.328800  0.790500  0.936500  1.0  -0.5563
  O  O559  1  0.667100  0.197700  0.527900  1.0  -0.5745
  O  O560  1  0.588300  0.207300  0.582400  1.0  -0.5712
  O  O561  1  0.664300  0.274100  0.461400  1.0  -0.548
  O  O562  1  0.595500  0.337600  0.465000  1.0  -0.6311
  O  O563  1  0.589800  0.441700  0.348500  1.0  -0.6015
  O  O564  1  0.671200  0.436500  0.290500  1.0  -0.5556
  O  O565  1  0.667100  0.802300  0.472100  1.0  -0.5724
  O  O566  1  0.588300  0.792700  0.417600  1.0  -0.5714
  O  O567  1  0.664300  0.725900  0.538600  1.0  -0.5481
  O  O568  1  0.595500  0.662400  0.535000  1.0  -0.6302
  O  O569  1  0.589800  0.558300  0.651500  1.0  -0.6007
  O  O570  1  0.671200  0.563500  0.709500  1.0  -0.556
  O  O571  1  0.667100  0.527900  0.802300  1.0  -0.5733
  O  O572  1  0.588300  0.582400  0.792700  1.0  -0.5709
  O  O573  1  0.664300  0.461400  0.725900  1.0  -0.547
  O  O574  1  0.595500  0.465000  0.662400  1.0  -0.6276
  O  O575  1  0.589800  0.348500  0.558300  1.0  -0.6024
  O  O576  1  0.671200  0.290500  0.563500  1.0  -0.5573
  O  O577  1  0.667100  0.472100  0.197700  1.0  -0.5726
  O  O578  1  0.588300  0.417600  0.207300  1.0  -0.5705
  O  O579  1  0.664300  0.538600  0.274100  1.0  -0.5482
  O  O580  1  0.595500  0.535000  0.337600  1.0  -0.6289
  O  O581  1  0.589800  0.651500  0.441700  1.0  -0.6025
  O  O582  1  0.671200  0.709500  0.436500  1.0  -0.5577
  O  O583  1  0.500000  0.770600  0.979300  1.0  -0.8042
  O  O584  1  0.500000  0.229400  0.020700  1.0  -0.8042
  O  O585  1  0.500000  0.020700  0.770600  1.0  -0.8038
  O  O586  1  0.500000  0.979300  0.229400  1.0  -0.8034
  O  O587  1  0.500000  0.729400  0.479300  1.0  -0.8043
  O  O588  1  0.500000  0.270600  0.520700  1.0  -0.804
  O  O589  1  0.500000  0.479300  0.270600  1.0  -0.8036
  O  O590  1  0.500000  0.520700  0.729400  1.0  -0.8032
