# generated using pymatgen
data_NaCoH33(C7O6)3
_symmetry_space_group_name_H-M   'P 1'
_cell_length_a   14.94140000
_cell_length_b   15.99180000
_cell_length_c   16.03810000
_cell_angle_alpha   90.00000000
_cell_angle_beta   90.00000000
_cell_angle_gamma   90.00000000
_symmetry_Int_Tables_number   1
_chemical_formula_structural   NaCoH33(C7O6)3
_chemical_formula_sum   'Na4 Co4 H132 C84 O72'
_cell_volume   3832.14169777
_cell_formula_units_Z   4
loop_
 _symmetry_equiv_pos_site_id
 _symmetry_equiv_pos_as_xyz
  1  'x, y, z'
loop_
 _atom_site_type_symbol
 _atom_site_label
 _atom_site_symmetry_multiplicity
 _atom_site_fract_x
 _atom_site_fract_y
 _atom_site_fract_z
 _atom_site_occupancy
 _atom_site_charge
  Na  Na1  1  0.562070  0.053010  0.962300  1.0  0.8594
  Na  Na2  1  0.937930  0.946990  0.462300  1.0  0.8591
  Na  Na3  1  0.437930  0.553010  0.537700  1.0  0.8595
  Na  Na4  1  0.062070  0.446990  0.037700  1.0  0.8607
  Co  Co5  1  0.144210  0.133240  0.645110  1.0  0.983
  Co  Co6  1  0.355790  0.866760  0.145110  1.0  0.9833
  Co  Co7  1  0.855790  0.633240  0.854890  1.0  0.9834
  Co  Co8  1  0.644210  0.366760  0.354890  1.0  0.9837
  H  H9  1  0.591100  0.686700  0.960100  1.0  0.4009
  H  H10  1  0.644800  0.906400  0.051000  1.0  0.0772
  H  H11  1  0.579800  0.775900  0.063700  1.0  0.0517
  H  H12  1  0.812600  0.885500  0.014700  1.0  0.1284
  H  H13  1  0.837700  0.867700  0.921500  1.0  0.1079
  H  H14  1  0.687000  0.870900  0.882300  1.0  0.0563
  H  H15  1  0.463200  0.117600  0.114800  1.0  0.0839
  H  H16  1  0.407000  0.197400  0.241400  1.0  0.1364
  H  H17  1  0.461700  0.193500  0.324900  1.0  0.1137
  H  H18  1  0.637600  0.186100  0.134900  1.0  0.0416
  H  H19  1  0.390500  0.960600  0.897500  1.0  0.0896
  H  H20  1  0.474800  0.066900  0.252000  1.0  0.0634
  H  H21  1  0.398300  0.968100  0.737900  1.0  0.1367
  H  H22  1  0.396100  0.056200  0.695000  1.0  0.1125
  H  H23  1  0.384900  0.122900  0.824700  1.0  0.051
  H  H24  1  0.254600  0.915500  0.811500  1.0  0.1314
  H  H25  1  0.169600  0.973100  0.809900  1.0  0.117
  H  H26  1  0.571800  0.318100  0.126900  1.0  0.1097
  H  H27  1  0.476500  0.278500  0.115500  1.0  0.1315
  H  H28  1  0.622300  0.067900  0.264100  1.0  0.4083
  H  H29  1  0.239500  0.120900  0.935700  1.0  0.4066
  H  H30  1  0.731200  0.772700  0.099500  1.0  0.1364
  H  H31  1  0.708000  0.687500  0.055700  1.0  0.1065
  H  H32  1  0.241600  0.982000  0.941000  1.0  0.0639
  H  H33  1  0.610700  0.217800  0.006300  1.0  0.4515
  H  H34  1  0.371900  0.038200  0.004200  1.0  0.3874
  H  H35  1  0.721600  0.996900  0.883200  1.0  0.4359
  H  H36  1  0.235000  0.120000  0.781000  1.0  0.373
  H  H37  1  0.625500  0.218600  0.278100  1.0  0.3851
  H  H38  1  0.711000  0.724000  0.892000  1.0  0.387
  H  H39  1  0.519000  0.086000  0.795000  1.0  0.4479
  H  H40  1  0.541500  0.998500  0.131300  1.0  0.3984
  H  H41  1  0.500300  0.887700  0.986800  1.0  0.3961
  H  H42  1  0.908900  0.313300  0.460100  1.0  0.3999
  H  H43  1  0.855200  0.093600  0.551000  1.0  0.0777
  H  H44  1  0.920200  0.224100  0.563700  1.0  0.0518
  H  H45  1  0.687400  0.114500  0.514700  1.0  0.1299
  H  H46  1  0.662300  0.132300  0.421500  1.0  0.1088
  H  H47  1  0.813000  0.129100  0.382300  1.0  0.0559
  H  H48  1  0.036800  0.882400  0.614800  1.0  0.0825
  H  H49  1  0.093000  0.802600  0.741400  1.0  0.1352
  H  H50  1  0.038300  0.806500  0.824900  1.0  0.1135
  H  H51  1  0.862400  0.813900  0.634900  1.0  0.0463
  H  H52  1  0.109500  0.039400  0.397500  1.0  0.0881
  H  H53  1  0.025200  0.933100  0.752000  1.0  0.0627
  H  H54  1  0.101700  0.031900  0.237900  1.0  0.1353
  H  H55  1  0.103900  0.943800  0.195000  1.0  0.1108
  H  H56  1  0.115100  0.877100  0.324700  1.0  0.0487
  H  H57  1  0.245400  0.084500  0.311500  1.0  0.1273
  H  H58  1  0.330400  0.026900  0.309900  1.0  0.1164
  H  H59  1  0.928200  0.681900  0.626900  1.0  0.11
  H  H60  1  0.023500  0.721500  0.615500  1.0  0.1309
  H  H61  1  0.877700  0.932100  0.764100  1.0  0.4078
  H  H62  1  0.260500  0.879100  0.435700  1.0  0.4063
  H  H63  1  0.768800  0.227300  0.599500  1.0  0.1381
  H  H64  1  0.792000  0.312500  0.555700  1.0  0.1041
  H  H65  1  0.258400  0.018000  0.441000  1.0  0.0633
  H  H66  1  0.889300  0.782200  0.506300  1.0  0.4528
  H  H67  1  0.128100  0.961800  0.504200  1.0  0.3881
  H  H68  1  0.778400  0.003100  0.383200  1.0  0.4366
  H  H69  1  0.265000  0.880000  0.281000  1.0  0.3814
  H  H70  1  0.874500  0.781400  0.778100  1.0  0.3866
  H  H71  1  0.789000  0.276000  0.392000  1.0  0.3837
  H  H72  1  0.981000  0.914000  0.295000  1.0  0.447
  H  H73  1  0.958500  0.001500  0.631300  1.0  0.3992
  H  H74  1  0.999700  0.112300  0.486800  1.0  0.3958
  H  H75  1  0.408900  0.186700  0.539900  1.0  0.4004
  H  H76  1  0.355200  0.406400  0.449000  1.0  0.0767
  H  H77  1  0.420200  0.275900  0.436300  1.0  0.0523
  H  H78  1  0.187400  0.385500  0.485300  1.0  0.1287
  H  H79  1  0.162300  0.367700  0.578500  1.0  0.1086
  H  H80  1  0.313000  0.370900  0.617700  1.0  0.0565
  H  H81  1  0.536800  0.617600  0.385200  1.0  0.0831
  H  H82  1  0.593000  0.697400  0.258600  1.0  0.1359
  H  H83  1  0.538300  0.693500  0.175100  1.0  0.1149
  H  H84  1  0.362400  0.686100  0.365100  1.0  0.0449
  H  H85  1  0.609500  0.460600  0.602500  1.0  0.0889
  H  H86  1  0.525200  0.566900  0.248000  1.0  0.0629
  H  H87  1  0.601700  0.468100  0.762100  1.0  0.1361
  H  H88  1  0.603900  0.556200  0.805000  1.0  0.1129
  H  H89  1  0.615100  0.622900  0.675300  1.0  0.0516
  H  H90  1  0.745400  0.415500  0.688500  1.0  0.1317
  H  H91  1  0.830400  0.473100  0.690100  1.0  0.1172
  H  H92  1  0.428200  0.818100  0.373100  1.0  0.109
  H  H93  1  0.523500  0.778500  0.384500  1.0  0.1304
  H  H94  1  0.377700  0.567900  0.235900  1.0  0.4079
  H  H95  1  0.760500  0.620900  0.564300  1.0  0.4099
  H  H96  1  0.268800  0.272700  0.400500  1.0  0.1365
  H  H97  1  0.292000  0.187500  0.444300  1.0  0.1063
  H  H98  1  0.758400  0.482000  0.559000  1.0  0.0623
  H  H99  1  0.389300  0.717800  0.493700  1.0  0.4525
  H  H100  1  0.628100  0.538200  0.495800  1.0  0.3881
  H  H101  1  0.278400  0.496900  0.616800  1.0  0.4358
  H  H102  1  0.765000  0.620000  0.719000  1.0  0.3778
  H  H103  1  0.374500  0.718600  0.221900  1.0  0.3853
  H  H104  1  0.289000  0.224000  0.608000  1.0  0.382
  H  H105  1  0.481000  0.586000  0.705000  1.0  0.4492
  H  H106  1  0.458500  0.498500  0.368700  1.0  0.3982
  H  H107  1  0.499700  0.387700  0.513200  1.0  0.3958
  H  H108  1  0.091100  0.813300  0.039900  1.0  0.3988
  H  H109  1  0.144800  0.593600  0.949000  1.0  0.0761
  H  H110  1  0.079800  0.724100  0.936300  1.0  0.0533
  H  H111  1  0.312600  0.614500  0.985300  1.0  0.1288
  H  H112  1  0.337700  0.632300  0.078500  1.0  0.1074
  H  H113  1  0.187000  0.629100  0.117700  1.0  0.0564
  H  H114  1  0.963200  0.382400  0.885200  1.0  0.0837
  H  H115  1  0.907000  0.302600  0.758600  1.0  0.1363
  H  H116  1  0.961700  0.306500  0.675100  1.0  0.1149
  H  H117  1  0.137600  0.313900  0.865100  1.0  0.0403
  H  H118  1  0.890500  0.539400  0.102500  1.0  0.088
  H  H119  1  0.974800  0.433100  0.748000  1.0  0.0634
  H  H120  1  0.898300  0.531900  0.262100  1.0  0.1342
  H  H121  1  0.896100  0.443800  0.305000  1.0  0.112
  H  H122  1  0.884900  0.377100  0.175300  1.0  0.0508
  H  H123  1  0.754600  0.584500  0.188500  1.0  0.1279
  H  H124  1  0.669600  0.526900  0.190100  1.0  0.119
  H  H125  1  0.071800  0.181900  0.873100  1.0  0.1109
  H  H126  1  0.976500  0.221500  0.884500  1.0  0.131
  H  H127  1  0.122300  0.432100  0.735900  1.0  0.4075
  H  H128  1  0.739500  0.379100  0.064300  1.0  0.4115
  H  H129  1  0.231200  0.727300  0.900500  1.0  0.1377
  H  H130  1  0.208000  0.812500  0.944300  1.0  0.1047
  H  H131  1  0.741600  0.518000  0.059000  1.0  0.0632
  H  H132  1  0.110700  0.282200  0.993700  1.0  0.4525
  H  H133  1  0.871900  0.461800  0.995800  1.0  0.3856
  H  H134  1  0.221600  0.503100  0.116800  1.0  0.4353
  H  H135  1  0.735000  0.380000  0.219000  1.0  0.3817
  H  H136  1  0.125500  0.281400  0.721900  1.0  0.3856
  H  H137  1  0.211000  0.776000  0.108000  1.0  0.3857
  H  H138  1  0.019000  0.414000  0.205000  1.0  0.4494
  H  H139  1  0.041500  0.501500  0.868700  1.0  0.3993
  H  H140  1  0.000300  0.612300  0.013200  1.0  0.3964
  C  C141  1  0.631150  0.876440  0.999250  1.0  0.1297
  C  C142  1  0.623470  0.783380  0.018650  1.0  0.2123
  C  C143  1  0.793010  0.857740  0.964170  1.0  -0.3219
  C  C144  1  0.703840  0.895100  0.936200  1.0  0.2446
  C  C145  1  0.522580  0.114870  0.140620  1.0  0.0936
  C  C146  1  0.466860  0.194270  0.264600  1.0  -0.3081
  C  C147  1  0.576730  0.190320  0.112460  1.0  0.2528
  C  C148  1  0.366900  0.017810  0.897710  1.0  0.0875
  C  C149  1  0.511490  0.114870  0.235500  1.0  0.2094
  C  C150  1  0.373640  0.024060  0.741800  1.0  -0.3313
  C  C151  1  0.404750  0.064520  0.823080  1.0  0.2487
  C  C152  1  0.234490  0.973130  0.812550  1.0  -0.3068
  C  C153  1  0.534020  0.271350  0.142610  1.0  -0.3317
  C  C154  1  0.713660  0.747280  0.047050  1.0  -0.3492
  C  C155  1  0.264580  0.014080  0.893450  1.0  0.2073
  C  C156  1  0.240180  0.976000  0.656340  1.0  0.5929
  C  C157  1  0.875930  0.729020  0.009310  1.0  0.5964
  C  C158  1  0.785770  0.764680  0.980190  1.0  0.2538
  C  C159  1  0.474300  0.352140  0.265830  1.0  0.6109
  C  C160  1  0.520680  0.271740  0.237570  1.0  0.2414
  C  C161  1  0.272040  0.019400  0.736730  1.0  0.2431
  C  C162  1  0.868850  0.123560  0.499250  1.0  0.1271
  C  C163  1  0.876530  0.216620  0.518650  1.0  0.2144
  C  C164  1  0.706990  0.142260  0.464170  1.0  -0.3178
  C  C165  1  0.796160  0.104900  0.436200  1.0  0.2447
  C  C166  1  0.977420  0.885130  0.640620  1.0  0.0939
  C  C167  1  0.033140  0.805730  0.764600  1.0  -0.3108
  C  C168  1  0.923270  0.809680  0.612460  1.0  0.2548
  C  C169  1  0.133100  0.982190  0.397710  1.0  0.0888
  C  C170  1  0.988510  0.885130  0.735500  1.0  0.2107
  C  C171  1  0.126360  0.975940  0.241800  1.0  -0.3324
  C  C172  1  0.095250  0.935480  0.323080  1.0  0.2477
  C  C173  1  0.265510  0.026870  0.312550  1.0  -0.3083
  C  C174  1  0.965980  0.728650  0.642610  1.0  -0.3297
  C  C175  1  0.786340  0.252720  0.547050  1.0  -0.3512
  C  C176  1  0.235420  0.985920  0.393450  1.0  0.2081
  C  C177  1  0.259820  0.024000  0.156340  1.0  0.5927
  C  C178  1  0.624070  0.270980  0.509310  1.0  0.5938
  C  C179  1  0.714230  0.235320  0.480190  1.0  0.2544
  C  C180  1  0.025700  0.647860  0.765830  1.0  0.607
  C  C181  1  0.979320  0.728260  0.737570  1.0  0.2403
  C  C182  1  0.227960  0.980600  0.236730  1.0  0.2439
  C  C183  1  0.368850  0.376440  0.500750  1.0  0.1284
  C  C184  1  0.376530  0.283380  0.481350  1.0  0.2143
  C  C185  1  0.206990  0.357740  0.535830  1.0  -0.32
  C  C186  1  0.296160  0.395100  0.563800  1.0  0.2457
  C  C187  1  0.477420  0.614870  0.359380  1.0  0.0932
  C  C188  1  0.533140  0.694270  0.235400  1.0  -0.3085
  C  C189  1  0.423270  0.690320  0.387540  1.0  0.2531
  C  C190  1  0.633100  0.517810  0.602290  1.0  0.0888
  C  C191  1  0.488510  0.614870  0.264500  1.0  0.2087
  C  C192  1  0.626360  0.524060  0.758200  1.0  -0.3329
  C  C193  1  0.595250  0.564520  0.676920  1.0  0.249
  C  C194  1  0.765510  0.473130  0.687450  1.0  -0.3086
  C  C195  1  0.465980  0.771350  0.357390  1.0  -0.3312
  C  C196  1  0.286340  0.247280  0.452950  1.0  -0.3481
  C  C197  1  0.735420  0.514080  0.606550  1.0  0.2071
  C  C198  1  0.759820  0.476000  0.843660  1.0  0.5916
  C  C199  1  0.124070  0.229020  0.490690  1.0  0.5956
  C  C200  1  0.214230  0.264680  0.519810  1.0  0.2539
  C  C201  1  0.525700  0.852140  0.234170  1.0  0.6044
  C  C202  1  0.479320  0.771740  0.262430  1.0  0.243
  C  C203  1  0.727960  0.519400  0.763270  1.0  0.2442
  C  C204  1  0.131150  0.623560  0.000750  1.0  0.1288
  C  C205  1  0.123470  0.716620  0.981350  1.0  0.2131
  C  C206  1  0.293010  0.642260  0.035830  1.0  -0.3188
  C  C207  1  0.203840  0.604900  0.063800  1.0  0.2464
  C  C208  1  0.022580  0.385130  0.859380  1.0  0.0939
  C  C209  1  0.966860  0.305730  0.735400  1.0  -0.3053
  C  C210  1  0.076730  0.309680  0.887540  1.0  0.2509
  C  C211  1  0.866900  0.482190  0.102290  1.0  0.0877
  C  C212  1  0.011490  0.385130  0.764500  1.0  0.2093
  C  C213  1  0.873640  0.475940  0.258200  1.0  -0.3331
  C  C214  1  0.904750  0.435480  0.176920  1.0  0.2491
  C  C215  1  0.734490  0.526870  0.187450  1.0  -0.3061
  C  C216  1  0.034020  0.228650  0.857390  1.0  -0.3295
  C  C217  1  0.213660  0.752720  0.952950  1.0  -0.3502
  C  C218  1  0.764580  0.485920  0.106550  1.0  0.2072
  C  C219  1  0.740180  0.524000  0.343660  1.0  0.5919
  C  C220  1  0.375930  0.770980  0.990690  1.0  0.5965
  C  C221  1  0.285770  0.735320  0.019810  1.0  0.253
  C  C222  1  0.974300  0.147860  0.734170  1.0  0.6061
  C  C223  1  0.020680  0.228260  0.762430  1.0  0.2407
  C  C224  1  0.772040  0.480600  0.263270  1.0  0.2448
  O  O225  1  0.268120  0.904110  0.644490  1.0  -0.5973
  O  O226  1  0.395880  0.361840  0.243430  1.0  -0.6024
  O  O227  1  0.912680  0.760070  0.070730  1.0  -0.5753
  O  O228  1  0.594350  0.736280  0.947670  1.0  -0.551
  O  O229  1  0.549740  0.908500  0.965720  1.0  -0.6628
  O  O230  1  0.396800  0.059060  0.971260  1.0  -0.6266
  O  O231  1  0.596020  0.110700  0.277850  1.0  -0.5812
  O  O232  1  0.224990  0.095920  0.893170  1.0  -0.5811
  O  O233  1  0.580330  0.188120  0.022670  1.0  -0.6903
  O  O234  1  0.500990  0.061310  0.829730  1.0  -0.6739
  O  O235  1  0.566360  0.041470  0.112750  1.0  -0.6344
  O  O236  1  0.708800  0.984170  0.928180  1.0  -0.6564
  O  O237  1  0.185240  0.015220  0.609410  1.0  -0.6083
  O  O238  1  0.763560  0.721450  0.904230  1.0  -0.6066
  O  O239  1  0.518300  0.403390  0.311390  1.0  -0.6149
  O  O240  1  0.236770  0.104140  0.734120  1.0  -0.5932
  O  O241  1  0.607840  0.270070  0.276550  1.0  -0.5824
  O  O242  1  0.908990  0.669220  0.966570  1.0  -0.6064
  O  O243  1  0.231880  0.095890  0.144490  1.0  -0.5952
  O  O244  1  0.104120  0.638160  0.743430  1.0  -0.6011
  O  O245  1  0.587320  0.239930  0.570730  1.0  -0.5752
  O  O246  1  0.905650  0.263720  0.447670  1.0  -0.5556
  O  O247  1  0.950260  0.091500  0.465720  1.0  -0.6611
  O  O248  1  0.103200  0.940940  0.471260  1.0  -0.6268
  O  O249  1  0.903980  0.889300  0.777850  1.0  -0.583
  O  O250  1  0.275010  0.904080  0.393170  1.0  -0.5785
  O  O251  1  0.919670  0.811880  0.522670  1.0  -0.6915
  O  O252  1  0.999010  0.938690  0.329730  1.0  -0.6734
  O  O253  1  0.933640  0.958530  0.612750  1.0  -0.6371
  O  O254  1  0.791200  0.015830  0.428180  1.0  -0.6554
  O  O255  1  0.314760  0.984780  0.109410  1.0  -0.6085
  O  O256  1  0.736440  0.278550  0.404230  1.0  -0.6059
  O  O257  1  0.981700  0.596610  0.811390  1.0  -0.6149
  O  O258  1  0.263230  0.895860  0.234120  1.0  -0.5934
  O  O259  1  0.892160  0.729930  0.776550  1.0  -0.5826
  O  O260  1  0.591010  0.330780  0.466570  1.0  -0.6055
  O  O261  1  0.731880  0.404110  0.855510  1.0  -0.596
  O  O262  1  0.604120  0.861840  0.256570  1.0  -0.6007
  O  O263  1  0.087320  0.260070  0.429270  1.0  -0.575
  O  O264  1  0.405650  0.236280  0.552330  1.0  -0.5557
  O  O265  1  0.450260  0.408500  0.534280  1.0  -0.6602
  O  O266  1  0.603200  0.559060  0.528740  1.0  -0.626
  O  O267  1  0.403980  0.610700  0.222150  1.0  -0.5795
  O  O268  1  0.775010  0.595920  0.606830  1.0  -0.5822
  O  O269  1  0.419670  0.688120  0.477330  1.0  -0.6913
  O  O270  1  0.499010  0.561310  0.670270  1.0  -0.6758
  O  O271  1  0.433640  0.541470  0.387250  1.0  -0.6358
  O  O272  1  0.291200  0.484170  0.571820  1.0  -0.6573
  O  O273  1  0.814760  0.515220  0.890590  1.0  -0.6089
  O  O274  1  0.236440  0.221450  0.595770  1.0  -0.6067
  O  O275  1  0.481700  0.903390  0.188610  1.0  -0.6141
  O  O276  1  0.763230  0.604140  0.765880  1.0  -0.5933
  O  O277  1  0.392160  0.770070  0.223450  1.0  -0.5825
  O  O278  1  0.091010  0.169220  0.533430  1.0  -0.6075
  O  O279  1  0.768120  0.595890  0.355510  1.0  -0.5969
  O  O280  1  0.895880  0.138160  0.756570  1.0  -0.5996
  O  O281  1  0.412680  0.739930  0.929270  1.0  -0.5744
  O  O282  1  0.094350  0.763720  0.052330  1.0  -0.556
  O  O283  1  0.049740  0.591500  0.034280  1.0  -0.6596
  O  O284  1  0.896800  0.440940  0.028740  1.0  -0.6221
  O  O285  1  0.096020  0.389300  0.722150  1.0  -0.5825
  O  O286  1  0.724990  0.404080  0.106830  1.0  -0.5821
  O  O287  1  0.080330  0.311880  0.977330  1.0  -0.6895
  O  O288  1  0.000990  0.438690  0.170270  1.0  -0.6768
  O  O289  1  0.066360  0.458530  0.887250  1.0  -0.6294
  O  O290  1  0.208800  0.515830  0.071820  1.0  -0.6583
  O  O291  1  0.685240  0.484780  0.390590  1.0  -0.6077
  O  O292  1  0.263560  0.778550  0.095770  1.0  -0.6065
  O  O293  1  0.018300  0.096610  0.688610  1.0  -0.6147
  O  O294  1  0.736770  0.395860  0.265880  1.0  -0.593
  O  O295  1  0.107840  0.229930  0.723450  1.0  -0.581
  O  O296  1  0.408990  0.830780  0.033430  1.0  -0.6072
