# generated using pymatgen
data_InH30C42NO8
_symmetry_space_group_name_H-M   'P 1'
_cell_length_a   17.31750000
_cell_length_b   17.31750000
_cell_length_c   26.33000000
_cell_angle_alpha   94.48830000
_cell_angle_beta   94.48830000
_cell_angle_gamma   110.21700000
_symmetry_Int_Tables_number   1
_chemical_formula_structural   InH30C42NO8
_chemical_formula_sum   'In4 H120 C168 N4 O32'
_cell_volume   7340.10613722
_cell_formula_units_Z   4
loop_
 _symmetry_equiv_pos_site_id
 _symmetry_equiv_pos_as_xyz
  1  'x, y, z'
loop_
 _atom_site_type_symbol
 _atom_site_label
 _atom_site_symmetry_multiplicity
 _atom_site_fract_x
 _atom_site_fract_y
 _atom_site_fract_z
 _atom_site_occupancy
 _atom_site_charge
  In  In1  1  0.367360  0.861300  0.884170  1.0  1.5095
  In  In2  1  0.861300  0.367360  0.384170  1.0  1.5108
  In  In3  1  0.138700  0.632640  0.615830  1.0  1.5099
  In  In4  1  0.632640  0.138700  0.115830  1.0  1.5072
  H  H5  1  0.212900  0.766700  0.023400  1.0  0.0911
  H  H6  1  0.097200  0.686000  0.059400  1.0  0.1216
  H  H7  1  0.966400  0.630400  0.920200  1.0  0.1115
  H  H8  1  0.079700  0.711900  0.885000  1.0  0.1172
  H  H9  1  0.810600  0.344600  0.208500  1.0  0.115
  H  H10  1  0.801000  0.378200  0.125800  1.0  0.1122
  H  H11  1  0.993100  0.592900  0.166400  1.0  0.1137
  H  H12  1  0.999700  0.561700  0.249800  1.0  0.1053
  H  H13  1  0.383000  0.141600  0.870600  1.0  0.1129
  H  H14  1  0.454400  0.284800  0.884900  1.0  0.1137
  H  H15  1  0.602900  0.250700  0.000600  1.0  0.1069
  H  H16  1  0.534000  0.108000  0.985300  1.0  0.1074
  H  H17  1  0.576000  0.771200  0.954200  1.0  0.1249
  H  H18  1  0.636100  0.675500  0.974900  1.0  0.1085
  H  H19  1  0.451700  0.492700  0.885300  1.0  0.1193
  H  H20  1  0.389000  0.585400  0.865300  1.0  0.1193
  H  H21  1  0.763000  0.450600  0.069900  1.0  0.1093
  H  H22  1  0.858900  0.588500  0.956800  1.0  0.1162
  H  H23  1  0.009000  0.580000  0.081100  1.0  0.1166
  H  H24  1  0.710100  0.599500  0.968500  1.0  0.1098
  H  H25  1  0.691400  0.364600  0.985600  1.0  0.1108
  H  H26  1  0.494000  0.410800  0.922200  1.0  0.1142
  H  H27  1  0.766700  0.212900  0.523400  1.0  0.0915
  H  H28  1  0.686000  0.097200  0.559400  1.0  0.1202
  H  H29  1  0.630400  0.966400  0.420200  1.0  0.1107
  H  H30  1  0.711900  0.079700  0.385000  1.0  0.1174
  H  H31  1  0.344600  0.810600  0.708500  1.0  0.1141
  H  H32  1  0.378200  0.801000  0.625800  1.0  0.1116
  H  H33  1  0.592900  0.993100  0.666400  1.0  0.1138
  H  H34  1  0.561700  0.999700  0.749800  1.0  0.1055
  H  H35  1  0.141600  0.383000  0.370600  1.0  0.1126
  H  H36  1  0.284800  0.454400  0.384900  1.0  0.1138
  H  H37  1  0.250700  0.602900  0.500600  1.0  0.1073
  H  H38  1  0.108000  0.534000  0.485300  1.0  0.1067
  H  H39  1  0.771200  0.576000  0.454200  1.0  0.125
  H  H40  1  0.675500  0.636100  0.474900  1.0  0.1095
  H  H41  1  0.492700  0.451700  0.385300  1.0  0.1185
  H  H42  1  0.585400  0.389000  0.365300  1.0  0.1179
  H  H43  1  0.450600  0.763000  0.569900  1.0  0.1088
  H  H44  1  0.588500  0.858900  0.456800  1.0  0.116
  H  H45  1  0.580000  0.009000  0.581100  1.0  0.1176
  H  H46  1  0.599500  0.710100  0.468500  1.0  0.1095
  H  H47  1  0.364600  0.691400  0.485600  1.0  0.1111
  H  H48  1  0.410800  0.494000  0.422200  1.0  0.1147
  H  H49  1  0.233300  0.787100  0.476600  1.0  0.0916
  H  H50  1  0.314000  0.902800  0.440600  1.0  0.1203
  H  H51  1  0.369600  0.033600  0.579800  1.0  0.1113
  H  H52  1  0.288100  0.920300  0.615000  1.0  0.1185
  H  H53  1  0.655400  0.189400  0.291500  1.0  0.1137
  H  H54  1  0.621800  0.199000  0.374200  1.0  0.112
  H  H55  1  0.407100  0.006900  0.333600  1.0  0.1125
  H  H56  1  0.438300  0.000300  0.250200  1.0  0.1051
  H  H57  1  0.858400  0.617000  0.629400  1.0  0.1135
  H  H58  1  0.715200  0.545600  0.615100  1.0  0.1151
  H  H59  1  0.749300  0.397100  0.499400  1.0  0.1071
  H  H60  1  0.892000  0.466000  0.514700  1.0  0.1064
  H  H61  1  0.228800  0.424000  0.545800  1.0  0.1246
  H  H62  1  0.324500  0.363900  0.525100  1.0  0.1087
  H  H63  1  0.507300  0.548300  0.614700  1.0  0.1182
  H  H64  1  0.414600  0.611000  0.634700  1.0  0.1182
  H  H65  1  0.549400  0.237000  0.430100  1.0  0.1082
  H  H66  1  0.411500  0.141100  0.543200  1.0  0.1174
  H  H67  1  0.420000  0.991000  0.418900  1.0  0.1176
  H  H68  1  0.400500  0.289900  0.531500  1.0  0.11
  H  H69  1  0.635400  0.308600  0.514400  1.0  0.1108
  H  H70  1  0.589200  0.506000  0.577800  1.0  0.1145
  H  H71  1  0.787100  0.233300  0.976600  1.0  0.0916
  H  H72  1  0.902800  0.314000  0.940600  1.0  0.12
  H  H73  1  0.033600  0.369600  0.079800  1.0  0.1121
  H  H74  1  0.920300  0.288100  0.115000  1.0  0.1171
  H  H75  1  0.189400  0.655400  0.791500  1.0  0.1147
  H  H76  1  0.199000  0.621800  0.874200  1.0  0.1124
  H  H77  1  0.006900  0.407100  0.833600  1.0  0.113
  H  H78  1  0.000300  0.438300  0.750200  1.0  0.105
  H  H79  1  0.617000  0.858400  0.129400  1.0  0.1127
  H  H80  1  0.545600  0.715200  0.115100  1.0  0.1133
  H  H81  1  0.397100  0.749300  0.999400  1.0  0.1066
  H  H82  1  0.466000  0.892000  0.014700  1.0  0.1067
  H  H83  1  0.424000  0.228800  0.045800  1.0  0.1253
  H  H84  1  0.363900  0.324500  0.025100  1.0  0.1084
  H  H85  1  0.548300  0.507300  0.114700  1.0  0.1189
  H  H86  1  0.611000  0.414600  0.134700  1.0  0.1193
  H  H87  1  0.237000  0.549400  0.930100  1.0  0.1086
  H  H88  1  0.141100  0.411500  0.043200  1.0  0.1169
  H  H89  1  0.991000  0.420000  0.918900  1.0  0.1168
  H  H90  1  0.289900  0.400500  0.031500  1.0  0.1103
  H  H91  1  0.308600  0.635400  0.014400  1.0  0.1113
  H  H92  1  0.506000  0.589200  0.077800  1.0  0.1124
  H  H93  1  0.631600  0.953800  0.883600  1.0  0.191
  H  H94  1  0.562000  0.974800  0.903200  1.0  0.2092
  H  H95  1  0.625100  0.927300  0.967800  1.0  0.1199
  H  H96  1  0.710500  0.999500  0.962100  1.0  0.1087
  H  H97  1  0.635800  0.022000  0.983300  1.0  0.1094
  H  H98  1  0.636900  0.083300  0.858500  1.0  0.1127
  H  H99  1  0.645300  0.116900  0.917800  1.0  0.1047
  H  H100  1  0.718700  0.093700  0.895300  1.0  0.1145
  H  H101  1  0.046200  0.368400  0.616400  1.0  0.186
  H  H102  1  0.025200  0.438000  0.596800  1.0  0.2147
  H  H103  1  0.072700  0.374900  0.532200  1.0  0.1184
  H  H104  1  0.000500  0.289500  0.537900  1.0  0.1065
  H  H105  1  0.978000  0.364200  0.516700  1.0  0.106
  H  H106  1  0.916700  0.363100  0.641500  1.0  0.1095
  H  H107  1  0.883100  0.354700  0.582200  1.0  0.1031
  H  H108  1  0.906300  0.281300  0.604700  1.0  0.1078
  H  H109  1  0.368400  0.046200  0.116400  1.0  0.1908
  H  H110  1  0.438000  0.025200  0.096800  1.0  0.212
  H  H111  1  0.374900  0.072700  0.032200  1.0  0.1197
  H  H112  1  0.289500  0.000500  0.037900  1.0  0.1063
  H  H113  1  0.364200  0.978000  0.016700  1.0  0.1066
  H  H114  1  0.363100  0.916700  0.141500  1.0  0.1114
  H  H115  1  0.354700  0.883100  0.082200  1.0  0.1042
  H  H116  1  0.281300  0.906300  0.104700  1.0  0.1089
  H  H117  1  0.953800  0.631600  0.383600  1.0  0.1907
  H  H118  1  0.974800  0.562000  0.403200  1.0  0.2149
  H  H119  1  0.927300  0.625100  0.467800  1.0  0.1206
  H  H120  1  0.999500  0.710500  0.462100  1.0  0.1044
  H  H121  1  0.022000  0.635800  0.483300  1.0  0.1072
  H  H122  1  0.083300  0.636900  0.358500  1.0  0.1105
  H  H123  1  0.116900  0.645300  0.417800  1.0  0.102
  H  H124  1  0.093700  0.718700  0.395300  1.0  0.1076
  C  C125  1  0.158810  0.746770  0.950590  1.0  -0.1386
  C  C126  1  0.162440  0.738680  0.002030  1.0  -0.0124
  C  C127  1  0.093580  0.690240  0.023650  1.0  -0.1654
  C  C128  1  0.018990  0.647770  0.992720  1.0  0.0106
  C  C129  1  0.016720  0.657860  0.941810  1.0  -0.122
  C  C130  1  0.084240  0.706200  0.920570  1.0  -0.0978
  C  C131  1  0.904200  0.451380  0.238540  1.0  -0.117
  C  C132  1  0.846630  0.396190  0.200290  1.0  -0.051
  C  C133  1  0.841690  0.415790  0.151040  1.0  -0.1305
  C  C134  1  0.895400  0.489880  0.137340  1.0  0.0583
  C  C135  1  0.954690  0.542830  0.175100  1.0  -0.1244
  C  C136  1  0.958860  0.524240  0.224660  1.0  -0.0493
  C  C137  1  0.454090  0.111050  0.925540  1.0  -0.1384
  C  C138  1  0.428850  0.163770  0.896320  1.0  -0.047
  C  C139  1  0.471120  0.249020  0.905010  1.0  -0.1344
  C  C140  1  0.537970  0.282130  0.943120  1.0  0.0123
  C  C141  1  0.559340  0.228680  0.973400  1.0  -0.1249
  C  C142  1  0.518100  0.143700  0.964530  1.0  -0.099
  C  C143  1  0.478500  0.688820  0.905640  1.0  -0.1489
  C  C144  1  0.555240  0.575040  0.929360  1.0  0.0875
  C  C145  1  0.551700  0.715100  0.939500  1.0  -0.1102
  C  C146  1  0.587500  0.657900  0.951100  1.0  -0.1087
  C  C147  1  0.477900  0.549300  0.898200  1.0  -0.1066
  C  C148  1  0.440400  0.604000  0.886400  1.0  -0.1242
  C  C149  1  0.887250  0.513590  0.084390  1.0  0.0147
  C  C150  1  0.809260  0.487440  0.056320  1.0  -0.1237
  C  C151  1  0.797730  0.514410  0.008420  1.0  0.0298
  C  C152  1  0.866350  0.568390  0.988650  1.0  -0.1149
  C  C153  1  0.945720  0.593040  0.015310  1.0  0.0357
  C  C154  1  0.955320  0.564440  0.063040  1.0  -0.1054
  C  C155  1  0.594990  0.515410  0.943350  1.0  0.0402
  C  C156  1  0.677650  0.542150  0.964960  1.0  -0.1228
  C  C157  1  0.712980  0.486380  0.981210  1.0  0.0061
  C  C158  1  0.667120  0.402640  0.974370  1.0  -0.1372
  C  C159  1  0.586220  0.373420  0.951440  1.0  -0.0351
  C  C160  1  0.550110  0.430390  0.936820  1.0  -0.1019
  C  C161  1  0.233520  0.794860  0.927550  1.0  0.6627
  C  C162  1  0.905750  0.434650  0.293690  1.0  0.7058
  C  C163  1  0.413490  0.019050  0.913760  1.0  0.6415
  C  C164  1  0.436660  0.748300  0.895090  1.0  0.6899
  C  C165  1  0.746770  0.158810  0.450590  1.0  -0.1429
  C  C166  1  0.738680  0.162440  0.502030  1.0  -0.0151
  C  C167  1  0.690240  0.093580  0.523650  1.0  -0.163
  C  C168  1  0.647770  0.018990  0.492720  1.0  0.011
  C  C169  1  0.657860  0.016720  0.441810  1.0  -0.1256
  C  C170  1  0.706200  0.084240  0.420570  1.0  -0.1005
  C  C171  1  0.451380  0.904200  0.738540  1.0  -0.1161
  C  C172  1  0.396190  0.846630  0.700290  1.0  -0.0499
  C  C173  1  0.415790  0.841690  0.651040  1.0  -0.1297
  C  C174  1  0.489880  0.895400  0.637340  1.0  0.0565
  C  C175  1  0.542830  0.954690  0.675100  1.0  -0.1229
  C  C176  1  0.524240  0.958860  0.724660  1.0  -0.0487
  C  C177  1  0.111050  0.454090  0.425540  1.0  -0.1387
  C  C178  1  0.163770  0.428850  0.396320  1.0  -0.0498
  C  C179  1  0.249020  0.471120  0.405010  1.0  -0.14
  C  C180  1  0.282130  0.537970  0.443120  1.0  0.0111
  C  C181  1  0.228680  0.559340  0.473400  1.0  -0.1259
  C  C182  1  0.143700  0.518100  0.464530  1.0  -0.0965
  C  C183  1  0.688820  0.478500  0.405640  1.0  -0.1492
  C  C184  1  0.575040  0.555240  0.429360  1.0  0.0905
  C  C185  1  0.715100  0.551700  0.439500  1.0  -0.1145
  C  C186  1  0.657900  0.587500  0.451100  1.0  -0.1138
  C  C187  1  0.549300  0.477900  0.398200  1.0  -0.1048
  C  C188  1  0.604000  0.440400  0.386400  1.0  -0.1209
  C  C189  1  0.513590  0.887250  0.584390  1.0  0.0146
  C  C190  1  0.487440  0.809260  0.556320  1.0  -0.1205
  C  C191  1  0.514410  0.797730  0.508420  1.0  0.0318
  C  C192  1  0.568390  0.866350  0.488650  1.0  -0.1118
  C  C193  1  0.593040  0.945720  0.515310  1.0  0.0392
  C  C194  1  0.564440  0.955320  0.563040  1.0  -0.1039
  C  C195  1  0.515410  0.594990  0.443350  1.0  0.0413
  C  C196  1  0.542150  0.677650  0.464960  1.0  -0.1193
  C  C197  1  0.486380  0.712980  0.481210  1.0  0.0052
  C  C198  1  0.402640  0.667120  0.474370  1.0  -0.1379
  C  C199  1  0.373420  0.586220  0.451440  1.0  -0.0335
  C  C200  1  0.430390  0.550110  0.436820  1.0  -0.1002
  C  C201  1  0.794860  0.233520  0.427550  1.0  0.6625
  C  C202  1  0.434650  0.905750  0.793690  1.0  0.7054
  C  C203  1  0.019050  0.413490  0.413760  1.0  0.6461
  C  C204  1  0.748300  0.436660  0.395090  1.0  0.6901
  C  C205  1  0.253230  0.841190  0.549410  1.0  -0.1423
  C  C206  1  0.261320  0.837560  0.497970  1.0  -0.0175
  C  C207  1  0.309760  0.906420  0.476350  1.0  -0.1611
  C  C208  1  0.352230  0.981010  0.507280  1.0  0.0128
  C  C209  1  0.342140  0.983280  0.558190  1.0  -0.1255
  C  C210  1  0.293800  0.915760  0.579430  1.0  -0.0996
  C  C211  1  0.548620  0.095800  0.261460  1.0  -0.1137
  C  C212  1  0.603810  0.153370  0.299710  1.0  -0.0502
  C  C213  1  0.584210  0.158310  0.348960  1.0  -0.1315
  C  C214  1  0.510120  0.104600  0.362660  1.0  0.0565
  C  C215  1  0.457170  0.045310  0.324900  1.0  -0.1219
  C  C216  1  0.475760  0.041140  0.275340  1.0  -0.0486
  C  C217  1  0.888950  0.545910  0.574460  1.0  -0.1409
  C  C218  1  0.836230  0.571150  0.603680  1.0  -0.0526
  C  C219  1  0.750980  0.528880  0.594990  1.0  -0.1397
  C  C220  1  0.717870  0.462030  0.556880  1.0  0.0125
  C  C221  1  0.771320  0.440660  0.526600  1.0  -0.1255
  C  C222  1  0.856300  0.481900  0.535470  1.0  -0.0993
  C  C223  1  0.311180  0.521500  0.594360  1.0  -0.149
  C  C224  1  0.424960  0.444760  0.570640  1.0  0.0912
  C  C225  1  0.284900  0.448300  0.560500  1.0  -0.1131
  C  C226  1  0.342100  0.412500  0.548900  1.0  -0.1122
  C  C227  1  0.450700  0.522100  0.601800  1.0  -0.1046
  C  C228  1  0.396000  0.559600  0.613600  1.0  -0.121
  C  C229  1  0.486410  0.112750  0.415610  1.0  0.015
  C  C230  1  0.512560  0.190740  0.443680  1.0  -0.1201
  C  C231  1  0.485590  0.202270  0.491580  1.0  0.0304
  C  C232  1  0.431610  0.133650  0.511350  1.0  -0.1137
  C  C233  1  0.406960  0.054280  0.484690  1.0  0.0373
  C  C234  1  0.435560  0.044680  0.436960  1.0  -0.1054
  C  C235  1  0.484590  0.405010  0.556650  1.0  0.0414
  C  C236  1  0.457850  0.322350  0.535040  1.0  -0.1202
  C  C237  1  0.513620  0.287020  0.518790  1.0  0.0038
  C  C238  1  0.597360  0.332880  0.525630  1.0  -0.1381
  C  C239  1  0.626580  0.413780  0.548560  1.0  -0.0331
  C  C240  1  0.569610  0.449890  0.563180  1.0  -0.099
  C  C241  1  0.205140  0.766480  0.572450  1.0  0.6626
  C  C242  1  0.565350  0.094250  0.206310  1.0  0.705
  C  C243  1  0.980950  0.586510  0.586240  1.0  0.6461
  C  C244  1  0.251700  0.563340  0.604910  1.0  0.6899
  C  C245  1  0.841190  0.253230  0.049410  1.0  -0.14
  C  C246  1  0.837560  0.261320  0.997970  1.0  -0.0138
  C  C247  1  0.906420  0.309760  0.976350  1.0  -0.1652
  C  C248  1  0.981010  0.352230  0.007280  1.0  0.0112
  C  C249  1  0.983280  0.342140  0.058190  1.0  -0.122
  C  C250  1  0.915760  0.293800  0.079430  1.0  -0.1006
  C  C251  1  0.095800  0.548620  0.761460  1.0  -0.1139
  C  C252  1  0.153370  0.603810  0.799710  1.0  -0.0521
  C  C253  1  0.158310  0.584210  0.848960  1.0  -0.1317
  C  C254  1  0.104600  0.510120  0.862660  1.0  0.058
  C  C255  1  0.045310  0.457170  0.824900  1.0  -0.1232
  C  C256  1  0.041140  0.475760  0.775340  1.0  -0.0483
  C  C257  1  0.545910  0.888950  0.074460  1.0  -0.1407
  C  C258  1  0.571150  0.836230  0.103680  1.0  -0.053
  C  C259  1  0.528880  0.750980  0.094990  1.0  -0.1374
  C  C260  1  0.462030  0.717870  0.056880  1.0  0.013
  C  C261  1  0.440660  0.771320  0.026600  1.0  -0.1255
  C  C262  1  0.481900  0.856300  0.035470  1.0  -0.0964
  C  C263  1  0.521500  0.311180  0.094360  1.0  -0.1508
  C  C264  1  0.444760  0.424960  0.070640  1.0  0.0886
  C  C265  1  0.448300  0.284900  0.060500  1.0  -0.1106
  C  C266  1  0.412500  0.342100  0.048900  1.0  -0.1091
  C  C267  1  0.522100  0.450700  0.101800  1.0  -0.1074
  C  C268  1  0.559600  0.396000  0.113600  1.0  -0.124
  C  C269  1  0.112750  0.486410  0.915610  1.0  0.0153
  C  C270  1  0.190740  0.512560  0.943680  1.0  -0.1219
  C  C271  1  0.202270  0.485590  0.991580  1.0  0.0312
  C  C272  1  0.133650  0.431610  0.011350  1.0  -0.1152
  C  C273  1  0.054280  0.406960  0.984690  1.0  0.0369
  C  C274  1  0.044680  0.435560  0.936960  1.0  -0.1063
  C  C275  1  0.405010  0.484590  0.056650  1.0  0.0405
  C  C276  1  0.322350  0.457850  0.035040  1.0  -0.1221
  C  C277  1  0.287020  0.513620  0.018790  1.0  0.005
  C  C278  1  0.332880  0.597360  0.025630  1.0  -0.1399
  C  C279  1  0.413780  0.626580  0.048560  1.0  -0.0333
  C  C280  1  0.449890  0.569610  0.063180  1.0  -0.0973
  C  C281  1  0.766480  0.205140  0.072450  1.0  0.6641
  C  C282  1  0.094250  0.565350  0.706310  1.0  0.7056
  C  C283  1  0.586510  0.980950  0.086240  1.0  0.6428
  C  C284  1  0.563340  0.251700  0.104910  1.0  0.6904
  C  C285  1  0.650250  0.984150  0.959360  1.0  -0.164
  C  C286  1  0.658500  0.078900  0.893300  1.0  -0.1757
  C  C287  1  0.015850  0.349750  0.540640  1.0  -0.1649
  C  C288  1  0.921100  0.341500  0.606700  1.0  -0.1724
  C  C289  1  0.349750  0.015850  0.040640  1.0  -0.1658
  C  C290  1  0.341500  0.921100  0.106700  1.0  -0.1737
  C  C291  1  0.984150  0.650250  0.459360  1.0  -0.1658
  C  C292  1  0.078900  0.658500  0.393300  1.0  -0.1742
  N  N293  1  0.618700  0.989560  0.906160  1.0  -0.126
  N  N294  1  0.010440  0.381300  0.593840  1.0  -0.1226
  N  N295  1  0.381300  0.010440  0.093840  1.0  -0.1283
  N  N296  1  0.989560  0.618700  0.406160  1.0  -0.1207
  O  O297  1  0.229990  0.801710  0.879610  1.0  -0.5582
  O  O298  1  0.303050  0.826930  0.955310  1.0  -0.5766
  O  O299  1  0.851270  0.366890  0.303750  1.0  -0.591
  O  O300  1  0.957240  0.485100  0.326660  1.0  -0.5801
  O  O301  1  0.348430  0.986950  0.883080  1.0  -0.5533
  O  O302  1  0.449500  0.973960  0.933360  1.0  -0.6179
  O  O303  1  0.477880  0.825360  0.901540  1.0  -0.5943
  O  O304  1  0.360810  0.723830  0.880970  1.0  -0.61
  O  O305  1  0.801710  0.229990  0.379610  1.0  -0.5587
  O  O306  1  0.826930  0.303050  0.455310  1.0  -0.5758
  O  O307  1  0.366890  0.851270  0.803750  1.0  -0.5951
  O  O308  1  0.485100  0.957240  0.826660  1.0  -0.5793
  O  O309  1  0.986950  0.348430  0.383080  1.0  -0.5592
  O  O310  1  0.973960  0.449500  0.433360  1.0  -0.6161
  O  O311  1  0.825360  0.477880  0.401540  1.0  -0.5935
  O  O312  1  0.723830  0.360810  0.380970  1.0  -0.613
  O  O313  1  0.198290  0.770010  0.620390  1.0  -0.5577
  O  O314  1  0.173070  0.696950  0.544690  1.0  -0.5771
  O  O315  1  0.633110  0.148730  0.196250  1.0  -0.5931
  O  O316  1  0.514900  0.042760  0.173340  1.0  -0.5786
  O  O317  1  0.013050  0.651570  0.616920  1.0  -0.5607
  O  O318  1  0.026040  0.550500  0.566640  1.0  -0.6157
  O  O319  1  0.174640  0.522120  0.598460  1.0  -0.5926
  O  O320  1  0.276170  0.639190  0.619030  1.0  -0.6128
  O  O321  1  0.770010  0.198290  0.120390  1.0  -0.5578
  O  O322  1  0.696950  0.173070  0.044690  1.0  -0.5784
  O  O323  1  0.148730  0.633110  0.696250  1.0  -0.5915
  O  O324  1  0.042760  0.514900  0.673340  1.0  -0.5807
  O  O325  1  0.651570  0.013050  0.116920  1.0  -0.5524
  O  O326  1  0.550500  0.026040  0.066640  1.0  -0.6172
  O  O327  1  0.522120  0.174640  0.098460  1.0  -0.5938
  O  O328  1  0.639190  0.276170  0.119030  1.0  -0.6099
