# generated using pymatgen
data_InH30C42NO8
_symmetry_space_group_name_H-M   'P 1'
_cell_length_a   17.33910000
_cell_length_b   17.33910000
_cell_length_c   26.56200000
_cell_angle_alpha   93.84640000
_cell_angle_beta   93.84640000
_cell_angle_gamma   110.67900000
_symmetry_Int_Tables_number   1
_chemical_formula_structural   InH30C42NO8
_chemical_formula_sum   'In4 H120 C168 N4 O32'
_cell_volume   7419.06851527
_cell_formula_units_Z   4
loop_
 _symmetry_equiv_pos_site_id
 _symmetry_equiv_pos_as_xyz
  1  'x, y, z'
loop_
 _atom_site_type_symbol
 _atom_site_label
 _atom_site_symmetry_multiplicity
 _atom_site_fract_x
 _atom_site_fract_y
 _atom_site_fract_z
 _atom_site_occupancy
 _atom_site_charge
  In  In1  1  0.370540  0.857780  0.884820  1.0  1.5023
  In  In2  1  0.857780  0.370540  0.384820  1.0  1.5041
  In  In3  1  0.142220  0.629460  0.615180  1.0  1.4981
  In  In4  1  0.629460  0.142220  0.115180  1.0  1.4985
  H  H5  1  0.212200  0.764200  0.023600  1.0  0.0885
  H  H6  1  0.095600  0.684800  0.060000  1.0  0.1212
  H  H7  1  0.969000  0.623000  0.921800  1.0  0.1117
  H  H8  1  0.084600  0.705200  0.886200  1.0  0.1177
  H  H9  1  0.802300  0.344500  0.211200  1.0  0.111
  H  H10  1  0.797500  0.376100  0.128300  1.0  0.1045
  H  H11  1  0.986700  0.593100  0.167000  1.0  0.1162
  H  H12  1  0.990900  0.562100  0.249700  1.0  0.105
  H  H13  1  0.389200  0.139800  0.869400  1.0  0.1099
  H  H14  1  0.460900  0.281900  0.883200  1.0  0.119
  H  H15  1  0.600500  0.245100  0.000300  1.0  0.101
  H  H16  1  0.532400  0.104200  0.985100  1.0  0.1037
  H  H17  1  0.600300  0.763700  0.903400  1.0  0.1113
  H  H18  1  0.664800  0.667800  0.920800  1.0  0.1289
  H  H19  1  0.440600  0.495600  0.935600  1.0  0.1239
  H  H20  1  0.378700  0.587700  0.912600  1.0  0.0919
  H  H21  1  0.760100  0.447900  0.071500  1.0  0.1085
  H  H22  1  0.860100  0.585300  0.958800  1.0  0.114
  H  H23  1  0.006100  0.579300  0.082600  1.0  0.1077
  H  H24  1  0.710300  0.596700  0.971700  1.0  0.1118
  H  H25  1  0.691000  0.360400  0.986300  1.0  0.1106
  H  H26  1  0.497500  0.407900  0.921400  1.0  0.109
  H  H27  1  0.764200  0.212200  0.523600  1.0  0.089
  H  H28  1  0.684800  0.095600  0.560000  1.0  0.1216
  H  H29  1  0.623000  0.969000  0.421800  1.0  0.1106
  H  H30  1  0.705200  0.084600  0.386200  1.0  0.1179
  H  H31  1  0.344500  0.802300  0.711200  1.0  0.1103
  H  H32  1  0.376100  0.797500  0.628300  1.0  0.1043
  H  H33  1  0.593100  0.986700  0.667000  1.0  0.1162
  H  H34  1  0.562100  0.990900  0.749700  1.0  0.105
  H  H35  1  0.139800  0.389200  0.369400  1.0  0.1093
  H  H36  1  0.281900  0.460900  0.383200  1.0  0.1187
  H  H37  1  0.245100  0.600500  0.500300  1.0  0.1018
  H  H38  1  0.104200  0.532400  0.485100  1.0  0.1031
  H  H39  1  0.763700  0.600300  0.403400  1.0  0.111
  H  H40  1  0.667800  0.664800  0.420800  1.0  0.1283
  H  H41  1  0.495600  0.440600  0.435600  1.0  0.1233
  H  H42  1  0.587700  0.378700  0.412600  1.0  0.0926
  H  H43  1  0.447900  0.760100  0.571500  1.0  0.1082
  H  H44  1  0.585300  0.860100  0.458800  1.0  0.1141
  H  H45  1  0.579300  0.006100  0.582600  1.0  0.1093
  H  H46  1  0.596700  0.710300  0.471700  1.0  0.1127
  H  H47  1  0.360400  0.691000  0.486300  1.0  0.1111
  H  H48  1  0.407900  0.497500  0.421400  1.0  0.1083
  H  H49  1  0.235800  0.787800  0.476400  1.0  0.0891
  H  H50  1  0.315200  0.904400  0.440000  1.0  0.1213
  H  H51  1  0.377000  0.031000  0.578200  1.0  0.1112
  H  H52  1  0.294800  0.915400  0.613800  1.0  0.1188
  H  H53  1  0.655500  0.197700  0.288800  1.0  0.1101
  H  H54  1  0.623900  0.202500  0.371700  1.0  0.1038
  H  H55  1  0.406900  0.013300  0.333000  1.0  0.1153
  H  H56  1  0.437900  0.009100  0.250300  1.0  0.1045
  H  H57  1  0.860200  0.610800  0.630600  1.0  0.1102
  H  H58  1  0.718100  0.539100  0.616800  1.0  0.1208
  H  H59  1  0.754900  0.399500  0.499700  1.0  0.1017
  H  H60  1  0.895800  0.467600  0.514900  1.0  0.103
  H  H61  1  0.236300  0.399700  0.596600  1.0  0.1096
  H  H62  1  0.332200  0.335200  0.579200  1.0  0.1281
  H  H63  1  0.504400  0.559400  0.564400  1.0  0.1239
  H  H64  1  0.412300  0.621300  0.587400  1.0  0.0922
  H  H65  1  0.552100  0.239900  0.428500  1.0  0.1082
  H  H66  1  0.414700  0.139900  0.541200  1.0  0.1152
  H  H67  1  0.420700  0.993900  0.417400  1.0  0.1093
  H  H68  1  0.403300  0.289700  0.528300  1.0  0.1139
  H  H69  1  0.639600  0.309000  0.513700  1.0  0.1111
  H  H70  1  0.592100  0.502500  0.578600  1.0  0.1072
  H  H71  1  0.787800  0.235800  0.976400  1.0  0.0899
  H  H72  1  0.904400  0.315200  0.940000  1.0  0.1211
  H  H73  1  0.031000  0.377000  0.078200  1.0  0.1119
  H  H74  1  0.915400  0.294800  0.113800  1.0  0.1172
  H  H75  1  0.197700  0.655500  0.788800  1.0  0.1107
  H  H76  1  0.202500  0.623900  0.871700  1.0  0.1042
  H  H77  1  0.013300  0.406900  0.833000  1.0  0.1158
  H  H78  1  0.009100  0.437900  0.750300  1.0  0.1046
  H  H79  1  0.610800  0.860200  0.130600  1.0  0.1103
  H  H80  1  0.539100  0.718100  0.116800  1.0  0.1205
  H  H81  1  0.399500  0.754900  0.999700  1.0  0.1008
  H  H82  1  0.467600  0.895800  0.014900  1.0  0.1034
  H  H83  1  0.399700  0.236300  0.096600  1.0  0.1103
  H  H84  1  0.335200  0.332200  0.079200  1.0  0.1288
  H  H85  1  0.559400  0.504400  0.064400  1.0  0.1245
  H  H86  1  0.621300  0.412300  0.087400  1.0  0.0928
  H  H87  1  0.239900  0.552100  0.928500  1.0  0.1081
  H  H88  1  0.139900  0.414700  0.041200  1.0  0.1152
  H  H89  1  0.993900  0.420700  0.917400  1.0  0.1085
  H  H90  1  0.289700  0.403300  0.028300  1.0  0.1132
  H  H91  1  0.309000  0.639600  0.013700  1.0  0.111
  H  H92  1  0.502500  0.592100  0.078600  1.0  0.1071
  H  H93  1  0.635100  0.951700  0.885800  1.0  0.1914
  H  H94  1  0.564900  0.972100  0.904300  1.0  0.2177
  H  H95  1  0.627300  0.928300  0.968400  1.0  0.1013
  H  H96  1  0.712200  0.001800  0.961900  1.0  0.1004
  H  H97  1  0.636000  0.022600  0.981800  1.0  0.0901
  H  H98  1  0.633900  0.073100  0.855600  1.0  0.1013
  H  H99  1  0.644800  0.112400  0.913100  1.0  0.114
  H  H100  1  0.717900  0.088900  0.890600  1.0  0.1096
  H  H101  1  0.048300  0.364900  0.614200  1.0  0.1892
  H  H102  1  0.027900  0.435100  0.595700  1.0  0.2182
  H  H103  1  0.071700  0.372700  0.531600  1.0  0.1058
  H  H104  1  0.998200  0.287800  0.538100  1.0  0.0949
  H  H105  1  0.977400  0.364000  0.518200  1.0  0.0873
  H  H106  1  0.926900  0.366100  0.644400  1.0  0.0965
  H  H107  1  0.887600  0.355200  0.586900  1.0  0.109
  H  H108  1  0.911100  0.282100  0.609400  1.0  0.1064
  H  H109  1  0.364900  0.048300  0.114200  1.0  0.1892
  H  H110  1  0.435100  0.027900  0.095700  1.0  0.219
  H  H111  1  0.372700  0.071700  0.031600  1.0  0.1032
  H  H112  1  0.287800  0.998200  0.038100  1.0  0.095
  H  H113  1  0.364000  0.977400  0.018200  1.0  0.0887
  H  H114  1  0.366100  0.926900  0.144400  1.0  0.0987
  H  H115  1  0.355200  0.887600  0.086900  1.0  0.1115
  H  H116  1  0.282100  0.911100  0.109400  1.0  0.1057
  H  H117  1  0.951700  0.635100  0.385800  1.0  0.1883
  H  H118  1  0.972100  0.564900  0.404300  1.0  0.2156
  H  H119  1  0.928300  0.627300  0.468400  1.0  0.1063
  H  H120  1  0.001800  0.712200  0.461900  1.0  0.0907
  H  H121  1  0.022600  0.636000  0.481800  1.0  0.0858
  H  H122  1  0.073100  0.633900  0.355600  1.0  0.0977
  H  H123  1  0.112400  0.644800  0.413100  1.0  0.1131
  H  H124  1  0.088900  0.717900  0.390600  1.0  0.105
  C  C125  1  0.160390  0.743490  0.951970  1.0  -0.1364
  C  C126  1  0.162110  0.735910  0.002580  1.0  -0.0146
  C  C127  1  0.092900  0.688020  0.024400  1.0  -0.172
  C  C128  1  0.019480  0.644700  0.994200  1.0  0.0433
  C  C129  1  0.018540  0.652220  0.943110  1.0  -0.1309
  C  C130  1  0.087270  0.700890  0.921650  1.0  -0.0964
  C  C131  1  0.896520  0.450600  0.239200  1.0  -0.1337
  C  C132  1  0.839670  0.395530  0.202310  1.0  -0.063
  C  C133  1  0.837050  0.414450  0.153040  1.0  -0.1368
  C  C134  1  0.891010  0.488410  0.138440  1.0  0.0685
  C  C135  1  0.948540  0.542500  0.175810  1.0  -0.1369
  C  C136  1  0.951110  0.524030  0.224920  1.0  -0.0594
  C  C137  1  0.455840  0.107640  0.924480  1.0  -0.137
  C  C138  1  0.433750  0.161230  0.895420  1.0  -0.049
  C  C139  1  0.475990  0.245950  0.903990  1.0  -0.138
  C  C140  1  0.539760  0.278880  0.942380  1.0  0.0624
  C  C141  1  0.558500  0.223740  0.972830  1.0  -0.1232
  C  C142  1  0.517970  0.140190  0.964050  1.0  -0.1154
  C  C143  1  0.480870  0.685110  0.908490  1.0  -0.097
  C  C144  1  0.556840  0.572040  0.931490  1.0  0.0576
  C  C145  1  0.567800  0.709000  0.909900  1.0  -0.0403
  C  C146  1  0.606500  0.652500  0.920700  1.0  -0.1568
  C  C147  1  0.474000  0.549800  0.928800  1.0  -0.1531
  C  C148  1  0.437500  0.605900  0.916100  1.0  -0.0251
  C  C149  1  0.884320  0.511100  0.085930  1.0  0.0343
  C  C150  1  0.807070  0.484650  0.057920  1.0  -0.1407
  C  C151  1  0.798010  0.511150  0.010650  1.0  0.0342
  C  C152  1  0.866810  0.565270  0.990580  1.0  -0.1382
  C  C153  1  0.945210  0.590090  0.016910  1.0  0.0328
  C  C154  1  0.952830  0.562610  0.064360  1.0  -0.1403
  C  C155  1  0.597210  0.512270  0.945220  1.0  0.0536
  C  C156  1  0.678240  0.539100  0.967290  1.0  -0.1199
  C  C157  1  0.713060  0.482840  0.983000  1.0  0.0587
  C  C158  1  0.667200  0.398720  0.975290  1.0  -0.1626
  C  C159  1  0.587010  0.369570  0.951720  1.0  0.02
  C  C160  1  0.552590  0.426990  0.937170  1.0  -0.1689
  C  C161  1  0.236090  0.791710  0.928670  1.0  0.6676
  C  C162  1  0.896890  0.433710  0.293890  1.0  0.7172
  C  C163  1  0.416410  0.016410  0.912490  1.0  0.6468
  C  C164  1  0.439070  0.745250  0.898270  1.0  0.6879
  C  C165  1  0.743490  0.160390  0.451970  1.0  -0.1403
  C  C166  1  0.735910  0.162110  0.502580  1.0  -0.0137
  C  C167  1  0.688020  0.092900  0.524400  1.0  -0.1704
  C  C168  1  0.644700  0.019480  0.494200  1.0  0.045
  C  C169  1  0.652220  0.018540  0.443110  1.0  -0.1326
  C  C170  1  0.700890  0.087270  0.421650  1.0  -0.0968
  C  C171  1  0.450600  0.896520  0.739200  1.0  -0.133
  C  C172  1  0.395530  0.839670  0.702310  1.0  -0.0627
  C  C173  1  0.414450  0.837050  0.653040  1.0  -0.136
  C  C174  1  0.488410  0.891010  0.638440  1.0  0.0657
  C  C175  1  0.542500  0.948540  0.675810  1.0  -0.1338
  C  C176  1  0.524030  0.951110  0.724920  1.0  -0.0586
  C  C177  1  0.107640  0.455840  0.424480  1.0  -0.1382
  C  C178  1  0.161230  0.433750  0.395420  1.0  -0.0519
  C  C179  1  0.245950  0.475990  0.403990  1.0  -0.1413
  C  C180  1  0.278880  0.539760  0.442380  1.0  0.0613
  C  C181  1  0.223740  0.558500  0.472830  1.0  -0.1232
  C  C182  1  0.140190  0.517970  0.464050  1.0  -0.1148
  C  C183  1  0.685110  0.480870  0.408490  1.0  -0.0969
  C  C184  1  0.572040  0.556840  0.431490  1.0  0.0584
  C  C185  1  0.709000  0.567800  0.409900  1.0  -0.0409
  C  C186  1  0.652500  0.606500  0.420700  1.0  -0.1596
  C  C187  1  0.549800  0.474000  0.428800  1.0  -0.1516
  C  C188  1  0.605900  0.437500  0.416100  1.0  -0.0239
  C  C189  1  0.511100  0.884320  0.585930  1.0  0.0322
  C  C190  1  0.484650  0.807070  0.557920  1.0  -0.1386
  C  C191  1  0.511150  0.798010  0.510650  1.0  0.0354
  C  C192  1  0.565270  0.866810  0.490580  1.0  -0.133
  C  C193  1  0.590090  0.945210  0.516910  1.0  0.0348
  C  C194  1  0.562610  0.952830  0.564360  1.0  -0.1406
  C  C195  1  0.512270  0.597210  0.445220  1.0  0.0532
  C  C196  1  0.539100  0.678240  0.467290  1.0  -0.118
  C  C197  1  0.482840  0.713060  0.483000  1.0  0.0594
  C  C198  1  0.398720  0.667200  0.475290  1.0  -0.1617
  C  C199  1  0.369570  0.587010  0.451720  1.0  0.021
  C  C200  1  0.426990  0.552590  0.437170  1.0  -0.1686
  C  C201  1  0.791710  0.236090  0.428670  1.0  0.6684
  C  C202  1  0.433710  0.896890  0.793890  1.0  0.717
  C  C203  1  0.016410  0.416410  0.412490  1.0  0.6507
  C  C204  1  0.745250  0.439070  0.398270  1.0  0.6872
  C  C205  1  0.256510  0.839610  0.548030  1.0  -0.1414
  C  C206  1  0.264090  0.837890  0.497420  1.0  -0.0177
  C  C207  1  0.311980  0.907100  0.475600  1.0  -0.1686
  C  C208  1  0.355300  0.980520  0.505800  1.0  0.046
  C  C209  1  0.347780  0.981460  0.556890  1.0  -0.1325
  C  C210  1  0.299110  0.912730  0.578350  1.0  -0.0964
  C  C211  1  0.549400  0.103480  0.260800  1.0  -0.1332
  C  C212  1  0.604470  0.160330  0.297690  1.0  -0.0631
  C  C213  1  0.585550  0.162950  0.346960  1.0  -0.1375
  C  C214  1  0.511590  0.108990  0.361560  1.0  0.0693
  C  C215  1  0.457500  0.051460  0.324190  1.0  -0.1327
  C  C216  1  0.475970  0.048890  0.275080  1.0  -0.0586
  C  C217  1  0.892360  0.544160  0.575520  1.0  -0.1362
  C  C218  1  0.838770  0.566250  0.604580  1.0  -0.0494
  C  C219  1  0.754050  0.524010  0.596010  1.0  -0.1441
  C  C220  1  0.721120  0.460240  0.557620  1.0  0.0616
  C  C221  1  0.776260  0.441500  0.527170  1.0  -0.1215
  C  C222  1  0.859810  0.482030  0.535950  1.0  -0.1156
  C  C223  1  0.314890  0.519130  0.591510  1.0  -0.0954
  C  C224  1  0.427960  0.443160  0.568510  1.0  0.0616
  C  C225  1  0.291000  0.432200  0.590100  1.0  -0.041
  C  C226  1  0.347500  0.393500  0.579300  1.0  -0.1582
  C  C227  1  0.450200  0.526000  0.571200  1.0  -0.1535
  C  C228  1  0.394100  0.562500  0.583900  1.0  -0.0257
  C  C229  1  0.488900  0.115680  0.414070  1.0  0.0336
  C  C230  1  0.515350  0.192930  0.442080  1.0  -0.1386
  C  C231  1  0.488850  0.201990  0.489350  1.0  0.0336
  C  C232  1  0.434730  0.133190  0.509420  1.0  -0.1338
  C  C233  1  0.409910  0.054790  0.483090  1.0  0.0334
  C  C234  1  0.437390  0.047170  0.435640  1.0  -0.1399
  C  C235  1  0.487730  0.402790  0.554780  1.0  0.0543
  C  C236  1  0.460900  0.321760  0.532710  1.0  -0.1196
  C  C237  1  0.517160  0.286940  0.517000  1.0  0.0584
  C  C238  1  0.601280  0.332800  0.524710  1.0  -0.16
  C  C239  1  0.630430  0.412990  0.548280  1.0  0.0224
  C  C240  1  0.573010  0.447410  0.562830  1.0  -0.1669
  C  C241  1  0.208290  0.763910  0.571330  1.0  0.6666
  C  C242  1  0.566290  0.103110  0.206110  1.0  0.7171
  C  C243  1  0.983590  0.583590  0.587510  1.0  0.6515
  C  C244  1  0.254750  0.560930  0.601730  1.0  0.686
  C  C245  1  0.839610  0.256510  0.048030  1.0  -0.1361
  C  C246  1  0.837890  0.264090  0.997420  1.0  -0.0158
  C  C247  1  0.907100  0.311980  0.975600  1.0  -0.1723
  C  C248  1  0.980520  0.355300  0.005800  1.0  0.0434
  C  C249  1  0.981460  0.347780  0.056890  1.0  -0.1312
  C  C250  1  0.912730  0.299110  0.078350  1.0  -0.0954
  C  C251  1  0.103480  0.549400  0.760800  1.0  -0.1336
  C  C252  1  0.160330  0.604470  0.797690  1.0  -0.0639
  C  C253  1  0.162950  0.585550  0.846960  1.0  -0.1371
  C  C254  1  0.108990  0.511590  0.861560  1.0  0.0709
  C  C255  1  0.051460  0.457500  0.824190  1.0  -0.1346
  C  C256  1  0.048890  0.475970  0.775080  1.0  -0.0593
  C  C257  1  0.544160  0.892360  0.075520  1.0  -0.1358
  C  C258  1  0.566250  0.838770  0.104580  1.0  -0.0463
  C  C259  1  0.524010  0.754050  0.096010  1.0  -0.1396
  C  C260  1  0.460240  0.721120  0.057620  1.0  0.0628
  C  C261  1  0.441500  0.776260  0.027170  1.0  -0.1197
  C  C262  1  0.482030  0.859810  0.035950  1.0  -0.1139
  C  C263  1  0.519130  0.314890  0.091510  1.0  -0.0953
  C  C264  1  0.443160  0.427960  0.068510  1.0  0.0591
  C  C265  1  0.432200  0.291000  0.090100  1.0  -0.0386
  C  C266  1  0.393500  0.347500  0.079300  1.0  -0.1576
  C  C267  1  0.526000  0.450200  0.071200  1.0  -0.1543
  C  C268  1  0.562500  0.394100  0.083900  1.0  -0.0252
  C  C269  1  0.115680  0.488900  0.914070  1.0  0.0333
  C  C270  1  0.192930  0.515350  0.942080  1.0  -0.1405
  C  C271  1  0.201990  0.488850  0.989350  1.0  0.0347
  C  C272  1  0.133190  0.434730  0.009420  1.0  -0.136
  C  C273  1  0.054790  0.409910  0.983090  1.0  0.0345
  C  C274  1  0.047170  0.437390  0.935640  1.0  -0.1407
  C  C275  1  0.402790  0.487730  0.054780  1.0  0.0538
  C  C276  1  0.321760  0.460900  0.032710  1.0  -0.1213
  C  C277  1  0.286940  0.517160  0.017000  1.0  0.0587
  C  C278  1  0.332800  0.601280  0.024710  1.0  -0.1628
  C  C279  1  0.412990  0.630430  0.048280  1.0  0.0217
  C  C280  1  0.447410  0.573010  0.062830  1.0  -0.1661
  C  C281  1  0.763910  0.208290  0.071330  1.0  0.6666
  C  C282  1  0.103110  0.566290  0.706110  1.0  0.7171
  C  C283  1  0.583590  0.983590  0.087510  1.0  0.6466
  C  C284  1  0.560930  0.254750  0.101730  1.0  0.6858
  C  C285  1  0.651810  0.984990  0.959010  1.0  -0.1762
  C  C286  1  0.657700  0.072900  0.890100  1.0  -0.183
  C  C287  1  0.015010  0.348190  0.540990  1.0  -0.177
  C  C288  1  0.927100  0.342300  0.609900  1.0  -0.1845
  C  C289  1  0.348190  0.015010  0.040990  1.0  -0.1783
  C  C290  1  0.342300  0.927100  0.109900  1.0  -0.1833
  C  C291  1  0.984990  0.651810  0.459010  1.0  -0.1769
  C  C292  1  0.072900  0.657700  0.390100  1.0  -0.1838
  N  N293  1  0.621710  0.988350  0.906900  1.0  -0.065
  N  N294  1  0.011650  0.378290  0.593100  1.0  -0.0606
  N  N295  1  0.378290  0.011650  0.093100  1.0  -0.0656
  N  N296  1  0.988350  0.621710  0.406900  1.0  -0.0588
  O  O297  1  0.233020  0.797660  0.881320  1.0  -0.5718
  O  O298  1  0.303980  0.825480  0.955590  1.0  -0.563
  O  O299  1  0.844190  0.366730  0.304920  1.0  -0.5869
  O  O300  1  0.947140  0.485360  0.326750  1.0  -0.6046
  O  O301  1  0.352610  0.983970  0.882080  1.0  -0.583
  O  O302  1  0.451880  0.971240  0.932160  1.0  -0.6323
  O  O303  1  0.480290  0.821830  0.903970  1.0  -0.5784
  O  O304  1  0.363310  0.720370  0.884940  1.0  -0.6062
  O  O305  1  0.797660  0.233020  0.381320  1.0  -0.5712
  O  O306  1  0.825480  0.303980  0.455590  1.0  -0.5631
  O  O307  1  0.366730  0.844190  0.804920  1.0  -0.5889
  O  O308  1  0.485360  0.947140  0.826750  1.0  -0.6039
  O  O309  1  0.983970  0.352610  0.382080  1.0  -0.586
  O  O310  1  0.971240  0.451880  0.432160  1.0  -0.6306
  O  O311  1  0.821830  0.480290  0.403970  1.0  -0.5788
  O  O312  1  0.720370  0.363310  0.384940  1.0  -0.6074
  O  O313  1  0.202340  0.766980  0.618680  1.0  -0.5709
  O  O314  1  0.174520  0.696020  0.544410  1.0  -0.5633
  O  O315  1  0.633270  0.155810  0.195080  1.0  -0.5897
  O  O316  1  0.514640  0.052860  0.173250  1.0  -0.6021
  O  O317  1  0.016030  0.647390  0.617920  1.0  -0.5843
  O  O318  1  0.028760  0.548120  0.567840  1.0  -0.6311
  O  O319  1  0.178170  0.519710  0.596030  1.0  -0.5782
  O  O320  1  0.279630  0.636690  0.615060  1.0  -0.6069
  O  O321  1  0.766980  0.202340  0.118680  1.0  -0.5718
  O  O322  1  0.696020  0.174520  0.044410  1.0  -0.5656
  O  O323  1  0.155810  0.633270  0.695080  1.0  -0.5861
  O  O324  1  0.052860  0.514640  0.673250  1.0  -0.6037
  O  O325  1  0.647390  0.016030  0.117920  1.0  -0.5786
  O  O326  1  0.548120  0.028760  0.067840  1.0  -0.6335
  O  O327  1  0.519710  0.178170  0.096030  1.0  -0.5785
  O  O328  1  0.636690  0.279630  0.115060  1.0  -0.6071
