# generated using pymatgen
data_InH30C42NO8
_symmetry_space_group_name_H-M   'P 1'
_cell_length_a   17.34400000
_cell_length_b   17.34400000
_cell_length_c   26.44300000
_cell_angle_alpha   94.11910000
_cell_angle_beta   94.11910000
_cell_angle_gamma   110.44000000
_symmetry_Int_Tables_number   1
_chemical_formula_structural   InH30C42NO8
_chemical_formula_sum   'In4 H120 C168 N4 O32'
_cell_volume   7394.27899495
_cell_formula_units_Z   4
loop_
 _symmetry_equiv_pos_site_id
 _symmetry_equiv_pos_as_xyz
  1  'x, y, z'
loop_
 _atom_site_type_symbol
 _atom_site_label
 _atom_site_symmetry_multiplicity
 _atom_site_fract_x
 _atom_site_fract_y
 _atom_site_fract_z
 _atom_site_occupancy
 _atom_site_charge
  In  In1  1  0.369050  0.859450  0.884560  1.0  1.5054
  In  In2  1  0.859450  0.369050  0.384560  1.0  1.5066
  In  In3  1  0.140550  0.630950  0.615440  1.0  1.502
  In  In4  1  0.630950  0.140550  0.115440  1.0  1.502
  H  H5  1  0.214100  0.765900  0.023600  1.0  0.1032
  H  H6  1  0.095700  0.686300  0.059800  1.0  0.1242
  H  H7  1  0.968300  0.628100  0.921100  1.0  0.1103
  H  H8  1  0.082400  0.708200  0.885900  1.0  0.1124
  H  H9  1  0.807400  0.345600  0.210800  1.0  0.11
  H  H10  1  0.799600  0.376600  0.127100  1.0  0.1192
  H  H11  1  0.990800  0.593200  0.166000  1.0  0.1216
  H  H12  1  0.994300  0.563100  0.250100  1.0  0.1095
  H  H13  1  0.387700  0.140100  0.869300  1.0  0.1097
  H  H14  1  0.457800  0.282600  0.883300  1.0  0.1221
  H  H15  1  0.601900  0.247900  0.000400  1.0  0.1104
  H  H16  1  0.533500  0.105900  0.984900  1.0  0.1078
  H  H17  1  0.598600  0.764200  0.902300  1.0  0.1061
  H  H18  1  0.662200  0.666800  0.915300  1.0  0.1273
  H  H19  1  0.440300  0.497100  0.933300  1.0  0.1225
  H  H20  1  0.377300  0.589700  0.911500  1.0  0.0877
  H  H21  1  0.762000  0.449600  0.070400  1.0  0.1094
  H  H22  1  0.860000  0.586600  0.957900  1.0  0.1147
  H  H23  1  0.007700  0.580300  0.081900  1.0  0.1126
  H  H24  1  0.710300  0.597900  0.969800  1.0  0.1124
  H  H25  1  0.691400  0.362800  0.985600  1.0  0.1105
  H  H26  1  0.495900  0.408900  0.921400  1.0  0.1145
  H  H27  1  0.765900  0.214100  0.523600  1.0  0.104
  H  H28  1  0.686300  0.095700  0.559800  1.0  0.1235
  H  H29  1  0.628100  0.968300  0.421100  1.0  0.1087
  H  H30  1  0.708200  0.082400  0.385900  1.0  0.1127
  H  H31  1  0.345600  0.807400  0.710800  1.0  0.1092
  H  H32  1  0.376600  0.799600  0.627100  1.0  0.119
  H  H33  1  0.593200  0.990800  0.666000  1.0  0.122
  H  H34  1  0.563100  0.994300  0.750100  1.0  0.1094
  H  H35  1  0.140100  0.387700  0.369300  1.0  0.1075
  H  H36  1  0.282600  0.457800  0.383300  1.0  0.1221
  H  H37  1  0.247900  0.601900  0.500400  1.0  0.111
  H  H38  1  0.105900  0.533500  0.484900  1.0  0.1072
  H  H39  1  0.764200  0.598600  0.402300  1.0  0.1061
  H  H40  1  0.666800  0.662200  0.415300  1.0  0.1266
  H  H41  1  0.497100  0.440300  0.433300  1.0  0.1218
  H  H42  1  0.589700  0.377300  0.411500  1.0  0.0881
  H  H43  1  0.449600  0.762000  0.570400  1.0  0.1092
  H  H44  1  0.586600  0.860000  0.457900  1.0  0.1145
  H  H45  1  0.580300  0.007700  0.581900  1.0  0.1143
  H  H46  1  0.597900  0.710300  0.469800  1.0  0.1126
  H  H47  1  0.362800  0.691400  0.485600  1.0  0.1112
  H  H48  1  0.408900  0.495900  0.421400  1.0  0.1134
  H  H49  1  0.234100  0.785900  0.476400  1.0  0.1033
  H  H50  1  0.313700  0.904300  0.440200  1.0  0.1225
  H  H51  1  0.371900  0.031700  0.578900  1.0  0.1079
  H  H52  1  0.291800  0.917600  0.614100  1.0  0.1137
  H  H53  1  0.654400  0.192600  0.289200  1.0  0.109
  H  H54  1  0.623400  0.200400  0.372900  1.0  0.1187
  H  H55  1  0.406800  0.009200  0.334000  1.0  0.1209
  H  H56  1  0.436900  0.005700  0.249900  1.0  0.109
  H  H57  1  0.859900  0.612300  0.630700  1.0  0.1088
  H  H58  1  0.717400  0.542200  0.616700  1.0  0.1242
  H  H59  1  0.752100  0.398100  0.499600  1.0  0.1111
  H  H60  1  0.894100  0.466500  0.515100  1.0  0.1065
  H  H61  1  0.235800  0.401400  0.597700  1.0  0.1064
  H  H62  1  0.333200  0.337800  0.584700  1.0  0.127
  H  H63  1  0.502900  0.559700  0.566700  1.0  0.1237
  H  H64  1  0.410300  0.622700  0.588500  1.0  0.0886
  H  H65  1  0.550400  0.238000  0.429600  1.0  0.109
  H  H66  1  0.413400  0.140000  0.542100  1.0  0.1148
  H  H67  1  0.419700  0.992300  0.418100  1.0  0.1144
  H  H68  1  0.402100  0.289700  0.530200  1.0  0.1133
  H  H69  1  0.637200  0.308600  0.514400  1.0  0.1107
  H  H70  1  0.591100  0.504100  0.578600  1.0  0.1132
  H  H71  1  0.785900  0.234100  0.976400  1.0  0.1036
  H  H72  1  0.904300  0.313700  0.940200  1.0  0.1236
  H  H73  1  0.031700  0.371900  0.078900  1.0  0.1116
  H  H74  1  0.917600  0.291800  0.114100  1.0  0.1119
  H  H75  1  0.192600  0.654400  0.789200  1.0  0.1097
  H  H76  1  0.200400  0.623400  0.872900  1.0  0.119
  H  H77  1  0.009200  0.406800  0.834000  1.0  0.121
  H  H78  1  0.005700  0.436900  0.749900  1.0  0.1091
  H  H79  1  0.612300  0.859900  0.130700  1.0  0.1089
  H  H80  1  0.542200  0.717400  0.116700  1.0  0.1235
  H  H81  1  0.398100  0.752100  0.999600  1.0  0.1102
  H  H82  1  0.466500  0.894100  0.015100  1.0  0.1075
  H  H83  1  0.401400  0.235800  0.097700  1.0  0.1064
  H  H84  1  0.337800  0.333200  0.084700  1.0  0.1268
  H  H85  1  0.559700  0.502900  0.066700  1.0  0.1241
  H  H86  1  0.622700  0.410300  0.088500  1.0  0.0892
  H  H87  1  0.238000  0.550400  0.929600  1.0  0.1091
  H  H88  1  0.140000  0.413400  0.042100  1.0  0.115
  H  H89  1  0.992300  0.419700  0.918100  1.0  0.1135
  H  H90  1  0.289700  0.402100  0.030200  1.0  0.1128
  H  H91  1  0.308600  0.637200  0.014400  1.0  0.1111
  H  H92  1  0.504100  0.591100  0.078600  1.0  0.1138
  H  H93  1  0.633100  0.951900  0.884700  1.0  0.1779
  H  H94  1  0.563500  0.973300  0.904000  1.0  0.2139
  H  H95  1  0.625900  0.926500  0.968100  1.0  0.109
  H  H96  1  0.711100  0.999300  0.962100  1.0  0.1005
  H  H97  1  0.635700  0.020900  0.982700  1.0  0.1014
  H  H98  1  0.637200  0.078400  0.858200  1.0  0.1045
  H  H99  1  0.646400  0.113400  0.916800  1.0  0.111
  H  H100  1  0.719300  0.089500  0.894300  1.0  0.108
  H  H101  1  0.048100  0.366900  0.615300  1.0  0.1769
  H  H102  1  0.026700  0.436500  0.596000  1.0  0.2165
  H  H103  1  0.073500  0.374100  0.531900  1.0  0.1082
  H  H104  1  0.000700  0.288900  0.537900  1.0  0.0969
  H  H105  1  0.979100  0.364300  0.517300  1.0  0.0987
  H  H106  1  0.921600  0.362800  0.641800  1.0  0.1007
  H  H107  1  0.886600  0.353600  0.583200  1.0  0.1069
  H  H108  1  0.910500  0.280700  0.605700  1.0  0.1016
  H  H109  1  0.366900  0.048100  0.115300  1.0  0.1788
  H  H110  1  0.436500  0.026700  0.096000  1.0  0.2159
  H  H111  1  0.374100  0.073500  0.031900  1.0  0.1086
  H  H112  1  0.288900  0.000700  0.037900  1.0  0.0982
  H  H113  1  0.364300  0.979100  0.017300  1.0  0.0995
  H  H114  1  0.362800  0.921600  0.141800  1.0  0.1024
  H  H115  1  0.353600  0.886600  0.083200  1.0  0.1104
  H  H116  1  0.280700  0.910500  0.105700  1.0  0.1035
  H  H117  1  0.951900  0.633100  0.384700  1.0  0.1789
  H  H118  1  0.973300  0.563500  0.404000  1.0  0.2154
  H  H119  1  0.926500  0.625900  0.468100  1.0  0.108
  H  H120  1  0.999300  0.711100  0.462100  1.0  0.0931
  H  H121  1  0.020900  0.635700  0.482700  1.0  0.0981
  H  H122  1  0.078400  0.637200  0.358200  1.0  0.1019
  H  H123  1  0.113400  0.646400  0.416800  1.0  0.109
  H  H124  1  0.089500  0.719300  0.394300  1.0  0.1025
  C  C125  1  0.159490  0.745490  0.951000  1.0  -0.1405
  C  C126  1  0.163730  0.738170  0.002600  1.0  -0.0594
  C  C127  1  0.093230  0.689590  0.024060  1.0  -0.1347
  C  C128  1  0.019420  0.646100  0.993350  1.0  0.0145
  C  C129  1  0.018240  0.655800  0.942560  1.0  -0.1237
  C  C130  1  0.086000  0.703680  0.921490  1.0  -0.058
  C  C131  1  0.900500  0.451800  0.238810  1.0  -0.1233
  C  C132  1  0.843870  0.396730  0.201770  1.0  -0.041
  C  C133  1  0.839540  0.414840  0.151890  1.0  -0.1365
  C  C134  1  0.893370  0.488670  0.137740  1.0  0.0516
  C  C135  1  0.952310  0.543230  0.175080  1.0  -0.1291
  C  C136  1  0.954850  0.525010  0.224980  1.0  -0.0501
  C  C137  1  0.454750  0.109410  0.925030  1.0  -0.1262
  C  C138  1  0.432160  0.162200  0.895570  1.0  -0.0424
  C  C139  1  0.473750  0.247070  0.903990  1.0  -0.1296
  C  C140  1  0.538610  0.280490  0.942370  1.0  0.0444
  C  C141  1  0.559190  0.226150  0.973110  1.0  -0.1231
  C  C142  1  0.518200  0.141800  0.964190  1.0  -0.1007
  C  C143  1  0.479470  0.686670  0.906940  1.0  -0.1025
  C  C144  1  0.556150  0.573310  0.929930  1.0  0.0476
  C  C145  1  0.566000  0.709400  0.908000  1.0  -0.0399
  C  C146  1  0.604500  0.652500  0.917300  1.0  -0.105
  C  C147  1  0.473400  0.551400  0.926900  1.0  -0.1251
  C  C148  1  0.435900  0.607500  0.914700  1.0  -0.0551
  C  C149  1  0.886600  0.512700  0.085160  1.0  0.0029
  C  C150  1  0.808530  0.486370  0.056790  1.0  -0.1356
  C  C151  1  0.797960  0.512820  0.009530  1.0  -0.0042
  C  C152  1  0.866950  0.566630  0.989800  1.0  -0.1318
  C  C153  1  0.945950  0.591650  0.016220  1.0  -0.0246
  C  C154  1  0.954210  0.563830  0.063670  1.0  -0.1529
  C  C155  1  0.596060  0.513320  0.943730  1.0  0.0617
  C  C156  1  0.678200  0.540460  0.965870  1.0  -0.1298
  C  C157  1  0.713160  0.484560  0.982190  1.0  0.0093
  C  C158  1  0.667240  0.401000  0.974600  1.0  -0.1555
  C  C159  1  0.586420  0.371440  0.951260  1.0  -0.004
  C  C160  1  0.551520  0.428280  0.936620  1.0  -0.1838
  C  C161  1  0.235520  0.793760  0.928070  1.0  0.6692
  C  C162  1  0.901870  0.434930  0.293840  1.0  0.7361
  C  C163  1  0.415520  0.018160  0.912930  1.0  0.6452
  C  C164  1  0.437750  0.746570  0.896750  1.0  0.6909
  C  C165  1  0.745490  0.159490  0.451000  1.0  -0.1436
  C  C166  1  0.738170  0.163730  0.502600  1.0  -0.0616
  C  C167  1  0.689590  0.093230  0.524060  1.0  -0.1315
  C  C168  1  0.646100  0.019420  0.493350  1.0  0.0152
  C  C169  1  0.655800  0.018240  0.442560  1.0  -0.127
  C  C170  1  0.703680  0.086000  0.421490  1.0  -0.0622
  C  C171  1  0.451800  0.900500  0.738810  1.0  -0.1226
  C  C172  1  0.396730  0.843870  0.701770  1.0  -0.0394
  C  C173  1  0.414840  0.839540  0.651890  1.0  -0.1359
  C  C174  1  0.488670  0.893370  0.637740  1.0  0.0489
  C  C175  1  0.543230  0.952310  0.675080  1.0  -0.1271
  C  C176  1  0.525010  0.954850  0.724980  1.0  -0.0485
  C  C177  1  0.109410  0.454750  0.425030  1.0  -0.126
  C  C178  1  0.162200  0.432160  0.395570  1.0  -0.0455
  C  C179  1  0.247070  0.473750  0.403990  1.0  -0.134
  C  C180  1  0.280490  0.538610  0.442370  1.0  0.0442
  C  C181  1  0.226150  0.559190  0.473110  1.0  -0.1231
  C  C182  1  0.141800  0.518200  0.464190  1.0  -0.0993
  C  C183  1  0.686670  0.479470  0.406940  1.0  -0.1019
  C  C184  1  0.573310  0.556150  0.429930  1.0  0.048
  C  C185  1  0.709400  0.566000  0.408000  1.0  -0.0413
  C  C186  1  0.652500  0.604500  0.417300  1.0  -0.1107
  C  C187  1  0.551400  0.473400  0.426900  1.0  -0.1242
  C  C188  1  0.607500  0.435900  0.414700  1.0  -0.0561
  C  C189  1  0.512700  0.886600  0.585160  1.0  0.0013
  C  C190  1  0.486370  0.808530  0.556790  1.0  -0.1334
  C  C191  1  0.512820  0.797960  0.509530  1.0  -0.0026
  C  C192  1  0.566630  0.866950  0.489800  1.0  -0.1281
  C  C193  1  0.591650  0.945950  0.516220  1.0  -0.0218
  C  C194  1  0.563830  0.954210  0.563670  1.0  -0.1523
  C  C195  1  0.513320  0.596060  0.443730  1.0  0.062
  C  C196  1  0.540460  0.678200  0.465870  1.0  -0.1279
  C  C197  1  0.484560  0.713160  0.482190  1.0  0.0102
  C  C198  1  0.401000  0.667240  0.474600  1.0  -0.1542
  C  C199  1  0.371440  0.586420  0.451260  1.0  -0.0031
  C  C200  1  0.428280  0.551520  0.436620  1.0  -0.1829
  C  C201  1  0.793760  0.235520  0.428070  1.0  0.6698
  C  C202  1  0.434930  0.901870  0.793840  1.0  0.7372
  C  C203  1  0.018160  0.415520  0.412930  1.0  0.6493
  C  C204  1  0.746570  0.437750  0.396750  1.0  0.6908
  C  C205  1  0.254510  0.840510  0.549000  1.0  -0.1446
  C  C206  1  0.261830  0.836270  0.497400  1.0  -0.0643
  C  C207  1  0.310410  0.906770  0.475940  1.0  -0.1306
  C  C208  1  0.353900  0.980580  0.506650  1.0  0.0171
  C  C209  1  0.344200  0.981760  0.557440  1.0  -0.1264
  C  C210  1  0.296320  0.914000  0.578510  1.0  -0.0606
  C  C211  1  0.548200  0.099500  0.261190  1.0  -0.1219
  C  C212  1  0.603270  0.156130  0.298230  1.0  -0.0394
  C  C213  1  0.585160  0.160460  0.348110  1.0  -0.1352
  C  C214  1  0.511330  0.106630  0.362260  1.0  0.0508
  C  C215  1  0.456770  0.047690  0.324920  1.0  -0.1252
  C  C216  1  0.474990  0.045150  0.275020  1.0  -0.0485
  C  C217  1  0.890590  0.545250  0.574970  1.0  -0.1245
  C  C218  1  0.837800  0.567840  0.604430  1.0  -0.0438
  C  C219  1  0.752930  0.526250  0.596010  1.0  -0.1329
  C  C220  1  0.719510  0.461390  0.557630  1.0  0.0457
  C  C221  1  0.773850  0.440810  0.526890  1.0  -0.1219
  C  C222  1  0.858200  0.481800  0.535810  1.0  -0.101
  C  C223  1  0.313330  0.520530  0.593060  1.0  -0.0996
  C  C224  1  0.426690  0.443850  0.570070  1.0  0.0492
  C  C225  1  0.290600  0.434000  0.592000  1.0  -0.0406
  C  C226  1  0.347500  0.395500  0.582700  1.0  -0.1095
  C  C227  1  0.448600  0.526600  0.573100  1.0  -0.1269
  C  C228  1  0.392500  0.564100  0.585300  1.0  -0.0558
  C  C229  1  0.487300  0.113400  0.414840  1.0  0.0028
  C  C230  1  0.513630  0.191470  0.443210  1.0  -0.1341
  C  C231  1  0.487180  0.202040  0.490470  1.0  -0.0036
  C  C232  1  0.433370  0.133050  0.510200  1.0  -0.1283
  C  C233  1  0.408350  0.054050  0.483780  1.0  -0.0235
  C  C234  1  0.436170  0.045790  0.436330  1.0  -0.1524
  C  C235  1  0.486680  0.403940  0.556270  1.0  0.0617
  C  C236  1  0.459540  0.321800  0.534130  1.0  -0.1289
  C  C237  1  0.515440  0.286840  0.517810  1.0  0.0083
  C  C238  1  0.599000  0.332760  0.525400  1.0  -0.1528
  C  C239  1  0.628560  0.413580  0.548740  1.0  -0.0034
  C  C240  1  0.571720  0.448480  0.563380  1.0  -0.1787
  C  C241  1  0.206240  0.764480  0.571930  1.0  0.6671
  C  C242  1  0.565070  0.098130  0.206160  1.0  0.736
  C  C243  1  0.981840  0.584480  0.587070  1.0  0.6503
  C  C244  1  0.253430  0.562250  0.603250  1.0  0.6893
  C  C245  1  0.840510  0.254510  0.049000  1.0  -0.1433
  C  C246  1  0.836270  0.261830  0.997400  1.0  -0.0621
  C  C247  1  0.906770  0.310410  0.975940  1.0  -0.1349
  C  C248  1  0.980580  0.353900  0.006650  1.0  0.0149
  C  C249  1  0.981760  0.344200  0.057440  1.0  -0.1218
  C  C250  1  0.914000  0.296320  0.078510  1.0  -0.0615
  C  C251  1  0.099500  0.548200  0.761190  1.0  -0.1221
  C  C252  1  0.156130  0.603270  0.798230  1.0  -0.0414
  C  C253  1  0.160460  0.585160  0.848110  1.0  -0.1352
  C  C254  1  0.106630  0.511330  0.862260  1.0  0.0523
  C  C255  1  0.047690  0.456770  0.824920  1.0  -0.1275
  C  C256  1  0.045150  0.474990  0.775020  1.0  -0.0502
  C  C257  1  0.545250  0.890590  0.074970  1.0  -0.1256
  C  C258  1  0.567840  0.837800  0.104430  1.0  -0.0419
  C  C259  1  0.526250  0.752930  0.096010  1.0  -0.131
  C  C260  1  0.461390  0.719510  0.057630  1.0  0.0452
  C  C261  1  0.440810  0.773850  0.026890  1.0  -0.1211
  C  C262  1  0.481800  0.858200  0.035810  1.0  -0.0985
  C  C263  1  0.520530  0.313330  0.093060  1.0  -0.0992
  C  C264  1  0.443850  0.426690  0.070070  1.0  0.0475
  C  C265  1  0.434000  0.290600  0.092000  1.0  -0.0401
  C  C266  1  0.395500  0.347500  0.082700  1.0  -0.1069
  C  C267  1  0.526600  0.448600  0.073100  1.0  -0.1291
  C  C268  1  0.564100  0.392500  0.085300  1.0  -0.0536
  C  C269  1  0.113400  0.487300  0.914840  1.0  0.0013
  C  C270  1  0.191470  0.513630  0.943210  1.0  -0.1349
  C  C271  1  0.202040  0.487180  0.990470  1.0  -0.0028
  C  C272  1  0.133050  0.433370  0.010200  1.0  -0.1311
  C  C273  1  0.054050  0.408350  0.983780  1.0  -0.0234
  C  C274  1  0.045790  0.436170  0.936330  1.0  -0.1531
  C  C275  1  0.403940  0.486680  0.056270  1.0  0.0618
  C  C276  1  0.321800  0.459540  0.034130  1.0  -0.1306
  C  C277  1  0.286840  0.515440  0.017810  1.0  0.009
  C  C278  1  0.332760  0.599000  0.025400  1.0  -0.1559
  C  C279  1  0.413580  0.628560  0.048740  1.0  -0.0031
  C  C280  1  0.448480  0.571720  0.063380  1.0  -0.1788
  C  C281  1  0.764480  0.206240  0.071930  1.0  0.6682
  C  C282  1  0.098130  0.565070  0.706160  1.0  0.7357
  C  C283  1  0.584480  0.981840  0.087070  1.0  0.6458
  C  C284  1  0.562250  0.253430  0.103250  1.0  0.6899
  C  C285  1  0.650750  0.983250  0.959290  1.0  -0.1773
  C  C286  1  0.659100  0.074900  0.892800  1.0  -0.1902
  C  C287  1  0.016750  0.349250  0.540710  1.0  -0.1796
  C  C288  1  0.925100  0.340900  0.607200  1.0  -0.1887
  C  C289  1  0.349250  0.016750  0.040710  1.0  -0.1793
  C  C290  1  0.340900  0.925100  0.107200  1.0  -0.1893
  C  C291  1  0.983250  0.650750  0.459290  1.0  -0.1787
  C  C292  1  0.074900  0.659100  0.392800  1.0  -0.1907
  N  N293  1  0.620170  0.988070  0.906770  1.0  -0.066
  N  N294  1  0.011930  0.379830  0.593230  1.0  -0.0631
  N  N295  1  0.379830  0.011930  0.093230  1.0  -0.0684
  N  N296  1  0.988070  0.620170  0.406770  1.0  -0.0604
  O  O297  1  0.231970  0.799430  0.880490  1.0  -0.5668
  O  O298  1  0.303560  0.826220  0.955400  1.0  -0.5705
  O  O299  1  0.847490  0.367570  0.304420  1.0  -0.5838
  O  O300  1  0.952750  0.485790  0.326770  1.0  -0.5914
  O  O301  1  0.350690  0.985230  0.882490  1.0  -0.5592
  O  O302  1  0.451160  0.972640  0.932860  1.0  -0.6342
  O  O303  1  0.479020  0.823600  0.902600  1.0  -0.5699
  O  O304  1  0.361840  0.721980  0.883410  1.0  -0.5941
  O  O305  1  0.799430  0.231970  0.380490  1.0  -0.5666
  O  O306  1  0.826220  0.303560  0.455400  1.0  -0.5704
  O  O307  1  0.367570  0.847490  0.804420  1.0  -0.5861
  O  O308  1  0.485790  0.952750  0.826770  1.0  -0.5908
  O  O309  1  0.985230  0.350690  0.382490  1.0  -0.5649
  O  O310  1  0.972640  0.451160  0.432860  1.0  -0.6319
  O  O311  1  0.823600  0.479020  0.402600  1.0  -0.5701
  O  O312  1  0.721980  0.361840  0.383410  1.0  -0.5966
  O  O313  1  0.200570  0.768030  0.619510  1.0  -0.5665
  O  O314  1  0.173780  0.696440  0.544600  1.0  -0.5705
  O  O315  1  0.632430  0.152510  0.195580  1.0  -0.5865
  O  O316  1  0.514210  0.047250  0.173230  1.0  -0.5906
  O  O317  1  0.014770  0.649310  0.617510  1.0  -0.5635
  O  O318  1  0.027360  0.548840  0.567140  1.0  -0.6323
  O  O319  1  0.176400  0.520980  0.597400  1.0  -0.5698
  O  O320  1  0.278020  0.638160  0.616590  1.0  -0.5967
  O  O321  1  0.768030  0.200570  0.119510  1.0  -0.5668
  O  O322  1  0.696440  0.173780  0.044600  1.0  -0.5719
  O  O323  1  0.152510  0.632430  0.695580  1.0  -0.5841
  O  O324  1  0.047250  0.514210  0.673230  1.0  -0.5917
  O  O325  1  0.649310  0.014770  0.117510  1.0  -0.5582
  O  O326  1  0.548840  0.027360  0.067140  1.0  -0.6339
  O  O327  1  0.520980  0.176400  0.097400  1.0  -0.5701
  O  O328  1  0.638160  0.278020  0.116590  1.0  -0.5957
