# generated using pymatgen
data_InH30C42NO8
_symmetry_space_group_name_H-M   'P 1'
_cell_length_a   17.37120000
_cell_length_b   17.37120000
_cell_length_c   26.78500000
_cell_angle_alpha   93.39130000
_cell_angle_beta   93.39130000
_cell_angle_gamma   111.13300000
_symmetry_Int_Tables_number   1
_chemical_formula_structural   InH30C42NO8
_chemical_formula_sum   'In4 H120 C168 N4 O32'
_cell_volume   7497.64811712
_cell_formula_units_Z   4
loop_
 _symmetry_equiv_pos_site_id
 _symmetry_equiv_pos_as_xyz
  1  'x, y, z'
loop_
 _atom_site_type_symbol
 _atom_site_label
 _atom_site_symmetry_multiplicity
 _atom_site_fract_x
 _atom_site_fract_y
 _atom_site_fract_z
 _atom_site_occupancy
 _atom_site_charge
  In  In1  1  0.372020  0.855780  0.884570  1.0  1.5121
  In  In2  1  0.855780  0.372020  0.384570  1.0  1.513
  In  In3  1  0.144220  0.627980  0.615430  1.0  1.5068
  In  In4  1  0.627980  0.144220  0.115430  1.0  1.5077
  H  H5  1  0.211400  0.762800  0.023600  1.0  0.0997
  H  H6  1  0.094200  0.683800  0.059800  1.0  0.1224
  H  H7  1  0.969900  0.620900  0.923700  1.0  0.1164
  H  H8  1  0.086400  0.701800  0.888000  1.0  0.1229
  H  H9  1  0.798000  0.342200  0.211500  1.0  0.107
  H  H10  1  0.794100  0.374300  0.129600  1.0  0.1099
  H  H11  1  0.981500  0.591900  0.167400  1.0  0.1175
  H  H12  1  0.983900  0.560900  0.249900  1.0  0.1117
  H  H13  1  0.391500  0.139500  0.869000  1.0  0.1136
  H  H14  1  0.462500  0.281100  0.883200  1.0  0.1205
  H  H15  1  0.597600  0.241800  0.999500  1.0  0.1107
  H  H16  1  0.530600  0.102000  0.983100  1.0  0.0994
  H  H17  1  0.576200  0.763600  0.955900  1.0  0.116
  H  H18  1  0.633300  0.670100  0.978100  1.0  0.1098
  H  H19  1  0.454000  0.489600  0.892600  1.0  0.1306
  H  H20  1  0.393900  0.585300  0.868400  1.0  0.132
  H  H21  1  0.757800  0.446800  0.072900  1.0  0.1099
  H  H22  1  0.859900  0.583300  0.960300  1.0  0.1253
  H  H23  1  0.002000  0.578200  0.083500  1.0  0.1092
  H  H24  1  0.709100  0.594900  0.973100  1.0  0.1212
  H  H25  1  0.689800  0.359400  0.986500  1.0  0.1098
  H  H26  1  0.497300  0.406500  0.922600  1.0  0.1177
  H  H27  1  0.762800  0.211400  0.523600  1.0  0.0998
  H  H28  1  0.683800  0.094200  0.559800  1.0  0.1213
  H  H29  1  0.620900  0.969900  0.423700  1.0  0.1158
  H  H30  1  0.701800  0.086400  0.388000  1.0  0.1226
  H  H31  1  0.342200  0.798000  0.711500  1.0  0.1069
  H  H32  1  0.374300  0.794100  0.629600  1.0  0.1096
  H  H33  1  0.591900  0.981500  0.667400  1.0  0.1174
  H  H34  1  0.560900  0.983900  0.749900  1.0  0.1113
  H  H35  1  0.139500  0.391500  0.369000  1.0  0.1126
  H  H36  1  0.281100  0.462500  0.383200  1.0  0.1211
  H  H37  1  0.241800  0.597600  0.499500  1.0  0.1116
  H  H38  1  0.102000  0.530600  0.483100  1.0  0.0986
  H  H39  1  0.763600  0.576200  0.455900  1.0  0.1151
  H  H40  1  0.670100  0.633300  0.478100  1.0  0.1101
  H  H41  1  0.489600  0.454000  0.392600  1.0  0.1296
  H  H42  1  0.585300  0.393900  0.368400  1.0  0.1317
  H  H43  1  0.446800  0.757800  0.572900  1.0  0.1095
  H  H44  1  0.583300  0.859900  0.460300  1.0  0.1259
  H  H45  1  0.578200  0.002000  0.583500  1.0  0.11
  H  H46  1  0.594900  0.709100  0.473100  1.0  0.1218
  H  H47  1  0.359400  0.689800  0.486500  1.0  0.1102
  H  H48  1  0.406500  0.497300  0.422600  1.0  0.119
  H  H49  1  0.237200  0.788600  0.476400  1.0  0.1005
  H  H50  1  0.316200  0.905800  0.440200  1.0  0.1215
  H  H51  1  0.379100  0.030100  0.576300  1.0  0.1166
  H  H52  1  0.298200  0.913600  0.612000  1.0  0.1237
  H  H53  1  0.657800  0.202000  0.288500  1.0  0.1061
  H  H54  1  0.625700  0.205900  0.370400  1.0  0.1093
  H  H55  1  0.408100  0.018500  0.332600  1.0  0.1166
  H  H56  1  0.439100  0.016100  0.250100  1.0  0.1113
  H  H57  1  0.860500  0.608500  0.631000  1.0  0.1142
  H  H58  1  0.718900  0.537500  0.616800  1.0  0.1219
  H  H59  1  0.758200  0.402400  0.500500  1.0  0.1116
  H  H60  1  0.898000  0.469400  0.516900  1.0  0.0986
  H  H61  1  0.236400  0.423800  0.544100  1.0  0.1155
  H  H62  1  0.329900  0.366700  0.521900  1.0  0.11
  H  H63  1  0.510400  0.546000  0.607400  1.0  0.1292
  H  H64  1  0.414700  0.606100  0.631600  1.0  0.1309
  H  H65  1  0.553200  0.242200  0.427100  1.0  0.1095
  H  H66  1  0.416700  0.140100  0.539700  1.0  0.1264
  H  H67  1  0.421800  0.998000  0.416500  1.0  0.1105
  H  H68  1  0.405100  0.290900  0.526900  1.0  0.1216
  H  H69  1  0.640600  0.310200  0.513500  1.0  0.1106
  H  H70  1  0.593500  0.502700  0.577400  1.0  0.1192
  H  H71  1  0.788600  0.237200  0.976400  1.0  0.1007
  H  H72  1  0.905800  0.316200  0.940200  1.0  0.1225
  H  H73  1  0.030100  0.379100  0.076300  1.0  0.1165
  H  H74  1  0.913600  0.298200  0.112000  1.0  0.1231
  H  H75  1  0.202000  0.657800  0.788500  1.0  0.1065
  H  H76  1  0.205900  0.625700  0.870400  1.0  0.1101
  H  H77  1  0.018500  0.408100  0.832600  1.0  0.1167
  H  H78  1  0.016100  0.439100  0.750100  1.0  0.1114
  H  H79  1  0.608500  0.860500  0.131000  1.0  0.1134
  H  H80  1  0.537500  0.718900  0.116800  1.0  0.1215
  H  H81  1  0.402400  0.758200  0.000500  1.0  0.1106
  H  H82  1  0.469400  0.898000  0.016900  1.0  0.0986
  H  H83  1  0.423800  0.236400  0.044100  1.0  0.1168
  H  H84  1  0.366700  0.329900  0.021900  1.0  0.1094
  H  H85  1  0.546000  0.510400  0.107400  1.0  0.1303
  H  H86  1  0.606100  0.414700  0.131600  1.0  0.1311
  H  H87  1  0.242200  0.553200  0.927100  1.0  0.1099
  H  H88  1  0.140100  0.416700  0.039700  1.0  0.1265
  H  H89  1  0.998000  0.421800  0.916500  1.0  0.1102
  H  H90  1  0.290900  0.405100  0.026900  1.0  0.1215
  H  H91  1  0.310200  0.640600  0.013500  1.0  0.1109
  H  H92  1  0.502700  0.593500  0.077400  1.0  0.118
  H  H93  1  0.636800  0.951000  0.887000  1.0  0.2025
  H  H94  1  0.566000  0.968800  0.905000  1.0  0.2383
  H  H95  1  0.630400  0.931600  0.969400  1.0  0.1066
  H  H96  1  0.713400  0.005200  0.960600  1.0  0.0976
  H  H97  1  0.637200  0.024600  0.979900  1.0  0.1021
  H  H98  1  0.632300  0.068900  0.856400  1.0  0.081
  H  H99  1  0.642100  0.107700  0.912500  1.0  0.096
  H  H100  1  0.715600  0.086600  0.890400  1.0  0.1025
  H  H101  1  0.049000  0.363200  0.613000  1.0  0.2003
  H  H102  1  0.031200  0.434000  0.595000  1.0  0.2492
  H  H103  1  0.068400  0.369600  0.530600  1.0  0.1068
  H  H104  1  0.994800  0.286600  0.539400  1.0  0.0949
  H  H105  1  0.975400  0.362800  0.520100  1.0  0.099
  H  H106  1  0.931100  0.367700  0.643600  1.0  0.0769
  H  H107  1  0.892300  0.357900  0.587500  1.0  0.0959
  H  H108  1  0.913400  0.284400  0.609600  1.0  0.0969
  H  H109  1  0.363200  0.049000  0.113000  1.0  0.2024
  H  H110  1  0.434000  0.031200  0.095000  1.0  0.2393
  H  H111  1  0.369600  0.068400  0.030600  1.0  0.1063
  H  H112  1  0.286600  0.994800  0.039400  1.0  0.0924
  H  H113  1  0.362800  0.975400  0.020100  1.0  0.0996
  H  H114  1  0.367700  0.931100  0.143600  1.0  0.0784
  H  H115  1  0.357900  0.892300  0.087500  1.0  0.0945
  H  H116  1  0.284400  0.913400  0.109600  1.0  0.0984
  H  H117  1  0.951000  0.636800  0.387000  1.0  0.2007
  H  H118  1  0.968800  0.566000  0.405000  1.0  0.2512
  H  H119  1  0.931600  0.630400  0.469400  1.0  0.109
  H  H120  1  0.005200  0.713400  0.460600  1.0  0.0916
  H  H121  1  0.024600  0.637200  0.479900  1.0  0.0971
  H  H122  1  0.068900  0.632300  0.356400  1.0  0.0781
  H  H123  1  0.107700  0.642100  0.412500  1.0  0.0962
  H  H124  1  0.086600  0.715600  0.390400  1.0  0.0962
  C  C125  1  0.160930  0.740930  0.952700  1.0  -0.1443
  C  C126  1  0.162200  0.734400  0.003150  1.0  -0.0607
  C  C127  1  0.092130  0.686670  0.024870  1.0  -0.1316
  C  C128  1  0.018470  0.642810  0.995250  1.0  0.0208
  C  C129  1  0.018750  0.649850  0.944450  1.0  -0.112
  C  C130  1  0.088340  0.698060  0.922840  1.0  -0.0858
  C  C131  1  0.890480  0.448920  0.239040  1.0  -0.1165
  C  C132  1  0.834610  0.393250  0.202590  1.0  -0.0459
  C  C133  1  0.832560  0.412440  0.153780  1.0  -0.1103
  C  C134  1  0.886650  0.487790  0.139280  1.0  0.0695
  C  C135  1  0.943460  0.541640  0.176300  1.0  -0.1269
  C  C136  1  0.945420  0.523180  0.225510  1.0  -0.0571
  C  C137  1  0.456290  0.106230  0.923900  1.0  -0.1067
  C  C138  1  0.434620  0.160520  0.894770  1.0  -0.0444
  C  C139  1  0.476270  0.245050  0.903640  1.0  -0.129
  C  C140  1  0.538910  0.277470  0.942910  1.0  0.0468
  C  C141  1  0.556800  0.221480  0.972370  1.0  -0.1243
  C  C142  1  0.516670  0.138090  0.962790  1.0  -0.0764
  C  C143  1  0.481460  0.684020  0.909600  1.0  -0.1185
  C  C144  1  0.556850  0.570970  0.932890  1.0  0.08
  C  C145  1  0.552100  0.708300  0.942100  1.0  -0.1287
  C  C146  1  0.587000  0.652800  0.954300  1.0  -0.0977
  C  C147  1  0.480800  0.546000  0.903500  1.0  -0.1062
  C  C148  1  0.442800  0.602400  0.889800  1.0  -0.0908
  C  C149  1  0.880800  0.510920  0.087420  1.0  -0.0076
  C  C150  1  0.804470  0.483690  0.059490  1.0  -0.1767
  C  C151  1  0.795840  0.510020  0.011990  1.0  0.0284
  C  C152  1  0.865620  0.563860  0.991770  1.0  -0.1039
  C  C153  1  0.943860  0.588860  0.018180  1.0  -0.023
  C  C154  1  0.949710  0.561690  0.065600  1.0  -0.1198
  C  C155  1  0.596180  0.510660  0.946360  1.0  -0.0329
  C  C156  1  0.677430  0.537850  0.968660  1.0  -0.0976
  C  C157  1  0.711650  0.481430  0.984300  1.0  0.0142
  C  C158  1  0.666050  0.397230  0.976010  1.0  -0.141
  C  C159  1  0.586290  0.367570  0.952620  1.0  -0.0121
  C  C160  1  0.551540  0.425520  0.938120  1.0  -0.1143
  C  C161  1  0.237140  0.789340  0.929070  1.0  0.6621
  C  C162  1  0.890230  0.431370  0.294060  1.0  0.7124
  C  C163  1  0.417420  0.014780  0.911430  1.0  0.643
  C  C164  1  0.440430  0.744030  0.899110  1.0  0.6929
  C  C165  1  0.740930  0.160930  0.452700  1.0  -0.1462
  C  C166  1  0.734400  0.162200  0.503150  1.0  -0.0623
  C  C167  1  0.686670  0.092130  0.524870  1.0  -0.1282
  C  C168  1  0.642810  0.018470  0.495250  1.0  0.0203
  C  C169  1  0.649850  0.018750  0.444450  1.0  -0.1158
  C  C170  1  0.698060  0.088340  0.422840  1.0  -0.0851
  C  C171  1  0.448920  0.890480  0.739040  1.0  -0.1153
  C  C172  1  0.393250  0.834610  0.702590  1.0  -0.0451
  C  C173  1  0.412440  0.832560  0.653780  1.0  -0.1101
  C  C174  1  0.487790  0.886650  0.639280  1.0  0.0667
  C  C175  1  0.541640  0.943460  0.676300  1.0  -0.1244
  C  C176  1  0.523180  0.945420  0.725510  1.0  -0.0552
  C  C177  1  0.106230  0.456290  0.423900  1.0  -0.106
  C  C178  1  0.160520  0.434620  0.394770  1.0  -0.046
  C  C179  1  0.245050  0.476270  0.403640  1.0  -0.1321
  C  C180  1  0.277470  0.538910  0.442910  1.0  0.0469
  C  C181  1  0.221480  0.556800  0.472370  1.0  -0.1256
  C  C182  1  0.138090  0.516670  0.462790  1.0  -0.074
  C  C183  1  0.684020  0.481460  0.409600  1.0  -0.1183
  C  C184  1  0.570970  0.556850  0.432890  1.0  0.0846
  C  C185  1  0.708300  0.552100  0.442100  1.0  -0.1297
  C  C186  1  0.652800  0.587000  0.454300  1.0  -0.1039
  C  C187  1  0.546000  0.480800  0.403500  1.0  -0.1029
  C  C188  1  0.602400  0.442800  0.389800  1.0  -0.0914
  C  C189  1  0.510920  0.880800  0.587420  1.0  -0.0076
  C  C190  1  0.483690  0.804470  0.559490  1.0  -0.1744
  C  C191  1  0.510020  0.795840  0.511990  1.0  0.0303
  C  C192  1  0.563860  0.865620  0.491770  1.0  -0.0983
  C  C193  1  0.588860  0.943860  0.518180  1.0  -0.0216
  C  C194  1  0.561690  0.949710  0.565600  1.0  -0.1188
  C  C195  1  0.510660  0.596180  0.446360  1.0  -0.0327
  C  C196  1  0.537850  0.677430  0.468660  1.0  -0.0939
  C  C197  1  0.481430  0.711650  0.484300  1.0  0.0143
  C  C198  1  0.397230  0.666050  0.476010  1.0  -0.1432
  C  C199  1  0.367570  0.586290  0.452620  1.0  -0.0109
  C  C200  1  0.425520  0.551540  0.438120  1.0  -0.113
  C  C201  1  0.789340  0.237140  0.429070  1.0  0.6625
  C  C202  1  0.431370  0.890230  0.794060  1.0  0.7121
  C  C203  1  0.014780  0.417420  0.411430  1.0  0.647
  C  C204  1  0.744030  0.440430  0.399110  1.0  0.6925
  C  C205  1  0.259070  0.839070  0.547300  1.0  -0.1474
  C  C206  1  0.265600  0.837800  0.496850  1.0  -0.0642
  C  C207  1  0.313330  0.907870  0.475130  1.0  -0.13
  C  C208  1  0.357190  0.981530  0.504750  1.0  0.0223
  C  C209  1  0.350150  0.981250  0.555550  1.0  -0.1157
  C  C210  1  0.301940  0.911660  0.577160  1.0  -0.0871
  C  C211  1  0.551080  0.109520  0.260960  1.0  -0.1143
  C  C212  1  0.606750  0.165390  0.297410  1.0  -0.0452
  C  C213  1  0.587560  0.167440  0.346220  1.0  -0.1086
  C  C214  1  0.512210  0.113350  0.360720  1.0  0.0676
  C  C215  1  0.458360  0.056540  0.323700  1.0  -0.1234
  C  C216  1  0.476820  0.054580  0.274490  1.0  -0.0554
  C  C217  1  0.893770  0.543710  0.576100  1.0  -0.1057
  C  C218  1  0.839480  0.565380  0.605230  1.0  -0.0492
  C  C219  1  0.754950  0.523730  0.596360  1.0  -0.1332
  C  C220  1  0.722530  0.461090  0.557090  1.0  0.0481
  C  C221  1  0.778520  0.443200  0.527630  1.0  -0.1254
  C  C222  1  0.861910  0.483330  0.537210  1.0  -0.0771
  C  C223  1  0.315980  0.518540  0.590400  1.0  -0.1158
  C  C224  1  0.429030  0.443150  0.567110  1.0  0.0872
  C  C225  1  0.291700  0.447900  0.557900  1.0  -0.1325
  C  C226  1  0.347200  0.413000  0.545700  1.0  -0.1005
  C  C227  1  0.454000  0.519200  0.596500  1.0  -0.105
  C  C228  1  0.397600  0.557200  0.610200  1.0  -0.0911
  C  C229  1  0.489080  0.119200  0.412580  1.0  -0.0067
  C  C230  1  0.516310  0.195530  0.440510  1.0  -0.1758
  C  C231  1  0.489980  0.204160  0.488010  1.0  0.0288
  C  C232  1  0.436140  0.134380  0.508230  1.0  -0.1003
  C  C233  1  0.411140  0.056140  0.481820  1.0  -0.022
  C  C234  1  0.438310  0.050290  0.434400  1.0  -0.1188
  C  C235  1  0.489340  0.403820  0.553640  1.0  -0.0331
  C  C236  1  0.462150  0.322570  0.531340  1.0  -0.0969
  C  C237  1  0.518570  0.288350  0.515700  1.0  0.0138
  C  C238  1  0.602770  0.333950  0.523990  1.0  -0.1421
  C  C239  1  0.632430  0.413710  0.547380  1.0  -0.0106
  C  C240  1  0.574480  0.448460  0.561880  1.0  -0.111
  C  C241  1  0.210660  0.762860  0.570930  1.0  0.6609
  C  C242  1  0.568630  0.109770  0.205940  1.0  0.7111
  C  C243  1  0.985220  0.582580  0.588570  1.0  0.648
  C  C244  1  0.255970  0.559570  0.600890  1.0  0.6926
  C  C245  1  0.839070  0.259070  0.047300  1.0  -0.1446
  C  C246  1  0.837800  0.265600  0.996850  1.0  -0.0617
  C  C247  1  0.907870  0.313330  0.975130  1.0  -0.1346
  C  C248  1  0.981530  0.357190  0.004750  1.0  0.0209
  C  C249  1  0.981250  0.350150  0.055550  1.0  -0.1119
  C  C250  1  0.911660  0.301940  0.077160  1.0  -0.0829
  C  C251  1  0.109520  0.551080  0.760960  1.0  -0.1146
  C  C252  1  0.165390  0.606750  0.797410  1.0  -0.0447
  C  C253  1  0.167440  0.587560  0.846220  1.0  -0.1097
  C  C254  1  0.113350  0.512210  0.860720  1.0  0.0699
  C  C255  1  0.056540  0.458360  0.823700  1.0  -0.1255
  C  C256  1  0.054580  0.476820  0.774490  1.0  -0.057
  C  C257  1  0.543710  0.893770  0.076100  1.0  -0.1059
  C  C258  1  0.565380  0.839480  0.105230  1.0  -0.0476
  C  C259  1  0.523730  0.754950  0.096360  1.0  -0.1323
  C  C260  1  0.461090  0.722530  0.057090  1.0  0.0489
  C  C261  1  0.443200  0.778520  0.027630  1.0  -0.1241
  C  C262  1  0.483330  0.861910  0.037210  1.0  -0.0744
  C  C263  1  0.518540  0.315980  0.090400  1.0  -0.1159
  C  C264  1  0.443150  0.429030  0.067110  1.0  0.0821
  C  C265  1  0.447900  0.291700  0.057900  1.0  -0.1325
  C  C266  1  0.413000  0.347200  0.045700  1.0  -0.0975
  C  C267  1  0.519200  0.454000  0.096500  1.0  -0.1076
  C  C268  1  0.557200  0.397600  0.110200  1.0  -0.0923
  C  C269  1  0.119200  0.489080  0.912580  1.0  -0.0085
  C  C270  1  0.195530  0.516310  0.940510  1.0  -0.1772
  C  C271  1  0.204160  0.489980  0.988010  1.0  0.029
  C  C272  1  0.134380  0.436140  0.008230  1.0  -0.1026
  C  C273  1  0.056140  0.411140  0.981820  1.0  -0.0221
  C  C274  1  0.050290  0.438310  0.934400  1.0  -0.1188
  C  C275  1  0.403820  0.489340  0.053640  1.0  -0.0342
  C  C276  1  0.322570  0.462150  0.031340  1.0  -0.0988
  C  C277  1  0.288350  0.518570  0.015700  1.0  0.0147
  C  C278  1  0.333950  0.602770  0.023990  1.0  -0.1428
  C  C279  1  0.413710  0.632430  0.047380  1.0  -0.0114
  C  C280  1  0.448460  0.574480  0.061880  1.0  -0.1096
  C  C281  1  0.762860  0.210660  0.070930  1.0  0.662
  C  C282  1  0.109770  0.568630  0.705940  1.0  0.7125
  C  C283  1  0.582580  0.985220  0.088570  1.0  0.6455
  C  C284  1  0.559570  0.255970  0.100890  1.0  0.6922
  C  C285  1  0.653400  0.987000  0.958500  1.0  -0.1694
  C  C286  1  0.655900  0.069300  0.890200  1.0  -0.1746
  C  C287  1  0.013000  0.346600  0.541500  1.0  -0.1712
  C  C288  1  0.930700  0.344100  0.609800  1.0  -0.177
  C  C289  1  0.346600  0.013000  0.041500  1.0  -0.1724
  C  C290  1  0.344100  0.930700  0.109800  1.0  -0.1731
  C  C291  1  0.987000  0.653400  0.458500  1.0  -0.171
  C  C292  1  0.069300  0.655900  0.390200  1.0  -0.1748
  N  N293  1  0.622220  0.986580  0.907170  1.0  -0.0955
  N  N294  1  0.013420  0.377780  0.592830  1.0  -0.0922
  N  N295  1  0.377780  0.013420  0.092830  1.0  -0.0963
  N  N296  1  0.986580  0.622220  0.407170  1.0  -0.0905
  O  O297  1  0.234770  0.795990  0.882680  1.0  -0.5682
  O  O298  1  0.305300  0.821860  0.955540  1.0  -0.5768
  O  O299  1  0.839250  0.362490  0.304370  1.0  -0.5786
  O  O300  1  0.938580  0.483820  0.326070  1.0  -0.6251
  O  O301  1  0.354520  0.982960  0.880550  1.0  -0.5891
  O  O302  1  0.451740  0.969320  0.931120  1.0  -0.6225
  O  O303  1  0.481050  0.820490  0.905870  1.0  -0.5764
  O  O304  1  0.365580  0.718940  0.884280  1.0  -0.6184
  O  O305  1  0.795990  0.234770  0.382680  1.0  -0.5684
  O  O306  1  0.821860  0.305300  0.455540  1.0  -0.5758
  O  O307  1  0.362490  0.839250  0.804370  1.0  -0.5791
  O  O308  1  0.483820  0.938580  0.826070  1.0  -0.6242
  O  O309  1  0.982960  0.354520  0.380550  1.0  -0.5956
  O  O310  1  0.969320  0.451740  0.431120  1.0  -0.6213
  O  O311  1  0.820490  0.481050  0.405870  1.0  -0.5763
  O  O312  1  0.718940  0.365580  0.384280  1.0  -0.6203
  O  O313  1  0.204010  0.765230  0.617320  1.0  -0.5691
  O  O314  1  0.178140  0.694700  0.544460  1.0  -0.5768
  O  O315  1  0.637510  0.160750  0.195630  1.0  -0.5791
  O  O316  1  0.516180  0.061420  0.173930  1.0  -0.6255
  O  O317  1  0.017040  0.645480  0.619450  1.0  -0.5938
  O  O318  1  0.030680  0.548260  0.568880  1.0  -0.6216
  O  O319  1  0.179510  0.518950  0.594130  1.0  -0.5757
  O  O320  1  0.281060  0.634420  0.615720  1.0  -0.6207
  O  O321  1  0.765230  0.204010  0.117320  1.0  -0.57
  O  O322  1  0.694700  0.178140  0.044460  1.0  -0.5788
  O  O323  1  0.160750  0.637510  0.695630  1.0  -0.5779
  O  O324  1  0.061420  0.516180  0.673930  1.0  -0.6272
  O  O325  1  0.645480  0.017040  0.119450  1.0  -0.5893
  O  O326  1  0.548260  0.030680  0.068880  1.0  -0.6227
  O  O327  1  0.518950  0.179510  0.094130  1.0  -0.577
  O  O328  1  0.634420  0.281060  0.115720  1.0  -0.6181
