# generated using pymatgen
data_InH30C42NO8
_symmetry_space_group_name_H-M   'P 1'
_cell_length_a   17.40170000
_cell_length_b   17.40170000
_cell_length_c   27.01500000
_cell_angle_alpha   92.76260000
_cell_angle_beta   92.76260000
_cell_angle_gamma   111.75700000
_symmetry_Int_Tables_number   1
_chemical_formula_structural   InH30C42NO8
_chemical_formula_sum   'In4 H120 C168 N4 O32'
_cell_volume   7569.80654510
_cell_formula_units_Z   4
loop_
 _symmetry_equiv_pos_site_id
 _symmetry_equiv_pos_as_xyz
  1  'x, y, z'
loop_
 _atom_site_type_symbol
 _atom_site_label
 _atom_site_symmetry_multiplicity
 _atom_site_fract_x
 _atom_site_fract_y
 _atom_site_fract_z
 _atom_site_occupancy
 _atom_site_charge
  In  In1  1  0.372370  0.854910  0.883640  1.0  1.5036
  In  In2  1  0.854910  0.372370  0.383640  1.0  1.5027
  In  In3  1  0.145090  0.627630  0.616360  1.0  1.5001
  In  In4  1  0.627630  0.145090  0.116360  1.0  1.5012
  H  H5  1  0.206900  0.770500  0.023800  1.0  0.0915
  H  H6  1  0.086900  0.695700  0.060900  1.0  0.1325
  H  H7  1  0.968800  0.609800  0.924500  1.0  0.118
  H  H8  1  0.086600  0.689200  0.888500  1.0  0.106
  H  H9  1  0.794900  0.338300  0.210500  1.0  0.0992
  H  H10  1  0.789400  0.373200  0.130800  1.0  0.1112
  H  H11  1  0.976900  0.589900  0.167300  1.0  0.1112
  H  H12  1  0.976700  0.559100  0.248900  1.0  0.1166
  H  H13  1  0.394200  0.140800  0.868300  1.0  0.1137
  H  H14  1  0.461000  0.281800  0.884800  1.0  0.1232
  H  H15  1  0.591900  0.240300  0.999100  1.0  0.1034
  H  H16  1  0.530200  0.101400  0.981500  1.0  0.1121
  H  H17  1  0.574700  0.762100  0.956100  1.0  0.1087
  H  H18  1  0.628800  0.666000  0.979200  1.0  0.115
  H  H19  1  0.460800  0.493800  0.890400  1.0  0.1209
  H  H20  1  0.399300  0.586700  0.868600  1.0  0.1295
  H  H21  1  0.753600  0.446600  0.073200  1.0  0.1092
  H  H22  1  0.859900  0.581300  0.961200  1.0  0.118
  H  H23  1  0.998300  0.577100  0.083300  1.0  0.1108
  H  H24  1  0.706500  0.593100  0.973200  1.0  0.1125
  H  H25  1  0.687200  0.360000  0.986600  1.0  0.1081
  H  H26  1  0.496900  0.405900  0.924600  1.0  0.1098
  H  H27  1  0.770500  0.206900  0.523800  1.0  0.0922
  H  H28  1  0.695700  0.086900  0.560900  1.0  0.1321
  H  H29  1  0.609800  0.968800  0.424500  1.0  0.1178
  H  H30  1  0.689200  0.086600  0.388500  1.0  0.1061
  H  H31  1  0.338300  0.794900  0.710500  1.0  0.0983
  H  H32  1  0.373200  0.789400  0.630800  1.0  0.1108
  H  H33  1  0.589900  0.976900  0.667300  1.0  0.111
  H  H34  1  0.559100  0.976700  0.748900  1.0  0.1163
  H  H35  1  0.140800  0.394200  0.368300  1.0  0.1125
  H  H36  1  0.281800  0.461000  0.384800  1.0  0.1237
  H  H37  1  0.240300  0.591900  0.499100  1.0  0.1045
  H  H38  1  0.101400  0.530200  0.481500  1.0  0.1111
  H  H39  1  0.762100  0.574700  0.456100  1.0  0.1073
  H  H40  1  0.666000  0.628800  0.479200  1.0  0.1149
  H  H41  1  0.493800  0.460800  0.390400  1.0  0.1201
  H  H42  1  0.586700  0.399300  0.368600  1.0  0.1277
  H  H43  1  0.446600  0.753600  0.573200  1.0  0.1089
  H  H44  1  0.581300  0.859900  0.461200  1.0  0.118
  H  H45  1  0.577100  0.998300  0.583300  1.0  0.1107
  H  H46  1  0.593100  0.706500  0.473200  1.0  0.1138
  H  H47  1  0.360000  0.687200  0.486600  1.0  0.1084
  H  H48  1  0.405900  0.496900  0.424600  1.0  0.1109
  H  H49  1  0.229500  0.793100  0.476200  1.0  0.092
  H  H50  1  0.304300  0.913100  0.439100  1.0  0.1322
  H  H51  1  0.390200  0.031200  0.575500  1.0  0.1186
  H  H52  1  0.310800  0.913400  0.611500  1.0  0.1063
  H  H53  1  0.661700  0.205100  0.289500  1.0  0.0982
  H  H54  1  0.626800  0.210600  0.369200  1.0  0.1106
  H  H55  1  0.410100  0.023100  0.332700  1.0  0.11
  H  H56  1  0.440900  0.023300  0.251100  1.0  0.1162
  H  H57  1  0.859200  0.605800  0.631700  1.0  0.1141
  H  H58  1  0.718200  0.539000  0.615200  1.0  0.1252
  H  H59  1  0.759700  0.408100  0.500900  1.0  0.1041
  H  H60  1  0.898600  0.469800  0.518500  1.0  0.1113
  H  H61  1  0.237900  0.425300  0.543900  1.0  0.1067
  H  H62  1  0.334000  0.371200  0.520800  1.0  0.1155
  H  H63  1  0.506200  0.539200  0.609600  1.0  0.1198
  H  H64  1  0.413300  0.600700  0.631400  1.0  0.1278
  H  H65  1  0.553400  0.246400  0.426800  1.0  0.1088
  H  H66  1  0.418700  0.140100  0.538800  1.0  0.1186
  H  H67  1  0.422900  0.001700  0.416700  1.0  0.1106
  H  H68  1  0.406900  0.293500  0.526800  1.0  0.1142
  H  H69  1  0.640000  0.312800  0.513400  1.0  0.1091
  H  H70  1  0.594100  0.503100  0.575400  1.0  0.1106
  H  H71  1  0.793100  0.229500  0.976200  1.0  0.0923
  H  H72  1  0.913100  0.304300  0.939100  1.0  0.1321
  H  H73  1  0.031200  0.390200  0.075500  1.0  0.1183
  H  H74  1  0.913400  0.310800  0.111500  1.0  0.1064
  H  H75  1  0.205100  0.661700  0.789500  1.0  0.0992
  H  H76  1  0.210600  0.626800  0.869200  1.0  0.1117
  H  H77  1  0.023100  0.410100  0.832700  1.0  0.1102
  H  H78  1  0.023300  0.440900  0.751100  1.0  0.1166
  H  H79  1  0.605800  0.859200  0.131700  1.0  0.1134
  H  H80  1  0.539000  0.718200  0.115200  1.0  0.1246
  H  H81  1  0.408100  0.759700  0.000900  1.0  0.1025
  H  H82  1  0.469800  0.898600  0.018500  1.0  0.1119
  H  H83  1  0.425300  0.237900  0.043900  1.0  0.1087
  H  H84  1  0.371200  0.334000  0.020800  1.0  0.1152
  H  H85  1  0.539200  0.506200  0.109600  1.0  0.1209
  H  H86  1  0.600700  0.413300  0.131400  1.0  0.1294
  H  H87  1  0.246400  0.553400  0.926800  1.0  0.109
  H  H88  1  0.140100  0.418700  0.038800  1.0  0.1186
  H  H89  1  0.001700  0.422900  0.916700  1.0  0.1103
  H  H90  1  0.293500  0.406900  0.026800  1.0  0.1134
  H  H91  1  0.312800  0.640000  0.013400  1.0  0.1085
  H  H92  1  0.503100  0.594100  0.075400  1.0  0.1095
  H  H93  1  0.650900  0.963700  0.886000  1.0  0.2328
  H  H94  1  0.571800  0.964800  0.901200  1.0  0.2275
  H  H95  1  0.635900  0.940100  0.971700  1.0  0.119
  H  H96  1  0.716900  0.015700  0.963100  1.0  0.1091
  H  H97  1  0.638200  0.030800  0.979500  1.0  0.1265
  H  H98  1  0.628800  0.081000  0.857200  1.0  0.1145
  H  H99  1  0.631400  0.111600  0.913000  1.0  0.1149
  H  H100  1  0.711400  0.107000  0.891000  1.0  0.1033
  H  H101  1  0.036300  0.349100  0.614000  1.0  0.2294
  H  H102  1  0.035200  0.428200  0.598800  1.0  0.2291
  H  H103  1  0.059900  0.364100  0.528300  1.0  0.12
  H  H104  1  0.984300  0.283100  0.536900  1.0  0.1113
  H  H105  1  0.969200  0.361800  0.520500  1.0  0.122
  H  H106  1  0.919000  0.371200  0.642800  1.0  0.1132
  H  H107  1  0.888400  0.368600  0.587000  1.0  0.1112
  H  H108  1  0.893000  0.288600  0.609000  1.0  0.1021
  H  H109  1  0.349100  0.036300  0.114000  1.0  0.2357
  H  H110  1  0.428200  0.035200  0.098800  1.0  0.2267
  H  H111  1  0.364100  0.059900  0.028300  1.0  0.1194
  H  H112  1  0.283100  0.984300  0.036900  1.0  0.1119
  H  H113  1  0.361800  0.969200  0.020500  1.0  0.1232
  H  H114  1  0.371200  0.919000  0.142800  1.0  0.1137
  H  H115  1  0.368600  0.888400  0.087000  1.0  0.1127
  H  H116  1  0.288600  0.893000  0.109000  1.0  0.1016
  H  H117  1  0.963700  0.650900  0.386000  1.0  0.2335
  H  H118  1  0.964800  0.571800  0.401200  1.0  0.2302
  H  H119  1  0.940100  0.635900  0.471700  1.0  0.1194
  H  H120  1  0.015700  0.716900  0.463100  1.0  0.1097
  H  H121  1  0.030800  0.638200  0.479500  1.0  0.1215
  H  H122  1  0.081000  0.628800  0.357200  1.0  0.1133
  H  H123  1  0.111600  0.631400  0.413000  1.0  0.1137
  H  H124  1  0.107000  0.711400  0.391000  1.0  0.0995
  C  C125  1  0.160220  0.738780  0.952550  1.0  -0.1459
  C  C126  1  0.159100  0.738900  0.004100  1.0  -0.008
  C  C127  1  0.088300  0.692900  0.026500  1.0  -0.1645
  C  C128  1  0.016700  0.641500  0.944100  1.0  -0.1475
  C  C129  1  0.086700  0.689100  0.922900  1.0  -0.0277
  C  C130  1  0.018200  0.641400  0.996060  1.0  -0.0127
  C  C131  1  0.884900  0.443700  0.238700  1.0  -0.1471
  C  C132  1  0.830600  0.390000  0.202130  1.0  -0.0406
  C  C133  1  0.827900  0.410300  0.154260  1.0  -0.1175
  C  C134  1  0.882300  0.486700  0.139860  1.0  0.0705
  C  C135  1  0.938700  0.539900  0.176300  1.0  -0.1016
  C  C136  1  0.939900  0.521100  0.225100  1.0  -0.0864
  C  C137  1  0.454490  0.106510  0.923900  1.0  -0.1481
  C  C138  1  0.434700  0.161300  0.894500  1.0  -0.0503
  C  C139  1  0.474900  0.245500  0.904100  1.0  -0.1182
  C  C140  1  0.536580  0.276020  0.942800  1.0  0.0211
  C  C141  1  0.553280  0.220120  0.971950  1.0  -0.1081
  C  C142  1  0.515410  0.137390  0.962360  1.0  -0.1151
  C  C143  1  0.481310  0.683890  0.909500  1.0  -0.1062
  C  C144  1  0.556030  0.570370  0.933170  1.0  0.0881
  C  C145  1  0.550900  0.707700  0.942500  1.0  -0.0715
  C  C146  1  0.584900  0.650300  0.955100  1.0  -0.1096
  C  C147  1  0.485500  0.548700  0.903200  1.0  -0.1039
  C  C148  1  0.447000  0.604200  0.890000  1.0  -0.1227
  C  C149  1  0.876000  0.510000  0.087480  1.0  -0.0285
  C  C150  1  0.800500  0.482900  0.059900  1.0  -0.0731
  C  C151  1  0.793440  0.509560  0.012030  1.0  0.0222
  C  C152  1  0.864200  0.562400  0.992400  1.0  -0.1214
  C  C153  1  0.940060  0.587540  0.017730  1.0  -0.0211
  C  C154  1  0.946660  0.560740  0.065980  1.0  -0.0999
  C  C155  1  0.594360  0.510640  0.946670  1.0  0.0302
  C  C156  1  0.674770  0.536630  0.969080  1.0  -0.1002
  C  C157  1  0.708330  0.481070  0.985270  1.0  -0.0373
  C  C158  1  0.663600  0.397200  0.976530  1.0  -0.1171
  C  C159  1  0.584380  0.366620  0.953170  1.0  0.0414
  C  C160  1  0.550690  0.425110  0.939300  1.0  -0.1143
  C  C161  1  0.237850  0.786350  0.928920  1.0  0.6612
  C  C162  1  0.881700  0.425900  0.292400  1.0  0.7021
  C  C163  1  0.416200  0.013200  0.909500  1.0  0.6525
  C  C164  1  0.439730  0.742870  0.898580  1.0  0.6668
  C  C165  1  0.738780  0.160220  0.452550  1.0  -0.144
  C  C166  1  0.738900  0.159100  0.504100  1.0  -0.0112
  C  C167  1  0.692900  0.088300  0.526500  1.0  -0.1607
  C  C168  1  0.641500  0.016700  0.444100  1.0  -0.1462
  C  C169  1  0.689100  0.086700  0.422900  1.0  -0.0276
  C  C170  1  0.641400  0.018200  0.496060  1.0  -0.0131
  C  C171  1  0.443700  0.884900  0.738700  1.0  -0.1443
  C  C172  1  0.390000  0.830600  0.702130  1.0  -0.0392
  C  C173  1  0.410300  0.827900  0.654260  1.0  -0.1172
  C  C174  1  0.486700  0.882300  0.639860  1.0  0.0683
  C  C175  1  0.539900  0.938700  0.676300  1.0  -0.099
  C  C176  1  0.521100  0.939900  0.725100  1.0  -0.0845
  C  C177  1  0.106510  0.454490  0.423900  1.0  -0.1434
  C  C178  1  0.161300  0.434700  0.394500  1.0  -0.0485
  C  C179  1  0.245500  0.474900  0.404100  1.0  -0.1209
  C  C180  1  0.276020  0.536580  0.442800  1.0  0.0208
  C  C181  1  0.220120  0.553280  0.471950  1.0  -0.1076
  C  C182  1  0.137390  0.515410  0.462360  1.0  -0.114
  C  C183  1  0.683890  0.481310  0.409500  1.0  -0.1065
  C  C184  1  0.570370  0.556030  0.433170  1.0  0.0888
  C  C185  1  0.707700  0.550900  0.442500  1.0  -0.0714
  C  C186  1  0.650300  0.584900  0.455100  1.0  -0.1136
  C  C187  1  0.548700  0.485500  0.403200  1.0  -0.0987
  C  C188  1  0.604200  0.447000  0.390000  1.0  -0.1236
  C  C189  1  0.510000  0.876000  0.587480  1.0  -0.0302
  C  C190  1  0.482900  0.800500  0.559900  1.0  -0.07
  C  C191  1  0.509560  0.793440  0.512030  1.0  0.0231
  C  C192  1  0.562400  0.864200  0.492400  1.0  -0.1171
  C  C193  1  0.587540  0.940060  0.517730  1.0  -0.0213
  C  C194  1  0.560740  0.946660  0.565980  1.0  -0.0991
  C  C195  1  0.510640  0.594360  0.446670  1.0  0.0309
  C  C196  1  0.536630  0.674770  0.469080  1.0  -0.1005
  C  C197  1  0.481070  0.708330  0.485270  1.0  -0.038
  C  C198  1  0.397200  0.663600  0.476530  1.0  -0.1192
  C  C199  1  0.366620  0.584380  0.453170  1.0  0.043
  C  C200  1  0.425110  0.550690  0.439300  1.0  -0.1133
  C  C201  1  0.786350  0.237850  0.428920  1.0  0.6609
  C  C202  1  0.425900  0.881700  0.792400  1.0  0.702
  C  C203  1  0.013200  0.416200  0.409500  1.0  0.6525
  C  C204  1  0.742870  0.439730  0.398580  1.0  0.6668
  C  C205  1  0.261220  0.839780  0.547450  1.0  -0.1458
  C  C206  1  0.261100  0.840900  0.495900  1.0  -0.0109
  C  C207  1  0.307100  0.911700  0.473500  1.0  -0.1603
  C  C208  1  0.358500  0.983300  0.555900  1.0  -0.1471
  C  C209  1  0.310900  0.913300  0.577100  1.0  -0.0267
  C  C210  1  0.358600  0.981800  0.503940  1.0  -0.012
  C  C211  1  0.556300  0.115100  0.261300  1.0  -0.1421
  C  C212  1  0.610000  0.169400  0.297870  1.0  -0.0391
  C  C213  1  0.589700  0.172100  0.345740  1.0  -0.1186
  C  C214  1  0.513300  0.117700  0.360140  1.0  0.0692
  C  C215  1  0.460100  0.061300  0.323700  1.0  -0.0956
  C  C216  1  0.478900  0.060100  0.274900  1.0  -0.0851
  C  C217  1  0.893490  0.545510  0.576100  1.0  -0.1458
  C  C218  1  0.838700  0.565300  0.605500  1.0  -0.0558
  C  C219  1  0.754500  0.525100  0.595900  1.0  -0.1231
  C  C220  1  0.723980  0.463420  0.557200  1.0  0.0219
  C  C221  1  0.779880  0.446720  0.528050  1.0  -0.1087
  C  C222  1  0.862610  0.484590  0.537640  1.0  -0.1146
  C  C223  1  0.316110  0.518690  0.590500  1.0  -0.1023
  C  C224  1  0.429630  0.443970  0.566830  1.0  0.0912
  C  C225  1  0.292300  0.449100  0.557500  1.0  -0.0716
  C  C226  1  0.349700  0.415100  0.544900  1.0  -0.1123
  C  C227  1  0.451300  0.514500  0.596800  1.0  -0.1003
  C  C228  1  0.395800  0.553000  0.610000  1.0  -0.1213
  C  C229  1  0.490000  0.124000  0.412520  1.0  -0.0277
  C  C230  1  0.517100  0.199500  0.440100  1.0  -0.0701
  C  C231  1  0.490440  0.206560  0.487970  1.0  0.0218
  C  C232  1  0.437600  0.135800  0.507600  1.0  -0.1195
  C  C233  1  0.412460  0.059940  0.482270  1.0  -0.0216
  C  C234  1  0.439260  0.053340  0.434020  1.0  -0.0965
  C  C235  1  0.489360  0.405640  0.553330  1.0  0.0311
  C  C236  1  0.463370  0.325230  0.530920  1.0  -0.1019
  C  C237  1  0.518930  0.291670  0.514730  1.0  -0.0377
  C  C238  1  0.602800  0.336400  0.523470  1.0  -0.1187
  C  C239  1  0.633380  0.415620  0.546830  1.0  0.0455
  C  C240  1  0.574890  0.449310  0.560700  1.0  -0.1127
  C  C241  1  0.213650  0.762150  0.571080  1.0  0.6622
  C  C242  1  0.574100  0.118300  0.207600  1.0  0.7016
  C  C243  1  0.986800  0.583800  0.590500  1.0  0.6545
  C  C244  1  0.257130  0.560270  0.601420  1.0  0.6678
  C  C245  1  0.839780  0.261220  0.047450  1.0  -0.1461
  C  C246  1  0.840900  0.261100  0.995900  1.0  -0.0099
  C  C247  1  0.911700  0.307100  0.973500  1.0  -0.164
  C  C248  1  0.983300  0.358500  0.055900  1.0  -0.1465
  C  C249  1  0.913300  0.310900  0.077100  1.0  -0.027
  C  C250  1  0.981800  0.358600  0.003940  1.0  -0.0128
  C  C251  1  0.115100  0.556300  0.761300  1.0  -0.1448
  C  C252  1  0.169400  0.610000  0.797870  1.0  -0.041
  C  C253  1  0.172100  0.589700  0.845740  1.0  -0.1179
  C  C254  1  0.117700  0.513300  0.860140  1.0  0.0717
  C  C255  1  0.061300  0.460100  0.823700  1.0  -0.0989
  C  C256  1  0.060100  0.478900  0.774900  1.0  -0.0859
  C  C257  1  0.545510  0.893490  0.076100  1.0  -0.1481
  C  C258  1  0.565300  0.838700  0.105500  1.0  -0.0548
  C  C259  1  0.525100  0.754500  0.095900  1.0  -0.1213
  C  C260  1  0.463420  0.723980  0.057200  1.0  0.023
  C  C261  1  0.446720  0.779880  0.028050  1.0  -0.1079
  C  C262  1  0.484590  0.862610  0.037640  1.0  -0.1123
  C  C263  1  0.518690  0.316110  0.090500  1.0  -0.1037
  C  C264  1  0.443970  0.429630  0.066830  1.0  0.0895
  C  C265  1  0.449100  0.292300  0.057500  1.0  -0.0716
  C  C266  1  0.415100  0.349700  0.044900  1.0  -0.1108
  C  C267  1  0.514500  0.451300  0.096800  1.0  -0.105
  C  C268  1  0.553000  0.395800  0.110000  1.0  -0.1232
  C  C269  1  0.124000  0.490000  0.912520  1.0  -0.0287
  C  C270  1  0.199500  0.517100  0.940100  1.0  -0.0722
  C  C271  1  0.206560  0.490440  0.987970  1.0  0.022
  C  C272  1  0.135800  0.437600  0.007600  1.0  -0.1207
  C  C273  1  0.059940  0.412460  0.982270  1.0  -0.0215
  C  C274  1  0.053340  0.439260  0.934020  1.0  -0.1017
  C  C275  1  0.405640  0.489360  0.053330  1.0  0.0307
  C  C276  1  0.325230  0.463370  0.030920  1.0  -0.1017
  C  C277  1  0.291670  0.518930  0.014730  1.0  -0.0373
  C  C278  1  0.336400  0.602800  0.023470  1.0  -0.119
  C  C279  1  0.415620  0.633380  0.046830  1.0  0.0435
  C  C280  1  0.449310  0.574890  0.060700  1.0  -0.1126
  C  C281  1  0.762150  0.213650  0.071080  1.0  0.6629
  C  C282  1  0.118300  0.574100  0.707600  1.0  0.7016
  C  C283  1  0.583800  0.986800  0.090500  1.0  0.6537
  C  C284  1  0.560270  0.257130  0.101420  1.0  0.6685
  C  C285  1  0.657400  0.994800  0.960000  1.0  -0.2458
  C  C286  1  0.652000  0.081200  0.890200  1.0  -0.2549
  C  C287  1  0.005200  0.342600  0.540000  1.0  -0.2489
  C  C288  1  0.918800  0.348000  0.609800  1.0  -0.256
  C  C289  1  0.342600  0.005200  0.040000  1.0  -0.2479
  C  C290  1  0.348000  0.918800  0.109800  1.0  -0.2539
  C  C291  1  0.994800  0.657400  0.460000  1.0  -0.2456
  C  C292  1  0.081200  0.652000  0.390200  1.0  -0.254
  N  N293  1  0.627300  0.991300  0.905200  1.0  -0.1322
  N  N294  1  0.008700  0.372700  0.594800  1.0  -0.1277
  N  N295  1  0.372700  0.008700  0.094800  1.0  -0.131
  N  N296  1  0.991300  0.627300  0.405200  1.0  -0.1252
  O  O297  1  0.235170  0.796490  0.883440  1.0  -0.5777
  O  O298  1  0.306320  0.816080  0.955270  1.0  -0.5641
  O  O299  1  0.835680  0.355120  0.302960  1.0  -0.5864
  O  O300  1  0.924800  0.477600  0.324960  1.0  -0.6184
  O  O301  1  0.354650  0.983610  0.878790  1.0  -0.562
  O  O302  1  0.448540  0.967840  0.930450  1.0  -0.5769
  O  O303  1  0.479400  0.819240  0.909030  1.0  -0.5955
  O  O304  1  0.366970  0.718230  0.879880  1.0  -0.6139
  O  O305  1  0.796490  0.235170  0.383440  1.0  -0.5768
  O  O306  1  0.816080  0.306320  0.455270  1.0  -0.5627
  O  O307  1  0.355120  0.835680  0.802960  1.0  -0.5876
  O  O308  1  0.477600  0.924800  0.824960  1.0  -0.619
  O  O309  1  0.983610  0.354650  0.378790  1.0  -0.5672
  O  O310  1  0.967840  0.448540  0.430450  1.0  -0.5753
  O  O311  1  0.819240  0.479400  0.409030  1.0  -0.595
  O  O312  1  0.718230  0.366970  0.379880  1.0  -0.6164
  O  O313  1  0.203510  0.764830  0.616560  1.0  -0.5801
  O  O314  1  0.183920  0.693680  0.544730  1.0  -0.5629
  O  O315  1  0.644880  0.164320  0.197040  1.0  -0.5867
  O  O316  1  0.522400  0.075200  0.175040  1.0  -0.6183
  O  O317  1  0.016390  0.645350  0.621210  1.0  -0.5659
  O  O318  1  0.032160  0.551460  0.569550  1.0  -0.5765
  O  O319  1  0.180760  0.520600  0.590970  1.0  -0.596
  O  O320  1  0.281770  0.633030  0.620120  1.0  -0.618
  O  O321  1  0.764830  0.203510  0.116560  1.0  -0.5801
  O  O322  1  0.693680  0.183920  0.044730  1.0  -0.5636
  O  O323  1  0.164320  0.644880  0.697040  1.0  -0.5878
  O  O324  1  0.075200  0.522400  0.675040  1.0  -0.6187
  O  O325  1  0.645350  0.016390  0.121210  1.0  -0.5635
  O  O326  1  0.551460  0.032160  0.069550  1.0  -0.5761
  O  O327  1  0.520600  0.180760  0.090970  1.0  -0.5963
  O  O328  1  0.633030  0.281770  0.120120  1.0  -0.6155
