# generated using pymatgen
data_InH30C42NO8
_symmetry_space_group_name_H-M   'P 1'
_cell_length_a   17.28570000
_cell_length_b   17.28570000
_cell_length_c   26.21900000
_cell_angle_alpha   94.49870000
_cell_angle_beta   94.49870000
_cell_angle_gamma   110.06200000
_symmetry_Int_Tables_number   1
_chemical_formula_structural   InH30C42NO8
_chemical_formula_sum   'In4 H120 C168 N4 O32'
_cell_volume   7289.51993594
_cell_formula_units_Z   4
loop_
 _symmetry_equiv_pos_site_id
 _symmetry_equiv_pos_as_xyz
  1  'x, y, z'
loop_
 _atom_site_type_symbol
 _atom_site_label
 _atom_site_symmetry_multiplicity
 _atom_site_fract_x
 _atom_site_fract_y
 _atom_site_fract_z
 _atom_site_occupancy
 _atom_site_charge
  In  In1  1  0.366370  0.862010  0.884290  1.0  1.51
  In  In2  1  0.862010  0.366370  0.384290  1.0  1.5119
  In  In3  1  0.137990  0.633630  0.615710  1.0  1.5075
  In  In4  1  0.633630  0.137990  0.115710  1.0  1.507
  H  H5  1  0.212400  0.769000  0.024000  1.0  0.0934
  H  H6  1  0.096300  0.686700  0.059900  1.0  0.1255
  H  H7  1  0.965900  0.630100  0.919800  1.0  0.1112
  H  H8  1  0.080000  0.712600  0.884800  1.0  0.1149
  H  H9  1  0.810900  0.343900  0.208800  1.0  0.1074
  H  H10  1  0.801500  0.376500  0.125600  1.0  0.1138
  H  H11  1  0.996600  0.591000  0.166700  1.0  0.1163
  H  H12  1  0.999500  0.560900  0.250400  1.0  0.1064
  H  H13  1  0.382200  0.142200  0.870800  1.0  0.1149
  H  H14  1  0.453300  0.285100  0.885000  1.0  0.1181
  H  H15  1  0.602300  0.251500  0.001200  1.0  0.1081
  H  H16  1  0.533400  0.107600  0.985700  1.0  0.1099
  H  H17  1  0.597100  0.764900  0.896500  1.0  0.1272
  H  H18  1  0.660700  0.669700  0.914200  1.0  0.1186
  H  H19  1  0.437800  0.498800  0.929300  1.0  0.1231
  H  H20  1  0.376200  0.595200  0.911800  1.0  0.0843
  H  H21  1  0.763900  0.449500  0.069600  1.0  0.1109
  H  H22  1  0.858200  0.589400  0.957200  1.0  0.1156
  H  H23  1  0.009300  0.580900  0.080800  1.0  0.1146
  H  H24  1  0.711300  0.600500  0.968400  1.0  0.1134
  H  H25  1  0.691300  0.364900  0.985600  1.0  0.1095
  H  H26  1  0.494300  0.410900  0.922700  1.0  0.1102
  H  H27  1  0.769000  0.212400  0.524000  1.0  0.0938
  H  H28  1  0.686700  0.096300  0.559900  1.0  0.1241
  H  H29  1  0.630100  0.965900  0.419800  1.0  0.1096
  H  H30  1  0.712600  0.080000  0.384800  1.0  0.1146
  H  H31  1  0.343900  0.810900  0.708800  1.0  0.1069
  H  H32  1  0.376500  0.801500  0.625600  1.0  0.1132
  H  H33  1  0.591000  0.996600  0.666667  1.0  0.117
  H  H34  1  0.560900  0.999500  0.750400  1.0  0.1064
  H  H35  1  0.142200  0.382200  0.370800  1.0  0.114
  H  H36  1  0.285100  0.453300  0.385000  1.0  0.1179
  H  H37  1  0.251500  0.602300  0.501200  1.0  0.1086
  H  H38  1  0.107600  0.533400  0.485700  1.0  0.1094
  H  H39  1  0.764900  0.597100  0.396500  1.0  0.1269
  H  H40  1  0.669700  0.660700  0.414200  1.0  0.1182
  H  H41  1  0.498800  0.437800  0.429300  1.0  0.1222
  H  H42  1  0.595200  0.376200  0.411800  1.0  0.0854
  H  H43  1  0.449500  0.763900  0.569600  1.0  0.1109
  H  H44  1  0.589400  0.858200  0.457200  1.0  0.1154
  H  H45  1  0.580900  0.009300  0.580800  1.0  0.116
  H  H46  1  0.600500  0.711300  0.468400  1.0  0.1143
  H  H47  1  0.364900  0.691300  0.485600  1.0  0.1092
  H  H48  1  0.410900  0.494300  0.422700  1.0  0.1093
  H  H49  1  0.231000  0.787600  0.476000  1.0  0.0934
  H  H50  1  0.313300  0.903700  0.440100  1.0  0.1233
  H  H51  1  0.369900  0.034100  0.580200  1.0  0.109
  H  H52  1  0.287400  0.920000  0.615200  1.0  0.1158
  H  H53  1  0.656100  0.189100  0.291200  1.0  0.1066
  H  H54  1  0.623500  0.198500  0.374400  1.0  0.1138
  H  H55  1  0.409000  0.003400  0.333333  1.0  0.1155
  H  H56  1  0.439100  0.000500  0.249600  1.0  0.1063
  H  H57  1  0.857800  0.617800  0.629200  1.0  0.1148
  H  H58  1  0.714900  0.546700  0.615000  1.0  0.1194
  H  H59  1  0.748500  0.397700  0.498800  1.0  0.1088
  H  H60  1  0.892400  0.466600  0.514300  1.0  0.1088
  H  H61  1  0.235100  0.402900  0.603500  1.0  0.1276
  H  H62  1  0.330300  0.339300  0.585800  1.0  0.1173
  H  H63  1  0.501200  0.562200  0.570700  1.0  0.1238
  H  H64  1  0.404800  0.623800  0.588200  1.0  0.0852
  H  H65  1  0.550500  0.236100  0.430400  1.0  0.1109
  H  H66  1  0.410600  0.141800  0.542800  1.0  0.116
  H  H67  1  0.419100  0.990700  0.419200  1.0  0.1166
  H  H68  1  0.399500  0.288700  0.531600  1.0  0.1151
  H  H69  1  0.635100  0.308700  0.514400  1.0  0.1089
  H  H70  1  0.589100  0.505700  0.577300  1.0  0.1089
  H  H71  1  0.787600  0.231000  0.976000  1.0  0.094
  H  H72  1  0.903700  0.313300  0.940100  1.0  0.1239
  H  H73  1  0.034100  0.369900  0.080200  1.0  0.1122
  H  H74  1  0.920000  0.287400  0.115200  1.0  0.1141
  H  H75  1  0.189100  0.656100  0.791200  1.0  0.1072
  H  H76  1  0.198500  0.623500  0.874400  1.0  0.114
  H  H77  1  0.003400  0.409000  0.833300  1.0  0.1157
  H  H78  1  0.000500  0.439100  0.749600  1.0  0.1061
  H  H79  1  0.617800  0.857800  0.129200  1.0  0.1148
  H  H80  1  0.546700  0.714900  0.115000  1.0  0.1185
  H  H81  1  0.397700  0.748500  0.998800  1.0  0.1079
  H  H82  1  0.466600  0.892400  0.014300  1.0  0.1096
  H  H83  1  0.402900  0.235100  0.103500  1.0  0.1279
  H  H84  1  0.339300  0.330300  0.085800  1.0  0.1188
  H  H85  1  0.562200  0.501200  0.070700  1.0  0.1244
  H  H86  1  0.623800  0.404800  0.088200  1.0  0.0846
  H  H87  1  0.236100  0.550500  0.930400  1.0  0.1104
  H  H88  1  0.141800  0.410600  0.042800  1.0  0.1161
  H  H89  1  0.990700  0.419100  0.919200  1.0  0.116
  H  H90  1  0.288700  0.399500  0.031600  1.0  0.1145
  H  H91  1  0.308700  0.635100  0.014400  1.0  0.1088
  H  H92  1  0.505700  0.589100  0.077300  1.0  0.1091
  H  H93  1  0.629200  0.954000  0.883200  1.0  0.1865
  H  H94  1  0.561000  0.976800  0.903800  1.0  0.2196
  H  H95  1  0.624500  0.927700  0.967000  1.0  0.1138
  H  H96  1  0.710000  0.999400  0.960900  1.0  0.1036
  H  H97  1  0.636200  0.022600  0.983000  1.0  0.0972
  H  H98  1  0.635200  0.081400  0.857900  1.0  0.1075
  H  H99  1  0.644600  0.116200  0.917300  1.0  0.1114
  H  H100  1  0.717300  0.091500  0.894600  1.0  0.109
  H  H101  1  0.046000  0.370800  0.616800  1.0  0.1871
  H  H102  1  0.023200  0.439000  0.596200  1.0  0.2235
  H  H103  1  0.072300  0.375500  0.533000  1.0  0.1184
  H  H104  1  0.000600  0.290000  0.539100  1.0  0.1002
  H  H105  1  0.977400  0.363800  0.517000  1.0  0.0943
  H  H106  1  0.918600  0.364800  0.642100  1.0  0.1034
  H  H107  1  0.883800  0.355400  0.582700  1.0  0.1101
  H  H108  1  0.908500  0.282700  0.605400  1.0  0.1029
  H  H109  1  0.370800  0.046000  0.116800  1.0  0.1877
  H  H110  1  0.439000  0.023200  0.096200  1.0  0.2236
  H  H111  1  0.375500  0.072300  0.033000  1.0  0.1158
  H  H112  1  0.290000  0.000600  0.039100  1.0  0.1023
  H  H113  1  0.363800  0.977400  0.017000  1.0  0.0956
  H  H114  1  0.364800  0.918600  0.142100  1.0  0.1049
  H  H115  1  0.355400  0.883800  0.082700  1.0  0.1108
  H  H116  1  0.282700  0.908500  0.105400  1.0  0.104
  H  H117  1  0.954000  0.629200  0.383200  1.0  0.1874
  H  H118  1  0.976800  0.561000  0.403800  1.0  0.2215
  H  H119  1  0.927700  0.624500  0.467000  1.0  0.1176
  H  H120  1  0.999400  0.710000  0.460900  1.0  0.0968
  H  H121  1  0.022600  0.636200  0.483000  1.0  0.095
  H  H122  1  0.081400  0.635200  0.357900  1.0  0.1048
  H  H123  1  0.116200  0.644600  0.417300  1.0  0.1106
  H  H124  1  0.091500  0.717300  0.394600  1.0  0.1033
  C  C125  1  0.158540  0.747840  0.950950  1.0  -0.124
  C  C126  1  0.162240  0.740360  0.002450  1.0  -0.0128
  C  C127  1  0.092890  0.690970  0.023970  1.0  -0.1411
  C  C128  1  0.018960  0.648120  0.992810  1.0  -0.0002
  C  C129  1  0.016210  0.657890  0.941570  1.0  -0.1364
  C  C130  1  0.084200  0.706880  0.920590  1.0  -0.0567
  C  C131  1  0.904730  0.449050  0.238250  1.0  -0.1378
  C  C132  1  0.847350  0.395190  0.200330  1.0  -0.0313
  C  C133  1  0.842030  0.414190  0.150840  1.0  -0.1546
  C  C134  1  0.896250  0.489150  0.137020  1.0  0.0733
  C  C135  1  0.956950  0.541750  0.175380  1.0  -0.1197
  C  C136  1  0.959690  0.523090  0.224710  1.0  -0.0562
  C  C137  1  0.452840  0.111800  0.926310  1.0  -0.1218
  C  C138  1  0.428010  0.164430  0.896720  1.0  -0.0661
  C  C139  1  0.470370  0.249390  0.905240  1.0  -0.1229
  C  C140  1  0.537610  0.282810  0.943050  1.0  0.0274
  C  C141  1  0.558850  0.229330  0.973790  1.0  -0.1186
  C  C142  1  0.517250  0.143530  0.965060  1.0  -0.1053
  C  C143  1  0.478100  0.689140  0.904990  1.0  -0.0942
  C  C144  1  0.555140  0.575100  0.928690  1.0  0.0676
  C  C145  1  0.565000  0.711400  0.904400  1.0  -0.0554
  C  C146  1  0.602600  0.655200  0.915400  1.0  -0.0804
  C  C147  1  0.471500  0.553500  0.924600  1.0  -0.1762
  C  C148  1  0.434900  0.611500  0.913500  1.0  -0.0398
  C  C149  1  0.888180  0.513160  0.084410  1.0  0.0398
  C  C150  1  0.809850  0.486990  0.056170  1.0  -0.1286
  C  C151  1  0.797660  0.514860  0.008400  1.0  -0.0009
  C  C152  1  0.865700  0.568680  0.989030  1.0  -0.1376
  C  C153  1  0.945620  0.593060  0.015820  1.0  -0.0332
  C  C154  1  0.955330  0.564750  0.062790  1.0  -0.1453
  C  C155  1  0.594670  0.516130  0.943190  1.0  0.024
  C  C156  1  0.678520  0.543220  0.964920  1.0  -0.1284
  C  C157  1  0.713190  0.486190  0.981300  1.0  0.0082
  C  C158  1  0.667030  0.403270  0.974430  1.0  -0.1674
  C  C159  1  0.585860  0.374100  0.951520  1.0  0.0133
  C  C160  1  0.550590  0.430630  0.937180  1.0  -0.1929
  C  C161  1  0.233230  0.795410  0.927710  1.0  0.6581
  C  C162  1  0.906870  0.432410  0.293650  1.0  0.711
  C  C163  1  0.412730  0.019830  0.914110  1.0  0.6369
  C  C164  1  0.436320  0.749060  0.894500  1.0  0.6687
  C  C165  1  0.747840  0.158540  0.450950  1.0  -0.125
  C  C166  1  0.740360  0.162240  0.502450  1.0  -0.0154
  C  C167  1  0.690970  0.092890  0.523970  1.0  -0.1392
  C  C168  1  0.648120  0.018960  0.492810  1.0  -0.0002
  C  C169  1  0.657890  0.016210  0.441570  1.0  -0.1385
  C  C170  1  0.706880  0.084200  0.420590  1.0  -0.0581
  C  C171  1  0.449050  0.904730  0.738250  1.0  -0.1373
  C  C172  1  0.395190  0.847350  0.700330  1.0  -0.0297
  C  C173  1  0.414190  0.842030  0.650840  1.0  -0.1538
  C  C174  1  0.489150  0.896250  0.637020  1.0  0.0695
  C  C175  1  0.541750  0.956950  0.675380  1.0  -0.1171
  C  C176  1  0.523090  0.959690  0.724710  1.0  -0.0545
  C  C177  1  0.111800  0.452840  0.426310  1.0  -0.1194
  C  C178  1  0.164430  0.428010  0.396720  1.0  -0.0673
  C  C179  1  0.249390  0.470370  0.405240  1.0  -0.1288
  C  C180  1  0.282810  0.537610  0.443050  1.0  0.0275
  C  C181  1  0.229330  0.558850  0.473790  1.0  -0.1184
  C  C182  1  0.143530  0.517250  0.465060  1.0  -0.1039
  C  C183  1  0.689140  0.478100  0.404990  1.0  -0.0929
  C  C184  1  0.575100  0.555140  0.428690  1.0  0.0681
  C  C185  1  0.711400  0.565000  0.404400  1.0  -0.0577
  C  C186  1  0.655200  0.602600  0.415400  1.0  -0.083
  C  C187  1  0.553500  0.471500  0.424600  1.0  -0.1748
  C  C188  1  0.611500  0.434900  0.413500  1.0  -0.0435
  C  C189  1  0.513160  0.888180  0.584410  1.0  0.0381
  C  C190  1  0.486990  0.809850  0.556170  1.0  -0.127
  C  C191  1  0.514860  0.797660  0.508400  1.0  0.0005
  C  C192  1  0.568680  0.865700  0.489030  1.0  -0.1331
  C  C193  1  0.593060  0.945620  0.515820  1.0  -0.0322
  C  C194  1  0.564750  0.955330  0.562790  1.0  -0.144
  C  C195  1  0.516130  0.594670  0.443190  1.0  0.0242
  C  C196  1  0.543220  0.678520  0.464920  1.0  -0.1254
  C  C197  1  0.486190  0.713190  0.481300  1.0  0.0086
  C  C198  1  0.403270  0.667030  0.474430  1.0  -0.1661
  C  C199  1  0.374100  0.585860  0.451520  1.0  0.0153
  C  C200  1  0.430630  0.550590  0.437180  1.0  -0.192
  C  C201  1  0.795410  0.233230  0.427710  1.0  0.6578
  C  C202  1  0.432410  0.906870  0.793650  1.0  0.7107
  C  C203  1  0.019830  0.412730  0.414110  1.0  0.6406
  C  C204  1  0.749060  0.436320  0.394500  1.0  0.6694
  C  C205  1  0.252160  0.841460  0.549050  1.0  -0.1266
  C  C206  1  0.259640  0.837760  0.497550  1.0  -0.017
  C  C207  1  0.309030  0.907110  0.476030  1.0  -0.1372
  C  C208  1  0.351880  0.981040  0.507190  1.0  0.0008
  C  C209  1  0.342110  0.983790  0.558430  1.0  -0.1375
  C  C210  1  0.293120  0.915800  0.579410  1.0  -0.0571
  C  C211  1  0.550950  0.095270  0.261750  1.0  -0.1361
  C  C212  1  0.604810  0.152650  0.299670  1.0  -0.0306
  C  C213  1  0.585810  0.157970  0.349160  1.0  -0.155
  C  C214  1  0.510850  0.103750  0.362980  1.0  0.071
  C  C215  1  0.458250  0.043050  0.324620  1.0  -0.1177
  C  C216  1  0.476910  0.040310  0.275290  1.0  -0.055
  C  C217  1  0.888200  0.547160  0.573690  1.0  -0.1185
  C  C218  1  0.835570  0.571990  0.603280  1.0  -0.0664
  C  C219  1  0.750610  0.529630  0.594760  1.0  -0.1275
  C  C220  1  0.717190  0.462390  0.556950  1.0  0.0282
  C  C221  1  0.770670  0.441150  0.526210  1.0  -0.1164
  C  C222  1  0.856470  0.482750  0.534940  1.0  -0.1047
  C  C223  1  0.310860  0.521900  0.595010  1.0  -0.0894
  C  C224  1  0.424900  0.444860  0.571310  1.0  0.0686
  C  C225  1  0.288600  0.435000  0.595600  1.0  -0.0571
  C  C226  1  0.344800  0.397400  0.584600  1.0  -0.0809
  C  C227  1  0.446500  0.528500  0.575400  1.0  -0.174
  C  C228  1  0.388500  0.565100  0.586500  1.0  -0.0423
  C  C229  1  0.486840  0.111820  0.415590  1.0  0.0374
  C  C230  1  0.513010  0.190150  0.443830  1.0  -0.1276
  C  C231  1  0.485140  0.202340  0.491600  1.0  -0.0005
  C  C232  1  0.431320  0.134300  0.510970  1.0  -0.1346
  C  C233  1  0.406940  0.054380  0.484180  1.0  -0.0322
  C  C234  1  0.435250  0.044670  0.437210  1.0  -0.1443
  C  C235  1  0.483870  0.405330  0.556810  1.0  0.025
  C  C236  1  0.456780  0.321480  0.535080  1.0  -0.1275
  C  C237  1  0.513810  0.286810  0.518700  1.0  0.006
  C  C238  1  0.596730  0.332970  0.525570  1.0  -0.1643
  C  C239  1  0.625900  0.414140  0.548480  1.0  0.0178
  C  C240  1  0.569370  0.449410  0.562820  1.0  -0.1873
  C  C241  1  0.204590  0.766770  0.572290  1.0  0.6578
  C  C242  1  0.567590  0.093130  0.206350  1.0  0.7095
  C  C243  1  0.980170  0.587270  0.585890  1.0  0.6418
  C  C244  1  0.250940  0.563680  0.605500  1.0  0.6684
  C  C245  1  0.841460  0.252160  0.049050  1.0  -0.1236
  C  C246  1  0.837760  0.259640  0.997550  1.0  -0.0138
  C  C247  1  0.907110  0.309030  0.976030  1.0  -0.1409
  C  C248  1  0.981040  0.351880  0.007190  1.0  1e-04
  C  C249  1  0.983790  0.342110  0.058430  1.0  -0.1358
  C  C250  1  0.915800  0.293120  0.079410  1.0  -0.0584
  C  C251  1  0.095270  0.550950  0.761750  1.0  -0.1364
  C  C252  1  0.152650  0.604810  0.799670  1.0  -0.0323
  C  C253  1  0.157970  0.585810  0.849160  1.0  -0.1547
  C  C254  1  0.103750  0.510850  0.862980  1.0  0.0738
  C  C255  1  0.043050  0.458250  0.824620  1.0  -0.1178
  C  C256  1  0.040310  0.476910  0.775290  1.0  -0.0564
  C  C257  1  0.547160  0.888200  0.073690  1.0  -0.1178
  C  C258  1  0.571990  0.835570  0.103280  1.0  -0.0638
  C  C259  1  0.529630  0.750610  0.094760  1.0  -0.1239
  C  C260  1  0.462390  0.717190  0.056950  1.0  0.0282
  C  C261  1  0.441150  0.770670  0.026210  1.0  -0.1165
  C  C262  1  0.482750  0.856470  0.034940  1.0  -0.1042
  C  C263  1  0.521900  0.310860  0.095010  1.0  -0.0906
  C  C264  1  0.444860  0.424900  0.071310  1.0  0.0672
  C  C265  1  0.435000  0.288600  0.095600  1.0  -0.0562
  C  C266  1  0.397400  0.344800  0.084600  1.0  -0.081
  C  C267  1  0.528500  0.446500  0.075400  1.0  -0.1765
  C  C268  1  0.565100  0.388500  0.086500  1.0  -0.0382
  C  C269  1  0.111820  0.486840  0.915590  1.0  0.0384
  C  C270  1  0.190150  0.513010  0.943830  1.0  -0.1285
  C  C271  1  0.202340  0.485140  0.991600  1.0  -0.0002
  C  C272  1  0.134300  0.431320  0.010970  1.0  -0.1363
  C  C273  1  0.054380  0.406940  0.984180  1.0  -0.0328
  C  C274  1  0.044670  0.435250  0.937210  1.0  -0.1451
  C  C275  1  0.405330  0.483870  0.056810  1.0  0.0245
  C  C276  1  0.321480  0.456780  0.035080  1.0  -0.1294
  C  C277  1  0.286810  0.513810  0.018700  1.0  0.0074
  C  C278  1  0.332970  0.596730  0.025570  1.0  -0.167
  C  C279  1  0.414140  0.625900  0.048480  1.0  0.0172
  C  C280  1  0.449410  0.569370  0.062820  1.0  -0.1878
  C  C281  1  0.766770  0.204590  0.072290  1.0  0.6602
  C  C282  1  0.093130  0.567590  0.706350  1.0  0.7101
  C  C283  1  0.587270  0.980170  0.085890  1.0  0.6372
  C  C284  1  0.563680  0.250940  0.105500  1.0  0.6691
  C  C285  1  0.649790  0.984610  0.958630  1.0  -0.1776
  C  C286  1  0.657100  0.077500  0.892800  1.0  -0.1888
  C  C287  1  0.015390  0.350210  0.541370  1.0  -0.1788
  C  C288  1  0.922500  0.342900  0.607200  1.0  -0.1873
  C  C289  1  0.350210  0.015390  0.041370  1.0  -0.178
  C  C290  1  0.342900  0.922500  0.107200  1.0  -0.1876
  C  C291  1  0.984610  0.649790  0.458630  1.0  -0.1785
  C  C292  1  0.077500  0.657100  0.392800  1.0  -0.189
  N  N293  1  0.617640  0.990560  0.906090  1.0  -0.0653
  N  N294  1  0.009440  0.382360  0.593910  1.0  -0.0629
  N  N295  1  0.382360  0.009440  0.093910  1.0  -0.068
  N  N296  1  0.990560  0.617640  0.406090  1.0  -0.0602
  O  O297  1  0.228980  0.802220  0.879630  1.0  -0.5639
  O  O298  1  0.302600  0.827860  0.955520  1.0  -0.5683
  O  O299  1  0.851970  0.365410  0.303540  1.0  -0.5947
  O  O300  1  0.958940  0.482940  0.326810  1.0  -0.5808
  O  O301  1  0.346880  0.987520  0.883900  1.0  -0.5428
  O  O302  1  0.449200  0.974660  0.933920  1.0  -0.6216
  O  O303  1  0.477240  0.826460  0.900600  1.0  -0.5726
  O  O304  1  0.359910  0.724830  0.881540  1.0  -0.5959
  O  O305  1  0.802220  0.228980  0.379630  1.0  -0.564
  O  O306  1  0.827860  0.302600  0.455520  1.0  -0.5669
  O  O307  1  0.365410  0.851970  0.803540  1.0  -0.5981
  O  O308  1  0.482940  0.958940  0.826810  1.0  -0.5813
  O  O309  1  0.987520  0.346880  0.383900  1.0  -0.5507
  O  O310  1  0.974660  0.449200  0.433920  1.0  -0.6196
  O  O311  1  0.826460  0.477240  0.400600  1.0  -0.5725
  O  O312  1  0.724830  0.359910  0.381540  1.0  -0.5988
  O  O313  1  0.197780  0.771020  0.620370  1.0  -0.5625
  O  O314  1  0.172140  0.697400  0.544480  1.0  -0.5676
  O  O315  1  0.634590  0.148030  0.196460  1.0  -0.5983
  O  O316  1  0.517060  0.041060  0.173190  1.0  -0.5808
  O  O317  1  0.012480  0.653120  0.616100  1.0  -0.5507
  O  O318  1  0.025340  0.550800  0.566080  1.0  -0.6183
  O  O319  1  0.173540  0.522760  0.599400  1.0  -0.5717
  O  O320  1  0.275170  0.640090  0.618460  1.0  -0.5985
  O  O321  1  0.771020  0.197780  0.120370  1.0  -0.5624
  O  O322  1  0.697400  0.172140  0.044480  1.0  -0.5685
  O  O323  1  0.148030  0.634590  0.696460  1.0  -0.5952
  O  O324  1  0.041060  0.517060  0.673190  1.0  -0.5814
  O  O325  1  0.653120  0.012480  0.116100  1.0  -0.541
  O  O326  1  0.550800  0.025340  0.066080  1.0  -0.6204
  O  O327  1  0.522760  0.173540  0.099400  1.0  -0.5727
  O  O328  1  0.640090  0.275170  0.118460  1.0  -0.5965
