# generated using pymatgen
data_KCo3H10(C6O7)2
_symmetry_space_group_name_H-M   'P 1'
_cell_length_a   13.19270000
_cell_length_b   13.19270000
_cell_length_c   17.69220000
_cell_angle_alpha   111.89100000
_cell_angle_beta   111.89100000
_cell_angle_gamma   90.00010000
_symmetry_Int_Tables_number   1
_chemical_formula_structural   KCo3H10(C6O7)2
_chemical_formula_sum   'K4 Co12 H40 C48 O56'
_cell_volume   2616.44096509
_cell_formula_units_Z   4
loop_
 _symmetry_equiv_pos_site_id
 _symmetry_equiv_pos_as_xyz
  1  'x, y, z'
loop_
 _atom_site_type_symbol
 _atom_site_label
 _atom_site_symmetry_multiplicity
 _atom_site_fract_x
 _atom_site_fract_y
 _atom_site_fract_z
 _atom_site_occupancy
 _atom_site_charge
  K  K1  1  0.125000  0.039590  0.750000  1.0  0.9515
  K  K2  1  0.625000  0.710410  0.750000  1.0  0.9511
  K  K3  1  0.960410  0.375000  0.250000  1.0  0.9508
  K  K4  1  0.289590  0.875000  0.250000  1.0  0.9523
  Co  Co5  1  0.259150  0.814330  0.419340  1.0  0.955
  Co  Co6  1  0.160190  0.605010  0.419340  1.0  0.9551
  Co  Co7  1  0.185670  0.839810  0.580660  1.0  0.9576
  Co  Co8  1  0.394990  0.740850  0.580660  1.0  0.9545
  Co  Co9  1  0.089810  0.935670  0.080660  1.0  0.9571
  Co  Co10  1  0.990850  0.144990  0.080660  1.0  0.955
  Co  Co11  1  0.855010  0.910190  0.919340  1.0  0.955
  Co  Co12  1  0.064330  0.009150  0.919340  1.0  0.9555
  Co  Co13  1  0.192130  0.192130  0.384260  1.0  1.0337
  Co  Co14  1  0.807870  0.807870  0.615740  1.0  1.033
  Co  Co15  1  0.057870  0.557870  0.115740  1.0  1.033
  Co  Co16  1  0.442130  0.942130  0.884260  1.0  1.0337
  H  H17  1  0.463300  0.115100  0.584200  1.0  0.1411
  H  H18  1  0.462800  0.992500  0.521000  1.0  0.1493
  H  H19  1  0.548500  0.975800  0.662600  1.0  0.1371
  H  H20  1  0.519400  0.088400  0.718600  1.0  0.1311
  H  H21  1  0.285470  0.204290  0.692760  1.0  0.4446
  H  H22  1  0.120900  0.469100  0.584200  1.0  0.1456
  H  H23  1  0.058200  0.528500  0.521000  1.0  0.1476
  H  H24  1  0.114100  0.686800  0.662600  1.0  0.1373
  H  H25  1  0.199200  0.630200  0.718600  1.0  0.1358
  H  H26  1  0.407290  0.488470  0.692760  1.0  0.4416
  H  H27  1  0.884900  0.879100  0.415800  1.0  0.1483
  H  H28  1  0.007500  0.941800  0.479000  1.0  0.1484
  H  H29  1  0.024200  0.885900  0.337400  1.0  0.1375
  H  H30  1  0.911600  0.800800  0.281400  1.0  0.1362
  H  H31  1  0.795710  0.592710  0.307240  1.0  0.4482
  H  H32  1  0.530900  0.536700  0.415800  1.0  0.1412
  H  H33  1  0.471500  0.537200  0.479000  1.0  0.1477
  H  H34  1  0.313200  0.451500  0.337400  1.0  0.1361
  H  H35  1  0.369800  0.480600  0.281400  1.0  0.1359
  H  H36  1  0.511530  0.714530  0.307240  1.0  0.4424
  H  H37  1  0.129100  0.634900  0.915800  1.0  0.141
  H  H38  1  0.191800  0.757500  0.979000  1.0  0.1499
  H  H39  1  0.135900  0.774200  0.837400  1.0  0.1374
  H  H40  1  0.050800  0.661600  0.781400  1.0  0.1265
  H  H41  1  0.842710  0.545710  0.807240  1.0  0.4451
  H  H42  1  0.786700  0.280900  0.915800  1.0  0.1433
  H  H43  1  0.787200  0.221500  0.979000  1.0  0.1505
  H  H44  1  0.701500  0.063200  0.837400  1.0  0.1374
  H  H45  1  0.730600  0.119800  0.781400  1.0  0.1357
  H  H46  1  0.964530  0.261530  0.807240  1.0  0.4399
  H  H47  1  0.719100  0.870900  0.084200  1.0  0.1447
  H  H48  1  0.778500  0.808200  0.021000  1.0  0.1433
  H  H49  1  0.936800  0.864100  0.162600  1.0  0.1378
  H  H50  1  0.880200  0.949200  0.218600  1.0  0.1358
  H  H51  1  0.738470  0.157290  0.192760  1.0  0.4444
  H  H52  1  0.365100  0.213300  0.084200  1.0  0.1431
  H  H53  1  0.242500  0.212800  0.021000  1.0  0.1514
  H  H54  1  0.225800  0.298500  0.162600  1.0  0.1389
  H  H55  1  0.338400  0.269400  0.218600  1.0  0.1361
  H  H56  1  0.454290  0.035470  0.192760  1.0  0.4424
  C  C57  1  0.319540  0.054160  0.473300  1.0  0.6448
  C  C58  1  0.417100  0.041970  0.546480  1.0  -0.422
  C  C59  1  0.382330  0.994320  0.604020  1.0  0.2436
  C  C60  1  0.492000  0.008570  0.684200  1.0  -0.3809
  C  C61  1  0.479510  0.955600  0.743840  1.0  0.7216
  C  C62  1  0.298930  0.062760  0.635940  1.0  0.5642
  C  C63  1  0.153760  0.419140  0.473300  1.0  0.6435
  C  C64  1  0.129380  0.504510  0.546480  1.0  -0.4179
  C  C65  1  0.221690  0.609700  0.604020  1.0  0.2448
  C  C66  1  0.192200  0.675630  0.684200  1.0  -0.3846
  C  C67  1  0.264330  0.788240  0.743840  1.0  0.7162
  C  C68  1  0.337010  0.573180  0.635940  1.0  0.5619
  C  C69  1  0.945840  0.846240  0.526700  1.0  0.6432
  C  C70  1  0.958030  0.870620  0.453520  1.0  -0.426
  C  C71  1  0.005680  0.778310  0.395980  1.0  0.2453
  C  C72  1  0.991430  0.807800  0.315800  1.0  -0.3844
  C  C73  1  0.044400  0.735670  0.256160  1.0  0.7202
  C  C74  1  0.937240  0.662990  0.364060  1.0  0.562
  C  C75  1  0.580860  0.680460  0.526700  1.0  0.6316
  C  C76  1  0.495490  0.582900  0.453520  1.0  -0.4221
  C  C77  1  0.390300  0.617670  0.395980  1.0  0.2452
  C  C78  1  0.324370  0.508000  0.315800  1.0  -0.3822
  C  C79  1  0.211760  0.520490  0.256160  1.0  0.7151
  C  C80  1  0.426820  0.701070  0.364060  1.0  0.5722
  C  C81  1  0.096240  0.695840  0.026700  1.0  0.6437
  C  C82  1  0.120620  0.708030  0.953520  1.0  -0.4202
  C  C83  1  0.028310  0.755680  0.895980  1.0  0.2437
  C  C84  1  0.057800  0.741430  0.815800  1.0  -0.3795
  C  C85  1  0.985670  0.794400  0.756160  1.0  0.7188
  C  C86  1  0.912990  0.687240  0.864060  1.0  0.5625
  C  C87  1  0.930460  0.330860  0.026700  1.0  0.6419
  C  C88  1  0.832900  0.245490  0.953520  1.0  -0.4244
  C  C89  1  0.867670  0.140300  0.895980  1.0  0.2442
  C  C90  1  0.758000  0.074370  0.815800  1.0  -0.3835
  C  C91  1  0.770490  0.961760  0.756160  1.0  0.7176
  C  C92  1  0.951070  0.176820  0.864060  1.0  0.5678
  C  C93  1  0.669140  0.903760  0.973300  1.0  0.6388
  C  C94  1  0.754510  0.879380  0.046480  1.0  -0.4186
  C  C95  1  0.859700  0.971690  0.104020  1.0  0.2427
  C  C96  1  0.925630  0.942200  0.184200  1.0  -0.385
  C  C97  1  0.038240  0.014330  0.243840  1.0  0.7155
  C  C98  1  0.823180  0.087010  0.135940  1.0  0.5693
  C  C99  1  0.304160  0.069540  0.973300  1.0  0.641
  C  C100  1  0.291970  0.167100  0.046480  1.0  -0.4263
  C  C101  1  0.244320  0.132330  0.104020  1.0  0.2481
  C  C102  1  0.258570  0.242000  0.184200  1.0  -0.3832
  C  C103  1  0.205600  0.229510  0.243840  1.0  0.721
  C  C104  1  0.312760  0.048930  0.135940  1.0  0.5613
  O  O105  1  0.246690  0.970930  0.415240  1.0  -0.616
  O  O106  1  0.315930  0.152200  0.470800  1.0  -0.6003
  O  O107  1  0.468650  0.849740  0.718040  1.0  -0.6857
  O  O108  1  0.479930  0.019420  0.817780  1.0  -0.5729
  O  O109  1  0.206290  0.011080  0.623320  1.0  -0.6301
  O  O110  1  0.323890  0.168690  0.670220  1.0  -0.497
  O  O111  1  0.333470  0.878400  0.557340  1.0  -0.7196
  O  O112  1  0.168550  0.444310  0.415240  1.0  -0.6198
  O  O113  1  0.154870  0.318600  0.470800  1.0  -0.6038
  O  O114  1  0.249390  0.868300  0.718040  1.0  -0.6842
  O  O115  1  0.337850  0.798360  0.817780  1.0  -0.5743
  O  O116  1  0.417030  0.612240  0.623320  1.0  -0.6334
  O  O117  1  0.346330  0.501530  0.670220  1.0  -0.4948
  O  O118  1  0.223870  0.678940  0.557340  1.0  -0.7168
  O  O119  1  0.029070  0.831450  0.584760  1.0  -0.6178
  O  O120  1  0.847800  0.845130  0.529200  1.0  -0.5986
  O  O121  1  0.150260  0.750610  0.281960  1.0  -0.6844
  O  O122  1  0.980580  0.662150  0.182220  1.0  -0.5705
  O  O123  1  0.988920  0.582970  0.376680  1.0  -0.6307
  O  O124  1  0.831310  0.653670  0.329780  1.0  -0.4937
  O  O125  1  0.121600  0.776130  0.442660  1.0  -0.7117
  O  O126  1  0.555690  0.753310  0.584760  1.0  -0.6179
  O  O127  1  0.681400  0.684070  0.529200  1.0  -0.6002
  O  O128  1  0.131700  0.531350  0.281960  1.0  -0.6818
  O  O129  1  0.201640  0.520070  0.182220  1.0  -0.5727
  O  O130  1  0.387760  0.793710  0.376680  1.0  -0.6315
  O  O131  1  0.498470  0.676110  0.329780  1.0  -0.4929
  O  O132  1  0.321060  0.666530  0.442660  1.0  -0.7182
  O  O133  1  0.081450  0.779070  0.084760  1.0  -0.6194
  O  O134  1  0.095130  0.597800  0.029200  1.0  -0.6011
  O  O135  1  0.000610  0.900260  0.781960  1.0  -0.6853
  O  O136  1  0.912150  0.730580  0.682220  1.0  -0.5698
  O  O137  1  0.832970  0.738920  0.876680  1.0  -0.6314
  O  O138  1  0.903670  0.581310  0.829780  1.0  -0.4919
  O  O139  1  0.026130  0.871600  0.942660  1.0  -0.7198
  O  O140  1  0.003310  0.305690  0.084760  1.0  -0.6187
  O  O141  1  0.934070  0.431400  0.029200  1.0  -0.6027
  O  O142  1  0.781350  0.881700  0.781960  1.0  -0.6836
  O  O143  1  0.770070  0.951640  0.682220  1.0  -0.5706
  O  O144  1  0.043710  0.137760  0.876680  1.0  -0.6299
  O  O145  1  0.926110  0.248470  0.829780  1.0  -0.4948
  O  O146  1  0.916530  0.071060  0.942660  1.0  -0.7182
  O  O147  1  0.694310  0.918550  0.915240  1.0  -0.6174
  O  O148  1  0.568600  0.904870  0.970800  1.0  -0.6003
  O  O149  1  0.118300  0.999390  0.218040  1.0  -0.6827
  O  O150  1  0.048360  0.087850  0.317780  1.0  -0.5746
  O  O151  1  0.862240  0.167030  0.123320  1.0  -0.6324
  O  O152  1  0.751530  0.096330  0.170220  1.0  -0.4954
  O  O153  1  0.928940  0.973870  0.057340  1.0  -0.7184
  O  O154  1  0.220930  0.996690  0.915240  1.0  -0.6173
  O  O155  1  0.402200  0.065930  0.970800  1.0  -0.6
  O  O156  1  0.099740  0.218650  0.218040  1.0  -0.6854
  O  O157  1  0.269420  0.229930  0.317780  1.0  -0.573
  O  O158  1  0.261080  0.956290  0.123320  1.0  -0.6347
  O  O159  1  0.418690  0.073890  0.170220  1.0  -0.4962
  O  O160  1  0.128400  0.083470  0.057340  1.0  -0.7176
