# generated using pymatgen
data_V2P2H12C4NO10
_symmetry_space_group_name_H-M   'P 1'
_cell_length_a   8.90880000
_cell_length_b   8.90880000
_cell_length_c   18.78150000
_cell_angle_alpha   82.77860000
_cell_angle_beta   82.77860000
_cell_angle_gamma   70.17800000
_symmetry_Int_Tables_number   1
_chemical_formula_structural   V2P2H12C4NO10
_chemical_formula_sum   'V8 P8 H48 C16 N4 O40'
_cell_volume   1385.66125821
_cell_formula_units_Z   4
loop_
 _symmetry_equiv_pos_site_id
 _symmetry_equiv_pos_as_xyz
  1  'x, y, z'
loop_
 _atom_site_type_symbol
 _atom_site_label
 _atom_site_symmetry_multiplicity
 _atom_site_fract_x
 _atom_site_fract_y
 _atom_site_fract_z
 _atom_site_occupancy
 _atom_site_charge
  V  V1  1  0.467120  0.223500  0.088490  1.0  1.9466
  V  V2  1  0.333610  0.206890  0.282940  1.0  1.8504
  V  V3  1  0.776500  0.532880  0.411510  1.0  1.9463
  V  V4  1  0.793110  0.666390  0.217060  1.0  1.8512
  V  V5  1  0.532880  0.776500  0.911510  1.0  1.9467
  V  V6  1  0.666390  0.793110  0.717060  1.0  1.8515
  V  V7  1  0.223500  0.467120  0.588490  1.0  1.9476
  V  V8  1  0.206890  0.333610  0.782940  1.0  1.8504
  P  P9  1  0.179290  0.500410  0.171480  1.0  1.4803
  P  P10  1  0.598900  0.837080  0.073920  1.0  1.4822
  P  P11  1  0.499590  0.820710  0.328520  1.0  1.4765
  P  P12  1  0.162920  0.401100  0.426080  1.0  1.4814
  P  P13  1  0.820710  0.499590  0.828520  1.0  1.4794
  P  P14  1  0.401100  0.162920  0.926080  1.0  1.4826
  P  P15  1  0.500410  0.179290  0.671480  1.0  1.4785
  P  P16  1  0.837080  0.598900  0.573920  1.0  1.4824
  H  H17  1  0.138400  0.749000  0.107700  1.0  0.1304
  H  H18  1  0.165300  0.757500  0.189500  1.0  0.1335
  H  H19  1  0.368300  0.903700  0.152400  1.0  0.132
  H  H20  1  0.323500  0.910100  0.072000  1.0  0.1326
  H  H21  1  0.446300  0.622100  0.164000  1.0  0.1044
  H  H22  1  0.417200  0.621600  0.081600  1.0  0.1047
  H  H23  1  0.501000  0.089000  0.196000  1.0  0.4547
  H  H24  1  0.251000  0.861600  0.392300  1.0  0.1294
  H  H25  1  0.242500  0.834700  0.310500  1.0  0.1336
  H  H26  1  0.096300  0.631700  0.347600  1.0  0.1325
  H  H27  1  0.089900  0.676500  0.428000  1.0  0.1324
  H  H28  1  0.377900  0.553700  0.336000  1.0  0.1052
  H  H29  1  0.378400  0.582800  0.418400  1.0  0.104
  H  H30  1  0.911000  0.499000  0.304000  1.0  0.457
  H  H31  1  0.861600  0.251000  0.892300  1.0  0.1301
  H  H32  1  0.834700  0.242500  0.810500  1.0  0.135
  H  H33  1  0.631700  0.096300  0.847600  1.0  0.1335
  H  H34  1  0.676500  0.089900  0.928000  1.0  0.1328
  H  H35  1  0.553700  0.377900  0.836000  1.0  0.106
  H  H36  1  0.582800  0.378400  0.918400  1.0  0.1041
  H  H37  1  0.499000  0.911000  0.804000  1.0  0.4568
  H  H38  1  0.749000  0.138400  0.607700  1.0  0.1303
  H  H39  1  0.757500  0.165300  0.689500  1.0  0.1337
  H  H40  1  0.903700  0.368300  0.652400  1.0  0.1312
  H  H41  1  0.910100  0.323500  0.572000  1.0  0.1325
  H  H42  1  0.622100  0.446300  0.664000  1.0  0.1044
  H  H43  1  0.621600  0.417200  0.581600  1.0  0.1042
  H  H44  1  0.089000  0.501000  0.696000  1.0  0.4568
  H  H45  1  0.656500  0.184900  0.454600  1.0  0.1699
  H  H46  1  0.506600  0.238800  0.502900  1.0  0.1374
  H  H47  1  0.500300  0.201700  0.428600  1.0  0.1777
  H  H48  1  0.632700  0.987900  0.537600  1.0  0.06
  H  H49  1  0.646300  0.943500  0.456500  1.0  0.07
  H  H50  1  0.343500  0.815100  0.545400  1.0  0.1666
  H  H51  1  0.493400  0.761200  0.497100  1.0  0.1376
  H  H52  1  0.499700  0.798300  0.571400  1.0  0.1789
  H  H53  1  0.367300  0.012100  0.462400  1.0  0.0616
  H  H54  1  0.353700  0.056500  0.543500  1.0  0.0678
  H  H55  1  0.815100  0.343500  0.045400  1.0  0.1707
  H  H56  1  0.761200  0.493400  0.997100  1.0  0.137
  H  H57  1  0.798300  0.499700  0.071400  1.0  0.1797
  H  H58  1  0.012100  0.367300  0.962400  1.0  0.0608
  H  H59  1  0.056500  0.353700  0.043500  1.0  0.0693
  H  H60  1  0.184900  0.656500  0.954600  1.0  0.1674
  H  H61  1  0.238800  0.506600  0.002900  1.0  0.138
  H  H62  1  0.201700  0.500300  0.928600  1.0  0.1777
  H  H63  1  0.987900  0.632700  0.037600  1.0  0.0587
  H  H64  1  0.943500  0.646300  0.956500  1.0  0.0704
  C  C65  1  0.204750  0.692750  0.147710  1.0  -0.4482
  C  C66  1  0.398170  0.846970  0.108030  1.0  -0.4106
  C  C67  1  0.378930  0.681930  0.124850  1.0  -0.0631
  C  C68  1  0.307250  0.795250  0.352290  1.0  -0.4471
  C  C69  1  0.153030  0.601830  0.391970  1.0  -0.4124
  C  C70  1  0.318070  0.621070  0.375150  1.0  -0.0633
  C  C71  1  0.795250  0.307250  0.852290  1.0  -0.4473
  C  C72  1  0.601830  0.153030  0.891970  1.0  -0.4105
  C  C73  1  0.621070  0.318070  0.875150  1.0  -0.0626
  C  C74  1  0.692750  0.204750  0.647710  1.0  -0.4445
  C  C75  1  0.846970  0.398170  0.608030  1.0  -0.4116
  C  C76  1  0.681930  0.378930  0.624850  1.0  -0.0623
  C  C77  1  0.577700  0.014700  0.492730  1.0  0.0273
  C  C78  1  0.422300  0.985300  0.507270  1.0  0.0271
  C  C79  1  0.985300  0.422300  0.007270  1.0  0.0311
  C  C80  1  0.014700  0.577700  0.992730  1.0  0.0299
  N  N81  1  0.558700  0.173900  0.467490  1.0  -0.2413
  N  N82  1  0.441300  0.826100  0.532510  1.0  -0.244
  N  N83  1  0.826100  0.441300  0.032510  1.0  -0.2395
  N  N84  1  0.173900  0.558700  0.967490  1.0  -0.2379
  O  O85  1  0.616120  0.001720  0.075570  1.0  -0.8086
  O  O86  1  0.631350  0.785550  0.997240  1.0  -0.8003
  O  O87  1  0.589260  0.321060  0.069180  1.0  -0.702
  O  O88  1  0.462200  0.150600  0.190400  1.0  -0.9478
  O  O89  1  0.263530  0.393950  0.110240  1.0  -0.8498
  O  O90  1  0.253390  0.432990  0.242490  1.0  -0.7807
  O  O91  1  0.177470  0.157470  0.275840  1.0  -0.6471
  O  O92  1  0.001410  0.521510  0.175600  1.0  -0.832
  O  O93  1  0.719630  0.709790  0.119250  1.0  -0.7503
  O  O94  1  0.569700  0.269700  0.300170  1.0  -0.3101
  O  O95  1  0.998280  0.383880  0.424430  1.0  -0.8125
  O  O96  1  0.214450  0.368650  0.502760  1.0  -0.8014
  O  O97  1  0.678940  0.410740  0.430820  1.0  -0.6997
  O  O98  1  0.849400  0.537800  0.309600  1.0  -0.9568
  O  O99  1  0.606050  0.736470  0.389760  1.0  -0.8467
  O  O100  1  0.567010  0.746610  0.257510  1.0  -0.7793
  O  O101  1  0.842530  0.822530  0.224160  1.0  -0.6496
  O  O102  1  0.478490  0.998590  0.324400  1.0  -0.8283
  O  O103  1  0.290210  0.280370  0.380750  1.0  -0.7494
  O  O104  1  0.730300  0.430300  0.199830  1.0  -0.3097
  O  O105  1  0.383880  0.998280  0.924430  1.0  -0.8104
  O  O106  1  0.368650  0.214450  0.002760  1.0  -0.8006
  O  O107  1  0.410740  0.678940  0.930820  1.0  -0.7
  O  O108  1  0.537800  0.849400  0.809600  1.0  -0.9497
  O  O109  1  0.736470  0.606050  0.889760  1.0  -0.8508
  O  O110  1  0.746610  0.567010  0.757510  1.0  -0.7803
  O  O111  1  0.822530  0.842530  0.724160  1.0  -0.6485
  O  O112  1  0.998590  0.478490  0.824400  1.0  -0.8304
  O  O113  1  0.280370  0.290210  0.880750  1.0  -0.749
  O  O114  1  0.430300  0.730300  0.699830  1.0  -0.3121
  O  O115  1  0.001720  0.616120  0.575570  1.0  -0.8131
  O  O116  1  0.785550  0.631350  0.497240  1.0  -0.8016
  O  O117  1  0.321060  0.589260  0.569180  1.0  -0.7013
  O  O118  1  0.150600  0.462200  0.690400  1.0  -0.9579
  O  O119  1  0.393950  0.263530  0.610240  1.0  -0.8483
  O  O120  1  0.432990  0.253390  0.742490  1.0  -0.7798
  O  O121  1  0.157470  0.177470  0.775840  1.0  -0.6524
  O  O122  1  0.521510  0.001410  0.675600  1.0  -0.8317
  O  O123  1  0.709790  0.719630  0.619250  1.0  -0.7486
  O  O124  1  0.269700  0.569700  0.800170  1.0  -0.3099
