# generated using pymatgen
data_Co2H3C4SO7
_symmetry_space_group_name_H-M   'P 1'
_cell_length_a   18.51670000
_cell_length_b   18.51670000
_cell_length_c   18.51670000
_cell_angle_alpha   95.45070000
_cell_angle_beta   95.45070000
_cell_angle_gamma   95.45070000
_symmetry_Int_Tables_number   1
_chemical_formula_structural   Co2H3C4SO7
_chemical_formula_sum   'Co24 H36 C48 S12 O84'
_cell_volume   6256.75144239
_cell_formula_units_Z   12
loop_
 _symmetry_equiv_pos_site_id
 _symmetry_equiv_pos_as_xyz
  1  'x, y, z'
loop_
 _atom_site_type_symbol
 _atom_site_label
 _atom_site_symmetry_multiplicity
 _atom_site_fract_x
 _atom_site_fract_y
 _atom_site_fract_z
 _atom_site_occupancy
 _atom_site_charge
  Co  Co1  1  0.918210  0.724380  0.246530  1.0  0.9431
  Co  Co2  1  0.778770  0.294990  0.083900  1.0  1.1214
  Co  Co3  1  0.871630  0.961710  0.256060  1.0  1.116
  Co  Co4  1  0.793690  0.796170  0.322630  1.0  1.2104
  Co  Co5  1  0.246530  0.918210  0.724380  1.0  0.9454
  Co  Co6  1  0.083900  0.778770  0.294990  1.0  1.123
  Co  Co7  1  0.256060  0.871630  0.961710  1.0  1.1186
  Co  Co8  1  0.322630  0.793690  0.796170  1.0  1.2079
  Co  Co9  1  0.724380  0.246530  0.918210  1.0  0.9446
  Co  Co10  1  0.294990  0.083900  0.778770  1.0  1.118
  Co  Co11  1  0.961710  0.256060  0.871630  1.0  1.1166
  Co  Co12  1  0.796170  0.322630  0.793690  1.0  1.2138
  Co  Co13  1  0.081790  0.275620  0.753470  1.0  0.9401
  Co  Co14  1  0.221230  0.705010  0.916100  1.0  1.1197
  Co  Co15  1  0.128370  0.038290  0.743940  1.0  1.1158
  Co  Co16  1  0.206310  0.203830  0.677370  1.0  1.2137
  Co  Co17  1  0.753470  0.081790  0.275620  1.0  0.9432
  Co  Co18  1  0.916100  0.221230  0.705010  1.0  1.1243
  Co  Co19  1  0.743940  0.128370  0.038290  1.0  1.1175
  Co  Co20  1  0.677370  0.206310  0.203830  1.0  1.2098
  Co  Co21  1  0.275620  0.753470  0.081790  1.0  0.9439
  Co  Co22  1  0.705010  0.916100  0.221230  1.0  1.1213
  Co  Co23  1  0.038290  0.743940  0.128370  1.0  1.1156
  Co  Co24  1  0.203830  0.677370  0.206310  1.0  1.21
  H  H25  1  0.689000  0.608500  0.379100  1.0  0.1142
  H  H26  1  0.610900  0.501600  0.376600  1.0  0.1053
  H  H27  1  0.626700  0.398300  0.301800  1.0  0.1049
  H  H28  1  0.800900  0.506000  0.228700  1.0  0.1149
  H  H29  1  0.988800  0.836500  0.215200  1.0  0.5108
  H  H30  1  0.661700  0.217000  0.075800  1.0  0.4522
  H  H31  1  0.379100  0.689000  0.608500  1.0  0.1139
  H  H32  1  0.376600  0.610900  0.501600  1.0  0.1047
  H  H33  1  0.301800  0.626700  0.398300  1.0  0.105
  H  H34  1  0.228700  0.800900  0.506000  1.0  0.1152
  H  H35  1  0.215200  0.988800  0.836500  1.0  0.5105
  H  H36  1  0.075800  0.661700  0.217000  1.0  0.4519
  H  H37  1  0.608500  0.379100  0.689000  1.0  0.1157
  H  H38  1  0.501600  0.376600  0.610900  1.0  0.1046
  H  H39  1  0.398300  0.301800  0.626700  1.0  0.1063
  H  H40  1  0.506000  0.228700  0.800900  1.0  0.1158
  H  H41  1  0.836500  0.215200  0.988800  1.0  0.5097
  H  H42  1  0.217000  0.075800  0.661700  1.0  0.4513
  H  H43  1  0.311000  0.391500  0.620900  1.0  0.1154
  H  H44  1  0.389100  0.498400  0.623400  1.0  0.1051
  H  H45  1  0.373300  0.601700  0.698200  1.0  0.1053
  H  H46  1  0.199100  0.494000  0.771300  1.0  0.1154
  H  H47  1  0.011200  0.163500  0.784800  1.0  0.5109
  H  H48  1  0.338300  0.783000  0.924200  1.0  0.4519
  H  H49  1  0.620900  0.311000  0.391500  1.0  0.1152
  H  H50  1  0.623400  0.389100  0.498400  1.0  0.1046
  H  H51  1  0.698200  0.373300  0.601700  1.0  0.105
  H  H52  1  0.771300  0.199100  0.494000  1.0  0.1147
  H  H53  1  0.784800  0.011200  0.163500  1.0  0.5106
  H  H54  1  0.924200  0.338300  0.783000  1.0  0.4524
  H  H55  1  0.391500  0.620900  0.311000  1.0  0.1166
  H  H56  1  0.498400  0.623400  0.389100  1.0  0.1047
  H  H57  1  0.601700  0.698200  0.373300  1.0  0.1063
  H  H58  1  0.494000  0.771300  0.199100  1.0  0.1153
  H  H59  1  0.163500  0.784800  0.011200  1.0  0.5115
  H  H60  1  0.783000  0.924200  0.338300  1.0  0.452
  C  C61  1  0.803800  0.635300  0.305900  1.0  0.7191
  C  C62  1  0.725800  0.372900  0.211300  1.0  0.7207
  C  C63  1  0.754200  0.566300  0.304500  1.0  -0.1601
  C  C64  1  0.696000  0.566000  0.348600  1.0  -0.0141
  C  C65  1  0.649800  0.502800  0.346700  1.0  -0.1299
  C  C66  1  0.659200  0.441300  0.302200  1.0  -0.015
  C  C67  1  0.715700  0.441700  0.257900  1.0  -0.1542
  C  C68  1  0.762600  0.505000  0.259300  1.0  0.019
  C  C69  1  0.305900  0.803800  0.635300  1.0  0.7176
  C  C70  1  0.211300  0.725800  0.372900  1.0  0.72
  C  C71  1  0.304500  0.754200  0.566300  1.0  -0.159
  C  C72  1  0.348600  0.696000  0.566000  1.0  -0.0166
  C  C73  1  0.346700  0.649800  0.502800  1.0  -0.1285
  C  C74  1  0.302200  0.659200  0.441300  1.0  -0.0179
  C  C75  1  0.257900  0.715700  0.441700  1.0  -0.1549
  C  C76  1  0.259300  0.762600  0.505000  1.0  0.0194
  C  C77  1  0.635300  0.305900  0.803800  1.0  0.7173
  C  C78  1  0.372900  0.211300  0.725800  1.0  0.7205
  C  C79  1  0.566300  0.304500  0.754200  1.0  -0.1585
  C  C80  1  0.566000  0.348600  0.696000  1.0  -0.0178
  C  C81  1  0.502800  0.346700  0.649800  1.0  -0.129
  C  C82  1  0.441300  0.302200  0.659200  1.0  -0.0199
  C  C83  1  0.441700  0.257900  0.715700  1.0  -0.1552
  C  C84  1  0.505000  0.259300  0.762600  1.0  0.0188
  C  C85  1  0.196200  0.364700  0.694100  1.0  0.7178
  C  C86  1  0.274200  0.627100  0.788700  1.0  0.7212
  C  C87  1  0.245800  0.433700  0.695500  1.0  -0.1599
  C  C88  1  0.304000  0.434000  0.651400  1.0  -0.0154
  C  C89  1  0.350200  0.497200  0.653300  1.0  -0.1279
  C  C90  1  0.340800  0.558700  0.697800  1.0  -0.0148
  C  C91  1  0.284300  0.558300  0.742100  1.0  -0.1532
  C  C92  1  0.237400  0.495000  0.740700  1.0  0.0188
  C  C93  1  0.694100  0.196200  0.364700  1.0  0.7168
  C  C94  1  0.788700  0.274200  0.627100  1.0  0.7211
  C  C95  1  0.695500  0.245800  0.433700  1.0  -0.1589
  C  C96  1  0.651400  0.304000  0.434000  1.0  -0.016
  C  C97  1  0.653300  0.350200  0.497200  1.0  -0.1305
  C  C98  1  0.697800  0.340800  0.558700  1.0  -0.0202
  C  C99  1  0.742100  0.284300  0.558300  1.0  -0.1554
  C  C100  1  0.740700  0.237400  0.495000  1.0  0.0188
  C  C101  1  0.364700  0.694100  0.196200  1.0  0.7178
  C  C102  1  0.627100  0.788700  0.274200  1.0  0.72
  C  C103  1  0.433700  0.695500  0.245800  1.0  -0.159
  C  C104  1  0.434000  0.651400  0.304000  1.0  -0.015
  C  C105  1  0.497200  0.653300  0.350200  1.0  -0.1296
  C  C106  1  0.558700  0.697800  0.340800  1.0  -0.0175
  C  C107  1  0.558300  0.742100  0.284300  1.0  -0.1545
  C  C108  1  0.495000  0.740700  0.237400  1.0  0.0176
  S  S109  1  0.816750  0.817130  0.149670  1.0  1.6066
  S  S110  1  0.962340  0.868040  0.368130  1.0  1.6632
  S  S111  1  0.149670  0.816750  0.817130  1.0  1.6069
  S  S112  1  0.368130  0.962340  0.868040  1.0  1.6593
  S  S113  1  0.817130  0.149670  0.816750  1.0  1.6073
  S  S114  1  0.868040  0.368130  0.962340  1.0  1.6614
  S  S115  1  0.183250  0.182870  0.850330  1.0  1.6082
  S  S116  1  0.037660  0.131960  0.631870  1.0  1.6624
  S  S117  1  0.850330  0.183250  0.182870  1.0  1.604
  S  S118  1  0.631870  0.037660  0.131960  1.0  1.6614
  S  S119  1  0.182870  0.850330  0.183250  1.0  1.6087
  S  S120  1  0.131960  0.631870  0.037660  1.0  1.6616
  O  O121  1  0.793000  0.690700  0.348300  1.0  -0.5958
  O  O122  1  0.852900  0.635200  0.262600  1.0  -0.5715
  O  O123  1  0.761300  0.378800  0.157300  1.0  -0.5657
  O  O124  1  0.696800  0.314700  0.230400  1.0  -0.6246
  O  O125  1  0.820200  0.766800  0.209300  1.0  -0.7554
  O  O126  1  0.743300  0.842400  0.144000  1.0  -0.635
  O  O127  1  0.829100  0.776900  0.081100  1.0  -0.6124
  O  O128  1  0.874100  0.879500  0.169300  1.0  -0.7193
  O  O129  1  0.909200  0.802000  0.339500  1.0  -0.8258
  O  O130  1  0.956700  0.923200  0.316000  1.0  -0.7214
  O  O131  1  0.036100  0.845700  0.372000  1.0  -0.6451
  O  O132  1  0.945400  0.895500  0.439600  1.0  -0.6185
  O  O133  1  0.998300  0.792600  0.217800  1.0  -1.0836
  O  O134  1  0.701100  0.209400  0.100100  1.0  -1.0712
  O  O135  1  0.348300  0.793000  0.690700  1.0  -0.5931
  O  O136  1  0.262600  0.852900  0.635200  1.0  -0.5739
  O  O137  1  0.157300  0.761300  0.378800  1.0  -0.5671
  O  O138  1  0.230400  0.696800  0.314700  1.0  -0.6234
  O  O139  1  0.209300  0.820200  0.766800  1.0  -0.7566
  O  O140  1  0.144000  0.743300  0.842400  1.0  -0.6369
  O  O141  1  0.081100  0.829100  0.776900  1.0  -0.609
  O  O142  1  0.169300  0.874100  0.879500  1.0  -0.7143
  O  O143  1  0.339500  0.909200  0.802000  1.0  -0.8249
  O  O144  1  0.316000  0.956700  0.923200  1.0  -0.7228
  O  O145  1  0.372000  0.036100  0.845700  1.0  -0.6464
  O  O146  1  0.439600  0.945400  0.895500  1.0  -0.6184
  O  O147  1  0.217800  0.998300  0.792600  1.0  -1.0854
  O  O148  1  0.100100  0.701100  0.209400  1.0  -1.0682
  O  O149  1  0.690700  0.348300  0.793000  1.0  -0.5942
  O  O150  1  0.635200  0.262600  0.852900  1.0  -0.5748
  O  O151  1  0.378800  0.157300  0.761300  1.0  -0.568
  O  O152  1  0.314700  0.230400  0.696800  1.0  -0.6223
  O  O153  1  0.766800  0.209300  0.820200  1.0  -0.7514
  O  O154  1  0.842400  0.144000  0.743300  1.0  -0.6415
  O  O155  1  0.776900  0.081100  0.829100  1.0  -0.6105
  O  O156  1  0.879500  0.169300  0.874100  1.0  -0.7184
  O  O157  1  0.802000  0.339500  0.909200  1.0  -0.8266
  O  O158  1  0.923200  0.316000  0.956700  1.0  -0.718
  O  O159  1  0.845700  0.372000  0.036100  1.0  -0.6503
  O  O160  1  0.895500  0.439600  0.945400  1.0  -0.6205
  O  O161  1  0.792600  0.217800  0.998300  1.0  -1.0796
  O  O162  1  0.209400  0.100100  0.701100  1.0  -1.0689
  O  O163  1  0.207000  0.309300  0.651700  1.0  -0.5962
  O  O164  1  0.147100  0.364800  0.737400  1.0  -0.5725
  O  O165  1  0.238700  0.621200  0.842700  1.0  -0.5678
  O  O166  1  0.303200  0.685300  0.769600  1.0  -0.6239
  O  O167  1  0.179800  0.233200  0.790700  1.0  -0.7557
  O  O168  1  0.256700  0.157600  0.856000  1.0  -0.6362
  O  O169  1  0.170900  0.223100  0.918900  1.0  -0.6106
  O  O170  1  0.125900  0.120500  0.830700  1.0  -0.7197
  O  O171  1  0.090800  0.198000  0.660500  1.0  -0.8269
  O  O172  1  0.043300  0.076800  0.684000  1.0  -0.7185
  O  O173  1  0.963900  0.154300  0.628000  1.0  -0.6442
  O  O174  1  0.054600  0.104500  0.560400  1.0  -0.6198
  O  O175  1  0.001700  0.207400  0.782200  1.0  -1.0842
  O  O176  1  0.298900  0.790600  0.899900  1.0  -1.0699
  O  O177  1  0.651700  0.207000  0.309300  1.0  -0.5928
  O  O178  1  0.737400  0.147100  0.364800  1.0  -0.5726
  O  O179  1  0.842700  0.238700  0.621200  1.0  -0.5668
  O  O180  1  0.769600  0.303200  0.685300  1.0  -0.6242
  O  O181  1  0.790700  0.179800  0.233200  1.0  -0.755
  O  O182  1  0.856000  0.256700  0.157600  1.0  -0.6363
  O  O183  1  0.918900  0.170900  0.223100  1.0  -0.6112
  O  O184  1  0.830700  0.125900  0.120500  1.0  -0.7157
  O  O185  1  0.660500  0.090800  0.198000  1.0  -0.8242
  O  O186  1  0.684000  0.043300  0.076800  1.0  -0.7237
  O  O187  1  0.628000  0.963900  0.154300  1.0  -0.6467
  O  O188  1  0.560400  0.054600  0.104500  1.0  -0.6143
  O  O189  1  0.782200  0.001700  0.207400  1.0  -1.0848
  O  O190  1  0.899900  0.298900  0.790600  1.0  -1.0689
  O  O191  1  0.309300  0.651700  0.207000  1.0  -0.5947
  O  O192  1  0.364800  0.737400  0.147100  1.0  -0.5743
  O  O193  1  0.621200  0.842700  0.238700  1.0  -0.5705
  O  O194  1  0.685300  0.769600  0.303200  1.0  -0.6237
  O  O195  1  0.233200  0.790700  0.179800  1.0  -0.7533
  O  O196  1  0.157600  0.856000  0.256700  1.0  -0.64
  O  O197  1  0.223100  0.918900  0.170900  1.0  -0.6094
  O  O198  1  0.120500  0.830700  0.125900  1.0  -0.7198
  O  O199  1  0.198000  0.660500  0.090800  1.0  -0.8266
  O  O200  1  0.076800  0.684000  0.043300  1.0  -0.7178
  O  O201  1  0.154300  0.628000  0.963900  1.0  -0.6518
  O  O202  1  0.104500  0.560400  0.054600  1.0  -0.6196
  O  O203  1  0.207400  0.782200  0.001700  1.0  -1.0835
  O  O204  1  0.790600  0.899900  0.298900  1.0  -1.0696
