# generated using pymatgen
data_Ni2H9C6(SO4)2
_symmetry_space_group_name_H-M   'P 1'
_cell_length_a   18.24630000
_cell_length_b   18.24630000
_cell_length_c   18.24630000
_cell_angle_alpha   95.00870000
_cell_angle_beta   95.00870000
_cell_angle_gamma   95.00870000
_symmetry_Int_Tables_number   1
_chemical_formula_structural   Ni2H9C6(SO4)2
_chemical_formula_sum   'Ni24 H108 C72 S24 O96'
_cell_volume   6000.74491113
_cell_formula_units_Z   12
loop_
 _symmetry_equiv_pos_site_id
 _symmetry_equiv_pos_as_xyz
  1  'x, y, z'
loop_
 _atom_site_type_symbol
 _atom_site_label
 _atom_site_symmetry_multiplicity
 _atom_site_fract_x
 _atom_site_fract_y
 _atom_site_fract_z
 _atom_site_occupancy
 _atom_site_charge
  Ni  Ni1  1  0.746400  0.416360  0.223080  1.0  1.1161
  Ni  Ni2  1  0.580090  0.274400  0.795120  1.0  1.1448
  Ni  Ni3  1  0.629780  0.537390  0.242430  1.0  1.1431
  Ni  Ni4  1  0.825200  0.294180  0.295860  1.0  0.9715
  Ni  Ni5  1  0.223080  0.746400  0.416360  1.0  1.1162
  Ni  Ni6  1  0.795120  0.580090  0.274400  1.0  1.1452
  Ni  Ni7  1  0.242430  0.629780  0.537390  1.0  1.1411
  Ni  Ni8  1  0.295860  0.825200  0.294180  1.0  0.9748
  Ni  Ni9  1  0.416360  0.223080  0.746400  1.0  1.1143
  Ni  Ni10  1  0.274400  0.795120  0.580090  1.0  1.1447
  Ni  Ni11  1  0.537390  0.242430  0.629780  1.0  1.1471
  Ni  Ni12  1  0.294180  0.295860  0.825200  1.0  0.972
  Ni  Ni13  1  0.253600  0.583640  0.776920  1.0  1.1141
  Ni  Ni14  1  0.419910  0.725600  0.204880  1.0  1.1471
  Ni  Ni15  1  0.370220  0.462610  0.757570  1.0  1.1449
  Ni  Ni16  1  0.174800  0.705820  0.704140  1.0  0.9721
  Ni  Ni17  1  0.776920  0.253600  0.583640  1.0  1.1164
  Ni  Ni18  1  0.204880  0.419910  0.725600  1.0  1.1467
  Ni  Ni19  1  0.757570  0.370220  0.462610  1.0  1.1425
  Ni  Ni20  1  0.704140  0.174800  0.705820  1.0  0.971
  Ni  Ni21  1  0.583640  0.776920  0.253600  1.0  1.1108
  Ni  Ni22  1  0.725600  0.204880  0.419910  1.0  1.147
  Ni  Ni23  1  0.462610  0.757570  0.370220  1.0  1.1424
  Ni  Ni24  1  0.705820  0.704140  0.174800  1.0  0.9734
  H  H25  1  0.724600  0.296200  0.003900  1.0  0.1014
  H  H26  1  0.803400  0.119300  0.895900  1.0  0.1007
  H  H27  1  0.877700  0.099400  0.008000  1.0  0.1224
  H  H28  1  0.885200  0.188800  0.108200  1.0  0.1021
  H  H29  1  0.713600  0.486800  0.346900  1.0  0.4546
  H  H30  1  0.572400  0.154800  0.720600  1.0  0.4012
  H  H31  1  0.961400  0.471900  0.240900  1.0  0.1705
  H  H32  1  0.003500  0.507800  0.177300  1.0  0.1581
  H  H33  1  0.956800  0.557400  0.229000  1.0  0.1696
  H  H34  1  0.838500  0.548900  0.042900  1.0  0.172
  H  H35  1  0.882600  0.604000  0.108400  1.0  0.1643
  H  H36  1  0.926900  0.555000  0.053700  1.0  0.1582
  H  H37  1  0.498000  0.395200  0.142000  1.0  0.1835
  H  H38  1  0.520600  0.467500  0.102300  1.0  0.1628
  H  H39  1  0.493400  0.391200  0.053700  1.0  0.1882
  H  H40  1  0.680400  0.430800  0.012800  1.0  0.1519
  H  H41  1  0.595300  0.416700  0.981200  1.0  0.1734
  H  H42  1  0.624300  0.490200  0.033500  1.0  0.1571
  H  H43  1  0.003900  0.724600  0.296200  1.0  0.1013
  H  H44  1  0.895900  0.803400  0.119300  1.0  0.1041
  H  H45  1  0.008000  0.877700  0.099400  1.0  0.122
  H  H46  1  0.108200  0.885200  0.188800  1.0  0.104
  H  H47  1  0.346900  0.713600  0.486800  1.0  0.4502
  H  H48  1  0.720600  0.572400  0.154800  1.0  0.4001
  H  H49  1  0.240900  0.961400  0.471900  1.0  0.1623
  H  H50  1  0.177300  0.003500  0.507800  1.0  0.1589
  H  H51  1  0.229000  0.956800  0.557400  1.0  0.1694
  H  H52  1  0.042900  0.838500  0.548900  1.0  0.1716
  H  H53  1  0.108400  0.882600  0.604000  1.0  0.1658
  H  H54  1  0.053700  0.926900  0.555000  1.0  0.1608
  H  H55  1  0.142000  0.498000  0.395200  1.0  0.1817
  H  H56  1  0.102300  0.520600  0.467500  1.0  0.1718
  H  H57  1  0.053700  0.493400  0.391200  1.0  0.1858
  H  H58  1  0.012800  0.680400  0.430800  1.0  0.1509
  H  H59  1  0.981200  0.595300  0.416700  1.0  0.1736
  H  H60  1  0.033500  0.624300  0.490200  1.0  0.1655
  H  H61  1  0.296200  0.003900  0.724600  1.0  0.1013
  H  H62  1  0.119300  0.895900  0.803400  1.0  0.1019
  H  H63  1  0.099400  0.008000  0.877700  1.0  0.1212
  H  H64  1  0.188800  0.108200  0.885200  1.0  0.1027
  H  H65  1  0.486800  0.346900  0.713600  1.0  0.4527
  H  H66  1  0.154800  0.720600  0.572400  1.0  0.4007
  H  H67  1  0.471900  0.240900  0.961400  1.0  0.1739
  H  H68  1  0.507800  0.177300  0.003500  1.0  0.161
  H  H69  1  0.557400  0.229000  0.956800  1.0  0.1694
  H  H70  1  0.548900  0.042900  0.838500  1.0  0.171
  H  H71  1  0.604000  0.108400  0.882600  1.0  0.1584
  H  H72  1  0.555000  0.053700  0.926900  1.0  0.1593
  H  H73  1  0.395200  0.142000  0.498000  1.0  0.1794
  H  H74  1  0.467500  0.102300  0.520600  1.0  0.1742
  H  H75  1  0.391200  0.053700  0.493400  1.0  0.185
  H  H76  1  0.430800  0.012800  0.680400  1.0  0.1503
  H  H77  1  0.416700  0.981200  0.595300  1.0  0.1734
  H  H78  1  0.490200  0.033500  0.624300  1.0  0.169
  H  H79  1  0.275400  0.703800  0.996100  1.0  0.1013
  H  H80  1  0.196600  0.880700  0.104100  1.0  0.1021
  H  H81  1  0.122300  0.900600  0.992000  1.0  0.1222
  H  H82  1  0.114800  0.811200  0.891800  1.0  0.1016
  H  H83  1  0.286400  0.513200  0.653100  1.0  0.4604
  H  H84  1  0.427600  0.845200  0.279400  1.0  0.4008
  H  H85  1  0.038600  0.528100  0.759100  1.0  0.1728
  H  H86  1  0.996500  0.492200  0.822700  1.0  0.1604
  H  H87  1  0.043200  0.442600  0.771000  1.0  0.1696
  H  H88  1  0.161500  0.451100  0.957100  1.0  0.1749
  H  H89  1  0.117400  0.396000  0.891600  1.0  0.1636
  H  H90  1  0.073100  0.445000  0.946300  1.0  0.1591
  H  H91  1  0.502000  0.604800  0.858000  1.0  0.1793
  H  H92  1  0.479400  0.532500  0.897700  1.0  0.1755
  H  H93  1  0.506600  0.608800  0.946300  1.0  0.1871
  H  H94  1  0.319600  0.569200  0.987200  1.0  0.1513
  H  H95  1  0.404700  0.583300  0.018800  1.0  0.1743
  H  H96  1  0.375700  0.509800  0.966500  1.0  0.1676
  H  H97  1  0.996100  0.275400  0.703800  1.0  0.1017
  H  H98  1  0.104100  0.196600  0.880700  1.0  0.1051
  H  H99  1  0.992000  0.122300  0.900600  1.0  0.1218
  H  H100  1  0.891800  0.114800  0.811200  1.0  0.1036
  H  H101  1  0.653100  0.286400  0.513200  1.0  0.4469
  H  H102  1  0.279400  0.427600  0.845200  1.0  0.4005
  H  H103  1  0.759100  0.038600  0.528100  1.0  0.1708
  H  H104  1  0.822700  0.996500  0.492200  1.0  0.1595
  H  H105  1  0.771000  0.043200  0.442600  1.0  0.1692
  H  H106  1  0.957100  0.161500  0.451100  1.0  0.1712
  H  H107  1  0.891600  0.117400  0.396000  1.0  0.1625
  H  H108  1  0.946300  0.073100  0.445000  1.0  0.1603
  H  H109  1  0.858000  0.502000  0.604800  1.0  0.182
  H  H110  1  0.897700  0.479400  0.532500  1.0  0.1626
  H  H111  1  0.946300  0.506600  0.608800  1.0  0.1846
  H  H112  1  0.987200  0.319600  0.569200  1.0  0.1523
  H  H113  1  0.018800  0.404700  0.583300  1.0  0.1738
  H  H114  1  0.966500  0.375700  0.509800  1.0  0.1641
  H  H115  1  0.703800  0.996100  0.275400  1.0  0.1004
  H  H116  1  0.880700  0.104100  0.196600  1.0  0.1032
  H  H117  1  0.900600  0.992000  0.122300  1.0  0.1216
  H  H118  1  0.811200  0.891800  0.114800  1.0  0.1032
  H  H119  1  0.513200  0.653100  0.286400  1.0  0.4528
  H  H120  1  0.845200  0.279400  0.427600  1.0  0.4
  H  H121  1  0.528100  0.759100  0.038600  1.0  0.1737
  H  H122  1  0.492200  0.822700  0.996500  1.0  0.1612
  H  H123  1  0.442600  0.771000  0.043200  1.0  0.1694
  H  H124  1  0.451100  0.957100  0.161500  1.0  0.1718
  H  H125  1  0.396000  0.891600  0.117400  1.0  0.1628
  H  H126  1  0.445000  0.946300  0.073100  1.0  0.1601
  H  H127  1  0.604800  0.858000  0.502000  1.0  0.1807
  H  H128  1  0.532500  0.897700  0.479400  1.0  0.1789
  H  H129  1  0.608800  0.946300  0.506600  1.0  0.1809
  H  H130  1  0.569200  0.987200  0.319600  1.0  0.1501
  H  H131  1  0.583300  0.018800  0.404700  1.0  0.1724
  H  H132  1  0.509800  0.966500  0.375700  1.0  0.167
  C  C133  1  0.804900  0.301200  0.131900  1.0  0.676
  C  C134  1  0.709400  0.219000  0.874300  1.0  0.6983
  C  C135  1  0.808500  0.251900  0.068700  1.0  -0.1566
  C  C136  1  0.757000  0.258100  0.003300  1.0  -0.0091
  C  C137  1  0.755300  0.208300  0.940500  1.0  -0.1545
  C  C138  1  0.802300  0.151200  0.939800  1.0  -0.0173
  C  C139  1  0.849600  0.140800  0.006100  1.0  -0.1611
  C  C140  1  0.851800  0.193300  0.066300  1.0  -0.0005
  C  C141  1  0.959200  0.508000  0.204000  1.0  -0.4337
  C  C142  1  0.881900  0.556100  0.079300  1.0  -0.434
  C  C143  1  0.521100  0.413700  0.099800  1.0  -0.4751
  C  C144  1  0.629600  0.437500  0.023600  1.0  -0.4385
  C  C145  1  0.131900  0.804900  0.301200  1.0  0.6744
  C  C146  1  0.874300  0.709400  0.219000  1.0  0.7074
  C  C147  1  0.068700  0.808500  0.251900  1.0  -0.1558
  C  C148  1  0.003300  0.757000  0.258100  1.0  -0.009
  C  C149  1  0.940500  0.755300  0.208300  1.0  -0.1541
  C  C150  1  0.939800  0.802300  0.151200  1.0  -0.0158
  C  C151  1  0.006100  0.849600  0.140800  1.0  -0.1602
  C  C152  1  0.066300  0.851800  0.193300  1.0  -0.0013
  C  C153  1  0.204000  0.959200  0.508000  1.0  -0.4278
  C  C154  1  0.079300  0.881900  0.556100  1.0  -0.4362
  C  C155  1  0.099800  0.521100  0.413700  1.0  -0.4774
  C  C156  1  0.023600  0.629600  0.437500  1.0  -0.4313
  C  C157  1  0.301200  0.131900  0.804900  1.0  0.6743
  C  C158  1  0.219000  0.874300  0.709400  1.0  0.704
  C  C159  1  0.251900  0.068700  0.808500  1.0  -0.1554
  C  C160  1  0.258100  0.003300  0.757000  1.0  -0.0084
  C  C161  1  0.208300  0.940500  0.755300  1.0  -0.1539
  C  C162  1  0.151200  0.939800  0.802300  1.0  -0.0148
  C  C163  1  0.140800  0.006100  0.849600  1.0  -0.1623
  C  C164  1  0.193300  0.066300  0.851800  1.0  0.0012
  C  C165  1  0.508000  0.204000  0.959200  1.0  -0.4334
  C  C166  1  0.556100  0.079300  0.881900  1.0  -0.4318
  C  C167  1  0.413700  0.099800  0.521100  1.0  -0.4752
  C  C168  1  0.437500  0.023600  0.629600  1.0  -0.4313
  C  C169  1  0.195100  0.698800  0.868100  1.0  0.6755
  C  C170  1  0.290600  0.781000  0.125700  1.0  0.6972
  C  C171  1  0.191500  0.748100  0.931300  1.0  -0.1558
  C  C172  1  0.243000  0.741900  0.996700  1.0  -0.0076
  C  C173  1  0.244700  0.791700  0.059500  1.0  -0.1519
  C  C174  1  0.197700  0.848800  0.060200  1.0  -0.0179
  C  C175  1  0.150400  0.859200  0.993900  1.0  -0.1619
  C  C176  1  0.148200  0.806700  0.933700  1.0  0.0002
  C  C177  1  0.040800  0.492000  0.796000  1.0  -0.4336
  C  C178  1  0.118100  0.443900  0.920700  1.0  -0.4321
  C  C179  1  0.478900  0.586300  0.900200  1.0  -0.4745
  C  C180  1  0.370400  0.562500  0.976400  1.0  -0.4314
  C  C181  1  0.868100  0.195100  0.698800  1.0  0.675
  C  C182  1  0.125700  0.290600  0.781000  1.0  0.7072
  C  C183  1  0.931300  0.191500  0.748100  1.0  -0.1568
  C  C184  1  0.996700  0.243000  0.741900  1.0  -0.0091
  C  C185  1  0.059500  0.244700  0.791700  1.0  -0.1546
  C  C186  1  0.060200  0.197700  0.848800  1.0  -0.0155
  C  C187  1  0.993900  0.150400  0.859200  1.0  -0.1597
  C  C188  1  0.933700  0.148200  0.806700  1.0  0.0009
  C  C189  1  0.796000  0.040800  0.492000  1.0  -0.4323
  C  C190  1  0.920700  0.118100  0.443900  1.0  -0.4382
  C  C191  1  0.900200  0.478900  0.586300  1.0  -0.4762
  C  C192  1  0.976400  0.370400  0.562500  1.0  -0.4325
  C  C193  1  0.698800  0.868100  0.195100  1.0  0.6748
  C  C194  1  0.781000  0.125700  0.290600  1.0  0.7041
  C  C195  1  0.748100  0.931300  0.191500  1.0  -0.1546
  C  C196  1  0.741900  0.996700  0.243000  1.0  -0.0094
  C  C197  1  0.791700  0.059500  0.244700  1.0  -0.1541
  C  C198  1  0.848800  0.060200  0.197700  1.0  -0.0157
  C  C199  1  0.859200  0.993900  0.150400  1.0  -0.1614
  C  C200  1  0.806700  0.933700  0.148200  1.0  -0.0
  C  C201  1  0.492000  0.796000  0.040800  1.0  -0.4282
  C  C202  1  0.443900  0.920700  0.118100  1.0  -0.431
  C  C203  1  0.586300  0.900200  0.478900  1.0  -0.477
  C  C204  1  0.562500  0.976400  0.370400  1.0  -0.4316
  S  S205  1  0.651770  0.315120  0.320430  1.0  1.6284
  S  S206  1  0.868050  0.460960  0.365920  1.0  1.6405
  S  S207  1  0.878040  0.483580  0.139540  1.0  0.6417
  S  S208  1  0.609670  0.391590  0.102220  1.0  0.6913
  S  S209  1  0.320430  0.651770  0.315120  1.0  1.6309
  S  S210  1  0.365920  0.868050  0.460960  1.0  1.6416
  S  S211  1  0.139540  0.878040  0.483580  1.0  0.6422
  S  S212  1  0.102220  0.609670  0.391590  1.0  0.6931
  S  S213  1  0.315120  0.320430  0.651770  1.0  1.6295
  S  S214  1  0.460960  0.365920  0.868050  1.0  1.6414
  S  S215  1  0.483580  0.139540  0.878040  1.0  0.6405
  S  S216  1  0.391590  0.102220  0.609670  1.0  0.6939
  S  S217  1  0.348230  0.684880  0.679570  1.0  1.6234
  S  S218  1  0.131950  0.539040  0.634080  1.0  1.6401
  S  S219  1  0.121960  0.516420  0.860460  1.0  0.6413
  S  S220  1  0.390330  0.608410  0.897780  1.0  0.6868
  S  S221  1  0.679570  0.348230  0.684880  1.0  1.6298
  S  S222  1  0.634080  0.131950  0.539040  1.0  1.6405
  S  S223  1  0.860460  0.121960  0.516420  1.0  0.6405
  S  S224  1  0.897780  0.390330  0.608410  1.0  0.6908
  S  S225  1  0.684880  0.679570  0.348230  1.0  1.6308
  S  S226  1  0.539040  0.634080  0.131950  1.0  1.6411
  S  S227  1  0.516420  0.860460  0.121960  1.0  0.6405
  S  S228  1  0.608410  0.897780  0.390330  1.0  0.6892
  O  O229  1  0.853600  0.292500  0.188800  1.0  -0.5926
  O  O230  1  0.759800  0.349800  0.135900  1.0  -0.6103
  O  O231  1  0.652100  0.251700  0.876700  1.0  -0.5856
  O  O232  1  0.729800  0.189600  0.813700  1.0  -0.5999
  O  O233  1  0.716930  0.497630  0.294430  1.0  -0.9754
  O  O234  1  0.601000  0.202000  0.711700  1.0  -0.9356
  O  O235  1  0.646900  0.240600  0.348100  1.0  -0.6912
  O  O236  1  0.672000  0.375000  0.383600  1.0  -0.7448
  O  O237  1  0.710500  0.319900  0.268800  1.0  -0.7573
  O  O238  1  0.581200  0.328100  0.281300  1.0  -0.6494
  O  O239  1  0.842200  0.407100  0.300700  1.0  -0.7985
  O  O240  1  0.814800  0.457200  0.422000  1.0  -0.7431
  O  O241  1  0.941500  0.441000  0.397300  1.0  -0.707
  O  O242  1  0.873200  0.535700  0.340600  1.0  -0.692
  O  O243  1  0.813670  0.500870  0.185570  1.0  -0.6291
  O  O244  1  0.650500  0.445000  0.170100  1.0  -0.6736
  O  O245  1  0.188800  0.853600  0.292500  1.0  -0.5921
  O  O246  1  0.135900  0.759800  0.349800  1.0  -0.6115
  O  O247  1  0.876700  0.652100  0.251700  1.0  -0.5872
  O  O248  1  0.813700  0.729800  0.189600  1.0  -0.6
  O  O249  1  0.294430  0.716930  0.497630  1.0  -0.9769
  O  O250  1  0.711700  0.601000  0.202000  1.0  -0.9357
  O  O251  1  0.348100  0.646900  0.240600  1.0  -0.6951
  O  O252  1  0.383600  0.672000  0.375000  1.0  -0.7459
  O  O253  1  0.268800  0.710500  0.319900  1.0  -0.7518
  O  O254  1  0.281300  0.581200  0.328100  1.0  -0.6543
  O  O255  1  0.300700  0.842200  0.407100  1.0  -0.7949
  O  O256  1  0.422000  0.814800  0.457200  1.0  -0.7412
  O  O257  1  0.397300  0.941500  0.441000  1.0  -0.7108
  O  O258  1  0.340600  0.873200  0.535700  1.0  -0.6939
  O  O259  1  0.185570  0.813670  0.500870  1.0  -0.6278
  O  O260  1  0.170100  0.650500  0.445000  1.0  -0.6722
  O  O261  1  0.292500  0.188800  0.853600  1.0  -0.5962
  O  O262  1  0.349800  0.135900  0.759800  1.0  -0.6099
  O  O263  1  0.251700  0.876700  0.652100  1.0  -0.5869
  O  O264  1  0.189600  0.813700  0.729800  1.0  -0.6024
  O  O265  1  0.497630  0.294430  0.716930  1.0  -0.9745
  O  O266  1  0.202000  0.711700  0.601000  1.0  -0.9359
  O  O267  1  0.240600  0.348100  0.646900  1.0  -0.6902
  O  O268  1  0.375000  0.383600  0.672000  1.0  -0.7499
  O  O269  1  0.319900  0.268800  0.710500  1.0  -0.7539
  O  O270  1  0.328100  0.281300  0.581200  1.0  -0.6552
  O  O271  1  0.407100  0.300700  0.842200  1.0  -0.795
  O  O272  1  0.457200  0.422000  0.814800  1.0  -0.7422
  O  O273  1  0.441000  0.397300  0.941500  1.0  -0.7092
  O  O274  1  0.535700  0.340600  0.873200  1.0  -0.6928
  O  O275  1  0.500870  0.185570  0.813670  1.0  -0.629
  O  O276  1  0.445000  0.170100  0.650500  1.0  -0.6728
  O  O277  1  0.146400  0.707500  0.811200  1.0  -0.5934
  O  O278  1  0.240200  0.650200  0.864100  1.0  -0.6105
  O  O279  1  0.347900  0.748300  0.123300  1.0  -0.5873
  O  O280  1  0.270200  0.810400  0.186300  1.0  -0.6007
  O  O281  1  0.283070  0.502370  0.705570  1.0  -0.9742
  O  O282  1  0.399000  0.798000  0.288300  1.0  -0.9343
  O  O283  1  0.353100  0.759400  0.651900  1.0  -0.6911
  O  O284  1  0.328000  0.625000  0.616400  1.0  -0.7415
  O  O285  1  0.289500  0.680100  0.731200  1.0  -0.7573
  O  O286  1  0.418800  0.671900  0.718700  1.0  -0.6501
  O  O287  1  0.157800  0.592900  0.699300  1.0  -0.796
  O  O288  1  0.185200  0.542800  0.578000  1.0  -0.7418
  O  O289  1  0.058500  0.559000  0.602700  1.0  -0.7077
  O  O290  1  0.126800  0.464300  0.659400  1.0  -0.6926
  O  O291  1  0.186330  0.499130  0.814430  1.0  -0.6262
  O  O292  1  0.349500  0.555000  0.829900  1.0  -0.6745
  O  O293  1  0.811200  0.146400  0.707500  1.0  -0.5946
  O  O294  1  0.864100  0.240200  0.650200  1.0  -0.6127
  O  O295  1  0.123300  0.347900  0.748300  1.0  -0.5871
  O  O296  1  0.186300  0.270200  0.810400  1.0  -0.6
  O  O297  1  0.705570  0.283070  0.502370  1.0  -0.9749
  O  O298  1  0.288300  0.399000  0.798000  1.0  -0.9368
  O  O299  1  0.651900  0.353100  0.759400  1.0  -0.6967
  O  O300  1  0.616400  0.328000  0.625000  1.0  -0.7464
  O  O301  1  0.731200  0.289500  0.680100  1.0  -0.7533
  O  O302  1  0.718700  0.418800  0.671900  1.0  -0.653
  O  O303  1  0.699300  0.157800  0.592900  1.0  -0.7961
  O  O304  1  0.578000  0.185200  0.542800  1.0  -0.7419
  O  O305  1  0.602700  0.058500  0.559000  1.0  -0.7105
  O  O306  1  0.659400  0.126800  0.464300  1.0  -0.694
  O  O307  1  0.814430  0.186330  0.499130  1.0  -0.6284
  O  O308  1  0.829900  0.349500  0.555000  1.0  -0.6725
  O  O309  1  0.707500  0.811200  0.146400  1.0  -0.5969
  O  O310  1  0.650200  0.864100  0.240200  1.0  -0.6115
  O  O311  1  0.748300  0.123300  0.347900  1.0  -0.5862
  O  O312  1  0.810400  0.186300  0.270200  1.0  -0.6014
  O  O313  1  0.502370  0.705570  0.283070  1.0  -0.9753
  O  O314  1  0.798000  0.288300  0.399000  1.0  -0.935
  O  O315  1  0.759400  0.651900  0.353100  1.0  -0.6899
  O  O316  1  0.625000  0.616400  0.328000  1.0  -0.7486
  O  O317  1  0.680100  0.731200  0.289500  1.0  -0.7558
  O  O318  1  0.671900  0.718700  0.418800  1.0  -0.6538
  O  O319  1  0.592900  0.699300  0.157800  1.0  -0.7945
  O  O320  1  0.542800  0.578000  0.185200  1.0  -0.742
  O  O321  1  0.559000  0.602700  0.058500  1.0  -0.7089
  O  O322  1  0.464300  0.659400  0.126800  1.0  -0.6913
  O  O323  1  0.499130  0.814430  0.186330  1.0  -0.6276
  O  O324  1  0.555000  0.829900  0.349500  1.0  -0.6734
