# generated using pymatgen
data_ZnH16C20(N3O2)2
_symmetry_space_group_name_H-M   'P 1'
_cell_length_a   12.88420000
_cell_length_b   14.59560000
_cell_length_c   14.59560000
_cell_angle_alpha   90.00000000
_cell_angle_beta   90.00000000
_cell_angle_gamma   90.00000000
_symmetry_Int_Tables_number   1
_chemical_formula_structural   ZnH16C20(N3O2)2
_chemical_formula_sum   'Zn4 H64 C80 N24 O16'
_cell_volume   2744.74095942
_cell_formula_units_Z   4
loop_
 _symmetry_equiv_pos_site_id
 _symmetry_equiv_pos_as_xyz
  1  'x, y, z'
loop_
 _atom_site_type_symbol
 _atom_site_label
 _atom_site_symmetry_multiplicity
 _atom_site_fract_x
 _atom_site_fract_y
 _atom_site_fract_z
 _atom_site_occupancy
 _atom_site_charge
  Zn  Zn1  1  0.000000  0.500000  0.000000  1.0  0.8743
  Zn  Zn2  1  0.500000  0.000000  0.500000  1.0  0.8743
  Zn  Zn3  1  0.000000  0.000000  0.500000  1.0  0.8743
  Zn  Zn4  1  0.500000  0.500000  0.000000  1.0  0.8743
  H  H5  1  0.978400  0.191700  0.188600  1.0  0.1074
  H  H6  1  0.862000  0.098500  0.270300  1.0  0.1312
  H  H7  1  0.623100  0.243700  0.168800  1.0  0.1209
  H  H8  1  0.736500  0.338000  0.090400  1.0  0.0942
  H  H9  1  0.563600  0.057800  0.178800  1.0  0.1052
  H  H10  1  0.787300  0.095700  0.443000  1.0  0.1589
  H  H11  1  0.747800  0.195100  0.416800  1.0  0.1476
  H  H12  1  0.691900  0.139400  0.495800  1.0  0.1619
  H  H13  1  0.978400  0.808300  0.811400  1.0  0.1078
  H  H14  1  0.862000  0.901500  0.729700  1.0  0.1312
  H  H15  1  0.623100  0.756300  0.831200  1.0  0.1208
  H  H16  1  0.736500  0.662000  0.909600  1.0  0.0944
  H  H17  1  0.563600  0.942200  0.821200  1.0  0.1059
  H  H18  1  0.787300  0.904300  0.557000  1.0  0.1592
  H  H19  1  0.747800  0.804900  0.583200  1.0  0.1498
  H  H20  1  0.691900  0.860600  0.504200  1.0  0.1591
  H  H21  1  0.478400  0.691700  0.311400  1.0  0.1076
  H  H22  1  0.362000  0.598500  0.229700  1.0  0.131
  H  H23  1  0.123100  0.743700  0.331200  1.0  0.1207
  H  H24  1  0.236500  0.838000  0.409600  1.0  0.0943
  H  H25  1  0.063600  0.557800  0.321200  1.0  0.1061
  H  H26  1  0.287300  0.595700  0.057000  1.0  0.1596
  H  H27  1  0.247800  0.695100  0.083200  1.0  0.1479
  H  H28  1  0.191900  0.639400  0.004200  1.0  0.1607
  H  H29  1  0.478400  0.308300  0.688600  1.0  0.1079
  H  H30  1  0.362000  0.401500  0.770300  1.0  0.1313
  H  H31  1  0.123100  0.256300  0.668800  1.0  0.1209
  H  H32  1  0.236500  0.162000  0.590400  1.0  0.0944
  H  H33  1  0.063600  0.442200  0.678800  1.0  0.1052
  H  H34  1  0.287300  0.404300  0.943000  1.0  0.1589
  H  H35  1  0.247800  0.304900  0.916800  1.0  0.1493
  H  H36  1  0.191900  0.360600  0.995800  1.0  0.1612
  H  H37  1  0.978400  0.811400  0.191700  1.0  0.1076
  H  H38  1  0.862000  0.729700  0.098500  1.0  0.1315
  H  H39  1  0.623100  0.831200  0.243700  1.0  0.1207
  H  H40  1  0.736500  0.909600  0.338000  1.0  0.0947
  H  H41  1  0.563600  0.821200  0.057800  1.0  0.1059
  H  H42  1  0.787300  0.557000  0.095700  1.0  0.1602
  H  H43  1  0.747800  0.583200  0.195100  1.0  0.148
  H  H44  1  0.691900  0.504200  0.139400  1.0  0.1628
  H  H45  1  0.978400  0.188600  0.808300  1.0  0.1075
  H  H46  1  0.862000  0.270300  0.901500  1.0  0.1315
  H  H47  1  0.623100  0.168800  0.756300  1.0  0.1212
  H  H48  1  0.736500  0.090400  0.662000  1.0  0.0945
  H  H49  1  0.563600  0.178800  0.942200  1.0  0.1069
  H  H50  1  0.787300  0.443000  0.904300  1.0  0.1599
  H  H51  1  0.747800  0.416800  0.804900  1.0  0.148
  H  H52  1  0.691900  0.495800  0.860600  1.0  0.1655
  H  H53  1  0.478400  0.311400  0.308300  1.0  0.1075
  H  H54  1  0.362000  0.229700  0.401500  1.0  0.1313
  H  H55  1  0.123100  0.331200  0.256300  1.0  0.1209
  H  H56  1  0.236500  0.409600  0.162000  1.0  0.0943
  H  H57  1  0.063600  0.321200  0.442200  1.0  0.1059
  H  H58  1  0.287300  0.057000  0.404300  1.0  0.16
  H  H59  1  0.247800  0.083200  0.304900  1.0  0.1481
  H  H60  1  0.191900  0.004200  0.360600  1.0  0.1646
  H  H61  1  0.478400  0.688600  0.691700  1.0  0.1074
  H  H62  1  0.362000  0.770300  0.598500  1.0  0.1312
  H  H63  1  0.123100  0.668800  0.743700  1.0  0.121
  H  H64  1  0.236500  0.590400  0.838000  1.0  0.0947
  H  H65  1  0.063600  0.678800  0.557800  1.0  0.1064
  H  H66  1  0.287300  0.943000  0.595700  1.0  0.1602
  H  H67  1  0.247800  0.916800  0.695100  1.0  0.1478
  H  H68  1  0.191900  0.995800  0.639400  1.0  0.1619
  C  C69  1  0.944500  0.335300  0.080200  1.0  0.6429
  C  C70  1  0.869900  0.273400  0.128900  1.0  -0.1424
  C  C71  1  0.906600  0.202300  0.184200  1.0  -0.0121
  C  C72  1  0.837600  0.146500  0.233300  1.0  -0.1796
  C  C73  1  0.732300  0.164200  0.225600  1.0  0.1375
  C  C74  1  0.695000  0.233700  0.172800  1.0  -0.1772
  C  C75  1  0.762500  0.289100  0.125400  1.0  -0.0045
  C  C76  1  0.578800  0.060700  0.241700  1.0  0.1464
  C  C77  1  0.655300  0.094700  0.369500  1.0  0.3799
  C  C78  1  0.726600  0.134600  0.437000  1.0  -0.446
  C  C79  1  0.944500  0.664700  0.919800  1.0  0.6433
  C  C80  1  0.869900  0.726600  0.871100  1.0  -0.1428
  C  C81  1  0.906600  0.797700  0.815800  1.0  -0.0123
  C  C82  1  0.837600  0.853500  0.766700  1.0  -0.1799
  C  C83  1  0.732300  0.835800  0.774400  1.0  0.137
  C  C84  1  0.695000  0.766300  0.827200  1.0  -0.1768
  C  C85  1  0.762500  0.710900  0.874600  1.0  -0.0046
  C  C86  1  0.578800  0.939300  0.758300  1.0  0.1461
  C  C87  1  0.655300  0.905300  0.630500  1.0  0.3794
  C  C88  1  0.726600  0.865400  0.563000  1.0  -0.4457
  C  C89  1  0.444500  0.835300  0.419800  1.0  0.6431
  C  C90  1  0.369900  0.773400  0.371100  1.0  -0.1429
  C  C91  1  0.406600  0.702300  0.315800  1.0  -0.0119
  C  C92  1  0.337600  0.646500  0.266700  1.0  -0.1801
  C  C93  1  0.232300  0.664200  0.274400  1.0  0.1372
  C  C94  1  0.195000  0.733700  0.327200  1.0  -0.1771
  C  C95  1  0.262500  0.789100  0.374600  1.0  -0.0041
  C  C96  1  0.078800  0.560700  0.258300  1.0  0.1466
  C  C97  1  0.155300  0.594700  0.130500  1.0  0.3798
  C  C98  1  0.226600  0.634600  0.063000  1.0  -0.4463
  C  C99  1  0.444500  0.164700  0.580200  1.0  0.643
  C  C100  1  0.369900  0.226600  0.628900  1.0  -0.1425
  C  C101  1  0.406600  0.297700  0.684200  1.0  -0.0128
  C  C102  1  0.337600  0.353500  0.733300  1.0  -0.1796
  C  C103  1  0.232300  0.335800  0.725600  1.0  0.1374
  C  C104  1  0.195000  0.266300  0.672800  1.0  -0.177
  C  C105  1  0.262500  0.210900  0.625400  1.0  -0.005
  C  C106  1  0.078800  0.439300  0.741700  1.0  0.1462
  C  C107  1  0.155300  0.405300  0.869500  1.0  0.3798
  C  C108  1  0.226600  0.365400  0.937000  1.0  -0.445
  C  C109  1  0.944500  0.919800  0.335300  1.0  0.643
  C  C110  1  0.869900  0.871100  0.273400  1.0  -0.1421
  C  C111  1  0.906600  0.815800  0.202300  1.0  -0.0123
  C  C112  1  0.837600  0.766700  0.146500  1.0  -0.1806
  C  C113  1  0.732300  0.774400  0.164200  1.0  0.1378
  C  C114  1  0.695000  0.827200  0.233700  1.0  -0.1773
  C  C115  1  0.762500  0.874600  0.289100  1.0  -0.0063
  C  C116  1  0.578800  0.758300  0.060700  1.0  0.1416
  C  C117  1  0.655300  0.630500  0.094700  1.0  0.381
  C  C118  1  0.726600  0.563000  0.134600  1.0  -0.4465
  C  C119  1  0.944500  0.080200  0.664700  1.0  0.6417
  C  C120  1  0.869900  0.128900  0.726600  1.0  -0.1418
  C  C121  1  0.906600  0.184200  0.797700  1.0  -0.0118
  C  C122  1  0.837600  0.233300  0.853500  1.0  -0.1811
  C  C123  1  0.732300  0.225600  0.835800  1.0  0.1375
  C  C124  1  0.695000  0.172800  0.766300  1.0  -0.1776
  C  C125  1  0.762500  0.125400  0.710900  1.0  -0.007
  C  C126  1  0.578800  0.241700  0.939300  1.0  0.1429
  C  C127  1  0.655300  0.369500  0.905300  1.0  0.3808
  C  C128  1  0.726600  0.437000  0.865400  1.0  -0.4478
  C  C129  1  0.444500  0.419800  0.164700  1.0  0.6424
  C  C130  1  0.369900  0.371100  0.226600  1.0  -0.1419
  C  C131  1  0.406600  0.315800  0.297700  1.0  -0.0122
  C  C132  1  0.337600  0.266700  0.353500  1.0  -0.1816
  C  C133  1  0.232300  0.274400  0.335800  1.0  0.1378
  C  C134  1  0.195000  0.327200  0.266300  1.0  -0.1776
  C  C135  1  0.262500  0.374600  0.210900  1.0  -0.0066
  C  C136  1  0.078800  0.258300  0.439300  1.0  0.1423
  C  C137  1  0.155300  0.130500  0.405300  1.0  0.3805
  C  C138  1  0.226600  0.063000  0.365400  1.0  -0.4482
  C  C139  1  0.444500  0.580200  0.835300  1.0  0.6426
  C  C140  1  0.369900  0.628900  0.773400  1.0  -0.1422
  C  C141  1  0.406600  0.684200  0.702300  1.0  -0.0122
  C  C142  1  0.337600  0.733300  0.646500  1.0  -0.1806
  C  C143  1  0.232300  0.725600  0.664200  1.0  0.1377
  C  C144  1  0.195000  0.672800  0.733700  1.0  -0.1773
  C  C145  1  0.262500  0.625400  0.789100  1.0  -0.0065
  C  C146  1  0.078800  0.741700  0.560700  1.0  0.1422
  C  C147  1  0.155300  0.869500  0.594700  1.0  0.3811
  C  C148  1  0.226600  0.937000  0.634600  1.0  -0.4452
  N  N149  1  0.524000  0.019800  0.304800  1.0  -0.2589
  N  N150  1  0.574000  0.041700  0.386200  1.0  -0.2852
  N  N151  1  0.660500  0.108300  0.277500  1.0  -0.0717
  N  N152  1  0.524000  0.980200  0.695200  1.0  -0.2581
  N  N153  1  0.574000  0.958300  0.613800  1.0  -0.2869
  N  N154  1  0.660500  0.891700  0.722500  1.0  -0.0711
  N  N155  1  0.024000  0.519800  0.195200  1.0  -0.259
  N  N156  1  0.074000  0.541700  0.113800  1.0  -0.2867
  N  N157  1  0.160500  0.608300  0.222500  1.0  -0.0714
  N  N158  1  0.024000  0.480200  0.804800  1.0  -0.258
  N  N159  1  0.074000  0.458300  0.886200  1.0  -0.2858
  N  N160  1  0.160500  0.391700  0.777500  1.0  -0.0719
  N  N161  1  0.524000  0.695200  0.019800  1.0  -0.2584
  N  N162  1  0.574000  0.613800  0.041700  1.0  -0.2851
  N  N163  1  0.660500  0.722500  0.108300  1.0  -0.0712
  N  N164  1  0.524000  0.304800  0.980200  1.0  -0.2593
  N  N165  1  0.574000  0.386200  0.958300  1.0  -0.2847
  N  N166  1  0.660500  0.277500  0.891700  1.0  -0.0713
  N  N167  1  0.024000  0.195200  0.480200  1.0  -0.2587
  N  N168  1  0.074000  0.113800  0.458300  1.0  -0.2852
  N  N169  1  0.160500  0.222500  0.391700  1.0  -0.0712
  N  N170  1  0.024000  0.804800  0.519800  1.0  -0.2581
  N  N171  1  0.074000  0.886200  0.541700  1.0  -0.2848
  N  N172  1  0.160500  0.777500  0.608300  1.0  -0.0712
  O  O173  1  0.902700  0.404300  0.040100  1.0  -0.5993
  O  O174  1  0.039200  0.318100  0.080000  1.0  -0.5932
  O  O175  1  0.902700  0.595700  0.959900  1.0  -0.5996
  O  O176  1  0.039200  0.681900  0.920000  1.0  -0.5932
  O  O177  1  0.402700  0.904300  0.459900  1.0  -0.5994
  O  O178  1  0.539200  0.818100  0.420000  1.0  -0.5929
  O  O179  1  0.402700  0.095700  0.540100  1.0  -0.5996
  O  O180  1  0.539200  0.181900  0.580000  1.0  -0.5932
  O  O181  1  0.902700  0.959900  0.404300  1.0  -0.5996
  O  O182  1  0.039200  0.920000  0.318100  1.0  -0.5934
  O  O183  1  0.902700  0.040100  0.595700  1.0  -0.6
  O  O184  1  0.039200  0.080000  0.681900  1.0  -0.5928
  O  O185  1  0.402700  0.459900  0.095700  1.0  -0.5997
  O  O186  1  0.539200  0.420000  0.181900  1.0  -0.593
  O  O187  1  0.402700  0.540100  0.904300  1.0  -0.6
  O  O188  1  0.539200  0.580000  0.818100  1.0  -0.5931
