# generated using pymatgen
data_NdH8C16NO6
_symmetry_space_group_name_H-M   'P 1'
_cell_length_a   13.27960000
_cell_length_b   14.99920000
_cell_length_c   16.12130000
_cell_angle_alpha   117.72300000
_cell_angle_beta   99.12450000
_cell_angle_gamma   90.00000000
_symmetry_Int_Tables_number   1
_chemical_formula_structural   NdH8C16NO6
_chemical_formula_sum   'Nd4 H32 C64 N4 O24'
_cell_volume   2796.49990565
_cell_formula_units_Z   4
loop_
 _symmetry_equiv_pos_site_id
 _symmetry_equiv_pos_as_xyz
  1  'x, y, z'
loop_
 _atom_site_type_symbol
 _atom_site_label
 _atom_site_symmetry_multiplicity
 _atom_site_fract_x
 _atom_site_fract_y
 _atom_site_fract_z
 _atom_site_occupancy
 _atom_site_charge
  Nd  Nd1  1  0.957660  0.967100  0.362840  1.0  2.2519
  Nd  Nd2  1  0.542340  0.604260  0.637160  1.0  2.2562
  Nd  Nd3  1  0.042340  0.032900  0.637160  1.0  2.2517
  Nd  Nd4  1  0.457660  0.395740  0.362840  1.0  2.2539
  H  H5  1  0.046200  0.635900  0.114400  1.0  0.102
  H  H6  1  0.095500  0.526400  0.971600  1.0  0.1124
  H  H7  1  0.137400  0.757600  0.919000  1.0  0.1104
  H  H8  1  0.091600  0.867300  0.062200  1.0  0.1108
  H  H9  1  0.194000  0.602000  0.824000  1.0  0.0416
  H  H10  1  0.277300  0.513500  0.713400  1.0  0.108
  H  H11  1  0.083800  0.289100  0.679600  1.0  0.1197
  H  H12  1  0.206100  0.265600  0.459800  1.0  0.1104
  H  H13  1  0.453800  0.521500  0.885600  1.0  0.102
  H  H14  1  0.404500  0.554800  0.028400  1.0  0.1134
  H  H15  1  0.362600  0.838600  0.081000  1.0  0.1094
  H  H16  1  0.408400  0.805100  0.937800  1.0  0.1117
  H  H17  1  0.306000  0.778000  0.176000  1.0  0.041
  H  H18  1  0.222700  0.800100  0.286600  1.0  0.1072
  H  H19  1  0.416200  0.609500  0.320400  1.0  0.1197
  H  H20  1  0.293900  0.805800  0.540200  1.0  0.1105
  H  H21  1  0.953800  0.364100  0.885600  1.0  0.1019
  H  H22  1  0.904500  0.473600  0.028400  1.0  0.1125
  H  H23  1  0.862600  0.242400  0.081000  1.0  0.1107
  H  H24  1  0.908400  0.132700  0.937800  1.0  0.1107
  H  H25  1  0.806000  0.398000  0.176000  1.0  0.0428
  H  H26  1  0.722700  0.486500  0.286600  1.0  0.1084
  H  H27  1  0.916200  0.710900  0.320400  1.0  0.1196
  H  H28  1  0.793900  0.734400  0.540200  1.0  0.1107
  H  H29  1  0.546200  0.478500  0.114400  1.0  0.1015
  H  H30  1  0.595500  0.445200  0.971600  1.0  0.1128
  H  H31  1  0.637400  0.161400  0.919000  1.0  0.1106
  H  H32  1  0.591600  0.194900  0.062200  1.0  0.1113
  H  H33  1  0.694000  0.222000  0.824000  1.0  0.0409
  H  H34  1  0.777300  0.199900  0.713400  1.0  0.1066
  H  H35  1  0.583800  0.390500  0.679600  1.0  0.1196
  H  H36  1  0.706100  0.194200  0.459800  1.0  0.1104
  C  C37  1  0.019400  0.831800  0.189600  1.0  0.6771
  C  C38  1  0.057600  0.761000  0.101000  1.0  -0.1108
  C  C39  1  0.062900  0.660600  0.074600  1.0  -0.0424
  C  C40  1  0.092900  0.594700  0.989200  1.0  -0.0919
  C  C41  1  0.119000  0.632600  0.930200  1.0  -1e-04
  C  C42  1  0.118300  0.732600  0.957800  1.0  -0.1141
  C  C43  1  0.089700  0.798500  0.043200  1.0  -0.0516
  C  C44  1  0.146900  0.564500  0.837600  1.0  0.1637
  C  C45  1  0.327700  0.437700  0.542000  1.0  0.8052
  C  C46  1  0.254700  0.395500  0.579800  1.0  -0.1608
  C  C47  1  0.240900  0.451000  0.674400  1.0  -0.0986
  C  C48  1  0.173200  0.413400  0.710400  1.0  0.2042
  C  C49  1  0.124300  0.317100  0.654200  1.0  -0.0956
  C  C50  1  0.136300  0.262900  0.560000  1.0  -0.1525
  C  C51  1  0.199800  0.302200  0.523400  1.0  0.0186
  C  C52  1  0.080000  0.159800  0.497200  1.0  0.7559
  C  C53  1  0.480600  0.642200  0.810400  1.0  0.6795
  C  C54  1  0.442400  0.660000  0.899000  1.0  -0.1073
  C  C55  1  0.437100  0.586000  0.925400  1.0  -0.0432
  C  C56  1  0.407100  0.605500  0.010800  1.0  -0.0876
  C  C57  1  0.381000  0.702400  0.069800  1.0  0.0006
  C  C58  1  0.381700  0.774800  0.042200  1.0  -0.118
  C  C59  1  0.410300  0.755300  0.956800  1.0  -0.0535
  C  C60  1  0.353100  0.726900  0.162400  1.0  0.169
  C  C61  1  0.172300  0.895700  0.458000  1.0  0.8039
  C  C62  1  0.245300  0.815700  0.420200  1.0  -0.1593
  C  C63  1  0.259100  0.776600  0.325600  1.0  -0.0982
  C  C64  1  0.326800  0.703000  0.289600  1.0  0.2034
  C  C65  1  0.375700  0.662900  0.345800  1.0  -0.094
  C  C66  1  0.363700  0.702900  0.440000  1.0  -0.1527
  C  C67  1  0.300200  0.778800  0.476600  1.0  0.0165
  C  C68  1  0.420000  0.662600  0.502800  1.0  0.7571
  C  C69  1  0.980600  0.168200  0.810400  1.0  0.6765
  C  C70  1  0.942400  0.239000  0.899000  1.0  -0.1103
  C  C71  1  0.937100  0.339400  0.925400  1.0  -0.0416
  C  C72  1  0.907100  0.405300  0.010800  1.0  -0.0931
  C  C73  1  0.881000  0.367400  0.069800  1.0  0.0007
  C  C74  1  0.881700  0.267400  0.042200  1.0  -0.1136
  C  C75  1  0.910300  0.201500  0.956800  1.0  -0.049
  C  C76  1  0.853100  0.435500  0.162400  1.0  0.1685
  C  C77  1  0.672300  0.562300  0.458000  1.0  0.804
  C  C78  1  0.745300  0.604500  0.420200  1.0  -0.1608
  C  C79  1  0.759100  0.549000  0.325600  1.0  -0.0986
  C  C80  1  0.826800  0.586600  0.289600  1.0  0.2052
  C  C81  1  0.875700  0.682900  0.345800  1.0  -0.0948
  C  C82  1  0.863700  0.737100  0.440000  1.0  -0.1526
  C  C83  1  0.800200  0.697800  0.476600  1.0  0.0177
  C  C84  1  0.920000  0.840200  0.502800  1.0  0.7554
  C  C85  1  0.519400  0.357800  0.189600  1.0  0.6775
  C  C86  1  0.557600  0.340000  0.101000  1.0  -0.1093
  C  C87  1  0.562900  0.414000  0.074600  1.0  -0.0422
  C  C88  1  0.592900  0.394500  0.989200  1.0  -0.0891
  C  C89  1  0.619000  0.297600  0.930200  1.0  1e-04
  C  C90  1  0.618300  0.225200  0.957800  1.0  -0.1185
  C  C91  1  0.589700  0.244700  0.043200  1.0  -0.0524
  C  C92  1  0.646900  0.273100  0.837600  1.0  0.1651
  C  C93  1  0.827700  0.104300  0.542000  1.0  0.8027
  C  C94  1  0.754700  0.184300  0.579800  1.0  -0.1605
  C  C95  1  0.740900  0.223400  0.674400  1.0  -0.0976
  C  C96  1  0.673200  0.297000  0.710400  1.0  0.2025
  C  C97  1  0.624300  0.337100  0.654200  1.0  -0.0948
  C  C98  1  0.636300  0.297100  0.560000  1.0  -0.1534
  C  C99  1  0.699800  0.221200  0.523400  1.0  0.0179
  C  C100  1  0.580000  0.337400  0.497200  1.0  0.7577
  N  N101  1  0.152700  0.470700  0.805000  1.0  -0.3819
  N  N102  1  0.347300  0.665700  0.195000  1.0  -0.3798
  N  N103  1  0.847300  0.529300  0.195000  1.0  -0.3807
  N  N104  1  0.652700  0.334300  0.805000  1.0  -0.3796
  O  O105  1  0.975300  0.795250  0.231900  1.0  -0.7135
  O  O106  1  0.032900  0.923850  0.217900  1.0  -0.6929
  O  O107  1  0.372200  0.523390  0.597580  1.0  -0.6966
  O  O108  1  0.336500  0.383750  0.455700  1.0  -0.7558
  O  O109  1  0.066200  0.123830  0.409260  1.0  -0.6541
  O  O110  1  0.049600  0.109630  0.535460  1.0  -0.879
  O  O111  1  0.524700  0.563350  0.768100  1.0  -0.7165
  O  O112  1  0.467100  0.705950  0.782100  1.0  -0.7008
  O  O113  1  0.127800  0.925810  0.402420  1.0  -0.6947
  O  O114  1  0.163500  0.928050  0.544300  1.0  -0.7558
  O  O115  1  0.433800  0.714570  0.590740  1.0  -0.6531
  O  O116  1  0.450400  0.574170  0.464540  1.0  -0.8789
  O  O117  1  0.024700  0.204750  0.768100  1.0  -0.715
  O  O118  1  0.967100  0.076150  0.782100  1.0  -0.6967
  O  O119  1  0.627800  0.476610  0.402420  1.0  -0.6972
  O  O120  1  0.663500  0.616250  0.544300  1.0  -0.7564
  O  O121  1  0.933800  0.876170  0.590740  1.0  -0.6535
  O  O122  1  0.950400  0.890370  0.464540  1.0  -0.8801
  O  O123  1  0.475300  0.436650  0.231900  1.0  -0.7165
  O  O124  1  0.532900  0.294050  0.217900  1.0  -0.7021
  O  O125  1  0.872200  0.074190  0.597580  1.0  -0.6964
  O  O126  1  0.836500  0.071950  0.455700  1.0  -0.755
  O  O127  1  0.566200  0.285430  0.409260  1.0  -0.6552
  O  O128  1  0.549600  0.425830  0.535460  1.0  -0.8793
