# generated using pymatgen
data_NdH8C16NO6
_symmetry_space_group_name_H-M   'P 1'
_cell_length_a   13.58680000
_cell_length_b   15.15810000
_cell_length_c   16.01840000
_cell_angle_alpha   118.23900000
_cell_angle_beta   98.81200000
_cell_angle_gamma   90.00000000
_symmetry_Int_Tables_number   1
_chemical_formula_structural   NdH8C16NO6
_chemical_formula_sum   'Nd4 H32 C64 N4 O24'
_cell_volume   2862.07266573
_cell_formula_units_Z   4
loop_
 _symmetry_equiv_pos_site_id
 _symmetry_equiv_pos_as_xyz
  1  'x, y, z'
loop_
 _atom_site_type_symbol
 _atom_site_label
 _atom_site_symmetry_multiplicity
 _atom_site_fract_x
 _atom_site_fract_y
 _atom_site_fract_z
 _atom_site_occupancy
 _atom_site_charge
  Nd  Nd1  1  0.461260  0.893730  0.361020  1.0  2.2479
  Nd  Nd2  1  0.038740  0.532710  0.638980  1.0  2.2457
  Nd  Nd3  1  0.538740  0.106270  0.638980  1.0  2.2484
  Nd  Nd4  1  0.961260  0.467290  0.361020  1.0  2.2454
  H  H5  1  0.603100  0.690100  0.053000  1.0  0.1102
  H  H6  1  0.648100  0.661400  0.909400  1.0  0.1146
  H  H7  1  0.601100  0.946300  0.972600  1.0  0.104
  H  H8  1  0.543200  0.970300  0.109200  1.0  0.1057
  H  H9  1  0.591000  0.896000  0.677200  1.0  0.116
  H  H10  1  0.788500  0.716500  0.714600  1.0  0.1122
  H  H11  1  0.726900  0.711800  0.458600  1.0  0.1097
  H  H12  1  0.710000  0.729000  0.816000  1.0  0.0668
  H  H13  1  0.896900  0.637100  0.947000  1.0  0.1091
  H  H14  1  0.851900  0.752000  0.090600  1.0  0.1134
  H  H15  1  0.898900  0.973700  0.027400  1.0  0.1036
  H  H16  1  0.956800  0.861100  0.890800  1.0  0.1064
  H  H17  1  0.909000  0.218800  0.322800  1.0  0.1164
  H  H18  1  0.711500  0.001900  0.285400  1.0  0.1124
  H  H19  1  0.773100  0.253200  0.541400  1.0  0.1101
  H  H20  1  0.790000  0.913000  0.184000  1.0  0.0702
  H  H21  1  0.396900  0.309900  0.947000  1.0  0.1101
  H  H22  1  0.351900  0.338600  0.090600  1.0  0.1142
  H  H23  1  0.398900  0.053700  0.027400  1.0  0.1036
  H  H24  1  0.456800  0.029700  0.890800  1.0  0.1057
  H  H25  1  0.409000  0.104000  0.322800  1.0  0.1163
  H  H26  1  0.211500  0.283500  0.285400  1.0  0.1125
  H  H27  1  0.273100  0.288200  0.541400  1.0  0.1097
  H  H28  1  0.290000  0.271000  0.184000  1.0  0.0674
  H  H29  1  0.103100  0.362900  0.053000  1.0  0.1092
  H  H30  1  0.148100  0.248000  0.909400  1.0  0.1138
  H  H31  1  0.101100  0.026300  0.972600  1.0  0.1034
  H  H32  1  0.043200  0.138900  0.109200  1.0  0.1062
  H  H33  1  0.091000  0.781200  0.677200  1.0  0.1163
  H  H34  1  0.288500  0.998100  0.714600  1.0  0.113
  H  H35  1  0.226900  0.746800  0.458600  1.0  0.1101
  H  H36  1  0.210000  0.087000  0.816000  1.0  0.0684
  C  C37  1  0.527900  0.848700  0.183800  1.0  0.6553
  C  C38  1  0.567700  0.833300  0.095400  1.0  -0.102
  C  C39  1  0.600500  0.740500  0.035600  1.0  -0.049
  C  C40  1  0.628900  0.724000  0.950600  1.0  -0.1207
  C  C41  1  0.629000  0.802600  0.926000  1.0  0.0052
  C  C42  1  0.599200  0.893800  0.987000  1.0  -0.0707
  C  C43  1  0.566300  0.909100  0.070200  1.0  -0.0565
  C  C44  1  0.656500  0.777900  0.833000  1.0  0.1512
  C  C45  1  0.594300  0.847200  0.495000  1.0  0.7594
  C  C46  1  0.649800  0.809110  0.557620  1.0  -0.1585
  C  C47  1  0.634100  0.846010  0.652420  1.0  -0.0946
  C  C48  1  0.683000  0.807820  0.709040  1.0  0.2067
  C  C49  1  0.752600  0.738400  0.674600  1.0  -0.0776
  C  C50  1  0.769200  0.701200  0.580200  1.0  -0.1597
  C  C51  1  0.716900  0.736620  0.521640  1.0  0.0142
  C  C52  1  0.842800  0.624600  0.543800  1.0  0.7934
  C  C53  1  0.972100  0.664900  0.816200  1.0  0.6549
  C  C54  1  0.932300  0.737900  0.904600  1.0  -0.109
  C  C55  1  0.899500  0.704900  0.964400  1.0  -0.0471
  C  C56  1  0.871100  0.773400  0.049400  1.0  -0.1226
  C  C57  1  0.871000  0.876600  0.074000  1.0  0.0061
  C  C58  1  0.900800  0.906800  0.013000  1.0  -0.0747
  C  C59  1  0.933700  0.838900  0.929800  1.0  -0.0548
  C  C60  1  0.843500  0.944900  0.167000  1.0  0.1547
  C  C61  1  0.905700  0.352200  0.505000  1.0  0.7579
  C  C62  1  0.850200  0.251490  0.442380  1.0  -0.1578
  C  C63  1  0.865900  0.193590  0.347580  1.0  -0.0961
  C  C64  1  0.817000  0.098780  0.290960  1.0  0.2072
  C  C65  1  0.747400  0.063800  0.325400  1.0  -0.0759
  C  C66  1  0.730800  0.121000  0.419800  1.0  -0.1612
  C  C67  1  0.783100  0.214980  0.478360  1.0  0.015
  C  C68  1  0.657200  0.080800  0.456200  1.0  0.7939
  C  C69  1  0.472100  0.151300  0.816200  1.0  0.6574
  C  C70  1  0.432300  0.166700  0.904600  1.0  -0.1037
  C  C71  1  0.399500  0.259500  0.964400  1.0  -0.051
  C  C72  1  0.371100  0.276000  0.049400  1.0  -0.1243
  C  C73  1  0.371000  0.197400  0.074000  1.0  0.0061
  C  C74  1  0.400800  0.106200  0.013000  1.0  -0.0716
  C  C75  1  0.433700  0.090900  0.929800  1.0  -0.0571
  C  C76  1  0.343500  0.222100  0.167000  1.0  0.1569
  C  C77  1  0.405700  0.152800  0.505000  1.0  0.7592
  C  C78  1  0.350200  0.190890  0.442380  1.0  -0.158
  C  C79  1  0.365900  0.153990  0.347580  1.0  -0.0941
  C  C80  1  0.317000  0.192180  0.290960  1.0  0.207
  C  C81  1  0.247400  0.261600  0.325400  1.0  -0.0764
  C  C82  1  0.230800  0.298800  0.419800  1.0  -0.1592
  C  C83  1  0.283100  0.263380  0.478360  1.0  0.0146
  C  C84  1  0.157200  0.375400  0.456200  1.0  0.793
  C  C85  1  0.027900  0.335100  0.183800  1.0  0.655
  C  C86  1  0.067700  0.262100  0.095400  1.0  -0.1084
  C  C87  1  0.100500  0.295100  0.035600  1.0  -0.0484
  C  C88  1  0.128900  0.226600  0.950600  1.0  -0.1215
  C  C89  1  0.129000  0.123400  0.926000  1.0  0.0056
  C  C90  1  0.099200  0.093200  0.987000  1.0  -0.0741
  C  C91  1  0.066300  0.161100  0.070200  1.0  -0.053
  C  C92  1  0.156500  0.055100  0.833000  1.0  0.1536
  C  C93  1  0.094300  0.647800  0.495000  1.0  0.7569
  C  C94  1  0.149800  0.748510  0.557620  1.0  -0.158
  C  C95  1  0.134100  0.806410  0.652420  1.0  -0.0957
  C  C96  1  0.183000  0.901220  0.709040  1.0  0.2058
  C  C97  1  0.252600  0.936200  0.674600  1.0  -0.078
  C  C98  1  0.269200  0.879000  0.580200  1.0  -0.1614
  C  C99  1  0.216900  0.785020  0.521640  1.0  0.0152
  C  C100  1  0.342800  0.919200  0.543800  1.0  0.7952
  N  N101  1  0.658300  0.841960  0.803120  1.0  -0.3693
  N  N102  1  0.841700  0.038840  0.196880  1.0  -0.3697
  N  N103  1  0.341700  0.158040  0.196880  1.0  -0.3689
  N  N104  1  0.158300  0.961160  0.803120  1.0  -0.3707
  O  O105  1  0.555000  0.795460  0.221920  1.0  -0.6795
  O  O106  1  0.469100  0.916880  0.217960  1.0  -0.7211
  O  O107  1  0.579800  0.793190  0.405980  1.0  -0.6483
  O  O108  1  0.562000  0.933840  0.533280  1.0  -0.8741
  O  O109  1  0.887100  0.597960  0.603120  1.0  -0.705
  O  O110  1  0.853400  0.589230  0.457060  1.0  -0.7872
  O  O111  1  0.945000  0.573540  0.778080  1.0  -0.6704
  O  O112  1  0.030900  0.698920  0.782040  1.0  -0.7234
  O  O113  1  0.920200  0.387210  0.594020  1.0  -0.6459
  O  O114  1  0.938000  0.400560  0.466720  1.0  -0.8722
  O  O115  1  0.612900  0.994840  0.396880  1.0  -0.7039
  O  O116  1  0.646600  0.132170  0.542940  1.0  -0.788
  O  O117  1  0.445000  0.204540  0.778080  1.0  -0.6799
  O  O118  1  0.530900  0.083120  0.782040  1.0  -0.7217
  O  O119  1  0.420200  0.206810  0.594020  1.0  -0.6477
  O  O120  1  0.438000  0.066160  0.466720  1.0  -0.873
  O  O121  1  0.112900  0.402040  0.396880  1.0  -0.703
  O  O122  1  0.146600  0.410770  0.542940  1.0  -0.7876
  O  O123  1  0.055000  0.426460  0.221920  1.0  -0.676
  O  O124  1  0.969100  0.301080  0.217960  1.0  -0.724
  O  O125  1  0.079800  0.612790  0.405980  1.0  -0.6468
  O  O126  1  0.062000  0.599440  0.533280  1.0  -0.8719
  O  O127  1  0.387100  0.005160  0.603120  1.0  -0.7053
  O  O128  1  0.353400  0.867830  0.457060  1.0  -0.7876
