# generated using pymatgen
data_Nd2H19C35N4(ClO7)2
_symmetry_space_group_name_H-M   'P 1'
_cell_length_a   13.69450000
_cell_length_b   14.77110000
_cell_length_c   16.06510000
_cell_angle_alpha   117.36900000
_cell_angle_beta   97.98290000
_cell_angle_gamma   90.00000000
_symmetry_Int_Tables_number   1
_chemical_formula_structural   Nd2H19C35N4(ClO7)2
_chemical_formula_sum   'Nd4 H38 C70 N8 Cl4 O28'
_cell_volume   2850.43010282
_cell_formula_units_Z   2
loop_
 _symmetry_equiv_pos_site_id
 _symmetry_equiv_pos_as_xyz
  1  'x, y, z'
loop_
 _atom_site_type_symbol
 _atom_site_label
 _atom_site_symmetry_multiplicity
 _atom_site_fract_x
 _atom_site_fract_y
 _atom_site_fract_z
 _atom_site_occupancy
 _atom_site_charge
  Nd  Nd1  1  0.960410  0.393270  0.363420  1.0  2.2418
  Nd  Nd2  1  0.539590  0.029850  0.636580  1.0  2.2425
  Nd  Nd3  1  0.039590  0.606730  0.636580  1.0  2.2414
  Nd  Nd4  1  0.460410  0.970150  0.363420  1.0  2.2416
  H  H5  1  0.105900  0.196200  0.065400  1.0  0.118
  H  H6  1  0.154100  0.165300  0.923200  1.0  0.1304
  H  H7  1  0.092700  0.448500  0.971600  1.0  0.1103
  H  H8  1  0.037300  0.477200  0.109800  1.0  0.1333
  H  H9  1  0.177000  0.205000  0.812000  1.0  0.1064
  H  H10  1  0.083800  0.392800  0.678200  1.0  0.1191
  H  H11  1  0.283200  0.209500  0.716600  1.0  0.117
  H  H12  1  0.218700  0.203600  0.462000  1.0  0.1259
  H  H13  1  0.394100  0.130800  0.934600  1.0  0.1159
  H  H14  1  0.345900  0.242100  0.076800  1.0  0.1313
  H  H15  1  0.407300  0.476900  0.028400  1.0  0.1107
  H  H16  1  0.462700  0.367400  0.890200  1.0  0.1334
  H  H17  1  0.323000  0.393000  0.188000  1.0  0.1067
  H  H18  1  0.416200  0.714600  0.321800  1.0  0.1195
  H  H19  1  0.216800  0.492900  0.283400  1.0  0.1181
  H  H20  1  0.281300  0.741600  0.538000  1.0  0.126
  H  H21  1  0.894100  0.803800  0.934600  1.0  0.1179
  H  H22  1  0.845900  0.834700  0.076800  1.0  0.1299
  H  H23  1  0.907300  0.551500  0.028400  1.0  0.1103
  H  H24  1  0.962700  0.522800  0.890200  1.0  0.1333
  H  H25  1  0.823000  0.795000  0.188000  1.0  0.106
  H  H26  1  0.916200  0.607200  0.321800  1.0  0.1197
  H  H27  1  0.716800  0.790500  0.283400  1.0  0.1175
  H  H28  1  0.781300  0.796400  0.538000  1.0  0.1254
  H  H29  1  0.605900  0.869200  0.065400  1.0  0.1161
  H  H30  1  0.654100  0.757900  0.923200  1.0  0.1314
  H  H31  1  0.592700  0.523100  0.971600  1.0  0.1104
  H  H32  1  0.537300  0.632600  0.109800  1.0  0.1335
  H  H33  1  0.677000  0.607000  0.812000  1.0  0.1069
  H  H34  1  0.583800  0.285400  0.678200  1.0  0.119
  H  H35  1  0.783200  0.507100  0.716600  1.0  0.1175
  H  H36  1  0.718700  0.258400  0.462000  1.0  0.1261
  H  H37  1  0.768400  0.479400  0.087400  1.0  0.1318
  H  H38  1  0.731600  0.392000  0.912600  1.0  0.1311
  H  H39  1  0.750000  0.177600  0.000000  1.0  0.1532
  H  H40  1  0.231600  0.520600  0.912600  1.0  0.1318
  H  H41  1  0.268400  0.608000  0.087400  1.0  0.1305
  H  H42  1  0.250000  0.822400  0.000000  1.0  0.1488
  C  C43  1  0.027600  0.355700  0.189400  1.0  0.7181
  C  C44  1  0.066300  0.338900  0.102200  1.0  -0.1258
  C  C45  1  0.101800  0.246700  0.046000  1.0  -0.0215
  C  C46  1  0.131500  0.228400  0.961200  1.0  -0.1667
  C  C47  1  0.127700  0.303200  0.932800  1.0  0.0477
  C  C48  1  0.093800  0.397100  0.989800  1.0  -0.0478
  C  C49  1  0.061800  0.414900  0.073000  1.0  -0.0426
  C  C50  1  0.155700  0.277900  0.839800  1.0  0.1657
  C  C51  1  0.085200  0.340400  0.496600  1.0  0.7289
  C  C52  1  0.142900  0.304000  0.560600  1.0  -0.1129
  C  C53  1  0.127400  0.342100  0.654200  1.0  -0.0862
  C  C54  1  0.177800  0.303900  0.712200  1.0  0.2147
  C  C55  1  0.247200  0.232500  0.677400  1.0  -0.0657
  C  C56  1  0.262900  0.195200  0.583800  1.0  -0.1517
  C  C57  1  0.209600  0.229900  0.525000  1.0  0.03
  C  C58  1  0.337300  0.116300  0.545000  1.0  0.7813
  C  C59  1  0.472400  0.166300  0.810600  1.0  0.7151
  C  C60  1  0.433700  0.236700  0.897800  1.0  -0.1268
  C  C61  1  0.398200  0.200700  0.954000  1.0  -0.0247
  C  C62  1  0.368500  0.267200  0.038800  1.0  -0.1641
  C  C63  1  0.372300  0.370400  0.067200  1.0  0.0463
  C  C64  1  0.406200  0.407300  0.010200  1.0  -0.049
  C  C65  1  0.438200  0.341900  0.927000  1.0  -0.0434
  C  C66  1  0.344300  0.438100  0.160200  1.0  0.1723
  C  C67  1  0.414800  0.843800  0.503400  1.0  0.7261
  C  C68  1  0.357100  0.743400  0.439400  1.0  -0.1103
  C  C69  1  0.372600  0.687900  0.345800  1.0  -0.0832
  C  C70  1  0.322200  0.591700  0.287800  1.0  0.2172
  C  C71  1  0.252800  0.555100  0.322600  1.0  -0.0658
  C  C72  1  0.237100  0.611400  0.416200  1.0  -0.1534
  C  C73  1  0.290400  0.704900  0.475000  1.0  0.0298
  C  C74  1  0.162700  0.571300  0.455000  1.0  0.7861
  C  C75  1  0.972400  0.644300  0.810600  1.0  0.7169
  C  C76  1  0.933700  0.661100  0.897800  1.0  -0.1251
  C  C77  1  0.898200  0.753300  0.954000  1.0  -0.0228
  C  C78  1  0.868500  0.771600  0.038800  1.0  -0.1667
  C  C79  1  0.872300  0.696800  0.067200  1.0  0.0477
  C  C80  1  0.906200  0.602900  0.010200  1.0  -0.047
  C  C81  1  0.938200  0.585100  0.927000  1.0  -0.0441
  C  C82  1  0.844300  0.722100  0.160200  1.0  0.1714
  C  C83  1  0.914800  0.659600  0.503400  1.0  0.7278
  C  C84  1  0.857100  0.696000  0.439400  1.0  -0.1115
  C  C85  1  0.872600  0.657900  0.345800  1.0  -0.0841
  C  C86  1  0.822200  0.696100  0.287800  1.0  0.2152
  C  C87  1  0.752800  0.767500  0.322600  1.0  -0.066
  C  C88  1  0.737100  0.804800  0.416200  1.0  -0.1513
  C  C89  1  0.790400  0.770100  0.475000  1.0  0.029
  C  C90  1  0.662700  0.883700  0.455000  1.0  0.7828
  C  C91  1  0.527600  0.833700  0.189400  1.0  0.717
  C  C92  1  0.566300  0.763300  0.102200  1.0  -0.127
  C  C93  1  0.601800  0.799300  0.046000  1.0  -0.0244
  C  C94  1  0.631500  0.732800  0.961200  1.0  -0.1635
  C  C95  1  0.627700  0.629600  0.932800  1.0  0.0435
  C  C96  1  0.593800  0.592700  0.989800  1.0  -0.0485
  C  C97  1  0.561800  0.658100  0.073000  1.0  -0.042
  C  C98  1  0.655700  0.561900  0.839800  1.0  0.1714
  C  C99  1  0.585200  0.156200  0.496600  1.0  0.7275
  C  C100  1  0.642900  0.256600  0.560600  1.0  -0.1109
  C  C101  1  0.627400  0.312100  0.654200  1.0  -0.086
  C  C102  1  0.677800  0.408300  0.712200  1.0  0.2177
  C  C103  1  0.747200  0.444900  0.677400  1.0  -0.0675
  C  C104  1  0.762900  0.388600  0.583800  1.0  -0.1532
  C  C105  1  0.709600  0.295100  0.525000  1.0  0.0314
  C  C106  1  0.837300  0.428700  0.545000  1.0  0.7874
  C  C107  1  0.763700  0.409200  0.047600  1.0  0.03
  C  C108  1  0.736300  0.361600  0.952400  1.0  0.0327
  C  C109  1  0.750000  0.241000  0.000000  1.0  0.33
  C  C110  1  0.236300  0.590800  0.952400  1.0  0.0298
  C  C111  1  0.263700  0.638400  0.047600  1.0  0.0341
  C  C112  1  0.250000  0.759000  0.000000  1.0  0.3285
  N  N113  1  0.153800  0.341000  0.805800  1.0  -0.4243
  N  N114  1  0.346200  0.535200  0.194200  1.0  -0.4283
  N  N115  1  0.846200  0.659000  0.194200  1.0  -0.4247
  N  N116  1  0.653800  0.464800  0.805800  1.0  -0.427
  N  N117  1  0.782800  0.335700  0.074400  1.0  -0.2365
  N  N118  1  0.717200  0.261300  0.925600  1.0  -0.2388
  N  N119  1  0.217200  0.664300  0.925600  1.0  -0.2346
  N  N120  1  0.282800  0.738700  0.074400  1.0  -0.2397
  Cl  Cl121  1  0.865500  0.203600  0.237200  1.0  -0.4577
  Cl  Cl122  1  0.634500  0.966400  0.762800  1.0  -0.4586
  Cl  Cl123  1  0.134500  0.796400  0.762800  1.0  -0.4566
  Cl  Cl124  1  0.365500  0.033600  0.237200  1.0  -0.4589
  O  O125  1  0.053500  0.298500  0.225600  1.0  -0.6497
  O  O126  1  0.970100  0.426000  0.225200  1.0  -0.6536
  O  O127  1  0.067300  0.283090  0.409980  1.0  -0.6255
  O  O128  1  0.054500  0.428640  0.533080  1.0  -0.8134
  O  O129  1  0.381300  0.088800  0.601800  1.0  -0.6743
  O  O130  1  0.351100  0.088170  0.462340  1.0  -0.6946
  O  O131  1  0.785200  0.425300  0.303200  1.0  -0.2501
  O  O132  1  0.446500  0.072900  0.774400  1.0  -0.6397
  O  O133  1  0.529900  0.200800  0.774800  1.0  -0.6555
  O  O134  1  0.432700  0.873110  0.590020  1.0  -0.624
  O  O135  1  0.445500  0.895560  0.466920  1.0  -0.8138
  O  O136  1  0.118700  0.487000  0.398200  1.0  -0.6742
  O  O137  1  0.148900  0.625830  0.537660  1.0  -0.6936
  O  O138  1  0.714800  0.122100  0.696800  1.0  -0.2493
  O  O139  1  0.946500  0.701500  0.774400  1.0  -0.65
  O  O140  1  0.029900  0.574000  0.774800  1.0  -0.6537
  O  O141  1  0.932700  0.716910  0.590020  1.0  -0.6266
  O  O142  1  0.945500  0.571360  0.466920  1.0  -0.8141
  O  O143  1  0.618700  0.911200  0.398200  1.0  -0.6737
  O  O144  1  0.648900  0.911830  0.537660  1.0  -0.6934
  O  O145  1  0.214800  0.574700  0.696800  1.0  -0.2496
  O  O146  1  0.553500  0.927100  0.225600  1.0  -0.6394
  O  O147  1  0.470100  0.799200  0.225200  1.0  -0.6551
  O  O148  1  0.567300  0.126890  0.409980  1.0  -0.623
  O  O149  1  0.554500  0.104440  0.533080  1.0  -0.8131
  O  O150  1  0.881300  0.513000  0.601800  1.0  -0.6747
  O  O151  1  0.851100  0.374170  0.462340  1.0  -0.6928
  O  O152  1  0.285200  0.877900  0.303200  1.0  -0.2491
