# generated using pymatgen
data_NdH8C16NO6
_symmetry_space_group_name_H-M   'P 1'
_cell_length_a   12.62840000
_cell_length_b   14.82650000
_cell_length_c   16.13420000
_cell_angle_alpha   117.35300000
_cell_angle_beta   101.84100000
_cell_angle_gamma   90.00000000
_symmetry_Int_Tables_number   1
_chemical_formula_structural   NdH8C16NO6
_chemical_formula_sum   'Nd4 H32 C64 N4 O24'
_cell_volume   2610.54322849
_cell_formula_units_Z   4
loop_
 _symmetry_equiv_pos_site_id
 _symmetry_equiv_pos_as_xyz
  1  'x, y, z'
loop_
 _atom_site_type_symbol
 _atom_site_label
 _atom_site_symmetry_multiplicity
 _atom_site_fract_x
 _atom_site_fract_y
 _atom_site_fract_z
 _atom_site_occupancy
 _atom_site_charge
  Nd  Nd1  1  0.442820  0.964870  0.359800  1.0  2.2486
  Nd  Nd2  1  0.057180  0.605060  0.640180  1.0  2.2492
  Nd  Nd3  1  0.557180  0.035130  0.640200  1.0  2.2484
  Nd  Nd4  1  0.942820  0.394930  0.359810  1.0  2.2469
  H  H5  1  0.577300  0.876400  0.062400  1.0  0.1095
  H  H6  1  0.624900  0.770000  0.920600  1.0  0.1071
  H  H7  1  0.598500  0.533700  0.975400  1.0  0.106
  H  H8  1  0.545200  0.640800  0.115600  1.0  0.1028
  H  H9  1  0.575100  0.299200  0.683200  1.0  0.1267
  H  H10  1  0.770100  0.531500  0.714200  1.0  0.101
  H  H11  1  0.688600  0.279000  0.460200  1.0  0.109
  H  H12  1  0.639000  0.605000  0.802000  1.0  0.0696
  H  H13  1  0.922700  0.814000  0.937600  1.0  0.1096
  H  H14  1  0.875100  0.849400  0.079400  1.0  0.107
  H  H15  1  0.901500  0.558300  0.024600  1.0  0.1065
  H  H16  1  0.954800  0.525200  0.884400  1.0  0.1026
  H  H17  1  0.924900  0.616000  0.316800  1.0  0.127
  H  H18  1  0.729900  0.817300  0.285800  1.0  0.1009
  H  H19  1  0.811400  0.818800  0.539800  1.0  0.1091
  H  H20  1  0.861000  0.803000  0.198000  1.0  0.0655
  H  H21  1  0.422700  0.123600  0.937600  1.0  0.1096
  H  H22  1  0.375100  0.230000  0.079400  1.0  0.1071
  H  H23  1  0.401500  0.466300  0.024600  1.0  0.1061
  H  H24  1  0.454800  0.359200  0.884400  1.0  0.1023
  H  H25  1  0.424900  0.700800  0.316800  1.0  0.126
  H  H26  1  0.229900  0.468500  0.285800  1.0  0.1013
  H  H27  1  0.311400  0.721000  0.539800  1.0  0.1094
  H  H28  1  0.361000  0.395000  0.198000  1.0  0.0684
  H  H29  1  0.077300  0.186000  0.062400  1.0  0.1097
  H  H30  1  0.124900  0.150600  0.920600  1.0  0.1074
  H  H31  1  0.098500  0.441700  0.975400  1.0  0.1065
  H  H32  1  0.045200  0.474800  0.115600  1.0  0.1016
  H  H33  1  0.075100  0.384000  0.683200  1.0  0.1267
  H  H34  1  0.270100  0.182700  0.714200  1.0  0.101
  H  H35  1  0.188600  0.181200  0.460200  1.0  0.1087
  H  H36  1  0.139000  0.197000  0.802000  1.0  0.063
  C  C37  1  0.510600  0.834900  0.188800  1.0  0.6879
  C  C38  1  0.552500  0.768000  0.101000  1.0  -0.1256
  C  C39  1  0.579200  0.807100  0.043800  1.0  -0.0533
  C  C40  1  0.608900  0.743600  0.959400  1.0  -0.1329
  C  C41  1  0.614800  0.640700  0.932200  1.0  -0.0145
  C  C42  1  0.592400  0.602100  0.991800  1.0  -0.0647
  C  C43  1  0.560700  0.666400  0.076000  1.0  -0.0484
  C  C44  1  0.641100  0.574900  0.839400  1.0  0.2083
  C  C45  1  0.564400  0.166000  0.498400  1.0  0.7686
  C  C46  1  0.624500  0.272100  0.561800  1.0  -0.1527
  C  C47  1  0.616000  0.327800  0.657600  1.0  -0.1073
  C  C48  1  0.669400  0.426400  0.713800  1.0  0.21
  C  C49  1  0.733000  0.466500  0.676000  1.0  -0.1102
  C  C50  1  0.742600  0.411400  0.581600  1.0  -0.1571
  C  C51  1  0.685600  0.315000  0.524400  1.0  0.0117
  C  C52  1  0.811600  0.455700  0.541600  1.0  0.7906
  C  C53  1  0.989400  0.646100  0.811200  1.0  0.6912
  C  C54  1  0.947500  0.667000  0.899000  1.0  -0.124
  C  C55  1  0.920800  0.763300  0.956200  1.0  -0.0535
  C  C56  1  0.891100  0.784200  0.040600  1.0  -0.1313
  C  C57  1  0.885200  0.708500  0.067800  1.0  -0.0138
  C  C58  1  0.907600  0.610300  0.008200  1.0  -0.0637
  C  C59  1  0.939300  0.590400  0.924000  1.0  -0.0501
  C  C60  1  0.858900  0.735500  0.160600  1.0  0.2074
  C  C61  1  0.935600  0.667600  0.501600  1.0  0.768
  C  C62  1  0.875500  0.710300  0.438200  1.0  -0.1517
  C  C63  1  0.884000  0.670200  0.342400  1.0  -0.1066
  C  C64  1  0.830600  0.712600  0.286200  1.0  0.2088
  C  C65  1  0.767000  0.790500  0.324000  1.0  -0.11
  C  C66  1  0.757400  0.829800  0.418400  1.0  -0.1543
  C  C67  1  0.814400  0.790600  0.475600  1.0  0.0104
  C  C68  1  0.688400  0.914100  0.458400  1.0  0.7885
  C  C69  1  0.489400  0.165100  0.811200  1.0  0.6892
  C  C70  1  0.447500  0.232000  0.899000  1.0  -0.1248
  C  C71  1  0.420800  0.192900  0.956200  1.0  -0.0517
  C  C72  1  0.391100  0.256400  0.040600  1.0  -0.1332
  C  C73  1  0.385200  0.359300  0.067800  1.0  -0.0134
  C  C74  1  0.407600  0.397900  0.008200  1.0  -0.0663
  C  C75  1  0.439300  0.333600  0.924000  1.0  -0.0494
  C  C76  1  0.358900  0.425100  0.160600  1.0  0.2123
  C  C77  1  0.435600  0.834000  0.501600  1.0  0.7676
  C  C78  1  0.375500  0.727900  0.438200  1.0  -0.1521
  C  C79  1  0.384000  0.672200  0.342400  1.0  -0.1071
  C  C80  1  0.330600  0.573600  0.286200  1.0  0.2104
  C  C81  1  0.267000  0.533500  0.324000  1.0  -0.1116
  C  C82  1  0.257400  0.588600  0.418400  1.0  -0.156
  C  C83  1  0.314400  0.685000  0.475600  1.0  0.0109
  C  C84  1  0.188400  0.544300  0.458400  1.0  0.7923
  C  C85  1  0.010600  0.353900  0.188800  1.0  0.6885
  C  C86  1  0.052500  0.333000  0.101000  1.0  -0.1242
  C  C87  1  0.079200  0.236700  0.043800  1.0  -0.0551
  C  C88  1  0.108900  0.215800  0.959400  1.0  -0.1342
  C  C89  1  0.114800  0.291500  0.932200  1.0  -0.0144
  C  C90  1  0.092400  0.389700  0.991800  1.0  -0.062
  C  C91  1  0.060700  0.409600  0.076000  1.0  -0.0494
  C  C92  1  0.141100  0.264500  0.839400  1.0  0.2073
  C  C93  1  0.064400  0.332400  0.498400  1.0  0.7681
  C  C94  1  0.124500  0.289700  0.561800  1.0  -0.1526
  C  C95  1  0.116000  0.329800  0.657600  1.0  -0.1067
  C  C96  1  0.169400  0.287400  0.713800  1.0  0.2077
  C  C97  1  0.233000  0.209500  0.676000  1.0  -0.1091
  C  C98  1  0.242600  0.170200  0.581600  1.0  -0.1552
  C  C99  1  0.185600  0.209400  0.524400  1.0  0.0108
  C  C100  1  0.311600  0.085900  0.541600  1.0  0.7875
  N  N101  1  0.652300  0.480660  0.808320  1.0  -0.383
  N  N102  1  0.847700  0.672340  0.191680  1.0  -0.3834
  N  N103  1  0.347700  0.519340  0.191680  1.0  -0.3823
  N  N104  1  0.152300  0.327660  0.808320  1.0  -0.3822
  O  O105  1  0.472200  0.795120  0.231240  1.0  -0.7044
  O  O106  1  0.515000  0.929300  0.214600  1.0  -0.7091
  O  O107  1  0.541400  0.132240  0.409080  1.0  -0.6557
  O  O108  1  0.538700  0.114910  0.537420  1.0  -0.8419
  O  O109  1  0.812500  0.403590  0.452980  1.0  -0.8055
  O  O110  1  0.866100  0.540490  0.597380  1.0  -0.6873
  O  O111  1  0.027800  0.563880  0.768760  1.0  -0.7047
  O  O112  1  0.985000  0.714700  0.785400  1.0  -0.7136
  O  O113  1  0.958600  0.723160  0.590920  1.0  -0.6551
  O  O114  1  0.961300  0.577490  0.462580  1.0  -0.8425
  O  O115  1  0.687500  0.950610  0.547020  1.0  -0.8068
  O  O116  1  0.633900  0.943110  0.402620  1.0  -0.6854
  O  O117  1  0.527800  0.204880  0.768760  1.0  -0.7055
  O  O118  1  0.485000  0.070700  0.785400  1.0  -0.7099
  O  O119  1  0.458600  0.867760  0.590920  1.0  -0.6548
  O  O120  1  0.461300  0.885090  0.462580  1.0  -0.8425
  O  O121  1  0.187500  0.596410  0.547020  1.0  -0.806
  O  O122  1  0.133900  0.459510  0.402620  1.0  -0.6865
  O  O123  1  0.972200  0.436120  0.231240  1.0  -0.7055
  O  O124  1  0.015000  0.285300  0.214600  1.0  -0.7137
  O  O125  1  0.041400  0.276840  0.409080  1.0  -0.6538
  O  O126  1  0.038700  0.422510  0.537420  1.0  -0.8459
  O  O127  1  0.312500  0.049390  0.452980  1.0  -0.8054
  O  O128  1  0.366100  0.056890  0.597380  1.0  -0.6851
