# generated using pymatgen
data_NdH8C16NO6
_symmetry_space_group_name_H-M   'P 1'
_cell_length_a   13.24740000
_cell_length_b   14.37690000
_cell_length_c   16.10880000
_cell_angle_alpha   116.50300000
_cell_angle_beta   99.49480000
_cell_angle_gamma   90.00000000
_symmetry_Int_Tables_number   1
_chemical_formula_structural   NdH8C16NO6
_chemical_formula_sum   'Nd4 H32 C64 N4 O24'
_cell_volume   2698.56339657
_cell_formula_units_Z   4
loop_
 _symmetry_equiv_pos_site_id
 _symmetry_equiv_pos_as_xyz
  1  'x, y, z'
loop_
 _atom_site_type_symbol
 _atom_site_label
 _atom_site_symmetry_multiplicity
 _atom_site_fract_x
 _atom_site_fract_y
 _atom_site_fract_z
 _atom_site_occupancy
 _atom_site_charge
  Nd  Nd1  1  0.453320  0.468710  0.362880  1.0  2.2481
  Nd  Nd2  1  0.046680  0.105830  0.637120  1.0  2.2506
  Nd  Nd3  1  0.546680  0.531290  0.637120  1.0  2.2487
  Nd  Nd4  1  0.953320  0.894170  0.362880  1.0  2.2493
  H  H5  1  0.585900  0.383300  0.066000  1.0  0.1066
  H  H6  1  0.633800  0.278200  0.924600  1.0  0.1095
  H  H7  1  0.606400  0.031600  0.975400  1.0  0.1057
  H  H8  1  0.551900  0.135200  0.113600  1.0  0.1028
  H  H9  1  0.659000  0.118000  0.812000  1.0  0.0608
  H  H10  1  0.575000  0.800000  0.681600  1.0  0.1198
  H  H11  1  0.774800  0.028000  0.713600  1.0  0.1043
  H  H12  1  0.695200  0.780800  0.462000  1.0  0.1092
  H  H13  1  0.914100  0.317300  0.934000  1.0  0.1069
  H  H14  1  0.866200  0.353600  0.075400  1.0  0.1099
  H  H15  1  0.893600  0.056200  0.024600  1.0  0.1059
  H  H16  1  0.948100  0.021600  0.886400  1.0  0.1023
  H  H17  1  0.841000  0.306000  0.188000  1.0  0.0547
  H  H18  1  0.925000  0.118400  0.318400  1.0  0.1203
  H  H19  1  0.725200  0.314400  0.286400  1.0  0.1046
  H  H20  1  0.804800  0.318800  0.538000  1.0  0.11
  H  H21  1  0.414100  0.616700  0.934000  1.0  0.1069
  H  H22  1  0.366200  0.721800  0.075400  1.0  0.1092
  H  H23  1  0.393600  0.968400  0.024600  1.0  0.1058
  H  H24  1  0.448100  0.864800  0.886400  1.0  0.1022
  H  H25  1  0.341000  0.882000  0.188000  1.0  0.0606
  H  H26  1  0.425000  0.200000  0.318400  1.0  0.1199
  H  H27  1  0.225200  0.972000  0.286400  1.0  0.1049
  H  H28  1  0.304800  0.219200  0.538000  1.0  0.1101
  H  H29  1  0.085900  0.682700  0.066000  1.0  0.1066
  H  H30  1  0.133800  0.646400  0.924600  1.0  0.1099
  H  H31  1  0.106400  0.943800  0.975400  1.0  0.1059
  H  H32  1  0.051900  0.978400  0.113600  1.0  0.102
  H  H33  1  0.159000  0.694000  0.812000  1.0  0.0521
  H  H34  1  0.075000  0.881600  0.681600  1.0  0.1197
  H  H35  1  0.274800  0.685600  0.713600  1.0  0.1039
  H  H36  1  0.195200  0.681200  0.462000  1.0  0.1096
  C  C37  1  0.520700  0.336800  0.191800  1.0  0.687
  C  C38  1  0.561100  0.270200  0.104200  1.0  -0.1363
  C  C39  1  0.588000  0.312100  0.047000  1.0  -0.0391
  C  C40  1  0.617600  0.249400  0.962800  1.0  -0.1324
  C  C41  1  0.623600  0.143900  0.934200  1.0  -0.0103
  C  C42  1  0.600300  0.102100  0.992800  1.0  -0.0802
  C  C43  1  0.568600  0.164200  0.075800  1.0  -0.0344
  C  C44  1  0.648900  0.079100  0.841800  1.0  0.2086
  C  C45  1  0.566500  0.670100  0.500400  1.0  0.7693
  C  C46  1  0.625200  0.774300  0.561800  1.0  -0.1561
  C  C47  1  0.615900  0.829000  0.656000  1.0  -0.1084
  C  C48  1  0.668000  0.927400  0.712200  1.0  0.2256
  C  C49  1  0.735800  0.965100  0.675400  1.0  -0.1069
  C  C50  1  0.746200  0.909700  0.581800  1.0  -0.1466
  C  C51  1  0.690000  0.816400  0.525400  1.0  0.0058
  C  C52  1  0.820100  0.953400  0.542400  1.0  0.8088
  C  C53  1  0.979300  0.145000  0.808200  1.0  0.6867
  C  C54  1  0.938900  0.166000  0.895800  1.0  -0.135
  C  C55  1  0.912000  0.265100  0.953000  1.0  -0.0403
  C  C56  1  0.882400  0.286600  0.037200  1.0  -0.1344
  C  C57  1  0.876400  0.209700  0.065800  1.0  -0.0098
  C  C58  1  0.899700  0.109300  0.007200  1.0  -0.079
  C  C59  1  0.931400  0.088400  0.924200  1.0  -0.0383
  C  C60  1  0.851100  0.237300  0.158200  1.0  0.2078
  C  C61  1  0.933500  0.169700  0.499600  1.0  0.7698
  C  C62  1  0.874800  0.212500  0.438200  1.0  -0.1589
  C  C63  1  0.884100  0.173000  0.344000  1.0  -0.1076
  C  C64  1  0.832000  0.215200  0.287800  1.0  0.2249
  C  C65  1  0.764200  0.289700  0.324600  1.0  -0.1052
  C  C66  1  0.753800  0.327900  0.418200  1.0  -0.1454
  C  C67  1  0.810000  0.291000  0.474600  1.0  0.006
  C  C68  1  0.679900  0.411000  0.457600  1.0  0.8079
  C  C69  1  0.479300  0.663200  0.808200  1.0  0.6828
  C  C70  1  0.438900  0.729800  0.895800  1.0  -0.1359
  C  C71  1  0.412000  0.687900  0.953000  1.0  -0.036
  C  C72  1  0.382400  0.750600  0.037200  1.0  -0.1324
  C  C73  1  0.376400  0.856100  0.065800  1.0  -0.0091
  C  C74  1  0.399700  0.897900  0.007200  1.0  -0.0805
  C  C75  1  0.431400  0.835800  0.924200  1.0  -0.0365
  C  C76  1  0.351100  0.920900  0.158200  1.0  0.211
  C  C77  1  0.433500  0.329900  0.499600  1.0  0.7699
  C  C78  1  0.374800  0.225700  0.438200  1.0  -0.1549
  C  C79  1  0.384100  0.171000  0.344000  1.0  -0.108
  C  C80  1  0.332000  0.072600  0.287800  1.0  0.2265
  C  C81  1  0.264200  0.034900  0.324600  1.0  -0.1059
  C  C82  1  0.253800  0.090300  0.418200  1.0  -0.1464
  C  C83  1  0.310000  0.183600  0.474600  1.0  0.0058
  C  C84  1  0.179900  0.046600  0.457600  1.0  0.8078
  C  C85  1  0.020700  0.855000  0.191800  1.0  0.6839
  C  C86  1  0.061100  0.834000  0.104200  1.0  -0.1352
  C  C87  1  0.088000  0.734900  0.047000  1.0  -0.0415
  C  C88  1  0.117600  0.713400  0.962800  1.0  -0.1364
  C  C89  1  0.123600  0.790300  0.934200  1.0  -0.0103
  C  C90  1  0.100300  0.890700  0.992800  1.0  -0.0779
  C  C91  1  0.068600  0.911600  0.075800  1.0  -0.0392
  C  C92  1  0.148900  0.762700  0.841800  1.0  0.2078
  C  C93  1  0.066500  0.830300  0.500400  1.0  0.7706
  C  C94  1  0.125200  0.787500  0.561800  1.0  -0.1577
  C  C95  1  0.115900  0.827000  0.656000  1.0  -0.1074
  C  C96  1  0.168000  0.784800  0.712200  1.0  0.224
  C  C97  1  0.235800  0.710300  0.675400  1.0  -0.106
  C  C98  1  0.246200  0.672100  0.581800  1.0  -0.1459
  C  C99  1  0.190000  0.709000  0.525400  1.0  0.0061
  C  C100  1  0.320100  0.589000  0.542400  1.0  0.8058
  N  N101  1  0.650000  0.980960  0.805920  1.0  -0.382
  N  N102  1  0.850000  0.175040  0.194080  1.0  -0.38
  N  N103  1  0.350000  0.019040  0.194080  1.0  -0.3814
  N  N104  1  0.150000  0.824960  0.805920  1.0  -0.3792
  O  O105  1  0.488600  0.295940  0.237280  1.0  -0.6966
  O  O106  1  0.521300  0.434150  0.217100  1.0  -0.7192
  O  O107  1  0.545700  0.639680  0.411760  1.0  -0.6722
  O  O108  1  0.538100  0.615860  0.536720  1.0  -0.8466
  O  O109  1  0.868600  0.039380  0.597160  1.0  -0.6974
  O  O110  1  0.826900  0.898950  0.457500  1.0  -0.7967
  O  O111  1  0.011400  0.058660  0.762720  1.0  -0.6981
  O  O112  1  0.978700  0.217050  0.782900  1.0  -0.7236
  O  O113  1  0.954300  0.227920  0.588240  1.0  -0.6769
  O  O114  1  0.961900  0.079140  0.463280  1.0  -0.8466
  O  O115  1  0.631400  0.442220  0.402840  1.0  -0.6964
  O  O116  1  0.673100  0.441450  0.542500  1.0  -0.7982
  O  O117  1  0.511400  0.704060  0.762720  1.0  -0.6986
  O  O118  1  0.478700  0.565850  0.782900  1.0  -0.7189
  O  O119  1  0.454300  0.360320  0.588240  1.0  -0.6729
  O  O120  1  0.461900  0.384140  0.463280  1.0  -0.848
  O  O121  1  0.131400  0.960620  0.402840  1.0  -0.6972
  O  O122  1  0.173100  0.101050  0.542500  1.0  -0.7974
  O  O123  1  0.988600  0.941340  0.237280  1.0  -0.6993
  O  O124  1  0.021300  0.782950  0.217100  1.0  -0.7224
  O  O125  1  0.045700  0.772080  0.411760  1.0  -0.6737
  O  O126  1  0.038100  0.920860  0.536720  1.0  -0.8471
  O  O127  1  0.368600  0.557780  0.597160  1.0  -0.6975
  O  O128  1  0.326900  0.558550  0.457500  1.0  -0.7971
