# generated using pymatgen
data_NdH8C16NO6
_symmetry_space_group_name_H-M   'P 1'
_cell_length_a   12.30020000
_cell_length_b   14.52320000
_cell_length_c   15.98600000
_cell_angle_alpha   117.01700000
_cell_angle_beta   104.89000000
_cell_angle_gamma   90.00000000
_symmetry_Int_Tables_number   1
_chemical_formula_structural   NdH8C16NO6
_chemical_formula_sum   'Nd4 H32 C64 N4 O24'
_cell_volume   2435.94345303
_cell_formula_units_Z   4
loop_
 _symmetry_equiv_pos_site_id
 _symmetry_equiv_pos_as_xyz
  1  'x, y, z'
loop_
 _atom_site_type_symbol
 _atom_site_label
 _atom_site_symmetry_multiplicity
 _atom_site_fract_x
 _atom_site_fract_y
 _atom_site_fract_z
 _atom_site_occupancy
 _atom_site_charge
  Nd  Nd1  1  0.929600  0.895560  0.355920  1.0  2.2449
  Nd  Nd2  1  0.570400  0.539640  0.644080  1.0  2.2458
  Nd  Nd3  1  0.070400  0.104440  0.644080  1.0  2.2456
  Nd  Nd4  1  0.429600  0.460360  0.355920  1.0  2.2455
  H  H5  1  0.037700  0.963700  0.109600  1.0  0.1019
  H  H6  1  0.096400  0.929600  0.971600  1.0  0.1122
  H  H7  1  0.120500  0.633300  0.922600  1.0  0.1198
  H  H8  1  0.062800  0.670600  0.060800  1.0  0.1076
  H  H9  1  0.071100  0.876900  0.682600  1.0  0.1231
  H  H10  1  0.268300  0.668000  0.715400  1.0  0.1081
  H  H11  1  0.172000  0.668700  0.456200  1.0  0.1089
  H  H12  1  0.112000  0.676000  0.796000  1.0  0.0784
  H  H13  1  0.462300  0.854100  0.890400  1.0  0.1022
  H  H14  1  0.403600  0.958000  0.028400  1.0  0.1122
  H  H15  1  0.379500  0.710700  0.077400  1.0  0.1193
  H  H16  1  0.437200  0.609800  0.939200  1.0  0.1071
  H  H17  1  0.428900  0.194300  0.317400  1.0  0.1244
  H  H18  1  0.231700  0.952600  0.284600  1.0  0.1091
  H  H19  1  0.328000  0.212500  0.543800  1.0  0.1089
  H  H20  1  0.388000  0.880000  0.204000  1.0  0.0816
  H  H21  1  0.962300  0.036300  0.890400  1.0  0.1021
  H  H22  1  0.903600  0.070400  0.028400  1.0  0.1121
  H  H23  1  0.879500  0.366700  0.077400  1.0  0.1189
  H  H24  1  0.937200  0.329400  0.939200  1.0  0.1075
  H  H25  1  0.928900  0.123100  0.317400  1.0  0.1237
  H  H26  1  0.731700  0.332000  0.284600  1.0  0.1085
  H  H27  1  0.828000  0.331300  0.543800  1.0  0.1087
  H  H28  1  0.888000  0.324000  0.204000  1.0  0.0786
  H  H29  1  0.537700  0.145900  0.109600  1.0  0.1025
  H  H30  1  0.596400  0.042000  0.971600  1.0  0.1119
  H  H31  1  0.620500  0.289300  0.922600  1.0  0.1194
  H  H32  1  0.562800  0.390200  0.060800  1.0  0.1074
  H  H33  1  0.571100  0.805700  0.682600  1.0  0.1244
  H  H34  1  0.768300  0.047400  0.715400  1.0  0.1088
  H  H35  1  0.672000  0.787500  0.456200  1.0  0.1086
  H  H36  1  0.612000  0.120000  0.796000  1.0  0.0822
  C  C37  1  0.001600  0.844800  0.184400  1.0  0.6701
  C  C38  1  0.045400  0.819600  0.098400  1.0  -0.1388
  C  C39  1  0.054300  0.897600  0.071800  1.0  -0.035
  C  C40  1  0.088200  0.877000  0.988400  1.0  -0.085
  C  C41  1  0.109100  0.777500  0.931600  1.0  -0.0025
  C  C42  1  0.102700  0.699300  0.959400  1.0  -0.1387
  C  C43  1  0.069100  0.722300  0.042600  1.0  -0.0351
  C  C44  1  0.135700  0.747200  0.838000  1.0  0.1814
  C  C45  1  0.050400  0.824600  0.496200  1.0  0.7544
  C  C46  1  0.112300  0.779800  0.559200  1.0  -0.1455
  C  C47  1  0.109100  0.820000  0.656000  1.0  -0.1111
  C  C48  1  0.163200  0.774200  0.712400  1.0  0.2074
  C  C49  1  0.228200  0.695100  0.675800  1.0  -0.0889
  C  C50  1  0.233100  0.656300  0.579400  1.0  -0.1496
  C  C51  1  0.172500  0.697100  0.521400  1.0  0.0154
  C  C52  1  0.305600  0.572100  0.539400  1.0  0.7801
  C  C53  1  0.498400  0.660400  0.815600  1.0  0.6709
  C  C54  1  0.454600  0.721200  0.901600  1.0  -0.1444
  C  C55  1  0.445700  0.825800  0.928200  1.0  -0.0337
  C  C56  1  0.411800  0.888600  0.011600  1.0  -0.088
  C  C57  1  0.390900  0.845900  0.068400  1.0  -0.0007
  C  C58  1  0.397300  0.739900  0.040600  1.0  -0.1338
  C  C59  1  0.430900  0.679700  0.957400  1.0  -0.0326
  C  C60  1  0.364300  0.909200  0.162000  1.0  0.1907
  C  C61  1  0.449600  0.328400  0.503800  1.0  0.7539
  C  C62  1  0.387700  0.220600  0.440800  1.0  -0.1452
  C  C63  1  0.390900  0.164000  0.344000  1.0  -0.1101
  C  C64  1  0.336800  0.061800  0.287600  1.0  0.2105
  C  C65  1  0.271800  0.019300  0.324200  1.0  -0.0919
  C  C66  1  0.266900  0.076900  0.420600  1.0  -0.1516
  C  C67  1  0.327500  0.175700  0.478600  1.0  0.0146
  C  C68  1  0.194400  0.032700  0.460600  1.0  0.7798
  C  C69  1  0.998400  0.155200  0.815600  1.0  0.6728
  C  C70  1  0.954600  0.180400  0.901600  1.0  -0.1436
  C  C71  1  0.945700  0.102400  0.928200  1.0  -0.035
  C  C72  1  0.911800  0.123000  0.011600  1.0  -0.0881
  C  C73  1  0.890900  0.222500  0.068400  1.0  -0.0025
  C  C74  1  0.897300  0.300700  0.040600  1.0  -0.1389
  C  C75  1  0.930900  0.277700  0.957400  1.0  -0.0368
  C  C76  1  0.864300  0.252800  0.162000  1.0  0.1826
  C  C77  1  0.949600  0.175400  0.503800  1.0  0.7547
  C  C78  1  0.887700  0.220200  0.440800  1.0  -0.145
  C  C79  1  0.890900  0.180000  0.344000  1.0  -0.1102
  C  C80  1  0.836800  0.225800  0.287600  1.0  0.208
  C  C81  1  0.771800  0.304900  0.324200  1.0  -0.0891
  C  C82  1  0.766900  0.343700  0.420600  1.0  -0.1486
  C  C83  1  0.827500  0.302900  0.478600  1.0  0.0142
  C  C84  1  0.694400  0.427900  0.460600  1.0  0.7819
  C  C85  1  0.501600  0.339600  0.184400  1.0  0.6695
  C  C86  1  0.545400  0.278800  0.098400  1.0  -0.1427
  C  C87  1  0.554300  0.174200  0.071800  1.0  -0.0343
  C  C88  1  0.588200  0.111400  0.988400  1.0  -0.0869
  C  C89  1  0.609100  0.154100  0.931600  1.0  -0.0013
  C  C90  1  0.602700  0.260100  0.959400  1.0  -0.1373
  C  C91  1  0.569100  0.320300  0.042600  1.0  -0.0338
  C  C92  1  0.635700  0.090800  0.838000  1.0  0.1859
  C  C93  1  0.550400  0.671600  0.496200  1.0  0.7542
  C  C94  1  0.612300  0.779400  0.559200  1.0  -0.1452
  C  C95  1  0.609100  0.836000  0.656000  1.0  -0.1122
  C  C96  1  0.663200  0.938200  0.712400  1.0  0.2093
  C  C97  1  0.728200  0.980700  0.675800  1.0  -0.0906
  C  C98  1  0.733100  0.923100  0.579400  1.0  -0.1519
  C  C99  1  0.672500  0.824300  0.521400  1.0  0.0149
  C  C100  1  0.805600  0.967300  0.539400  1.0  0.781
  N  N101  1  0.149000  0.813300  0.808000  1.0  -0.3812
  N  N102  1  0.351000  0.005300  0.192000  1.0  -0.3806
  N  N103  1  0.851000  0.186700  0.192000  1.0  -0.3796
  N  N104  1  0.649000  0.994700  0.808000  1.0  -0.3807
  O  O105  1  0.996600  0.773700  0.211000  1.0  -0.7092
  O  O106  1  0.966200  0.930400  0.226000  1.0  -0.7101
  O  O107  1  0.017600  0.767100  0.404000  1.0  -0.6629
  O  O108  1  0.030100  0.918200  0.536000  1.0  -0.8454
  O  O109  1  0.297700  0.533900  0.448800  1.0  -0.7959
  O  O110  1  0.367100  0.544800  0.597800  1.0  -0.6841
  O  O111  1  0.503400  0.562700  0.789000  1.0  -0.7074
  O  O112  1  0.533800  0.704400  0.774000  1.0  -0.7122
  O  O113  1  0.482400  0.363100  0.596000  1.0  -0.6676
  O  O114  1  0.469900  0.382200  0.464000  1.0  -0.8432
  O  O115  1  0.202300  0.085100  0.551200  1.0  -0.7955
  O  O116  1  0.132900  0.947000  0.402200  1.0  -0.6848
  O  O117  1  0.003400  0.226300  0.789000  1.0  -0.7095
  O  O118  1  0.033800  0.069600  0.774000  1.0  -0.7107
  O  O119  1  0.982400  0.232900  0.596000  1.0  -0.6629
  O  O120  1  0.969900  0.081800  0.464000  1.0  -0.8439
  O  O121  1  0.702300  0.466100  0.551200  1.0  -0.7942
  O  O122  1  0.632900  0.455200  0.402200  1.0  -0.684
  O  O123  1  0.496600  0.437300  0.211000  1.0  -0.7056
  O  O124  1  0.466200  0.295600  0.226000  1.0  -0.7121
  O  O125  1  0.517600  0.636900  0.404000  1.0  -0.6675
  O  O126  1  0.530100  0.617800  0.536000  1.0  -0.8422
  O  O127  1  0.797700  0.914900  0.448800  1.0  -0.7944
  O  O128  1  0.867100  0.053000  0.597800  1.0  -0.6869
