# generated using pymatgen
data_NdH11C19(NO2)3
_symmetry_space_group_name_H-M   'P 1'
_cell_length_a   12.58430000
_cell_length_b   14.11800000
_cell_length_c   16.19520000
_cell_angle_alpha   95.18370000
_cell_angle_beta   112.86200000
_cell_angle_gamma   90.00000000
_symmetry_Int_Tables_number   1
_chemical_formula_structural   NdH11C19(NO2)3
_chemical_formula_sum   'Nd4 H44 C76 N12 O24'
_cell_volume   2638.51380817
_cell_formula_units_Z   4
loop_
 _symmetry_equiv_pos_site_id
 _symmetry_equiv_pos_as_xyz
  1  'x, y, z'
loop_
 _atom_site_type_symbol
 _atom_site_label
 _atom_site_symmetry_multiplicity
 _atom_site_fract_x
 _atom_site_fract_y
 _atom_site_fract_z
 _atom_site_occupancy
 _atom_site_charge
  Nd  Nd1  1  0.487120  0.461270  0.371590  1.0  2.2434
  Nd  Nd2  1  0.115530  0.038730  0.628410  1.0  2.2437
  Nd  Nd3  1  0.512880  0.538730  0.628410  1.0  2.2432
  Nd  Nd4  1  0.884470  0.961270  0.371590  1.0  2.2427
  H  H5  1  0.155500  0.592400  0.123200  1.0  0.1107
  H  H6  1  0.054900  0.636700  0.981600  1.0  0.1129
  H  H7  1  0.333900  0.601900  0.924200  1.0  0.0984
  H  H8  1  0.437400  0.558400  0.066800  1.0  0.1159
  H  H9  1  0.826000  0.559700  0.687600  1.0  0.1179
  H  H10  1  0.055700  0.770700  0.714400  1.0  0.1045
  H  H11  1  0.814600  0.685500  0.470800  1.0  0.1126
  H  H12  1  0.746600  0.331900  0.421200  1.0  0.0791
  H  H13  1  0.648600  0.197700  0.176600  1.0  0.1066
  H  H14  1  0.519800  0.328700  0.174600  1.0  0.0886
  H  H15  1  0.161000  0.645000  0.806000  1.0  0.0784
  H  H16  1  0.032300  0.907600  0.876800  1.0  0.1101
  H  H17  1  0.073300  0.863300  0.018400  1.0  0.1118
  H  H18  1  0.409700  0.898100  0.075800  1.0  0.0982
  H  H19  1  0.370600  0.941600  0.933200  1.0  0.1161
  H  H20  1  0.138400  0.940300  0.312400  1.0  0.1171
  H  H21  1  0.341300  0.729300  0.285600  1.0  0.1057
  H  H22  1  0.343800  0.814500  0.529200  1.0  0.1119
  H  H23  1  0.325400  0.168100  0.578800  1.0  0.0812
  H  H24  1  0.472000  0.302300  0.823400  1.0  0.1065
  H  H25  1  0.345200  0.171300  0.825400  1.0  0.0902
  H  H26  1  0.355000  0.855000  0.194000  1.0  0.077
  H  H27  1  0.844500  0.407600  0.876800  1.0  0.1104
  H  H28  1  0.945100  0.363300  0.018400  1.0  0.1122
  H  H29  1  0.666100  0.398100  0.075800  1.0  0.0987
  H  H30  1  0.562600  0.441600  0.933200  1.0  0.1156
  H  H31  1  0.174000  0.440300  0.312400  1.0  0.117
  H  H32  1  0.944300  0.229300  0.285600  1.0  0.1056
  H  H33  1  0.185400  0.314500  0.529200  1.0  0.1127
  H  H34  1  0.253400  0.668100  0.578800  1.0  0.0793
  H  H35  1  0.351400  0.802300  0.823400  1.0  0.1062
  H  H36  1  0.480200  0.671300  0.825400  1.0  0.0896
  H  H37  1  0.839000  0.355000  0.194000  1.0  0.0781
  H  H38  1  0.967700  0.092400  0.123200  1.0  0.1103
  H  H39  1  0.926700  0.136700  0.981600  1.0  0.1117
  H  H40  1  0.590300  0.101900  0.924200  1.0  0.0978
  H  H41  1  0.629400  0.058400  0.066800  1.0  0.1158
  H  H42  1  0.861600  0.059700  0.687600  1.0  0.118
  H  H43  1  0.658700  0.270700  0.714400  1.0  0.1058
  H  H44  1  0.656200  0.185500  0.470800  1.0  0.1115
  H  H45  1  0.674600  0.831900  0.421200  1.0  0.0804
  H  H46  1  0.528000  0.697700  0.176600  1.0  0.1074
  H  H47  1  0.654800  0.828700  0.174600  1.0  0.0901
  H  H48  1  0.645000  0.145000  0.806000  1.0  0.0768
  C  C49  1  0.368840  0.537400  0.201480  1.0  0.6459
  C  C50  1  0.305650  0.570100  0.109900  1.0  -0.1114
  C  C51  1  0.191900  0.593800  0.083200  1.0  -0.0472
  C  C52  1  0.131300  0.619700  0.998000  1.0  -0.0706
  C  C53  1  0.182500  0.620700  0.936000  1.0  -0.0125
  C  C54  1  0.297400  0.599100  0.964000  1.0  -0.1063
  C  C55  1  0.360250  0.573300  0.049700  1.0  -0.0892
  C  C56  1  0.118700  0.639500  0.842200  1.0  0.1999
  C  C57  1  0.702830  0.551500  0.511260  1.0  0.7202
  C  C58  1  0.805430  0.612900  0.570460  1.0  -0.1316
  C  C59  1  0.856800  0.603200  0.662200  1.0  -0.1126
  C  C60  1  0.955380  0.659600  0.716160  1.0  0.2179
  C  C61  1  0.993780  0.730100  0.677960  1.0  -0.1113
  C  C62  1  0.941920  0.740600  0.587640  1.0  -0.1432
  C  C63  1  0.848190  0.680500  0.532380  1.0  0.0021
  C  C64  1  0.980720  0.817500  0.545640  1.0  0.7554
  C  C65  1  0.705700  0.315000  0.360000  1.0  0.3273
  C  C66  1  0.653000  0.240100  0.225400  1.0  0.0178
  C  C67  1  0.581930  0.312900  0.225060  1.0  0.0821
  C  C68  1  0.167360  0.962600  0.798520  1.0  0.6487
  C  C69  1  0.195750  0.929900  0.890100  1.0  -0.11
  C  C70  1  0.108700  0.906200  0.916800  1.0  -0.047
  C  C71  1  0.133300  0.880300  0.002000  1.0  -0.0671
  C  C72  1  0.246500  0.879300  0.064000  1.0  -0.0096
  C  C73  1  0.333400  0.900900  0.036000  1.0  -0.1024
  C  C74  1  0.310550  0.926700  0.950300  1.0  -0.0886
  C  C75  1  0.276500  0.860500  0.157800  1.0  0.1997
  C  C76  1  0.191570  0.948500  0.488740  1.0  0.7232
  C  C77  1  0.234970  0.887100  0.429540  1.0  -0.131
  C  C78  1  0.194600  0.896800  0.337800  1.0  -0.1126
  C  C79  1  0.239220  0.840400  0.283840  1.0  0.2178
  C  C80  1  0.315820  0.769900  0.322040  1.0  -0.1128
  C  C81  1  0.354280  0.759400  0.412360  1.0  -0.1401
  C  C82  1  0.315810  0.819500  0.467620  1.0  -1e-04
  C  C83  1  0.435080  0.682500  0.454360  1.0  0.7526
  C  C84  1  0.345700  0.185000  0.640000  1.0  0.3264
  C  C85  1  0.427600  0.259900  0.774600  1.0  0.0129
  C  C86  1  0.356870  0.187100  0.774940  1.0  0.0837
  C  C87  1  0.631160  0.462600  0.798520  1.0  0.648
  C  C88  1  0.694350  0.429900  0.890100  1.0  -0.1109
  C  C89  1  0.808100  0.406200  0.916800  1.0  -0.0505
  C  C90  1  0.868700  0.380300  0.002000  1.0  -0.0705
  C  C91  1  0.817500  0.379300  0.064000  1.0  -0.0112
  C  C92  1  0.702600  0.400900  0.036000  1.0  -0.1059
  C  C93  1  0.639750  0.426700  0.950300  1.0  -0.0896
  C  C94  1  0.881300  0.360500  0.157800  1.0  0.2012
  C  C95  1  0.297170  0.448500  0.488740  1.0  0.7209
  C  C96  1  0.194570  0.387100  0.429540  1.0  -0.1316
  C  C97  1  0.143200  0.396800  0.337800  1.0  -0.1121
  C  C98  1  0.044620  0.340400  0.283840  1.0  0.2192
  C  C99  1  0.006220  0.269900  0.322040  1.0  -0.1114
  C  C100  1  0.058080  0.259400  0.412360  1.0  -0.1441
  C  C101  1  0.151810  0.319500  0.467620  1.0  0.0011
  C  C102  1  0.019280  0.182500  0.454360  1.0  0.7564
  C  C103  1  0.294300  0.685000  0.640000  1.0  0.3271
  C  C104  1  0.347000  0.759900  0.774600  1.0  0.0174
  C  C105  1  0.418070  0.687100  0.774940  1.0  0.0813
  C  C106  1  0.832640  0.037400  0.201480  1.0  0.6484
  C  C107  1  0.804250  0.070100  0.109900  1.0  -0.1101
  C  C108  1  0.891300  0.093800  0.083200  1.0  -0.0478
  C  C109  1  0.866700  0.119700  0.998000  1.0  -0.0695
  C  C110  1  0.753500  0.120700  0.936000  1.0  -0.0005
  C  C111  1  0.666667  0.099100  0.964000  1.0  -0.1083
  C  C112  1  0.689450  0.073300  0.049700  1.0  -0.0883
  C  C113  1  0.723500  0.139500  0.842200  1.0  0.1967
  C  C114  1  0.808430  0.051500  0.511260  1.0  0.7217
  C  C115  1  0.765030  0.112900  0.570460  1.0  -0.1309
  C  C116  1  0.805400  0.103200  0.662200  1.0  -0.112
  C  C117  1  0.760780  0.159600  0.716160  1.0  0.2182
  C  C118  1  0.684180  0.230100  0.677960  1.0  -0.1111
  C  C119  1  0.645720  0.240600  0.587640  1.0  -0.1404
  C  C120  1  0.684190  0.180500  0.532380  1.0  0.0014
  C  C121  1  0.564920  0.317500  0.545640  1.0  0.7545
  C  C122  1  0.654300  0.815000  0.360000  1.0  0.3265
  C  C123  1  0.572400  0.740100  0.225400  1.0  0.0133
  C  C124  1  0.643130  0.812900  0.225060  1.0  0.0823
  N  N125  1  0.009300  0.643500  0.807800  1.0  -0.3548
  N  N126  1  0.614480  0.359000  0.308760  1.0  -0.5949
  N  N127  1  0.731750  0.242000  0.311900  1.0  -0.2848
  N  N128  1  0.201500  0.856500  0.192200  1.0  -0.3522
  N  N129  1  0.305720  0.141000  0.691240  1.0  -0.5989
  N  N130  1  0.419850  0.258000  0.688100  1.0  -0.2847
  N  N131  1  0.990700  0.356500  0.192200  1.0  -0.353
  N  N132  1  0.385520  0.641000  0.691240  1.0  -0.5944
  N  N133  1  0.268250  0.758000  0.688100  1.0  -0.2843
  N  N134  1  0.798500  0.143500  0.807800  1.0  -0.3533
  N  N135  1  0.694280  0.859000  0.308760  1.0  -0.5919
  N  N136  1  0.580150  0.742000  0.311900  1.0  -0.2837
  O  O137  1  0.476600  0.529800  0.230600  1.0  -0.6334
  O  O138  1  0.311280  0.516500  0.247160  1.0  -0.676
  O  O139  1  0.633800  0.519100  0.542800  1.0  -0.8348
  O  O140  1  0.686820  0.533200  0.429640  1.0  -0.6338
  O  O141  1  0.923100  0.829900  0.465800  1.0  -0.7191
  O  O142  1  0.072640  0.865300  0.596080  1.0  -0.6747
  O  O143  1  0.246000  0.970200  0.769400  1.0  -0.6309
  O  O144  1  0.064120  0.983500  0.752840  1.0  -0.6782
  O  O145  1  0.091000  0.980900  0.457200  1.0  -0.832
  O  O146  1  0.257180  0.966800  0.570360  1.0  -0.6361
  O  O147  1  0.457300  0.670100  0.534200  1.0  -0.7205
  O  O148  1  0.476560  0.634700  0.403920  1.0  -0.6752
  O  O149  1  0.523400  0.470200  0.769400  1.0  -0.6333
  O  O150  1  0.688720  0.483500  0.752840  1.0  -0.677
  O  O151  1  0.366200  0.480900  0.457200  1.0  -0.836
  O  O152  1  0.313180  0.466800  0.570360  1.0  -0.6356
  O  O153  1  0.076900  0.170100  0.534200  1.0  -0.7222
  O  O154  1  0.927360  0.134700  0.403920  1.0  -0.6737
  O  O155  1  0.754000  0.029800  0.230600  1.0  -0.6312
  O  O156  1  0.935880  0.016500  0.247160  1.0  -0.6822
  O  O157  1  0.909000  0.019100  0.542800  1.0  -0.8322
  O  O158  1  0.742820  0.033200  0.429640  1.0  -0.6339
  O  O159  1  0.542700  0.329900  0.465800  1.0  -0.7223
  O  O160  1  0.523440  0.365300  0.596080  1.0  -0.6754
