# generated using pymatgen
data_NdH13C21(NO3)2
_symmetry_space_group_name_H-M   'P 1'
_cell_length_a   13.68240000
_cell_length_b   15.00120000
_cell_length_c   15.64900000
_cell_angle_alpha   95.75100000
_cell_angle_beta   113.16300000
_cell_angle_gamma   90.49300000
_symmetry_Int_Tables_number   1
_chemical_formula_structural   NdH13C21(NO3)2
_chemical_formula_sum   'Nd4 H52 C84 N8 O24'
_cell_volume   2934.16003727
_cell_formula_units_Z   4
loop_
 _symmetry_equiv_pos_site_id
 _symmetry_equiv_pos_as_xyz
  1  'x, y, z'
loop_
 _atom_site_type_symbol
 _atom_site_label
 _atom_site_symmetry_multiplicity
 _atom_site_fract_x
 _atom_site_fract_y
 _atom_site_fract_z
 _atom_site_occupancy
 _atom_site_charge
  Nd  Nd1  1  0.506990  0.520270  0.133960  1.0  2.238
  Nd  Nd2  1  0.889670  0.968510  0.868940  1.0  2.2219
  Nd  Nd3  1  0.493010  0.479730  0.866040  1.0  2.2377
  Nd  Nd4  1  0.110330  0.031490  0.131060  1.0  2.2226
  H  H5  1  0.869000  0.461000  0.383800  1.0  0.1026
  H  H6  1  0.980400  0.403700  0.516700  1.0  0.1003
  H  H7  1  0.729300  0.296600  0.547400  1.0  0.1074
  H  H8  1  0.618000  0.355300  0.415000  1.0  0.1003
  H  H9  1  0.213200  0.392400  0.797600  1.0  0.1176
  H  H10  1  0.233200  0.269800  0.021500  1.0  0.0968
  H  H11  1  0.986200  0.209000  0.775100  1.0  0.1024
  H  H12  1  0.729600  0.063300  0.546300  1.0  0.1057
  H  H13  1  0.726700  0.115100  0.411800  1.0  0.0986
  H  H14  1  0.045500  0.119700  0.516200  1.0  0.1178
  H  H15  1  0.046300  0.064000  0.648700  1.0  0.1014
  H  H16  1  0.686100  0.291200  0.207400  1.0  0.1055
  H  H17  1  0.722400  0.236200  0.965700  1.0  0.1047
  H  H18  1  0.883200  0.103400  0.185900  1.0  0.1083
  H  H19  1  0.315400  0.664100  0.158700  1.0  0.0387
  H  H20  1  0.174200  0.691300  0.199000  1.0  0.1462
  H  H21  1  0.115600  0.558200  0.242200  1.0  0.0949
  H  H22  1  0.210600  0.431900  0.277300  1.0  0.1492
  H  H23  1  0.364300  0.438500  0.244300  1.0  0.0662
  H  H24  1  0.623100  0.028800  0.784100  1.0  0.0858
  H  H25  1  0.446300  0.982900  0.743900  1.0  0.1115
  H  H26  1  0.403300  0.832500  0.743500  1.0  0.0906
  H  H27  1  0.537100  0.735200  0.790800  1.0  0.112
  H  H28  1  0.709100  0.784200  0.830400  1.0  0.0817
  H  H29  1  0.889000  0.268000  0.657000  1.0  0.0583
  H  H30  1  0.940000  0.161000  0.347000  1.0  0.0894
  H  H31  1  0.131000  0.539000  0.616200  1.0  0.1031
  H  H32  1  0.019600  0.596300  0.483300  1.0  0.1
  H  H33  1  0.270700  0.703400  0.452600  1.0  0.1073
  H  H34  1  0.382000  0.644700  0.585000  1.0  0.1007
  H  H35  1  0.786800  0.607600  0.202400  1.0  0.1183
  H  H36  1  0.766800  0.730200  0.978500  1.0  0.0967
  H  H37  1  0.013800  0.791000  0.224900  1.0  0.102
  H  H38  1  0.270400  0.936700  0.453700  1.0  0.1013
  H  H39  1  0.273300  0.884900  0.588200  1.0  0.0989
  H  H40  1  0.954500  0.880300  0.483800  1.0  0.1183
  H  H41  1  0.953700  0.936000  0.351300  1.0  0.1014
  H  H42  1  0.313900  0.708800  0.792600  1.0  0.1051
  H  H43  1  0.277600  0.763800  0.034300  1.0  0.104
  H  H44  1  0.116800  0.896600  0.814100  1.0  0.1073
  H  H45  1  0.684600  0.335900  0.841300  1.0  0.0391
  H  H46  1  0.825800  0.308700  0.801000  1.0  0.1455
  H  H47  1  0.884400  0.441800  0.757800  1.0  0.09
  H  H48  1  0.789400  0.568100  0.722700  1.0  0.1498
  H  H49  1  0.635700  0.561500  0.755700  1.0  0.0662
  H  H50  1  0.376900  0.971200  0.215900  1.0  0.086
  H  H51  1  0.553700  0.017100  0.256100  1.0  0.1119
  H  H52  1  0.596700  0.167500  0.256500  1.0  0.0913
  H  H53  1  0.462900  0.264800  0.209200  1.0  0.1107
  H  H54  1  0.290900  0.215800  0.169600  1.0  0.0825
  H  H55  1  0.111000  0.732000  0.343000  1.0  0.0588
  H  H56  1  0.060000  0.839000  0.653000  1.0  0.0855
  C  C57  1  0.657200  0.459000  0.303800  1.0  0.6886
  C  C58  1  0.731000  0.416900  0.386400  1.0  -0.186
  C  C59  1  0.840300  0.429100  0.417100  1.0  -0.0516
  C  C60  1  0.907200  0.394200  0.496800  1.0  -0.0596
  C  C61  1  0.867500  0.345500  0.547800  1.0  -0.014
  C  C62  1  0.757900  0.330600  0.515400  1.0  -0.1347
  C  C63  1  0.691200  0.365900  0.435900  1.0  -0.0436
  C  C64  1  0.934700  0.312300  0.636600  1.0  0.1842
  C  C65  1  0.088300  0.306800  0.772500  1.0  0.2011
  C  C66  1  0.184200  0.352900  0.824700  1.0  -0.0889
  C  C67  1  0.237900  0.339700  0.919400  1.0  -0.1416
  C  C68  1  0.197700  0.277700  0.958700  1.0  -0.0
  C  C69  1  0.104000  0.227000  0.904100  1.0  -0.1497
  C  C70  1  0.049200  0.242100  0.811500  1.0  -0.0966
  C  C71  1  0.334100  0.397000  0.982000  1.0  0.7435
  C  C72  1  0.062600  0.155700  0.944300  1.0  0.7698
  C  C73  1  0.889200  0.017900  0.696700  1.0  0.6879
  C  C74  1  0.888400  0.057300  0.611800  1.0  -0.1232
  C  C75  1  0.793400  0.073700  0.540000  1.0  -0.0497
  C  C76  1  0.791400  0.105100  0.459300  1.0  -0.1021
  C  C77  1  0.886100  0.121700  0.449300  1.0  -0.0149
  C  C78  1  0.981400  0.107300  0.521400  1.0  -0.0982
  C  C79  1  0.981800  0.074500  0.601300  1.0  -0.053
  C  C80  1  0.882200  0.151100  0.361200  1.0  0.1989
  C  C81  1  0.786600  0.193500  0.210800  1.0  0.214
  C  C82  1  0.717500  0.258900  0.172000  1.0  -0.0902
  C  C83  1  0.694200  0.277100  0.081000  1.0  -0.1568
  C  C84  1  0.738500  0.225800  0.027300  1.0  -0.0105
  C  C85  1  0.806800  0.158800  0.065600  1.0  -0.1417
  C  C86  1  0.833600  0.145100  0.158800  1.0  -0.1303
  C  C87  1  0.621000  0.350500  0.042700  1.0  0.782
  C  C88  1  0.842600  0.097100  0.003400  1.0  0.7379
  C  C89  1  0.296800  0.619600  0.187700  1.0  0.2567
  C  C90  1  0.208900  0.638000  0.205100  1.0  -0.2437
  C  C91  1  0.180000  0.557100  0.235200  1.0  0.0349
  C  C92  1  0.231400  0.480500  0.254700  1.0  -0.191
  C  C93  1  0.322600  0.488200  0.234200  1.0  0.2146
  C  C94  1  0.605800  0.969100  0.785900  1.0  0.1848
  C  C95  1  0.499200  0.941700  0.760800  1.0  -0.1528
  C  C96  1  0.473800  0.852600  0.761400  1.0  -0.0327
  C  C97  1  0.552800  0.795200  0.788600  1.0  -0.1656
  C  C98  1  0.655900  0.825000  0.812800  1.0  0.188
  C  C99  1  0.342800  0.541000  0.696200  1.0  0.6877
  C  C100  1  0.269000  0.583100  0.613600  1.0  -0.1889
  C  C101  1  0.159700  0.570900  0.582900  1.0  -0.051
  C  C102  1  0.092800  0.605800  0.503200  1.0  -0.0616
  C  C103  1  0.132500  0.654500  0.452200  1.0  -0.0171
  C  C104  1  0.242100  0.669400  0.484600  1.0  -0.1331
  C  C105  1  0.308800  0.634100  0.564100  1.0  -0.0433
  C  C106  1  0.065300  0.687700  0.363400  1.0  0.186
  C  C107  1  0.911700  0.693200  0.227500  1.0  0.1987
  C  C108  1  0.815800  0.647100  0.175300  1.0  -0.0882
  C  C109  1  0.762100  0.660300  0.080600  1.0  -0.14
  C  C110  1  0.802300  0.722300  0.041300  1.0  -0.0002
  C  C111  1  0.896000  0.773000  0.095900  1.0  -0.1481
  C  C112  1  0.950800  0.757900  0.188500  1.0  -0.0973
  C  C113  1  0.665900  0.603000  0.018000  1.0  0.7438
  C  C114  1  0.937400  0.844300  0.055700  1.0  0.7696
  C  C115  1  0.110800  0.982100  0.303300  1.0  0.6895
  C  C116  1  0.111600  0.942700  0.388200  1.0  -0.1225
  C  C117  1  0.206600  0.926300  0.460000  1.0  -0.0507
  C  C118  1  0.208600  0.894900  0.540700  1.0  -0.101
  C  C119  1  0.113900  0.878300  0.550700  1.0  -0.0148
  C  C120  1  0.018600  0.892700  0.478600  1.0  -0.0976
  C  C121  1  0.018200  0.925500  0.398700  1.0  -0.0517
  C  C122  1  0.117800  0.848900  0.638800  1.0  0.2006
  C  C123  1  0.213400  0.806500  0.789200  1.0  0.2126
  C  C124  1  0.282500  0.741100  0.828000  1.0  -0.0896
  C  C125  1  0.305800  0.722900  0.919000  1.0  -0.1568
  C  C126  1  0.261500  0.774200  0.972700  1.0  -0.0078
  C  C127  1  0.193200  0.841200  0.934400  1.0  -0.1404
  C  C128  1  0.166400  0.854900  0.841200  1.0  -0.1305
  C  C129  1  0.379000  0.649500  0.957300  1.0  0.7815
  C  C130  1  0.157400  0.902900  0.996600  1.0  0.739
  C  C131  1  0.703200  0.380400  0.812300  1.0  0.2591
  C  C132  1  0.791100  0.362000  0.794900  1.0  -0.242
  C  C133  1  0.820000  0.442900  0.764800  1.0  0.0343
  C  C134  1  0.768600  0.519500  0.745300  1.0  -0.1999
  C  C135  1  0.677400  0.511800  0.765800  1.0  0.2167
  C  C136  1  0.394200  0.030900  0.214100  1.0  0.1686
  C  C137  1  0.500800  0.058300  0.239200  1.0  -0.1668
  C  C138  1  0.526200  0.147400  0.238600  1.0  -0.014
  C  C139  1  0.447200  0.204800  0.211400  1.0  -0.1658
  C  C140  1  0.344100  0.175000  0.187200  1.0  0.1874
  N  N141  1  0.032300  0.332200  0.680300  1.0  -0.3563
  N  N142  1  0.796500  0.172800  0.300500  1.0  -0.3703
  N  N143  1  0.358800  0.556000  0.202200  1.0  -0.5252
  N  N144  1  0.683500  0.911600  0.812300  1.0  -0.5159
  N  N145  1  0.967700  0.667800  0.319700  1.0  -0.3556
  N  N146  1  0.203500  0.827200  0.699500  1.0  -0.3704
  N  N147  1  0.641200  0.444000  0.797800  1.0  -0.5169
  N  N148  1  0.316500  0.088400  0.187700  1.0  -0.5089
  O  O149  1  0.556400  0.444000  0.278000  1.0  -0.7034
  O  O150  1  0.693700  0.506500  0.261000  1.0  -0.7026
  O  O151  1  0.357200  0.406300  0.069200  1.0  -0.6825
  O  O152  1  0.389000  0.438700  0.947500  1.0  -0.8417
  O  O153  1  0.977200  0.114100  0.892300  1.0  -0.6976
  O  O154  1  0.117300  0.142500  0.029200  1.0  -0.7459
  O  O155  1  0.577900  0.385600  0.094600  1.0  -0.7073
  O  O156  1  0.606800  0.371800  0.963400  1.0  -0.7072
  O  O157  1  0.971700  0.986300  0.749400  1.0  -0.6717
  O  O158  1  0.803500  0.018400  0.710800  1.0  -0.6989
  O  O159  1  0.786800  0.086600  0.916900  1.0  -0.6498
  O  O160  1  0.924900  0.052500  0.038900  1.0  -0.8368
  O  O161  1  0.443600  0.556000  0.722000  1.0  -0.705
  O  O162  1  0.306300  0.493500  0.739000  1.0  -0.7008
  O  O163  1  0.642800  0.593700  0.930800  1.0  -0.6784
  O  O164  1  0.611000  0.561300  0.052500  1.0  -0.8425
  O  O165  1  0.022800  0.885900  0.107700  1.0  -0.6975
  O  O166  1  0.882700  0.857500  0.970800  1.0  -0.7461
  O  O167  1  0.422100  0.614400  0.905400  1.0  -0.7076
  O  O168  1  0.393200  0.628200  0.036600  1.0  -0.7097
  O  O169  1  0.028300  0.013700  0.250600  1.0  -0.6704
  O  O170  1  0.196500  0.981600  0.289200  1.0  -0.7042
  O  O171  1  0.213200  0.913400  0.083100  1.0  -0.6512
  O  O172  1  0.075100  0.947500  0.961100  1.0  -0.8357
