# generated using pymatgen
data_NdH8C16NO6
_symmetry_space_group_name_H-M   'P 1'
_cell_length_a   12.82730000
_cell_length_b   14.46490000
_cell_length_c   16.03300000
_cell_angle_alpha   116.81400000
_cell_angle_beta   102.16800000
_cell_angle_gamma   90.00000000
_symmetry_Int_Tables_number   1
_chemical_formula_structural   NdH8C16NO6
_chemical_formula_sum   'Nd4 H32 C64 N4 O24'
_cell_volume   2579.87666504
_cell_formula_units_Z   4
loop_
 _symmetry_equiv_pos_site_id
 _symmetry_equiv_pos_as_xyz
  1  'x, y, z'
loop_
 _atom_site_type_symbol
 _atom_site_label
 _atom_site_symmetry_multiplicity
 _atom_site_fract_x
 _atom_site_fract_y
 _atom_site_fract_z
 _atom_site_occupancy
 _atom_site_charge
  Nd  Nd1  1  0.440840  0.466460  0.360570  1.0  2.2485
  Nd  Nd2  1  0.059160  0.105890  0.639440  1.0  2.2486
  Nd  Nd3  1  0.559160  0.533540  0.639430  1.0  2.249
  Nd  Nd4  1  0.940840  0.894110  0.360570  1.0  2.2473
  H  H5  1  0.542100  0.139900  0.112200  1.0  0.1068
  H  H6  1  0.601600  0.036600  0.975000  1.0  0.1169
  H  H7  1  0.616000  0.283800  0.920600  1.0  0.1154
  H  H8  1  0.571700  0.388400  0.066200  1.0  0.1098
  H  H9  1  0.647000  0.131000  0.806000  1.0  0.0744
  H  H10  1  0.573900  0.804700  0.684000  1.0  0.1286
  H  H11  1  0.771500  0.040500  0.716600  1.0  0.1162
  H  H12  1  0.688100  0.784200  0.462800  1.0  0.1074
  H  H13  1  0.957900  0.027700  0.887800  1.0  0.1063
  H  H14  1  0.898400  0.061600  0.025000  1.0  0.1171
  H  H15  1  0.884000  0.363200  0.079400  1.0  0.1163
  H  H16  1  0.928300  0.322200  0.933800  1.0  0.1105
  H  H17  1  0.853000  0.325000  0.194000  1.0  0.0748
  H  H18  1  0.926100  0.120700  0.316000  1.0  0.1285
  H  H19  1  0.728500  0.323900  0.283400  1.0  0.1151
  H  H20  1  0.811900  0.321400  0.537200  1.0  0.1072
  H  H21  1  0.457900  0.860100  0.887800  1.0  0.1059
  H  H22  1  0.398400  0.963400  0.025000  1.0  0.1168
  H  H23  1  0.384000  0.716200  0.079400  1.0  0.1159
  H  H24  1  0.428300  0.611600  0.933800  1.0  0.1097
  H  H25  1  0.353000  0.869000  0.194000  1.0  0.0754
  H  H26  1  0.426100  0.195300  0.316000  1.0  0.128
  H  H27  1  0.228500  0.959500  0.283400  1.0  0.1163
  H  H28  1  0.311900  0.215800  0.537200  1.0  0.1073
  H  H29  1  0.042100  0.972300  0.112200  1.0  0.1053
  H  H30  1  0.101600  0.938400  0.975000  1.0  0.1168
  H  H31  1  0.116000  0.636800  0.920600  1.0  0.1154
  H  H32  1  0.071700  0.677800  0.066200  1.0  0.1103
  H  H33  1  0.147000  0.675000  0.806000  1.0  0.0743
  H  H34  1  0.073900  0.879300  0.684000  1.0  0.1282
  H  H35  1  0.271500  0.676100  0.716600  1.0  0.1154
  H  H36  1  0.188100  0.678600  0.462800  1.0  0.1077
  C  C37  1  0.503400  0.339000  0.187600  1.0  0.6886
  C  C38  1  0.547000  0.273200  0.100400  1.0  -0.1278
  C  C39  1  0.558200  0.168500  0.074200  1.0  -0.0431
  C  C40  1  0.593000  0.106100  0.991600  1.0  -0.099
  C  C41  1  0.615300  0.150400  0.933200  1.0  -0.0075
  C  C42  1  0.603800  0.255300  0.959800  1.0  -0.1203
  C  C43  1  0.573800  0.317200  0.045600  1.0  -0.0359
  C  C44  1  0.643400  0.088500  0.841800  1.0  0.1762
  C  C45  1  0.560900  0.672600  0.498600  1.0  0.7497
  C  C46  1  0.621200  0.776900  0.562000  1.0  -0.1459
  C  C47  1  0.613300  0.833900  0.657600  1.0  -0.1115
  C  C48  1  0.665800  0.935600  0.712800  1.0  0.2027
  C  C49  1  0.732700  0.975200  0.677600  1.0  -0.11
  C  C50  1  0.742100  0.917000  0.583200  1.0  -0.149
  C  C51  1  0.684400  0.820800  0.526800  1.0  0.0083
  C  C52  1  0.815500  0.961600  0.544600  1.0  0.7895
  C  C53  1  0.996600  0.151400  0.812400  1.0  0.6914
  C  C54  1  0.953000  0.172800  0.899600  1.0  -0.1277
  C  C55  1  0.941800  0.094300  0.925800  1.0  -0.0448
  C  C56  1  0.907000  0.114500  0.008400  1.0  -0.0982
  C  C57  1  0.884700  0.217200  0.066800  1.0  -0.0087
  C  C58  1  0.896200  0.295500  0.040200  1.0  -0.1175
  C  C59  1  0.926200  0.271600  0.954400  1.0  -0.0385
  C  C60  1  0.856600  0.246700  0.158200  1.0  0.1713
  C  C61  1  0.939100  0.174000  0.501400  1.0  0.7491
  C  C62  1  0.878800  0.214900  0.438000  1.0  -0.1459
  C  C63  1  0.886700  0.176300  0.342400  1.0  -0.1103
  C  C64  1  0.834200  0.222800  0.287200  1.0  0.1988
  C  C65  1  0.767300  0.297600  0.322400  1.0  -0.109
  C  C66  1  0.757900  0.333800  0.416800  1.0  -0.1487
  C  C67  1  0.815600  0.294000  0.473200  1.0  0.007
  C  C68  1  0.684500  0.417000  0.455400  1.0  0.7881
  C  C69  1  0.496600  0.661000  0.812400  1.0  0.6887
  C  C70  1  0.453000  0.726800  0.899600  1.0  -0.128
  C  C71  1  0.441800  0.831500  0.925800  1.0  -0.0428
  C  C72  1  0.407000  0.893900  0.008400  1.0  -0.1007
  C  C73  1  0.384700  0.849600  0.066800  1.0  -0.0069
  C  C74  1  0.396200  0.744700  0.040200  1.0  -0.1189
  C  C75  1  0.426200  0.682800  0.954400  1.0  -0.0338
  C  C76  1  0.356600  0.911500  0.158200  1.0  0.1769
  C  C77  1  0.439100  0.327400  0.501400  1.0  0.7509
  C  C78  1  0.378800  0.223100  0.438000  1.0  -0.1455
  C  C79  1  0.386700  0.166100  0.342400  1.0  -0.1117
  C  C80  1  0.334200  0.064400  0.287200  1.0  0.2034
  C  C81  1  0.267300  0.024800  0.322400  1.0  -0.1112
  C  C82  1  0.257900  0.083000  0.416800  1.0  -0.1498
  C  C83  1  0.315600  0.179200  0.473200  1.0  0.0082
  C  C84  1  0.184500  0.038400  0.455400  1.0  0.7897
  C  C85  1  0.003400  0.848600  0.187600  1.0  0.6886
  C  C86  1  0.047000  0.827200  0.100400  1.0  -0.1283
  C  C87  1  0.058200  0.905700  0.074200  1.0  -0.0448
  C  C88  1  0.093000  0.885500  0.991600  1.0  -0.0971
  C  C89  1  0.115300  0.782800  0.933200  1.0  -0.0084
  C  C90  1  0.103800  0.704500  0.959800  1.0  -0.119
  C  C91  1  0.073800  0.728400  0.045600  1.0  -0.0386
  C  C92  1  0.143400  0.753300  0.841800  1.0  0.1716
  C  C93  1  0.060900  0.826000  0.498600  1.0  0.7491
  C  C94  1  0.121200  0.785100  0.562000  1.0  -0.1463
  C  C95  1  0.113300  0.823700  0.657600  1.0  -0.1112
  C  C96  1  0.165800  0.777200  0.712800  1.0  0.1993
  C  C97  1  0.232700  0.702400  0.677600  1.0  -0.1082
  C  C98  1  0.242100  0.666200  0.583200  1.0  -0.1493
  C  C99  1  0.184400  0.706000  0.526800  1.0  0.0082
  C  C100  1  0.315500  0.583000  0.544600  1.0  0.7876
  N  N101  1  0.647800  0.990900  0.808000  1.0  -0.3765
  N  N102  1  0.852200  0.182900  0.192000  1.0  -0.3736
  N  N103  1  0.352200  0.009100  0.192000  1.0  -0.3743
  N  N104  1  0.147800  0.817100  0.808000  1.0  -0.373
  O  O105  1  0.501200  0.433200  0.212200  1.0  -0.7097
  O  O106  1  0.472000  0.295380  0.231560  1.0  -0.7021
  O  O107  1  0.535100  0.639940  0.410680  1.0  -0.629
  O  O108  1  0.536100  0.617700  0.537400  1.0  -0.882
  O  O109  1  0.815100  0.905920  0.456840  1.0  -0.7949
  O  O110  1  0.871200  0.047100  0.601400  1.0  -0.6859
  O  O111  1  0.998800  0.221000  0.787800  1.0  -0.7124
  O  O112  1  0.028000  0.063820  0.768440  1.0  -0.705
  O  O113  1  0.964900  0.229260  0.589320  1.0  -0.6318
  O  O114  1  0.963900  0.080300  0.462600  1.0  -0.8821
  O  O115  1  0.684900  0.449080  0.543160  1.0  -0.7959
  O  O116  1  0.628800  0.445700  0.398600  1.0  -0.6845
  O  O117  1  0.498800  0.566800  0.787800  1.0  -0.7126
  O  O118  1  0.528000  0.704620  0.768440  1.0  -0.7032
  O  O119  1  0.464900  0.360060  0.589320  1.0  -0.6346
  O  O120  1  0.463900  0.382300  0.462600  1.0  -0.8814
  O  O121  1  0.184900  0.094080  0.543160  1.0  -0.7958
  O  O122  1  0.128800  0.952900  0.398600  1.0  -0.6863
  O  O123  1  0.001200  0.779000  0.212200  1.0  -0.714
  O  O124  1  0.972000  0.936180  0.231560  1.0  -0.705
  O  O125  1  0.035100  0.770740  0.410680  1.0  -0.6278
  O  O126  1  0.036100  0.919700  0.537400  1.0  -0.8827
  O  O127  1  0.315100  0.550920  0.456840  1.0  -0.7949
  O  O128  1  0.371200  0.554300  0.601400  1.0  -0.6856
