# generated using pymatgen
data_NdH8C16NO6
_symmetry_space_group_name_H-M   'P 1'
_cell_length_a   13.09260000
_cell_length_b   14.44880000
_cell_length_c   16.27510000
_cell_angle_alpha   116.35300000
_cell_angle_beta   97.83290000
_cell_angle_gamma   90.00000000
_symmetry_Int_Tables_number   1
_chemical_formula_structural   NdH8C16NO6
_chemical_formula_sum   'Nd4 H32 C64 N4 O24'
_cell_volume   2726.74390192
_cell_formula_units_Z   4
loop_
 _symmetry_equiv_pos_site_id
 _symmetry_equiv_pos_as_xyz
  1  'x, y, z'
loop_
 _atom_site_type_symbol
 _atom_site_label
 _atom_site_symmetry_multiplicity
 _atom_site_fract_x
 _atom_site_fract_y
 _atom_site_fract_z
 _atom_site_occupancy
 _atom_site_charge
  Nd  Nd1  1  0.455870  0.976570  0.367820  1.0  2.2464
  Nd  Nd2  1  0.044130  0.608750  0.632180  1.0  2.2494
  Nd  Nd3  1  0.544130  0.023430  0.632180  1.0  2.2468
  Nd  Nd4  1  0.955870  0.391250  0.367820  1.0  2.2478
  H  H5  1  0.535100  0.645400  0.113800  1.0  0.0965
  H  H6  1  0.588800  0.534800  0.976600  1.0  0.1126
  H  H7  1  0.639700  0.779400  0.927200  1.0  0.1073
  H  H8  1  0.591500  0.888300  0.068400  1.0  0.1093
  H  H9  1  0.570500  0.299500  0.685800  1.0  0.1213
  H  H10  1  0.768600  0.530100  0.716000  1.0  0.1073
  H  H11  1  0.693200  0.284800  0.468400  1.0  0.1122
  H  H12  1  0.660000  0.612000  0.816000  1.0  0.0644
  H  H13  1  0.964900  0.531600  0.886200  1.0  0.0953
  H  H14  1  0.911200  0.558200  0.023400  1.0  0.1138
  H  H15  1  0.860300  0.852200  0.072800  1.0  0.1071
  H  H16  1  0.908500  0.819900  0.931600  1.0  0.1099
  H  H17  1  0.929500  0.613700  0.314200  1.0  0.121
  H  H18  1  0.731400  0.814100  0.284000  1.0  0.1075
  H  H19  1  0.806800  0.816400  0.531600  1.0  0.1122
  H  H20  1  0.840000  0.796000  0.184000  1.0  0.0528
  H  H21  1  0.464900  0.354600  0.886200  1.0  0.0958
  H  H22  1  0.411200  0.465200  0.023400  1.0  0.113
  H  H23  1  0.360300  0.220600  0.072800  1.0  0.1055
  H  H24  1  0.408500  0.111700  0.931600  1.0  0.1097
  H  H25  1  0.429500  0.700500  0.314200  1.0  0.1209
  H  H26  1  0.231400  0.469900  0.284000  1.0  0.1078
  H  H27  1  0.306800  0.715200  0.531600  1.0  0.1126
  H  H28  1  0.340000  0.388000  0.184000  1.0  0.0694
  H  H29  1  0.035100  0.468400  0.113800  1.0  0.0951
  H  H30  1  0.088800  0.441800  0.976600  1.0  0.1139
  H  H31  1  0.139700  0.147800  0.927200  1.0  0.107
  H  H32  1  0.091500  0.180100  0.068400  1.0  0.1098
  H  H33  1  0.070500  0.386300  0.685800  1.0  0.1209
  H  H34  1  0.268600  0.185900  0.716000  1.0  0.1071
  H  H35  1  0.193200  0.183600  0.468400  1.0  0.112
  H  H36  1  0.160000  0.204000  0.816000  1.0  0.0517
  C  C37  1  0.522500  0.846500  0.193200  1.0  0.6752
  C  C38  1  0.558300  0.777000  0.105400  1.0  -0.1342
  C  C39  1  0.557500  0.672400  0.076600  1.0  -0.035
  C  C40  1  0.588700  0.605500  0.994000  1.0  -0.1071
  C  C41  1  0.620400  0.646200  0.936200  1.0  -0.0313
  C  C42  1  0.619900  0.751900  0.965000  1.0  -0.1174
  C  C43  1  0.590100  0.817300  0.049400  1.0  -0.0476
  C  C44  1  0.645300  0.577500  0.843800  1.0  0.2463
  C  C45  1  0.567200  0.172400  0.506000  1.0  0.773
  C  C46  1  0.621600  0.279200  0.567400  1.0  -0.1434
  C  C47  1  0.610900  0.330200  0.660600  1.0  -0.1081
  C  C48  1  0.661300  0.428100  0.716400  1.0  0.2096
  C  C49  1  0.730700  0.467500  0.678600  1.0  -0.1126
  C  C50  1  0.742500  0.413800  0.586400  1.0  -0.1525
  C  C51  1  0.686700  0.320100  0.530800  1.0  0.0129
  C  C52  1  0.819100  0.454200  0.548000  1.0  0.8066
  C  C53  1  0.977500  0.653300  0.806800  1.0  0.6805
  C  C54  1  0.941700  0.671600  0.894600  1.0  -0.1354
  C  C55  1  0.942500  0.595800  0.923400  1.0  -0.0358
  C  C56  1  0.911300  0.611500  0.006000  1.0  -0.1069
  C  C57  1  0.879600  0.710000  0.063800  1.0  -0.0323
  C  C58  1  0.880100  0.786900  0.035000  1.0  -0.1192
  C  C59  1  0.909900  0.767900  0.950600  1.0  -0.0482
  C  C60  1  0.854700  0.733700  0.156200  1.0  0.2474
  C  C61  1  0.932800  0.666400  0.494000  1.0  0.773
  C  C62  1  0.878400  0.711800  0.432600  1.0  -0.1449
  C  C63  1  0.889100  0.669600  0.339400  1.0  -0.1072
  C  C64  1  0.838700  0.711700  0.283600  1.0  0.2085
  C  C65  1  0.769300  0.788900  0.321400  1.0  -0.1102
  C  C66  1  0.757500  0.827400  0.413600  1.0  -0.1497
  C  C67  1  0.813300  0.789300  0.469200  1.0  0.013
  C  C68  1  0.680900  0.906200  0.452000  1.0  0.8085
  C  C69  1  0.477500  0.153500  0.806800  1.0  0.6735
  C  C70  1  0.441700  0.223000  0.894600  1.0  -0.1366
  C  C71  1  0.442500  0.327600  0.923400  1.0  -0.0339
  C  C72  1  0.411300  0.394500  0.006000  1.0  -0.1108
  C  C73  1  0.379600  0.353800  0.063800  1.0  -0.0312
  C  C74  1  0.380100  0.248100  0.035000  1.0  -0.118
  C  C75  1  0.409900  0.182700  0.950600  1.0  -0.0462
  C  C76  1  0.354700  0.422500  0.156200  1.0  0.2475
  C  C77  1  0.432800  0.827600  0.494000  1.0  0.772
  C  C78  1  0.378400  0.720800  0.432600  1.0  -0.1434
  C  C79  1  0.389100  0.669800  0.339400  1.0  -0.1075
  C  C80  1  0.338700  0.571900  0.283600  1.0  0.2089
  C  C81  1  0.269300  0.532500  0.321400  1.0  -0.1114
  C  C82  1  0.257500  0.586200  0.413600  1.0  -0.1525
  C  C83  1  0.313300  0.679900  0.469200  1.0  0.0129
  C  C84  1  0.180900  0.545800  0.452000  1.0  0.8075
  C  C85  1  0.022500  0.346700  0.193200  1.0  0.6786
  C  C86  1  0.058300  0.328400  0.105400  1.0  -0.1323
  C  C87  1  0.057500  0.404200  0.076600  1.0  -0.0365
  C  C88  1  0.088700  0.388500  0.994000  1.0  -0.1046
  C  C89  1  0.120400  0.290000  0.936200  1.0  -0.0322
  C  C90  1  0.119900  0.213100  0.965000  1.0  -0.1188
  C  C91  1  0.090100  0.232100  0.049400  1.0  -0.0467
  C  C92  1  0.145300  0.266300  0.843800  1.0  0.2457
  C  C93  1  0.067200  0.333600  0.506000  1.0  0.7734
  C  C94  1  0.121600  0.288200  0.567400  1.0  -0.1445
  C  C95  1  0.110900  0.330400  0.660600  1.0  -0.1065
  C  C96  1  0.161300  0.288300  0.716400  1.0  0.2082
  C  C97  1  0.230700  0.211100  0.678600  1.0  -0.1102
  C  C98  1  0.242500  0.172600  0.586400  1.0  -0.151
  C  C99  1  0.186700  0.210700  0.530800  1.0  0.0127
  C  C100  1  0.319100  0.093800  0.548000  1.0  0.8053
  N  N101  1  0.642300  0.483040  0.808880  1.0  -0.3835
  N  N102  1  0.857700  0.674160  0.191120  1.0  -0.3838
  N  N103  1  0.357700  0.516960  0.191120  1.0  -0.3818
  N  N104  1  0.142300  0.325840  0.808880  1.0  -0.3811
  O  O105  1  0.473400  0.808440  0.233280  1.0  -0.7101
  O  O106  1  0.539600  0.944340  0.225880  1.0  -0.6844
  O  O107  1  0.542800  0.115580  0.541160  1.0  -0.8562
  O  O108  1  0.547300  0.145520  0.420840  1.0  -0.6555
  O  O109  1  0.829900  0.401320  0.464840  1.0  -0.8078
  O  O110  1  0.868400  0.539850  0.601500  1.0  -0.7036
  O  O111  1  0.026600  0.575160  0.766720  1.0  -0.711
  O  O112  1  0.960400  0.718460  0.774120  1.0  -0.6991
  O  O113  1  0.957200  0.574420  0.458840  1.0  -0.857
  O  O114  1  0.952700  0.724680  0.579160  1.0  -0.659
  O  O115  1  0.670100  0.936480  0.535160  1.0  -0.8081
  O  O116  1  0.631600  0.938350  0.398500  1.0  -0.7021
  O  O117  1  0.526600  0.191560  0.766720  1.0  -0.7117
  O  O118  1  0.460400  0.055660  0.774120  1.0  -0.6874
  O  O119  1  0.457200  0.884420  0.458840  1.0  -0.8549
  O  O120  1  0.452700  0.854480  0.579160  1.0  -0.6577
  O  O121  1  0.170100  0.598680  0.535160  1.0  -0.8065
  O  O122  1  0.131600  0.460150  0.398500  1.0  -0.7032
  O  O123  1  0.973400  0.424840  0.233280  1.0  -0.7101
  O  O124  1  0.039600  0.281540  0.225880  1.0  -0.6973
  O  O125  1  0.042800  0.425580  0.541160  1.0  -0.8584
  O  O126  1  0.047300  0.275320  0.420840  1.0  -0.6576
  O  O127  1  0.329900  0.063520  0.464840  1.0  -0.8075
  O  O128  1  0.368400  0.061650  0.601500  1.0  -0.7036
