# generated using pymatgen
data_NdH10C18N5O6
_symmetry_space_group_name_H-M   'P 1'
_cell_length_a   13.16540000
_cell_length_b   13.82820000
_cell_length_c   16.03130000
_cell_angle_alpha   115.54900000
_cell_angle_beta   101.11700000
_cell_angle_gamma   90.00000000
_symmetry_Int_Tables_number   1
_chemical_formula_structural   NdH10C18N5O6
_chemical_formula_sum   'Nd4 H40 C72 N20 O24'
_cell_volume   2572.33870451
_cell_formula_units_Z   4
loop_
 _symmetry_equiv_pos_site_id
 _symmetry_equiv_pos_as_xyz
  1  'x, y, z'
loop_
 _atom_site_type_symbol
 _atom_site_label
 _atom_site_symmetry_multiplicity
 _atom_site_fract_x
 _atom_site_fract_y
 _atom_site_fract_z
 _atom_site_occupancy
 _atom_site_charge
  Nd  Nd1  1  0.940670  0.475010  0.363750  1.0  2.2576
  Nd  Nd2  1  0.559330  0.111260  0.636250  1.0  2.2579
  Nd  Nd3  1  0.059330  0.524990  0.636250  1.0  2.2577
  Nd  Nd4  1  0.440670  0.888740  0.363750  1.0  2.2578
  H  H5  1  0.036500  0.151100  0.110000  1.0  0.1042
  H  H6  1  0.085600  0.046000  0.968600  1.0  0.1028
  H  H7  1  0.130900  0.308700  0.931400  1.0  0.11
  H  H8  1  0.078300  0.411900  0.069200  1.0  0.0967
  H  H9  1  0.069600  0.813800  0.688000  1.0  0.1186
  H  H10  1  0.271200  0.052900  0.722000  1.0  0.107
  H  H11  1  0.192900  0.791300  0.470800  1.0  0.0985
  H  H12  1  0.922800  0.635600  0.235200  1.0  0.0795
  H  H13  1  0.162000  0.136000  0.814000  1.0  0.0812
  H  H14  1  0.636000  0.705000  0.238000  1.0  0.2891
  H  H15  1  0.463500  0.041100  0.890000  1.0  0.1033
  H  H16  1  0.414400  0.077400  0.031400  1.0  0.1029
  H  H17  1  0.369100  0.377300  0.068600  1.0  0.1097
  H  H18  1  0.421700  0.342700  0.930800  1.0  0.0968
  H  H19  1  0.430400  0.125800  0.312000  1.0  0.1178
  H  H20  1  0.228800  0.330900  0.278000  1.0  0.1073
  H  H21  1  0.307100  0.320500  0.529200  1.0  0.0973
  H  H22  1  0.577200  0.400400  0.764800  1.0  0.0796
  H  H23  1  0.338000  0.322000  0.186000  1.0  0.08
  H  H24  1  0.864000  0.467000  0.762000  1.0  0.2895
  H  H25  1  0.963500  0.848900  0.890000  1.0  0.1036
  H  H26  1  0.914400  0.954000  0.031400  1.0  0.1028
  H  H27  1  0.869100  0.691300  0.068600  1.0  0.1089
  H  H28  1  0.921700  0.588100  0.930800  1.0  0.0962
  H  H29  1  0.930400  0.186200  0.312000  1.0  0.1183
  H  H30  1  0.728800  0.947100  0.278000  1.0  0.1077
  H  H31  1  0.807100  0.208700  0.529200  1.0  0.0974
  H  H32  1  0.077200  0.364400  0.764800  1.0  0.0787
  H  H33  1  0.838000  0.864000  0.186000  1.0  0.0992
  H  H34  1  0.364000  0.295000  0.762000  1.0  0.2929
  H  H35  1  0.536500  0.958900  0.110000  1.0  0.1029
  H  H36  1  0.585600  0.922600  0.968600  1.0  0.1027
  H  H37  1  0.630900  0.622700  0.931400  1.0  0.1085
  H  H38  1  0.578300  0.657300  0.069200  1.0  0.0963
  H  H39  1  0.569600  0.874200  0.688000  1.0  0.1166
  H  H40  1  0.771200  0.669100  0.722000  1.0  0.1072
  H  H41  1  0.692900  0.679500  0.470800  1.0  0.0986
  H  H42  1  0.422800  0.599600  0.235200  1.0  0.0797
  H  H43  1  0.662000  0.678000  0.814000  1.0  0.067
  H  H44  1  0.136000  0.533000  0.238000  1.0  0.2925
  C  C45  1  0.006600  0.357000  0.188000  1.0  0.6849
  C  C46  1  0.045500  0.292000  0.100800  1.0  -0.1315
  C  C47  1  0.052700  0.182500  0.072600  1.0  -0.0415
  C  C48  1  0.083900  0.119800  0.988800  1.0  -0.074
  C  C49  1  0.112400  0.167000  0.935600  1.0  -0.0076
  C  C50  1  0.110400  0.276300  0.966400  1.0  -0.1245
  C  C51  1  0.078100  0.337900  0.048600  1.0  -0.0496
  C  C52  1  0.140900  0.102700  0.843600  1.0  0.2079
  C  C53  1  0.059100  0.680790  0.504180  1.0  0.7509
  C  C54  1  0.120200  0.786460  0.569120  1.0  -0.1371
  C  C55  1  0.111200  0.843700  0.662800  1.0  -0.1048
  C  C56  1  0.163700  0.944900  0.718600  1.0  0.2011
  C  C57  1  0.233400  0.986400  0.683800  1.0  -0.101
  C  C58  1  0.245500  0.927250  0.591700  1.0  -0.1434
  C  C59  1  0.187000  0.828720  0.533440  1.0  0.0176
  C  C60  1  0.321100  0.968700  0.552000  1.0  0.7724
  C  C61  1  0.720500  0.596300  0.279200  1.0  0.4945
  C  C62  1  0.855300  0.636000  0.244800  1.0  0.3471
  C  C63  1  0.493400  0.169000  0.812000  1.0  0.6853
  C  C64  1  0.454500  0.191200  0.899200  1.0  -0.1328
  C  C65  1  0.447300  0.109900  0.927400  1.0  -0.0395
  C  C66  1  0.416100  0.131000  0.011200  1.0  -0.0718
  C  C67  1  0.387600  0.231400  0.064400  1.0  -0.0047
  C  C68  1  0.389600  0.309900  0.033600  1.0  -0.1302
  C  C69  1  0.421900  0.289300  0.951400  1.0  -0.0523
  C  C70  1  0.359100  0.259100  0.156400  1.0  0.2108
  C  C71  1  0.440900  0.176610  0.495820  1.0  0.7513
  C  C72  1  0.379800  0.217340  0.430880  1.0  -0.1373
  C  C73  1  0.388800  0.180900  0.337200  1.0  -0.1016
  C  C74  1  0.336300  0.226300  0.281400  1.0  0.2019
  C  C75  1  0.266600  0.302600  0.316200  1.0  -0.0998
  C  C76  1  0.254500  0.335550  0.408300  1.0  -0.1413
  C  C77  1  0.313000  0.295280  0.466560  1.0  0.0185
  C  C78  1  0.178900  0.416700  0.448000  1.0  0.7729
  C  C79  1  0.779500  0.317100  0.720800  1.0  0.496
  C  C80  1  0.644700  0.391200  0.755200  1.0  0.3463
  C  C81  1  0.993400  0.643000  0.812000  1.0  0.6877
  C  C82  1  0.954500  0.708000  0.899200  1.0  -0.1327
  C  C83  1  0.947300  0.817500  0.927400  1.0  -0.0399
  C  C84  1  0.916100  0.880200  0.011200  1.0  -0.074
  C  C85  1  0.887600  0.833000  0.064400  1.0  -0.0053
  C  C86  1  0.889600  0.723700  0.033600  1.0  -0.1212
  C  C87  1  0.921900  0.662100  0.951400  1.0  -0.0491
  C  C88  1  0.859100  0.897300  0.156400  1.0  0.2105
  C  C89  1  0.940900  0.319210  0.495820  1.0  0.7509
  C  C90  1  0.879800  0.213540  0.430880  1.0  -0.1366
  C  C91  1  0.888800  0.156300  0.337200  1.0  -0.1029
  C  C92  1  0.836300  0.055100  0.281400  1.0  0.2031
  C  C93  1  0.766600  0.013600  0.316200  1.0  -0.0999
  C  C94  1  0.754500  0.072750  0.408300  1.0  -0.1445
  C  C95  1  0.813000  0.171280  0.466560  1.0  0.0174
  C  C96  1  0.678900  0.031300  0.448000  1.0  0.7743
  C  C97  1  0.279500  0.403700  0.720800  1.0  0.4971
  C  C98  1  0.144700  0.364000  0.755200  1.0  0.3466
  C  C99  1  0.506600  0.831000  0.188000  1.0  0.686
  C  C100  1  0.545500  0.808800  0.100800  1.0  -0.1312
  C  C101  1  0.552700  0.890100  0.072600  1.0  -0.0406
  C  C102  1  0.583900  0.869000  0.988800  1.0  -0.0722
  C  C103  1  0.612400  0.768600  0.935600  1.0  -0.0064
  C  C104  1  0.610400  0.690100  0.966400  1.0  -0.1314
  C  C105  1  0.578100  0.710700  0.048600  1.0  -0.0527
  C  C106  1  0.640900  0.740900  0.843600  1.0  0.2027
  C  C107  1  0.559100  0.823390  0.504180  1.0  0.7505
  C  C108  1  0.620200  0.782660  0.569120  1.0  -0.1365
  C  C109  1  0.611200  0.819100  0.662800  1.0  -0.1025
  C  C110  1  0.663700  0.773700  0.718600  1.0  0.2007
  C  C111  1  0.733400  0.697400  0.683800  1.0  -0.0999
  C  C112  1  0.745500  0.664450  0.591700  1.0  -0.1419
  C  C113  1  0.687000  0.704720  0.533440  1.0  0.0181
  C  C114  1  0.821100  0.583300  0.552000  1.0  0.7721
  C  C115  1  0.220500  0.682900  0.279200  1.0  0.498
  C  C116  1  0.355300  0.608800  0.244800  1.0  0.3462
  N  N117  1  0.144500  0.001530  0.811460  1.0  -0.3929
  N  N118  1  0.817500  0.568920  0.276640  1.0  -0.656
  N  N119  1  0.790400  0.700800  0.228800  1.0  -0.2926
  N  N120  1  0.701700  0.673840  0.252080  1.0  -0.1182
  N  N121  1  0.642400  0.547600  0.298000  1.0  -0.1988
  N  N122  1  0.355500  0.190070  0.188540  1.0  -0.3896
  N  N123  1  0.682500  0.292280  0.723360  1.0  -0.6505
  N  N124  1  0.709600  0.472000  0.771200  1.0  -0.2922
  N  N125  1  0.798300  0.421760  0.747920  1.0  -0.1166
  N  N126  1  0.857600  0.249600  0.702000  1.0  -0.2027
  N  N127  1  0.855500  0.998470  0.188540  1.0  -0.3905
  N  N128  1  0.182500  0.431080  0.723360  1.0  -0.6524
  N  N129  1  0.209600  0.299200  0.771200  1.0  -0.2922
  N  N130  1  0.298300  0.326160  0.747920  1.0  -0.1189
  N  N131  1  0.357600  0.452400  0.702000  1.0  -0.2018
  N  N132  1  0.644500  0.809930  0.811460  1.0  -0.3899
  N  N133  1  0.317500  0.707720  0.276640  1.0  -0.6535
  N  N134  1  0.290400  0.528000  0.228800  1.0  -0.293
  N  N135  1  0.201700  0.578240  0.252080  1.0  -0.1173
  N  N136  1  0.142400  0.750400  0.298000  1.0  -0.1997
  O  O137  1  0.963400  0.308500  0.225200  1.0  -0.7071
  O  O138  1  0.014300  0.457590  0.222380  1.0  -0.686
  O  O139  1  0.034600  0.654460  0.416720  1.0  -0.6686
  O  O140  1  0.033800  0.619240  0.538680  1.0  -0.8447
  O  O141  1  0.319800  0.913780  0.464560  1.0  -0.7565
  O  O142  1  0.377100  0.053840  0.607280  1.0  -0.6977
  O  O143  1  0.536600  0.083300  0.774800  1.0  -0.7055
  O  O144  1  0.485700  0.235210  0.777620  1.0  -0.6839
  O  O145  1  0.465400  0.237740  0.583280  1.0  -0.6705
  O  O146  1  0.466200  0.080560  0.461320  1.0  -0.8471
  O  O147  1  0.180200  0.449220  0.535440  1.0  -0.7522
  O  O148  1  0.122900  0.446560  0.392720  1.0  -0.697
  O  O149  1  0.036600  0.691500  0.774800  1.0  -0.7067
  O  O150  1  0.985700  0.542410  0.777620  1.0  -0.6866
  O  O151  1  0.965400  0.345540  0.583280  1.0  -0.6688
  O  O152  1  0.966200  0.380760  0.461320  1.0  -0.8452
  O  O153  1  0.680200  0.086220  0.535440  1.0  -0.7561
  O  O154  1  0.622900  0.946160  0.392720  1.0  -0.6963
  O  O155  1  0.463400  0.916700  0.225200  1.0  -0.708
  O  O156  1  0.514300  0.764790  0.222380  1.0  -0.6837
  O  O157  1  0.534600  0.762260  0.416720  1.0  -0.6714
  O  O158  1  0.533800  0.919440  0.538680  1.0  -0.8464
  O  O159  1  0.819800  0.550780  0.464560  1.0  -0.7512
  O  O160  1  0.877100  0.553440  0.607280  1.0  -0.6975
