# generated using pymatgen
data_NdH8C16NO6
_symmetry_space_group_name_H-M   'P 1'
_cell_length_a   13.64500000
_cell_length_b   14.27310000
_cell_length_c   16.11350000
_cell_angle_alpha   116.28900000
_cell_angle_beta   99.00590000
_cell_angle_gamma   90.00000000
_symmetry_Int_Tables_number   1
_chemical_formula_structural   NdH8C16NO6
_chemical_formula_sum   'Nd4 H32 C64 N4 O24'
_cell_volume   2770.41184548
_cell_formula_units_Z   4
loop_
 _symmetry_equiv_pos_site_id
 _symmetry_equiv_pos_as_xyz
  1  'x, y, z'
loop_
 _atom_site_type_symbol
 _atom_site_label
 _atom_site_symmetry_multiplicity
 _atom_site_fract_x
 _atom_site_fract_y
 _atom_site_fract_z
 _atom_site_occupancy
 _atom_site_charge
  Nd  Nd1  1  0.043390  0.030410  0.635890  1.0  2.2471
  Nd  Nd2  1  0.456610  0.394520  0.364110  1.0  2.2473
  Nd  Nd3  1  0.956610  0.969590  0.364110  1.0  2.247
  Nd  Nd4  1  0.543390  0.605480  0.635890  1.0  2.2497
  H  H5  1  0.917300  0.118200  0.935200  1.0  0.104
  H  H6  1  0.878100  0.222700  0.080200  1.0  0.1097
  H  H7  1  0.901900  0.471000  0.033200  1.0  0.1041
  H  H8  1  0.950300  0.366700  0.890000  1.0  0.1021
  H  H9  1  0.887000  0.384000  0.198000  1.0  0.0561
  H  H10  1  0.920700  0.698000  0.318400  1.0  0.1224
  H  H11  1  0.724600  0.472400  0.287400  1.0  0.1043
  H  H12  1  0.801600  0.720400  0.539400  1.0  0.1081
  H  H13  1  0.582700  0.183000  0.064800  1.0  0.1043
  H  H14  1  0.621900  0.142500  0.919800  1.0  0.1104
  H  H15  1  0.598100  0.437800  0.966800  1.0  0.1046
  H  H16  1  0.549700  0.476700  0.110000  1.0  0.102
  H  H17  1  0.613000  0.186000  0.802000  1.0  0.0547
  H  H18  1  0.579300  0.379600  0.681600  1.0  0.1222
  H  H19  1  0.775400  0.185000  0.712600  1.0  0.1031
  H  H20  1  0.698400  0.181000  0.460600  1.0  0.1073
  H  H21  1  0.082700  0.881800  0.064800  1.0  0.1037
  H  H22  1  0.121900  0.777300  0.919800  1.0  0.1089
  H  H23  1  0.098100  0.529000  0.966800  1.0  0.1045
  H  H24  1  0.049700  0.633300  0.110000  1.0  0.1023
  H  H25  1  0.113000  0.616000  0.802000  1.0  0.0547
  H  H26  1  0.079300  0.302000  0.681600  1.0  0.1225
  H  H27  1  0.275400  0.527600  0.712600  1.0  0.1036
  H  H28  1  0.198400  0.279600  0.460600  1.0  0.1079
  H  H29  1  0.417300  0.817000  0.935200  1.0  0.1043
  H  H30  1  0.378100  0.857500  0.080200  1.0  0.1108
  H  H31  1  0.401900  0.562200  0.033200  1.0  0.1046
  H  H32  1  0.450300  0.523300  0.890000  1.0  0.1023
  H  H33  1  0.387000  0.814000  0.198000  1.0  0.0542
  H  H34  1  0.420700  0.620400  0.318400  1.0  0.1224
  H  H35  1  0.224600  0.815000  0.287400  1.0  0.1035
  H  H36  1  0.301600  0.819000  0.539400  1.0  0.1077
  C  C37  1  0.979000  0.164900  0.809400  1.0  0.6877
  C  C38  1  0.942400  0.232500  0.898600  1.0  -0.1286
  C  C39  1  0.916500  0.190100  0.955400  1.0  -0.0398
  C  C40  1  0.889400  0.252000  0.041000  1.0  -0.1289
  C  C41  1  0.879500  0.353200  0.067400  1.0  0.0078
  C  C42  1  0.904900  0.399200  0.013000  1.0  -0.0882
  C  C43  1  0.935100  0.336600  0.927600  1.0  -0.0426
  C  C44  1  0.854800  0.420400  0.163000  1.0  0.1783
  C  C45  1  0.929300  0.828300  0.500200  1.0  0.7656
  C  C46  1  0.872900  0.724800  0.439800  1.0  -0.1626
  C  C47  1  0.881200  0.669100  0.344600  1.0  -0.1025
  C  C48  1  0.830800  0.571700  0.290200  1.0  0.2092
  C  C49  1  0.763300  0.534600  0.326400  1.0  -0.092
  C  C50  1  0.752200  0.589200  0.421000  1.0  -0.1514
  C  C51  1  0.807600  0.683500  0.476400  1.0  0.0157
  C  C52  1  0.678800  0.547900  0.456800  1.0  0.799
  C  C53  1  0.521000  0.355500  0.190600  1.0  0.6882
  C  C54  1  0.557600  0.333900  0.101400  1.0  -0.1298
  C  C55  1  0.583500  0.234700  0.044600  1.0  -0.0427
  C  C56  1  0.610600  0.211000  0.959000  1.0  -0.1312
  C  C57  1  0.620500  0.285800  0.932600  1.0  0.0057
  C  C58  1  0.595100  0.386200  0.987000  1.0  -0.0845
  C  C59  1  0.564900  0.409000  0.072400  1.0  -0.043
  C  C60  1  0.645200  0.257400  0.837000  1.0  0.1764
  C  C61  1  0.570700  0.328100  0.499800  1.0  0.7662
  C  C62  1  0.627100  0.285000  0.560200  1.0  -0.1635
  C  C63  1  0.618800  0.324500  0.655400  1.0  -0.102
  C  C64  1  0.669200  0.281500  0.709800  1.0  0.2068
  C  C65  1  0.736700  0.208200  0.673600  1.0  -0.0885
  C  C66  1  0.747800  0.168200  0.579000  1.0  -0.1513
  C  C67  1  0.692400  0.207100  0.523600  1.0  0.0153
  C  C68  1  0.821200  0.091100  0.543200  1.0  0.7953
  C  C69  1  0.021000  0.835100  0.190600  1.0  0.6887
  C  C70  1  0.057600  0.767500  0.101400  1.0  -0.1275
  C  C71  1  0.083500  0.809900  0.044600  1.0  -0.0403
  C  C72  1  0.110600  0.748000  0.959000  1.0  -0.1305
  C  C73  1  0.120500  0.646800  0.932600  1.0  0.008
  C  C74  1  0.095100  0.600800  0.987000  1.0  -0.0877
  C  C75  1  0.064900  0.663400  0.072400  1.0  -0.0407
  C  C76  1  0.145200  0.579600  0.837000  1.0  0.1785
  C  C77  1  0.070700  0.171700  0.499800  1.0  0.7655
  C  C78  1  0.127100  0.275200  0.560200  1.0  -0.1626
  C  C79  1  0.118800  0.330900  0.655400  1.0  -0.1034
  C  C80  1  0.169200  0.428300  0.709800  1.0  0.2087
  C  C81  1  0.236700  0.465400  0.673600  1.0  -0.0911
  C  C82  1  0.247800  0.410800  0.579000  1.0  -0.1521
  C  C83  1  0.192400  0.316500  0.523600  1.0  0.0157
  C  C84  1  0.321200  0.452100  0.543200  1.0  0.8
  C  C85  1  0.479000  0.644500  0.809400  1.0  0.6908
  C  C86  1  0.442400  0.666100  0.898600  1.0  -0.1264
  C  C87  1  0.416500  0.765300  0.955400  1.0  -0.0426
  C  C88  1  0.389400  0.789000  0.041000  1.0  -0.1304
  C  C89  1  0.379500  0.714200  0.067400  1.0  0.0064
  C  C90  1  0.404900  0.613800  0.013000  1.0  -0.0848
  C  C91  1  0.435100  0.591000  0.927600  1.0  -0.0439
  C  C92  1  0.354800  0.742600  0.163000  1.0  0.1753
  C  C93  1  0.429300  0.671900  0.500200  1.0  0.7661
  C  C94  1  0.372900  0.715000  0.439800  1.0  -0.1638
  C  C95  1  0.381200  0.675500  0.344600  1.0  -0.102
  C  C96  1  0.330800  0.718500  0.290200  1.0  0.2063
  C  C97  1  0.263300  0.791800  0.326400  1.0  -0.0886
  C  C98  1  0.252200  0.831800  0.421000  1.0  -0.1503
  C  C99  1  0.307600  0.792900  0.476400  1.0  0.0152
  C  C100  1  0.178800  0.908900  0.456800  1.0  0.7963
  N  N101  1  0.850900  0.515600  0.197000  1.0  -0.3318
  N  N102  1  0.649100  0.318600  0.803000  1.0  -0.3283
  N  N103  1  0.149100  0.484400  0.803000  1.0  -0.3254
  N  N104  1  0.350900  0.681400  0.197000  1.0  -0.3269
  O  O105  1  0.982800  0.069600  0.784400  1.0  -0.6876
  O  O106  1  0.006300  0.208440  0.761680  1.0  -0.7159
  O  O107  1  0.948000  0.860280  0.588360  1.0  -0.6646
  O  O108  1  0.960800  0.882990  0.463580  1.0  -0.8701
  O  O109  1  0.669200  0.602890  0.542780  1.0  -0.8025
  O  O110  1  0.628600  0.461830  0.402260  1.0  -0.7084
  O  O111  1  0.517200  0.285200  0.215600  1.0  -0.6904
  O  O112  1  0.493700  0.446760  0.238320  1.0  -0.7157
  O  O113  1  0.552000  0.271920  0.411640  1.0  -0.6673
  O  O114  1  0.539200  0.419410  0.536420  1.0  -0.8702
  O  O115  1  0.830800  0.060110  0.457220  1.0  -0.8026
  O  O116  1  0.871400  0.059570  0.597740  1.0  -0.7101
  O  O117  1  0.017200  0.930400  0.215600  1.0  -0.6878
  O  O118  1  0.993700  0.791560  0.238320  1.0  -0.7149
  O  O119  1  0.052000  0.139720  0.411640  1.0  -0.6657
  O  O120  1  0.039200  0.117010  0.536420  1.0  -0.8709
  O  O121  1  0.330800  0.397110  0.457220  1.0  -0.8015
  O  O122  1  0.371400  0.538170  0.597740  1.0  -0.709
  O  O123  1  0.482800  0.714800  0.784400  1.0  -0.6902
  O  O124  1  0.506300  0.553240  0.761680  1.0  -0.7177
  O  O125  1  0.448000  0.728080  0.588360  1.0  -0.6679
  O  O126  1  0.460800  0.580590  0.463580  1.0  -0.8708
  O  O127  1  0.169200  0.939890  0.542780  1.0  -0.803
  O  O128  1  0.128600  0.940430  0.402260  1.0  -0.7081
