# generated using pymatgen
data_Co3H44C74(N4O3)4
_symmetry_space_group_name_H-M   'P 1'
_cell_length_a   15.28610000
_cell_length_b   17.50960000
_cell_length_c   19.00330000
_cell_angle_alpha   62.56770000
_cell_angle_beta   86.26850000
_cell_angle_gamma   81.87890000
_symmetry_Int_Tables_number   1
_chemical_formula_structural   Co3H44C74(N4O3)4
_chemical_formula_sum   'Co6 H88 C148 N32 O24'
_cell_volume   4469.10334675
_cell_formula_units_Z   2
loop_
 _symmetry_equiv_pos_site_id
 _symmetry_equiv_pos_as_xyz
  1  'x, y, z'
loop_
 _atom_site_type_symbol
 _atom_site_label
 _atom_site_symmetry_multiplicity
 _atom_site_fract_x
 _atom_site_fract_y
 _atom_site_fract_z
 _atom_site_occupancy
 _atom_site_charge
  Co  Co1  1  0.499180  0.342830  0.272500  1.0  1.0142
  Co  Co2  1  0.218290  0.310060  0.708240  1.0  0.8939
  Co  Co3  1  0.610930  0.192740  0.764680  1.0  0.942
  Co  Co4  1  0.999180  0.615330  0.727500  1.0  1.0164
  Co  Co5  1  0.718290  0.018300  0.291760  1.0  0.8906
  Co  Co6  1  0.110930  0.957420  0.235320  1.0  0.9436
  H  H7  1  0.059200  0.473600  0.441000  1.0  0.103
  H  H8  1  0.299300  0.333200  0.467400  1.0  0.0981
  H  H9  1  0.201800  0.496100  0.248800  1.0  0.1049
  H  H10  1  0.509700  0.347400  0.467800  1.0  0.1142
  H  H11  1  0.540100  0.396400  0.557200  1.0  0.0917
  H  H12  1  0.609600  0.518800  0.516400  1.0  0.0927
  H  H13  1  0.650800  0.596700  0.384800  1.0  0.1223
  H  H14  1  0.510700  0.362600  0.064000  1.0  0.1173
  H  H15  1  0.530700  0.427800  0.928400  1.0  0.095
  H  H16  1  0.587700  0.558700  0.863600  1.0  0.0928
  H  H17  1  0.622300  0.629900  0.931800  1.0  0.1237
  H  H18  1  0.292800  0.337100  0.175200  1.0  0.1243
  H  H19  1  0.199000  0.278400  0.127400  1.0  0.0972
  H  H20  1  0.244800  0.154400  0.114000  1.0  0.0979
  H  H21  1  0.386500  0.079700  0.153800  1.0  0.1333
  H  H22  1  0.691700  0.303000  0.405400  1.0  0.1136
  H  H23  1  0.825800  0.238100  0.467000  1.0  0.0959
  H  H24  1  0.901700  0.120600  0.455800  1.0  0.0933
  H  H25  1  0.843800  0.062600  0.384600  1.0  0.1184
  H  H26  1  0.233400  0.328800  0.860200  1.0  0.1219
  H  H27  1  0.285600  0.332700  0.969000  1.0  0.0958
  H  H28  1  0.433000  0.284600  0.006600  1.0  0.0904
  H  H29  1  0.536000  0.244100  0.930200  1.0  0.1216
  H  H30  1  0.372900  0.163300  0.513400  1.0  0.1311
  H  H31  1  0.489000  0.101200  0.466000  1.0  0.0922
  H  H32  1  0.630300  0.082200  0.508800  1.0  0.0893
  H  H33  1  0.662300  0.125300  0.601200  1.0  0.1264
  H  H34  1  0.715300  0.984100  0.770400  1.0  0.119
  H  H35  1  0.814300  0.894300  0.731800  1.0  0.0995
  H  H36  1  0.935300  0.944200  0.656200  1.0  0.085
  H  H37  1  0.970200  0.085600  0.615400  1.0  0.1243
  H  H38  1  0.525000  0.420000  0.740200  1.0  0.1182
  H  H39  1  0.527200  0.562300  0.705200  1.0  0.1081
  H  H40  1  0.649000  0.632300  0.642800  1.0  0.0869
  H  H41  1  0.768500  0.561000  0.610200  1.0  0.1247
  H  H42  1  0.156700  0.111800  0.962600  1.0  0.1115
  H  H43  1  0.169600  0.009900  0.809400  1.0  0.1114
  H  H44  1  0.141200  0.857300  0.042600  1.0  0.1083
  H  H45  1  0.624300  0.609400  0.090600  1.0  0.3286
  H  H46  1  0.641900  0.592900  0.236600  1.0  0.3249
  H  H47  1  0.538700  0.088800  0.224000  1.0  0.3192
  H  H48  1  0.338800  0.229100  0.625600  1.0  0.3207
  H  H49  1  0.830600  0.391800  0.626600  1.0  0.3636
  H  H50  1  0.892800  0.240000  0.622200  1.0  0.3118
  H  H51  1  0.559200  0.914600  0.559000  1.0  0.1035
  H  H52  1  0.799300  0.800600  0.532600  1.0  0.0975
  H  H53  1  0.701800  0.744900  0.751200  1.0  0.1045
  H  H54  1  0.009700  0.815200  0.532200  1.0  0.1144
  H  H55  1  0.040100  0.953600  0.442800  1.0  0.0918
  H  H56  1  0.109600  0.035200  0.483600  1.0  0.0935
  H  H57  1  0.150800  0.981500  0.615200  1.0  0.1225
  H  H58  1  0.010700  0.426600  0.936000  1.0  0.1179
  H  H59  1  0.030700  0.356200  0.071600  1.0  0.0939
  H  H60  1  0.087700  0.422300  0.136400  1.0  0.0931
  H  H61  1  0.122300  0.561700  0.068200  1.0  0.1244
  H  H62  1  0.792800  0.512300  0.824800  1.0  0.1238
  H  H63  1  0.699000  0.405800  0.872600  1.0  0.0973
  H  H64  1  0.744800  0.268400  0.886000  1.0  0.0977
  H  H65  1  0.886500  0.233500  0.846200  1.0  0.1346
  H  H66  1  0.191700  0.708400  0.594600  1.0  0.1136
  H  H67  1  0.325800  0.705100  0.533000  1.0  0.0963
  H  H68  1  0.401700  0.576400  0.544200  1.0  0.0924
  H  H69  1  0.343800  0.447200  0.615400  1.0  0.1185
  H  H70  1  0.733400  0.189000  0.139800  1.0  0.1208
  H  H71  1  0.785600  0.301700  0.031000  1.0  0.0979
  H  H72  1  0.933000  0.291200  0.993400  1.0  0.0899
  H  H73  1  0.036000  0.174300  0.069800  1.0  0.121
  H  H74  1  0.872900  0.676700  0.486600  1.0  0.134
  H  H75  1  0.989000  0.567200  0.534000  1.0  0.0936
  H  H76  1  0.130300  0.591000  0.491200  1.0  0.0897
  H  H77  1  0.162300  0.726500  0.398800  1.0  0.1262
  H  H78  1  0.215300  0.754500  0.229600  1.0  0.1208
  H  H79  1  0.314300  0.626100  0.268200  1.0  0.0985
  H  H80  1  0.435300  0.600400  0.343800  1.0  0.0854
  H  H81  1  0.470200  0.701000  0.384600  1.0  0.1241
  H  H82  1  0.025000  0.160200  0.259800  1.0  0.1175
  H  H83  1  0.027200  0.267500  0.294800  1.0  0.1078
  H  H84  1  0.149000  0.275100  0.357200  1.0  0.0863
  H  H85  1  0.268500  0.171200  0.389800  1.0  0.1249
  H  H86  1  0.656700  0.074400  0.037400  1.0  0.1132
  H  H87  1  0.669600  0.819300  0.190600  1.0  0.1097
  H  H88  1  0.641200  0.899900  0.957400  1.0  0.1092
  H  H89  1  0.124300  0.700000  0.909400  1.0  0.3291
  H  H90  1  0.141900  0.829500  0.763400  1.0  0.3256
  H  H91  1  0.038700  0.312800  0.776000  1.0  0.3201
  H  H92  1  0.838800  0.854700  0.374400  1.0  0.3226
  H  H93  1  0.330600  0.018400  0.373400  1.0  0.3654
  H  H94  1  0.392800  0.862200  0.377800  1.0  0.3141
  C  C95  1  0.051400  0.563300  0.284400  1.0  0.6268
  C  C96  1  0.120600  0.495000  0.336800  1.0  -0.1276
  C  C97  1  0.110600  0.458300  0.419000  1.0  -0.0014
  C  C98  1  0.178400  0.398200  0.468200  1.0  -0.1396
  C  C99  1  0.169400  0.363100  0.555600  1.0  0.6958
  C  C100  1  0.254700  0.373600  0.434600  1.0  0.0081
  C  C101  1  0.264200  0.409400  0.352000  1.0  -0.1604
  C  C102  1  0.346800  0.381700  0.318600  1.0  0.6537
  C  C103  1  0.196000  0.471200  0.303600  1.0  -0.0076
  C  C104  1  0.560700  0.444200  0.372200  1.0  0.1463
  C  C105  1  0.537100  0.397000  0.451200  1.0  -0.1055
  C  C106  1  0.555800  0.426400  0.504200  1.0  -0.0832
  C  C107  1  0.598000  0.500600  0.479400  1.0  -0.1087
  C  C108  1  0.622800  0.547400  0.401000  1.0  -0.082
  C  C109  1  0.604200  0.517900  0.347200  1.0  0.1055
  C  C110  1  0.554700  0.457500  0.081400  1.0  0.0733
  C  C111  1  0.532900  0.415600  0.038400  1.0  -0.1321
  C  C112  1  0.545300  0.454700  0.957600  1.0  -0.12
  C  C113  1  0.579300  0.534400  0.918200  1.0  -0.097
  C  C114  1  0.600500  0.576700  0.958200  1.0  -0.0955
  C  C115  1  0.588200  0.537400  0.040600  1.0  0.1439
  C  C116  1  0.582700  0.494900  0.246200  1.0  0.3669
  C  C117  1  0.581000  0.498900  0.167800  1.0  0.3758
  C  C118  1  0.396800  0.238700  0.199000  1.0  0.133
  C  C119  1  0.310900  0.285500  0.172600  1.0  -0.1505
  C  C120  1  0.256000  0.250600  0.142800  1.0  -0.1156
  C  C121  1  0.283500  0.174900  0.135200  1.0  -0.1265
  C  C122  1  0.367600  0.129800  0.159000  1.0  -0.1118
  C  C123  1  0.422800  0.164000  0.191800  1.0  0.1355
  C  C124  1  0.686100  0.223600  0.354400  1.0  0.0985
  C  C125  1  0.721700  0.255800  0.400200  1.0  -0.0938
  C  C126  1  0.801600  0.216600  0.437000  1.0  -0.0872
  C  C127  1  0.847400  0.145300  0.430600  1.0  -0.0845
  C  C128  1  0.813900  0.110800  0.388000  1.0  -0.1614
  C  C129  1  0.731400  0.152000  0.349000  1.0  0.1336
  C  C130  1  0.528700  0.191100  0.246600  1.0  0.3348
  C  C131  1  0.605800  0.185800  0.287000  1.0  0.2795
  C  C132  1  0.353800  0.287800  0.825800  1.0  0.1037
  C  C133  1  0.293000  0.313100  0.873400  1.0  -0.1362
  C  C134  1  0.323900  0.313900  0.938400  1.0  -0.1039
  C  C135  1  0.414500  0.286100  0.960200  1.0  -0.1448
  C  C136  1  0.476700  0.260800  0.915800  1.0  -0.1511
  C  C137  1  0.443500  0.262400  0.846200  1.0  0.1024
  C  C138  1  0.448000  0.177500  0.589600  1.0  0.1321
  C  C139  1  0.430100  0.154600  0.532000  1.0  -0.1287
  C  C140  1  0.499600  0.118600  0.503800  1.0  -0.0951
  C  C141  1  0.584900  0.107300  0.529400  1.0  -0.0942
  C  C142  1  0.604500  0.132300  0.584600  1.0  -0.1274
  C  C143  1  0.534200  0.168700  0.614800  1.0  0.0862
  C  C144  1  0.421300  0.249600  0.741600  1.0  0.2647
  C  C145  1  0.448400  0.222100  0.680000  1.0  0.3792
  C  C146  1  0.783600  0.088800  0.712000  1.0  0.1131
  C  C147  1  0.764500  0.004100  0.739200  1.0  -0.1006
  C  C148  1  0.824400  0.951000  0.716200  1.0  -0.1056
  C  C149  1  0.898000  0.981500  0.670600  1.0  -0.1077
  C  C150  1  0.919700  0.066400  0.644800  1.0  -0.1053
  C  C151  1  0.859400  0.118700  0.667000  1.0  0.1134
  C  C152  1  0.646800  0.400800  0.697200  1.0  0.1345
  C  C153  1  0.574100  0.447100  0.714600  1.0  -0.0747
  C  C154  1  0.575800  0.531400  0.694000  1.0  -0.1061
  C  C155  1  0.650000  0.574200  0.655400  1.0  -0.0969
  C  C156  1  0.720300  0.533000  0.636600  1.0  -0.0791
  C  C157  1  0.717900  0.445400  0.658800  1.0  0.105
  C  C158  1  0.780700  0.225300  0.682400  1.0  0.3389
  C  C159  1  0.742600  0.309500  0.679600  1.0  0.3357
  C  C160  1  0.136300  0.970000  0.099000  1.0  0.6504
  C  C161  1  0.146600  0.981600  0.014800  1.0  -0.1314
  C  C162  1  0.156100  0.064500  0.952800  1.0  0.0053
  C  C163  1  0.164600  0.073700  0.876200  1.0  -0.11
  C  C164  1  0.179800  0.158800  0.803400  1.0  0.674
  C  C165  1  0.164300  0.002300  0.861200  1.0  0.0215
  C  C166  1  0.156300  0.920400  0.923200  1.0  -0.1512
  C  C167  1  0.159400  0.845800  0.904000  1.0  0.7108
  C  C168  1  0.147100  0.911500  0.000400  1.0  0.0294
  C  C169  1  0.551400  0.847700  0.715600  1.0  0.6301
  C  C170  1  0.620600  0.831800  0.663200  1.0  -0.1254
  C  C171  1  0.610600  0.877300  0.581000  1.0  -0.0009
  C  C172  1  0.678400  0.866400  0.531800  1.0  -0.1393
  C  C173  1  0.669400  0.918700  0.444400  1.0  0.6971
  C  C174  1  0.754700  0.808200  0.565400  1.0  0.0071
  C  C175  1  0.764200  0.761400  0.648000  1.0  -0.1611
  C  C176  1  0.846800  0.700300  0.681400  1.0  0.6528
  C  C177  1  0.696000  0.774800  0.696400  1.0  -0.0065
  C  C178  1  0.060700  0.816400  0.627800  1.0  0.1459
  C  C179  1  0.037100  0.848200  0.548800  1.0  -0.1059
  C  C180  1  0.055800  0.930600  0.495800  1.0  -0.0837
  C  C181  1  0.098000  0.980000  0.520600  1.0  -0.1115
  C  C182  1  0.122800  0.948400  0.599000  1.0  -0.083
  C  C183  1  0.104200  0.865100  0.652800  1.0  0.1055
  C  C184  1  0.054700  0.538900  0.918600  1.0  0.0725
  C  C185  1  0.032900  0.454000  0.961600  1.0  -0.1312
  C  C186  1  0.045300  0.412300  0.042400  1.0  -0.1222
  C  C187  1  0.079300  0.452600  0.081800  1.0  -0.0982
  C  C188  1  0.100500  0.534900  0.041800  1.0  -0.0986
  C  C189  1  0.088200  0.578000  0.959400  1.0  0.1437
  C  C190  1  0.082700  0.741100  0.753800  1.0  0.3676
  C  C191  1  0.081000  0.666667  0.832200  1.0  0.3755
  C  C192  1  0.896800  0.437700  0.801000  1.0  0.1327
  C  C193  1  0.810900  0.458100  0.827400  1.0  -0.1531
  C  C194  1  0.756000  0.393400  0.857200  1.0  -0.1174
  C  C195  1  0.783500  0.310100  0.864800  1.0  -0.1252
  C  C196  1  0.867600  0.288800  0.841000  1.0  -0.11
  C  C197  1  0.922800  0.355800  0.808200  1.0  0.1358
  C  C198  1  0.186100  0.578000  0.645600  1.0  0.0972
  C  C199  1  0.221700  0.656000  0.599800  1.0  -0.0959
  C  C200  1  0.301600  0.653600  0.563000  1.0  -0.0884
  C  C201  1  0.347400  0.575900  0.569400  1.0  -0.086
  C  C202  1  0.313900  0.498800  0.612000  1.0  -0.1628
  C  C203  1  0.231400  0.501000  0.651000  1.0  0.1345
  C  C204  1  0.028700  0.437700  0.753400  1.0  0.3344
  C  C205  1  0.105800  0.472800  0.713000  1.0  0.2787
  C  C206  1  0.853800  0.113600  0.174200  1.0  0.103
  C  C207  1  0.793000  0.186500  0.126600  1.0  -0.1367
  C  C208  1  0.823900  0.252300  0.061600  1.0  -0.1041
  C  C209  1  0.914500  0.246300  0.039800  1.0  -0.1473
  C  C210  1  0.976700  0.176600  0.084200  1.0  -0.1515
  C  C211  1  0.943500  0.108600  0.153800  1.0  0.1027
  C  C212  1  0.948000  0.767100  0.410400  1.0  0.1298
  C  C213  1  0.930100  0.686600  0.468000  1.0  -0.1276
  C  C214  1  0.999600  0.622400  0.496200  1.0  -0.0971
  C  C215  1  0.084900  0.636700  0.470600  1.0  -0.0938
  C  C216  1  0.104500  0.716900  0.415400  1.0  -0.1279
  C  C217  1  0.034200  0.783500  0.385200  1.0  0.0873
  C  C218  1  0.921300  0.991200  0.258400  1.0  0.2648
  C  C219  1  0.948400  0.902100  0.320000  1.0  0.3796
  C  C220  1  0.283600  0.800800  0.288000  1.0  0.1137
  C  C221  1  0.264500  0.743300  0.260800  1.0  -0.0991
  C  C222  1  0.324400  0.667200  0.283800  1.0  -0.1022
  C  C223  1  0.398000  0.652100  0.329400  1.0  -0.1089
  C  C224  1  0.419700  0.711200  0.355200  1.0  -0.1056
  C  C225  1  0.359400  0.785700  0.333000  1.0  0.1138
  C  C226  1  0.146800  0.098000  0.302800  1.0  0.1332
  C  C227  1  0.074100  0.161700  0.285400  1.0  -0.0727
  C  C228  1  0.075800  0.225400  0.306000  1.0  -0.1059
  C  C229  1  0.150000  0.229600  0.344600  1.0  -0.0985
  C  C230  1  0.220300  0.169600  0.363400  1.0  -0.0791
  C  C231  1  0.217900  0.104200  0.341200  1.0  0.104
  C  C232  1  0.280700  0.907700  0.317600  1.0  0.3388
  C  C233  1  0.242600  0.989100  0.320400  1.0  0.3371
  C  C234  1  0.636300  0.069000  0.901000  1.0  0.6491
  C  C235  1  0.646600  0.996400  0.985200  1.0  -0.1325
  C  C236  1  0.656100  0.017300  0.047200  1.0  0.0048
  C  C237  1  0.664600  0.949900  0.123800  1.0  -0.1111
  C  C238  1  0.679800  0.962200  0.196600  1.0  0.6754
  C  C239  1  0.664300  0.863500  0.138800  1.0  0.025
  C  C240  1  0.656300  0.843600  0.076800  1.0  -0.1505
  C  C241  1  0.659400  0.749800  0.096000  1.0  0.7079
  C  C242  1  0.647100  0.911900  0.999600  1.0  0.0294
  N  N243  1  0.547600  0.430700  0.306400  1.0  -0.4945
  N  N244  1  0.549500  0.435500  0.162400  1.0  -0.473
  N  N245  1  0.604100  0.562800  0.098200  1.0  -0.2716
  N  N246  1  0.616800  0.548100  0.267600  1.0  -0.2154
  N  N247  1  0.463000  0.254400  0.234200  1.0  -0.4525
  N  N248  1  0.606500  0.245100  0.314200  1.0  -0.4542
  N  N249  1  0.680400  0.126200  0.306600  1.0  -0.4931
  N  N250  1  0.506300  0.134300  0.221400  1.0  -0.2792
  N  N251  1  0.340300  0.279600  0.758000  1.0  -0.5134
  N  N252  1  0.395000  0.214200  0.630600  1.0  -0.2807
  N  N253  1  0.531400  0.197200  0.674000  1.0  -0.4707
  N  N254  1  0.486600  0.238800  0.792000  1.0  -0.5211
  N  N255  1  0.734600  0.158300  0.722000  1.0  -0.4753
  N  N256  1  0.664200  0.315400  0.709400  1.0  -0.4667
  N  N257  1  0.779500  0.383700  0.648400  1.0  -0.279
  N  N258  1  0.854900  0.205300  0.649400  1.0  -0.2699
  N  N259  1  0.047600  0.737100  0.693600  1.0  -0.4944
  N  N260  1  0.049500  0.597900  0.837600  1.0  -0.4728
  N  N261  1  0.104100  0.661000  0.901800  1.0  -0.2716
  N  N262  1  0.116800  0.815700  0.732400  1.0  -0.2129
  N  N263  1  0.963000  0.488600  0.765800  1.0  -0.4544
  N  N264  1  0.106500  0.559300  0.685800  1.0  -0.4525
  N  N265  1  0.180400  0.432800  0.693400  1.0  -0.4923
  N  N266  1  0.006300  0.355700  0.778600  1.0  -0.2797
  N  N267  1  0.840300  0.037600  0.242000  1.0  -0.5132
  N  N268  1  0.895000  0.844800  0.369400  1.0  -0.2819
  N  N269  1  0.031400  0.871200  0.326000  1.0  -0.4718
  N  N270  1  0.986600  0.030800  0.208000  1.0  -0.5228
  N  N271  1  0.234600  0.880300  0.278000  1.0  -0.4748
  N  N272  1  0.164200  0.024800  0.290600  1.0  -0.4675
  N  N273  1  0.279500  0.032100  0.351600  1.0  -0.2797
  N  N274  1  0.354900  0.854700  0.350600  1.0  -0.2694
  O  O275  1  0.063900  0.607600  0.210400  1.0  -0.4816
  O  O276  1  0.979300  0.582000  0.315200  1.0  -0.4604
  O  O277  1  0.240200  0.328900  0.597000  1.0  -0.6385
  O  O278  1  0.096300  0.369000  0.587800  1.0  -0.5926
  O  O279  1  0.399500  0.318100  0.363000  1.0  -0.5789
  O  O280  1  0.364900  0.424410  0.245780  1.0  -0.5967
  O  O281  1  0.155500  0.027700  0.114400  1.0  -0.5713
  O  O282  1  0.105400  0.903500  0.151600  1.0  -0.5436
  O  O283  1  0.139800  0.773800  0.957000  1.0  -0.5272
  O  O284  1  0.181300  0.859200  0.834200  1.0  -0.5906
  O  O285  1  0.150400  0.228800  0.807200  1.0  -0.6137
  O  O286  1  0.221300  0.160100  0.744600  1.0  -0.5805
  O  O287  1  0.563900  0.818000  0.789600  1.0  -0.4769
  O  O288  1  0.479300  0.897200  0.684800  1.0  -0.4602
  O  O289  1  0.740200  0.925900  0.403000  1.0  -0.639
  O  O290  1  0.596300  0.956800  0.412200  1.0  -0.5909
  O  O291  1  0.899500  0.681100  0.637000  1.0  -0.5789
  O  O292  1  0.864900  0.670190  0.754220  1.0  -0.5997
  O  O293  1  0.655500  0.142100  0.885600  1.0  -0.5712
  O  O294  1  0.605400  0.055100  0.848400  1.0  -0.5408
  O  O295  1  0.639800  0.730800  0.043000  1.0  -0.5273
  O  O296  1  0.681300  0.693400  0.165800  1.0  -0.5898
  O  O297  1  0.650400  0.036000  0.192800  1.0  -0.6145
  O  O298  1  0.721300  0.904700  0.255400  1.0  -0.5777
