# generated using pymatgen
data_CuP2H27C35BrN
_symmetry_space_group_name_H-M   'P 1'
_cell_length_a   18.55610000
_cell_length_b   18.55610000
_cell_length_c   21.26280000
_cell_angle_alpha   90.00000000
_cell_angle_beta   90.00000000
_cell_angle_gamma   120.00000000
_symmetry_Int_Tables_number   1
_chemical_formula_structural   CuP2H27C35BrN
_chemical_formula_sum   'Cu6 P12 H162 C210 Br6 N6'
_cell_volume   6340.51441834
_cell_formula_units_Z   6
loop_
 _symmetry_equiv_pos_site_id
 _symmetry_equiv_pos_as_xyz
  1  'x, y, z'
loop_
 _atom_site_type_symbol
 _atom_site_label
 _atom_site_symmetry_multiplicity
 _atom_site_fract_x
 _atom_site_fract_y
 _atom_site_fract_z
 _atom_site_occupancy
 _atom_site_charge
  Cu  Cu1  1  0.842870  0.507850  0.990490  1.0  0.2688
  Cu  Cu2  1  0.664980  0.157130  0.323820  1.0  0.2698
  Cu  Cu3  1  0.492150  0.335020  0.657160  1.0  0.2667
  Cu  Cu4  1  0.335020  0.492150  0.009510  1.0  0.268
  Cu  Cu5  1  0.507850  0.842870  0.676180  1.0  0.2693
  Cu  Cu6  1  0.157130  0.664980  0.342840  1.0  0.2673
  P  P7  1  0.735950  0.384650  0.026750  1.0  0.7679
  P  P8  1  0.669200  0.144000  0.217940  1.0  0.8895
  P  P9  1  0.648700  0.264050  0.360080  1.0  0.7713
  P  P10  1  0.474800  0.330800  0.551270  1.0  0.8908
  P  P11  1  0.615350  0.351300  0.693420  1.0  0.7713
  P  P12  1  0.856000  0.525200  0.884610  1.0  0.8897
  P  P13  1  0.351300  0.615350  0.973250  1.0  0.7691
  P  P14  1  0.525200  0.856000  0.782060  1.0  0.8927
  P  P15  1  0.384650  0.735950  0.639920  1.0  0.7714
  P  P16  1  0.144000  0.669200  0.448730  1.0  0.8937
  P  P17  1  0.264050  0.648700  0.306580  1.0  0.771
  P  P18  1  0.330800  0.474800  0.115390  1.0  0.8936
  H  H19  1  0.664500  0.231900  0.100600  1.0  0.0918
  H  H20  1  0.810500  0.295500  0.256200  1.0  0.071
  H  H21  1  0.851200  0.467000  0.126400  1.0  0.1093
  H  H22  1  0.955100  0.377400  0.268000  1.0  0.1198
  H  H23  1  0.062500  0.478200  0.324000  1.0  0.0569
  H  H24  1  0.011800  0.648200  0.269500  1.0  0.0694
  H  H25  1  0.896500  0.551600  0.214300  1.0  0.1187
  H  H26  1  0.638000  0.305600  0.915400  1.0  0.0804
  H  H27  1  0.618200  0.200800  0.848200  1.0  0.087
  H  H28  1  0.698400  0.139500  0.860800  1.0  0.0821
  H  H29  1  0.775600  0.160800  0.951700  1.0  0.1098
  H  H30  1  0.796700  0.271800  0.019200  1.0  0.0827
  H  H31  1  0.695700  0.513100  0.061900  1.0  0.0914
  H  H32  1  0.572600  0.511500  0.088800  1.0  0.0952
  H  H33  1  0.445100  0.387200  0.083100  1.0  0.0841
  H  H34  1  0.440600  0.264600  0.050400  1.0  0.0999
  H  H35  1  0.563700  0.266300  0.023500  1.0  0.1028
  H  H36  1  0.752300  0.142700  0.100300  1.0  0.0993
  H  H37  1  0.812000  0.061500  0.066800  1.0  0.0954
  H  H38  1  0.811300  0.964300  0.130300  1.0  0.092
  H  H39  1  0.769100  0.950100  0.235200  1.0  0.1097
  H  H40  1  0.708500  0.022700  0.268600  1.0  0.0739
  H  H41  1  0.532400  0.160700  0.214600  1.0  0.0634
  H  H42  1  0.402600  0.101500  0.166000  1.0  0.091
  H  H43  1  0.373600  0.012500  0.081800  1.0  0.084
  H  H44  1  0.462800  0.960300  0.069300  1.0  0.081
  H  H45  1  0.594700  0.018400  0.115700  1.0  0.1052
  H  H46  1  0.567400  0.335500  0.433930  1.0  0.092
  H  H47  1  0.485000  0.189500  0.589530  1.0  0.0719
  H  H48  1  0.615800  0.148800  0.459730  1.0  0.1077
  H  H49  1  0.422300  0.044900  0.601330  1.0  0.1202
  H  H50  1  0.415700  0.937500  0.657330  1.0  0.0569
  H  H51  1  0.636400  0.988200  0.602830  1.0  0.068
  H  H52  1  0.655100  0.103500  0.547630  1.0  0.1182
  H  H53  1  0.667600  0.362000  0.248730  1.0  0.0803
  H  H54  1  0.582600  0.381800  0.181530  1.0  0.0886
  H  H55  1  0.441100  0.301600  0.194130  1.0  0.0825
  H  H56  1  0.385200  0.224400  0.285030  1.0  0.1101
  H  H57  1  0.475100  0.203300  0.352530  1.0  0.0819
  H  H58  1  0.817400  0.304300  0.395230  1.0  0.0917
  H  H59  1  0.938900  0.427400  0.422130  1.0  0.0946
  H  H60  1  0.942100  0.554900  0.416430  1.0  0.0844
  H  H61  1  0.824000  0.559400  0.383730  1.0  0.0998
  H  H62  1  0.702600  0.436300  0.356830  1.0  0.1038
  H  H63  1  0.390400  0.247700  0.433630  1.0  0.0983
  H  H64  1  0.249500  0.188000  0.400130  1.0  0.0962
  H  H65  1  0.153000  0.188700  0.463630  1.0  0.0901
  H  H66  1  0.181000  0.230900  0.568530  1.0  0.1101
  H  H67  1  0.314200  0.291500  0.601930  1.0  0.0746
  H  H68  1  0.628300  0.467600  0.547930  1.0  0.0628
  H  H69  1  0.698900  0.597400  0.499330  1.0  0.0925
  H  H70  1  0.638900  0.626400  0.415130  1.0  0.0858
  H  H71  1  0.497500  0.537200  0.402630  1.0  0.0823
  H  H72  1  0.423700  0.405300  0.449030  1.0  0.1048
  H  H73  1  0.768100  0.432600  0.767270  1.0  0.091
  H  H74  1  0.704500  0.515000  0.922870  1.0  0.0705
  H  H75  1  0.533000  0.384200  0.793070  1.0  0.1086
  H  H76  1  0.622600  0.577700  0.934670  1.0  0.12
  H  H77  1  0.521800  0.584300  0.990670  1.0  0.0572
  H  H78  1  0.351800  0.363600  0.936170  1.0  0.0692
  H  H79  1  0.448400  0.344900  0.880970  1.0  0.118
  H  H80  1  0.694400  0.332400  0.582070  1.0  0.0807
  H  H81  1  0.799200  0.417400  0.514870  1.0  0.0894
  H  H82  1  0.860500  0.558900  0.527470  1.0  0.0823
  H  H83  1  0.839200  0.614800  0.618370  1.0  0.1096
  H  H84  1  0.728200  0.524900  0.685870  1.0  0.0809
  H  H85  1  0.486900  0.182600  0.728570  1.0  0.0922
  H  H86  1  0.488500  0.061100  0.755470  1.0  0.0938
  H  H87  1  0.612800  0.057900  0.749770  1.0  0.0843
  H  H88  1  0.735400  0.176000  0.717070  1.0  0.0981
  H  H89  1  0.733700  0.297400  0.690170  1.0  0.1035
  H  H90  1  0.857300  0.609600  0.766970  1.0  0.0992
  H  H91  1  0.938500  0.750500  0.733470  1.0  0.0952
  H  H92  1  0.035700  0.847000  0.796970  1.0  0.0904
  H  H93  1  0.049900  0.819000  0.901870  1.0  0.1114
  H  H94  1  0.977300  0.685800  0.935270  1.0  0.0745
  H  H95  1  0.839300  0.371700  0.881270  1.0  0.0634
  H  H96  1  0.898500  0.301100  0.832670  1.0  0.093
  H  H97  1  0.987500  0.361100  0.748470  1.0  0.0851
  H  H98  1  0.039700  0.502500  0.735970  1.0  0.0827
  H  H99  1  0.981600  0.576300  0.782370  1.0  0.105
  H  H100  1  0.432600  0.768100  0.899400  1.0  0.0922
  H  H101  1  0.515000  0.704500  0.743800  1.0  0.0707
  H  H102  1  0.384200  0.533000  0.873600  1.0  0.1087
  H  H103  1  0.577700  0.622600  0.732000  1.0  0.1203
  H  H104  1  0.584300  0.521800  0.676000  1.0  0.0569
  H  H105  1  0.363600  0.351800  0.730500  1.0  0.07
  H  H106  1  0.344900  0.448400  0.785700  1.0  0.1183
  H  H107  1  0.332400  0.694400  0.084600  1.0  0.0805
  H  H108  1  0.417400  0.799200  0.151800  1.0  0.0875
  H  H109  1  0.558900  0.860500  0.139200  1.0  0.0809
  H  H110  1  0.614800  0.839200  0.048300  1.0  0.1102
  H  H111  1  0.524900  0.728200  0.980800  1.0  0.0824
  H  H112  1  0.182600  0.486900  0.938100  1.0  0.0909
  H  H113  1  0.061100  0.488500  0.911200  1.0  0.0939
  H  H114  1  0.057900  0.612800  0.916900  1.0  0.0848
  H  H115  1  0.176000  0.735400  0.949600  1.0  0.1003
  H  H116  1  0.297400  0.733700  0.976500  1.0  0.1032
  H  H117  1  0.609600  0.857300  0.899700  1.0  0.0993
  H  H118  1  0.750500  0.938500  0.933200  1.0  0.0951
  H  H119  1  0.847000  0.035700  0.869700  1.0  0.0917
  H  H120  1  0.819000  0.049900  0.764800  1.0  0.1101
  H  H121  1  0.685800  0.977300  0.731400  1.0  0.0753
  H  H122  1  0.371700  0.839300  0.785400  1.0  0.0636
  H  H123  1  0.301100  0.898500  0.834000  1.0  0.0912
  H  H124  1  0.361100  0.987500  0.918200  1.0  0.0853
  H  H125  1  0.502500  0.039700  0.930700  1.0  0.0811
  H  H126  1  0.576300  0.981600  0.884300  1.0  0.1041
  H  H127  1  0.231900  0.664500  0.566070  1.0  0.0923
  H  H128  1  0.295500  0.810500  0.410470  1.0  0.0715
  H  H129  1  0.467000  0.851200  0.540270  1.0  0.1071
  H  H130  1  0.377400  0.955100  0.398670  1.0  0.1199
  H  H131  1  0.478200  0.062500  0.342670  1.0  0.0572
  H  H132  1  0.648200  0.011800  0.397170  1.0  0.0687
  H  H133  1  0.551600  0.896500  0.452370  1.0  0.1179
  H  H134  1  0.305600  0.638000  0.751270  1.0  0.0805
  H  H135  1  0.200800  0.618200  0.818470  1.0  0.0893
  H  H136  1  0.139500  0.698400  0.805870  1.0  0.0824
  H  H137  1  0.160800  0.775600  0.714970  1.0  0.1103
  H  H138  1  0.271800  0.796700  0.647470  1.0  0.0812
  H  H139  1  0.513100  0.695700  0.604770  1.0  0.092
  H  H140  1  0.511500  0.572600  0.577870  1.0  0.0954
  H  H141  1  0.387200  0.445100  0.583570  1.0  0.0851
  H  H142  1  0.264600  0.440600  0.616270  1.0  0.1002
  H  H143  1  0.266300  0.563700  0.643170  1.0  0.104
  H  H144  1  0.142700  0.752300  0.566370  1.0  0.0989
  H  H145  1  0.061500  0.812000  0.599870  1.0  0.0955
  H  H146  1  0.964300  0.811300  0.536370  1.0  0.0897
  H  H147  1  0.950100  0.769100  0.431470  1.0  0.1098
  H  H148  1  0.022700  0.708500  0.398070  1.0  0.0741
  H  H149  1  0.160700  0.532400  0.452070  1.0  0.063
  H  H150  1  0.101500  0.402600  0.500670  1.0  0.0931
  H  H151  1  0.012500  0.373600  0.584870  1.0  0.0874
  H  H152  1  0.960300  0.462800  0.597370  1.0  0.0822
  H  H153  1  0.018400  0.594700  0.550970  1.0  0.1041
  H  H154  1  0.335500  0.567400  0.232730  1.0  0.0912
  H  H155  1  0.189500  0.485000  0.077130  1.0  0.0703
  H  H156  1  0.148800  0.615800  0.206930  1.0  0.1081
  H  H157  1  0.044900  0.422300  0.065330  1.0  0.1201
  H  H158  1  0.937500  0.415700  0.009330  1.0  0.0573
  H  H159  1  0.988200  0.636400  0.063830  1.0  0.0703
  H  H160  1  0.103500  0.655100  0.119030  1.0  0.1185
  H  H161  1  0.362000  0.667600  0.417930  1.0  0.0807
  H  H162  1  0.381800  0.582600  0.485130  1.0  0.0895
  H  H163  1  0.301600  0.441100  0.472530  1.0  0.0822
  H  H164  1  0.224400  0.385200  0.381630  1.0  0.11
  H  H165  1  0.203300  0.475100  0.314130  1.0  0.0806
  H  H166  1  0.304300  0.817400  0.271430  1.0  0.0928
  H  H167  1  0.427400  0.938900  0.244530  1.0  0.0938
  H  H168  1  0.554900  0.942100  0.250230  1.0  0.084
  H  H169  1  0.559400  0.824000  0.282930  1.0  0.0982
  H  H170  1  0.436300  0.702600  0.309830  1.0  0.1034
  H  H171  1  0.247700  0.390400  0.233030  1.0  0.0995
  H  H172  1  0.188000  0.249500  0.266530  1.0  0.0958
  H  H173  1  0.188700  0.153000  0.203030  1.0  0.0911
  H  H174  1  0.230900  0.181000  0.098130  1.0  0.1101
  H  H175  1  0.291500  0.314200  0.064730  1.0  0.0747
  H  H176  1  0.467600  0.628300  0.118730  1.0  0.0633
  H  H177  1  0.597400  0.698900  0.167330  1.0  0.0923
  H  H178  1  0.626400  0.638900  0.251530  1.0  0.0861
  H  H179  1  0.537200  0.497500  0.264030  1.0  0.0825
  H  H180  1  0.405300  0.423700  0.217630  1.0  0.1039
  C  C181  1  0.755500  0.352400  0.104200  1.0  -0.2079
  C  C182  1  0.709400  0.272000  0.125200  1.0  -0.0377
  C  C183  1  0.728600  0.248200  0.184400  1.0  -0.2496
  C  C184  1  0.795400  0.309600  0.217300  1.0  -0.0714
  C  C185  1  0.839200  0.387300  0.197200  1.0  0.0319
  C  C186  1  0.820000  0.410900  0.140300  1.0  -0.08
  C  C187  1  0.912700  0.453800  0.234600  1.0  0.0671
  C  C188  1  0.964700  0.432700  0.268200  1.0  -0.2381
  C  C189  1  0.028500  0.493400  0.300600  1.0  0.1637
  C  C190  1  0.999000  0.591800  0.269800  1.0  0.1459
  C  C191  1  0.930500  0.534900  0.236000  1.0  -0.2423
  C  C192  1  0.718000  0.295400  0.977400  1.0  -0.0454
  C  C193  1  0.666200  0.275600  0.923100  1.0  -0.0837
  C  C194  1  0.655900  0.215800  0.882500  1.0  -0.1143
  C  C195  1  0.700700  0.177800  0.891500  1.0  -0.1195
  C  C196  1  0.749200  0.192400  0.943500  1.0  -0.1577
  C  C197  1  0.758900  0.256700  0.985000  1.0  -0.1038
  C  C198  1  0.643900  0.462700  0.059600  1.0  -0.0832
  C  C199  1  0.570800  0.461700  0.075600  1.0  -0.1129
  C  C200  1  0.495000  0.387800  0.072200  1.0  -0.1132
  C  C201  1  0.492400  0.315100  0.052800  1.0  -0.1049
  C  C202  1  0.565500  0.316000  0.036800  1.0  -0.0783
  C  C203  1  0.641300  0.389900  0.040200  1.0  -0.298
  C  C204  1  0.721700  0.091800  0.190300  1.0  -0.2374
  C  C205  1  0.754100  0.103300  0.127800  1.0  -0.0966
  C  C206  1  0.789300  0.054200  0.107900  1.0  -0.1546
  C  C207  1  0.790700  0.998400  0.146100  1.0  -0.1157
  C  C208  1  0.763600  0.987500  0.207800  1.0  -0.1616
  C  C209  1  0.729500  0.031800  0.226900  1.0  -0.0457
  C  C210  1  0.573700  0.093200  0.173100  1.0  -0.1036
  C  C211  1  0.518600  0.118200  0.184200  1.0  -0.0611
  C  C212  1  0.441300  0.085000  0.153300  1.0  -0.1159
  C  C213  1  0.422100  0.031200  0.106900  1.0  -0.1319
  C  C214  1  0.478200  0.004700  0.098200  1.0  -0.0997
  C  C215  1  0.556600  0.036200  0.127400  1.0  -0.1651
  C  C216  1  0.596900  0.244500  0.437530  1.0  -0.2074
  C  C217  1  0.562600  0.290600  0.458530  1.0  -0.0359
  C  C218  1  0.519600  0.271400  0.517730  1.0  -0.2494
  C  C219  1  0.514200  0.204600  0.550630  1.0  -0.0734
  C  C220  1  0.548100  0.160800  0.530530  1.0  0.0328
  C  C221  1  0.590900  0.180000  0.473630  1.0  -0.0821
  C  C222  1  0.541100  0.087300  0.567930  1.0  0.0679
  C  C223  1  0.468000  0.035300  0.601530  1.0  -0.2306
  C  C224  1  0.464900  0.971500  0.633930  1.0  0.1666
  C  C225  1  0.592800  0.001000  0.603130  1.0  0.1501
  C  C226  1  0.604400  0.069500  0.569330  1.0  -0.2376
  C  C227  1  0.577400  0.282000  0.310730  1.0  -0.046
  C  C228  1  0.609400  0.333800  0.256430  1.0  -0.0858
  C  C229  1  0.559900  0.344100  0.215830  1.0  -0.1123
  C  C230  1  0.477100  0.299300  0.224830  1.0  -0.1215
  C  C231  1  0.443200  0.250800  0.276830  1.0  -0.1604
  C  C232  1  0.497800  0.241100  0.318330  1.0  -0.1007
  C  C233  1  0.818800  0.356100  0.392930  1.0  -0.0817
  C  C234  1  0.890900  0.429200  0.408930  1.0  -0.1165
  C  C235  1  0.892800  0.505000  0.405530  1.0  -0.1112
  C  C236  1  0.822700  0.507600  0.386130  1.0  -0.1078
  C  C237  1  0.750500  0.434500  0.370130  1.0  -0.0742
  C  C238  1  0.748600  0.358700  0.373530  1.0  -0.2977
  C  C239  1  0.370100  0.278300  0.523630  1.0  -0.2374
  C  C240  1  0.349200  0.245900  0.461130  1.0  -0.1008
  C  C241  1  0.264900  0.210700  0.441230  1.0  -0.1541
  C  C242  1  0.207700  0.209300  0.479430  1.0  -0.1149
  C  C243  1  0.223900  0.236400  0.541130  1.0  -0.158
  C  C244  1  0.302300  0.270500  0.560230  1.0  -0.0476
  C  C245  1  0.519500  0.426300  0.506430  1.0  -0.0993
  C  C246  1  0.599600  0.481400  0.517530  1.0  -0.0632
  C  C247  1  0.643700  0.558700  0.486630  1.0  -0.1094
  C  C248  1  0.609100  0.577900  0.440230  1.0  -0.1276
  C  C249  1  0.526500  0.521800  0.431530  1.0  -0.1025
  C  C250  1  0.479600  0.443400  0.460730  1.0  -0.1634
  C  C251  1  0.647600  0.403100  0.770870  1.0  -0.2087
  C  C252  1  0.728000  0.437400  0.791870  1.0  -0.0366
  C  C253  1  0.751800  0.480400  0.851070  1.0  -0.2518
  C  C254  1  0.690400  0.485800  0.883970  1.0  -0.0746
  C  C255  1  0.612700  0.451900  0.863870  1.0  0.0315
  C  C256  1  0.589100  0.409100  0.806970  1.0  -0.0804
  C  C257  1  0.546200  0.458900  0.901270  1.0  0.0672
  C  C258  1  0.567300  0.532000  0.934870  1.0  -0.2372
  C  C259  1  0.506600  0.535100  0.967270  1.0  0.163
  C  C260  1  0.408200  0.407200  0.936470  1.0  0.148
  C  C261  1  0.465100  0.395600  0.902670  1.0  -0.2421
  C  C262  1  0.704600  0.422600  0.644070  1.0  -0.0455
  C  C263  1  0.724400  0.390600  0.589770  1.0  -0.0834
  C  C264  1  0.784200  0.440100  0.549170  1.0  -0.1153
  C  C265  1  0.822200  0.522900  0.558170  1.0  -0.1182
  C  C266  1  0.807600  0.556800  0.610170  1.0  -0.1544
  C  C267  1  0.743300  0.502200  0.651670  1.0  -0.1037
  C  C268  1  0.537300  0.181200  0.726270  1.0  -0.0763
  C  C269  1  0.538300  0.109100  0.742270  1.0  -0.1152
  C  C270  1  0.612200  0.107200  0.738870  1.0  -0.1135
  C  C271  1  0.684900  0.177300  0.719470  1.0  -0.1053
  C  C272  1  0.684000  0.249500  0.703470  1.0  -0.0721
  C  C273  1  0.610100  0.251400  0.706870  1.0  -0.301
  C  C274  1  0.908200  0.629900  0.856970  1.0  -0.2363
  C  C275  1  0.896700  0.650800  0.794470  1.0  -0.1017
  C  C276  1  0.945800  0.735100  0.774570  1.0  -0.1544
  C  C277  1  0.001600  0.792300  0.812770  1.0  -0.1101
  C  C278  1  0.012500  0.776100  0.874470  1.0  -0.1565
  C  C279  1  0.968200  0.697700  0.893570  1.0  -0.0492
  C  C280  1  0.906800  0.480500  0.839770  1.0  -0.1025
  C  C281  1  0.881800  0.400400  0.850870  1.0  -0.061
  C  C282  1  0.915000  0.356300  0.819970  1.0  -0.1136
  C  C283  1  0.968800  0.390900  0.773570  1.0  -0.1321
  C  C284  1  0.995300  0.473500  0.764870  1.0  -0.1033
  C  C285  1  0.963800  0.520400  0.794070  1.0  -0.1659
  C  C286  1  0.403100  0.647600  0.895800  1.0  -0.2075
  C  C287  1  0.437400  0.728000  0.874800  1.0  -0.0375
  C  C288  1  0.480400  0.751800  0.815600  1.0  -0.2496
  C  C289  1  0.485800  0.690400  0.782700  1.0  -0.0723
  C  C290  1  0.451900  0.612700  0.802800  1.0  0.0327
  C  C291  1  0.409100  0.589100  0.859700  1.0  -0.0793
  C  C292  1  0.458900  0.546200  0.765400  1.0  0.0683
  C  C293  1  0.532000  0.567300  0.731800  1.0  -0.2383
  C  C294  1  0.535100  0.506600  0.699400  1.0  0.1634
  C  C295  1  0.407200  0.408200  0.730200  1.0  0.1467
  C  C296  1  0.395600  0.465100  0.764000  1.0  -0.2406
  C  C297  1  0.422600  0.704600  0.022600  1.0  -0.0449
  C  C298  1  0.390600  0.724400  0.076900  1.0  -0.0837
  C  C299  1  0.440100  0.784200  0.117500  1.0  -0.1146
  C  C300  1  0.522900  0.822200  0.108500  1.0  -0.1201
  C  C301  1  0.556800  0.807600  0.056500  1.0  -0.1568
  C  C302  1  0.502200  0.743300  0.015000  1.0  -0.1043
  C  C303  1  0.181200  0.537300  0.940400  1.0  -0.0811
  C  C304  1  0.109100  0.538300  0.924400  1.0  -0.1136
  C  C305  1  0.107200  0.612200  0.927800  1.0  -0.1128
  C  C306  1  0.177300  0.684900  0.947200  1.0  -0.1032
  C  C307  1  0.249500  0.684000  0.963200  1.0  -0.0782
  C  C308  1  0.251400  0.610100  0.959800  1.0  -0.2979
  C  C309  1  0.629900  0.908200  0.809700  1.0  -0.2402
  C  C310  1  0.650800  0.896700  0.872200  1.0  -0.0978
  C  C311  1  0.735100  0.945800  0.892100  1.0  -0.1547
  C  C312  1  0.792300  0.001600  0.853900  1.0  -0.1162
  C  C313  1  0.776100  0.012500  0.792200  1.0  -0.1636
  C  C314  1  0.697700  0.968200  0.773100  1.0  -0.0439
  C  C315  1  0.480500  0.906800  0.826900  1.0  -0.105
  C  C316  1  0.400400  0.881800  0.815800  1.0  -0.0612
  C  C317  1  0.356300  0.915000  0.846700  1.0  -0.1142
  C  C318  1  0.390900  0.968800  0.893100  1.0  -0.1315
  C  C319  1  0.473500  0.995300  0.901800  1.0  -0.099
  C  C320  1  0.520400  0.963800  0.872600  1.0  -0.1647
  C  C321  1  0.352400  0.755500  0.562470  1.0  -0.2065
  C  C322  1  0.272000  0.709400  0.541470  1.0  -0.0359
  C  C323  1  0.248200  0.728600  0.482270  1.0  -0.2496
  C  C324  1  0.309600  0.795400  0.449370  1.0  -0.0733
  C  C325  1  0.387300  0.839200  0.469470  1.0  0.0323
  C  C326  1  0.410900  0.820000  0.526370  1.0  -0.0813
  C  C327  1  0.453800  0.912700  0.432070  1.0  0.0684
  C  C328  1  0.432700  0.964700  0.398470  1.0  -0.2311
  C  C329  1  0.493400  0.028500  0.366070  1.0  0.1665
  C  C330  1  0.591800  0.999000  0.396870  1.0  0.15
  C  C331  1  0.534900  0.930500  0.430670  1.0  -0.2381
  C  C332  1  0.295400  0.718000  0.689270  1.0  -0.045
  C  C333  1  0.275600  0.666200  0.743570  1.0  -0.0843
  C  C334  1  0.215800  0.655900  0.784170  1.0  -0.1124
  C  C335  1  0.177800  0.700700  0.775170  1.0  -0.122
  C  C336  1  0.192400  0.749200  0.723170  1.0  -0.1601
  C  C337  1  0.256700  0.758900  0.681670  1.0  -0.1013
  C  C338  1  0.462700  0.643900  0.607070  1.0  -0.08
  C  C339  1  0.461700  0.570800  0.591070  1.0  -0.1169
  C  C340  1  0.387800  0.495000  0.594470  1.0  -0.1113
  C  C341  1  0.315100  0.492400  0.613870  1.0  -0.1082
  C  C342  1  0.316000  0.565500  0.629870  1.0  -0.0747
  C  C343  1  0.389900  0.641300  0.626470  1.0  -0.2984
  C  C344  1  0.091800  0.721700  0.476370  1.0  -0.2383
  C  C345  1  0.103300  0.754100  0.538870  1.0  -0.1016
  C  C346  1  0.054200  0.789300  0.558770  1.0  -0.1536
  C  C347  1  0.998400  0.790700  0.520570  1.0  -0.1161
  C  C348  1  0.987500  0.763600  0.458870  1.0  -0.1587
  C  C349  1  0.031800  0.729500  0.439770  1.0  -0.046
  C  C350  1  0.093200  0.573700  0.493570  1.0  -0.0994
  C  C351  1  0.118200  0.518600  0.482470  1.0  -0.0641
  C  C352  1  0.085000  0.441300  0.513370  1.0  -0.1096
  C  C353  1  0.031200  0.422100  0.559770  1.0  -0.1294
  C  C354  1  0.004700  0.478200  0.568470  1.0  -0.1012
  C  C355  1  0.036200  0.556600  0.539270  1.0  -0.1626
  C  C356  1  0.244500  0.596900  0.229130  1.0  -0.2083
  C  C357  1  0.290600  0.562600  0.208130  1.0  -0.0362
  C  C358  1  0.271400  0.519600  0.148930  1.0  -0.252
  C  C359  1  0.204600  0.514200  0.116030  1.0  -0.0736
  C  C360  1  0.160800  0.548100  0.136130  1.0  0.0317
  C  C361  1  0.180000  0.590900  0.193030  1.0  -0.0811
  C  C362  1  0.087300  0.541100  0.098730  1.0  0.0677
  C  C363  1  0.035300  0.468000  0.065130  1.0  -0.2381
  C  C364  1  0.971500  0.464900  0.032730  1.0  0.1636
  C  C365  1  0.001000  0.592800  0.063530  1.0  0.147
  C  C366  1  0.069500  0.604400  0.097330  1.0  -0.2427
  C  C367  1  0.282000  0.577400  0.355930  1.0  -0.0451
  C  C368  1  0.333800  0.609400  0.410230  1.0  -0.0842
  C  C369  1  0.344100  0.559900  0.450830  1.0  -0.1148
  C  C370  1  0.299300  0.477100  0.441830  1.0  -0.1183
  C  C371  1  0.250800  0.443200  0.389830  1.0  -0.1564
  C  C372  1  0.241100  0.497800  0.348330  1.0  -0.1033
  C  C373  1  0.356100  0.818800  0.273730  1.0  -0.076
  C  C374  1  0.429200  0.890900  0.257730  1.0  -0.1152
  C  C375  1  0.505000  0.892800  0.261130  1.0  -0.1119
  C  C376  1  0.507600  0.822700  0.280530  1.0  -0.1051
  C  C377  1  0.434500  0.750500  0.296530  1.0  -0.0721
  C  C378  1  0.358700  0.748600  0.293130  1.0  -0.3009
  C  C379  1  0.278300  0.370100  0.143030  1.0  -0.2375
  C  C380  1  0.245900  0.349200  0.205530  1.0  -0.1022
  C  C381  1  0.210700  0.264900  0.225430  1.0  -0.1539
  C  C382  1  0.209300  0.207700  0.187230  1.0  -0.1121
  C  C383  1  0.236400  0.223900  0.125530  1.0  -0.1587
  C  C384  1  0.270500  0.302300  0.106430  1.0  -0.0465
  C  C385  1  0.426300  0.519500  0.160230  1.0  -0.1029
  C  C386  1  0.481400  0.599600  0.149130  1.0  -0.0618
  C  C387  1  0.558700  0.643700  0.180030  1.0  -0.1107
  C  C388  1  0.577900  0.609100  0.226430  1.0  -0.1295
  C  C389  1  0.521800  0.526500  0.235130  1.0  -0.1013
  C  C390  1  0.443400  0.479600  0.205930  1.0  -0.1659
  Br  Br391  1  0.835200  0.623910  0.035120  1.0  -0.4406
  Br  Br392  1  0.788710  0.164800  0.368450  1.0  -0.4382
  Br  Br393  1  0.376090  0.211290  0.701790  1.0  -0.4395
  Br  Br394  1  0.211290  0.376090  0.964880  1.0  -0.4421
  Br  Br395  1  0.623910  0.835200  0.631550  1.0  -0.4368
  Br  Br396  1  0.164800  0.788710  0.298210  1.0  -0.4381
  N  N397  1  0.048300  0.573000  0.302800  1.0  -0.3322
  N  N398  1  0.524700  0.951700  0.636130  1.0  -0.3312
  N  N399  1  0.427000  0.475300  0.969470  1.0  -0.3348
  N  N400  1  0.475300  0.427000  0.697200  1.0  -0.3323
  N  N401  1  0.573000  0.048300  0.363870  1.0  -0.3328
  N  N402  1  0.951700  0.524700  0.030530  1.0  -0.3345
