# generated using pymatgen
data_CuP2H27C35NCl
_symmetry_space_group_name_H-M   'P 1'
_cell_length_a   18.41000000
_cell_length_b   18.41000000
_cell_length_c   21.32100000
_cell_angle_alpha   90.00000000
_cell_angle_beta   90.00000000
_cell_angle_gamma   120.00000000
_symmetry_Int_Tables_number   1
_chemical_formula_structural   CuP2H27C35NCl
_chemical_formula_sum   'Cu6 P12 H162 C210 N6 Cl6'
_cell_volume   6258.14726842
_cell_formula_units_Z   6
loop_
 _symmetry_equiv_pos_site_id
 _symmetry_equiv_pos_as_xyz
  1  'x, y, z'
loop_
 _atom_site_type_symbol
 _atom_site_label
 _atom_site_symmetry_multiplicity
 _atom_site_fract_x
 _atom_site_fract_y
 _atom_site_fract_z
 _atom_site_occupancy
 _atom_site_charge
  Cu  Cu1  1  0.507400  0.663500  0.658190  1.0  0.2852
  Cu  Cu2  1  0.156100  0.492600  0.991520  1.0  0.2857
  Cu  Cu3  1  0.336500  0.843900  0.324860  1.0  0.2849
  Cu  Cu4  1  0.843900  0.336500  0.341810  1.0  0.2849
  Cu  Cu5  1  0.663500  0.507400  0.008480  1.0  0.286
  Cu  Cu6  1  0.492600  0.156100  0.675140  1.0  0.2854
  P  P7  1  0.380300  0.645600  0.693250  1.0  0.7455
  P  P8  1  0.139000  0.470200  0.886510  1.0  0.883
  P  P9  1  0.265300  0.619700  0.026580  1.0  0.7374
  P  P10  1  0.331200  0.861000  0.219840  1.0  0.8817
  P  P11  1  0.354400  0.734700  0.359920  1.0  0.7561
  P  P12  1  0.529800  0.668800  0.553180  1.0  0.8831
  P  P13  1  0.734700  0.354400  0.306750  1.0  0.7446
  P  P14  1  0.668800  0.529800  0.113490  1.0  0.8857
  P  P15  1  0.645600  0.380300  0.973420  1.0  0.7509
  P  P16  1  0.470200  0.139000  0.780160  1.0  0.8851
  P  P17  1  0.619700  0.265300  0.640080  1.0  0.7558
  P  P18  1  0.861000  0.331200  0.446820  1.0  0.8865
  H  H19  1  0.647200  0.641500  0.935500  1.0  0.0754
  H  H20  1  0.546600  0.650800  0.879100  1.0  0.0846
  H  H21  1  0.372000  0.421900  0.934600  1.0  0.1339
  H  H22  1  0.478700  0.418400  0.993500  1.0  0.0736
  H  H23  1  0.462200  0.611900  0.790400  1.0  0.0931
  H  H24  1  0.222700  0.558400  0.766100  1.0  0.0829
  H  H25  1  0.287600  0.477000  0.921100  1.0  0.1004
  H  H26  1  0.491500  0.815000  0.727300  1.0  0.1117
  H  H27  1  0.478700  0.932400  0.750200  1.0  0.094
  H  H28  1  0.348300  0.924600  0.741000  1.0  0.1036
  H  H29  1  0.230700  0.799400  0.709000  1.0  0.0956
  H  H30  1  0.243500  0.682000  0.686100  1.0  0.1045
  H  H31  1  0.304000  0.667500  0.579600  1.0  0.1154
  H  H32  1  0.204800  0.572600  0.508900  1.0  0.0833
  H  H33  1  0.142800  0.438800  0.523200  1.0  0.0727
  H  H34  1  0.152900  0.378000  0.617800  1.0  0.114
  H  H35  1  0.265900  0.466800  0.686800  1.0  0.0985
  H  H36  1  0.130500  0.381200  0.766800  1.0  0.0854
  H  H37  1  0.061200  0.246700  0.734600  1.0  0.0944
  H  H38  1  0.966200  0.137000  0.803600  1.0  0.1195
  H  H39  1  0.955600  0.174100  0.907000  1.0  0.0927
  H  H40  1  0.016600  0.307700  0.940600  1.0  0.1001
  H  H41  1  0.013800  0.417800  0.782400  1.0  0.0943
  H  H42  1  0.958800  0.489500  0.727400  1.0  0.1005
  H  H43  1  0.999800  0.628100  0.753900  1.0  0.1017
  H  H44  1  0.095700  0.695100  0.835300  1.0  0.1012
  H  H45  1  0.150600  0.623300  0.890300  1.0  0.0946
  H  H46  1  0.994300  0.352800  0.268830  1.0  0.0735
  H  H47  1  0.104200  0.453400  0.212430  1.0  0.0847
  H  H48  1  0.049900  0.628000  0.267930  1.0  0.1342
  H  H49  1  0.939700  0.521300  0.326830  1.0  0.0738
  H  H50  1  0.149700  0.537800  0.123730  1.0  0.0935
  H  H51  1  0.335700  0.777300  0.099430  1.0  0.083
  H  H52  1  0.189400  0.712400  0.254430  1.0  0.1001
  H  H53  1  0.323500  0.508500  0.060630  1.0  0.1129
  H  H54  1  0.453700  0.521300  0.083530  1.0  0.0947
  H  H55  1  0.576300  0.651700  0.074330  1.0  0.1038
  H  H56  1  0.568700  0.769300  0.042330  1.0  0.0981
  H  H57  1  0.438500  0.756500  0.019430  1.0  0.1048
  H  H58  1  0.363500  0.696000  0.912930  1.0  0.1138
  H  H59  1  0.367800  0.795200  0.842230  1.0  0.0847
  H  H60  1  0.296000  0.857200  0.856530  1.0  0.0753
  H  H61  1  0.225100  0.847100  0.951130  1.0  0.112
  H  H62  1  0.200900  0.734100  0.020130  1.0  0.0991
  H  H63  1  0.250700  0.869500  0.100130  1.0  0.0857
  H  H64  1  0.185500  0.938800  0.067930  1.0  0.0951
  H  H65  1  0.170800  0.033800  0.136930  1.0  0.1187
  H  H66  1  0.218500  0.044400  0.240330  1.0  0.0919
  H  H67  1  0.291100  0.983400  0.273930  1.0  0.1027
  H  H68  1  0.404000  0.986200  0.115730  1.0  0.0949
  H  H69  1  0.530700  0.041200  0.060730  1.0  0.0996
  H  H70  1  0.628300  0.000200  0.087230  1.0  0.1011
  H  H71  1  0.599400  0.904300  0.168630  1.0  0.0978
  H  H72  1  0.472700  0.849400  0.223630  1.0  0.0947
  H  H73  1  0.358500  0.005700  0.602170  1.0  0.0732
  H  H74  1  0.349200  0.895800  0.545770  1.0  0.0843
  H  H75  1  0.578100  0.950100  0.601270  1.0  0.1323
  H  H76  1  0.581600  0.060300  0.660170  1.0  0.0742
  H  H77  1  0.388100  0.850300  0.457070  1.0  0.0936
  H  H78  1  0.441600  0.664300  0.432770  1.0  0.083
  H  H79  1  0.523000  0.810600  0.587770  1.0  0.0993
  H  H80  1  0.185000  0.676500  0.393970  1.0  0.1121
  H  H81  1  0.067600  0.546300  0.416870  1.0  0.0947
  H  H82  1  0.075400  0.423700  0.407670  1.0  0.1032
  H  H83  1  0.200600  0.431300  0.375670  1.0  0.0979
  H  H84  1  0.318000  0.561500  0.352770  1.0  0.1058
  H  H85  1  0.332500  0.636500  0.246270  1.0  0.1139
  H  H86  1  0.427400  0.632200  0.175570  1.0  0.0848
  H  H87  1  0.561200  0.704000  0.189870  1.0  0.0745
  H  H88  1  0.622000  0.774900  0.284470  1.0  0.1127
  H  H89  1  0.533200  0.799100  0.353470  1.0  0.0984
  H  H90  1  0.618800  0.749300  0.433470  1.0  0.0846
  H  H91  1  0.753300  0.814500  0.401270  1.0  0.0947
  H  H92  1  0.863000  0.829200  0.470270  1.0  0.1198
  H  H93  1  0.825900  0.781500  0.573670  1.0  0.0915
  H  H94  1  0.692300  0.708900  0.607270  1.0  0.1018
  H  H95  1  0.582200  0.596000  0.449070  1.0  0.0948
  H  H96  1  0.510500  0.469300  0.394070  1.0  0.0992
  H  H97  1  0.371900  0.371700  0.420570  1.0  0.1025
  H  H98  1  0.304900  0.400600  0.501970  1.0  0.1021
  H  H99  1  0.376700  0.527300  0.556970  1.0  0.094
  H  H100  1  0.005700  0.358500  0.064500  1.0  0.0741
  H  H101  1  0.895800  0.349200  0.120900  1.0  0.0846
  H  H102  1  0.950100  0.578100  0.065400  1.0  0.1349
  H  H103  1  0.060300  0.581600  0.006500  1.0  0.073
  H  H104  1  0.850300  0.388100  0.209600  1.0  0.093
  H  H105  1  0.664300  0.441600  0.233900  1.0  0.0832
  H  H106  1  0.810600  0.523000  0.078900  1.0  0.0994
  H  H107  1  0.676500  0.185000  0.272700  1.0  0.112
  H  H108  1  0.546300  0.067600  0.249800  1.0  0.0936
  H  H109  1  0.423700  0.075400  0.259000  1.0  0.104
  H  H110  1  0.431300  0.200600  0.291000  1.0  0.0959
  H  H111  1  0.561500  0.318000  0.313900  1.0  0.1054
  H  H112  1  0.636500  0.332500  0.420400  1.0  0.1154
  H  H113  1  0.632200  0.427400  0.491100  1.0  0.0842
  H  H114  1  0.704000  0.561200  0.476800  1.0  0.0733
  H  H115  1  0.774900  0.622000  0.382200  1.0  0.1146
  H  H116  1  0.799100  0.533200  0.313200  1.0  0.0983
  H  H117  1  0.749300  0.618800  0.233200  1.0  0.0855
  H  H118  1  0.814500  0.753300  0.265400  1.0  0.0946
  H  H119  1  0.829200  0.863000  0.196400  1.0  0.119
  H  H120  1  0.781500  0.825900  0.093000  1.0  0.0931
  H  H121  1  0.708900  0.692300  0.059400  1.0  0.0991
  H  H122  1  0.596000  0.582200  0.217600  1.0  0.0944
  H  H123  1  0.469300  0.510500  0.272600  1.0  0.1003
  H  H124  1  0.371700  0.371900  0.246100  1.0  0.1018
  H  H125  1  0.400600  0.304900  0.164700  1.0  0.1005
  H  H126  1  0.527300  0.376700  0.109700  1.0  0.0947
  H  H127  1  0.641500  0.647200  0.731170  1.0  0.0742
  H  H128  1  0.650800  0.546600  0.787570  1.0  0.0846
  H  H129  1  0.421900  0.372000  0.732070  1.0  0.1331
  H  H130  1  0.418400  0.478700  0.673170  1.0  0.0736
  H  H131  1  0.611900  0.462200  0.876270  1.0  0.0939
  H  H132  1  0.558400  0.222700  0.900570  1.0  0.0831
  H  H133  1  0.477000  0.287600  0.745570  1.0  0.0999
  H  H134  1  0.815000  0.491500  0.939370  1.0  0.113
  H  H135  1  0.932400  0.478700  0.916470  1.0  0.0946
  H  H136  1  0.924600  0.348300  0.925670  1.0  0.1043
  H  H137  1  0.799400  0.230700  0.957670  1.0  0.0977
  H  H138  1  0.682000  0.243500  0.980570  1.0  0.1046
  H  H139  1  0.667500  0.304000  0.087070  1.0  0.1135
  H  H140  1  0.572600  0.204800  0.157770  1.0  0.0855
  H  H141  1  0.438800  0.142800  0.143470  1.0  0.0748
  H  H142  1  0.378000  0.152900  0.048870  1.0  0.1118
  H  H143  1  0.466800  0.265900  0.979870  1.0  0.0987
  H  H144  1  0.381200  0.130500  0.899870  1.0  0.0855
  H  H145  1  0.246700  0.061200  0.932070  1.0  0.0958
  H  H146  1  0.137000  0.966200  0.863070  1.0  0.1188
  H  H147  1  0.174100  0.955600  0.759670  1.0  0.0919
  H  H148  1  0.307700  0.016600  0.726070  1.0  0.102
  H  H149  1  0.417800  0.013800  0.884270  1.0  0.0947
  H  H150  1  0.489500  0.958800  0.939270  1.0  0.0996
  H  H151  1  0.628100  0.999800  0.912770  1.0  0.1012
  H  H152  1  0.695100  0.095700  0.831370  1.0  0.0978
  H  H153  1  0.623300  0.150600  0.776370  1.0  0.0941
  H  H154  1  0.352800  0.994300  0.397830  1.0  0.0731
  H  H155  1  0.453400  0.104200  0.454230  1.0  0.0841
  H  H156  1  0.628000  0.049900  0.398730  1.0  0.1328
  H  H157  1  0.521300  0.939700  0.339830  1.0  0.0742
  H  H158  1  0.537800  0.149700  0.542930  1.0  0.0935
  H  H159  1  0.777300  0.335700  0.567230  1.0  0.0833
  H  H160  1  0.712400  0.189400  0.412230  1.0  0.0996
  H  H161  1  0.508500  0.323500  0.606030  1.0  0.1118
  H  H162  1  0.521300  0.453700  0.583130  1.0  0.0943
  H  H163  1  0.651700  0.576300  0.592330  1.0  0.1038
  H  H164  1  0.769300  0.568700  0.624330  1.0  0.0968
  H  H165  1  0.756500  0.438500  0.647230  1.0  0.1061
  H  H166  1  0.696000  0.363500  0.753730  1.0  0.1138
  H  H167  1  0.795200  0.367800  0.824430  1.0  0.0853
  H  H168  1  0.857200  0.296000  0.810130  1.0  0.0747
  H  H169  1  0.847100  0.225100  0.715530  1.0  0.1128
  H  H170  1  0.734100  0.200900  0.646530  1.0  0.0983
  H  H171  1  0.869500  0.250700  0.566530  1.0  0.0849
  H  H172  1  0.938800  0.185500  0.598730  1.0  0.0954
  H  H173  1  0.033800  0.170800  0.529730  1.0  0.1198
  H  H174  1  0.044400  0.218500  0.426330  1.0  0.0913
  H  H175  1  0.983400  0.291100  0.392730  1.0  0.101
  H  H176  1  0.986200  0.404000  0.550930  1.0  0.0949
  H  H177  1  0.041200  0.530700  0.605930  1.0  0.0994
  H  H178  1  0.000200  0.628300  0.579430  1.0  0.1032
  H  H179  1  0.904300  0.599400  0.498030  1.0  0.1027
  H  H180  1  0.849400  0.472700  0.443030  1.0  0.0941
  C  C181  1  0.592000  0.594500  0.935100  1.0  0.1252
  C  C182  1  0.530300  0.600200  0.901300  1.0  -0.1559
  C  C183  1  0.450400  0.540300  0.897600  1.0  0.0943
  C  C184  1  0.428000  0.467500  0.933400  1.0  -0.1784
  C  C185  1  0.494100  0.466000  0.967700  1.0  0.1541
  C  C186  1  0.384700  0.544100  0.862300  1.0  -0.0192
  C  C187  1  0.406100  0.587300  0.805200  1.0  -0.0824
  C  C188  1  0.347900  0.595100  0.769800  1.0  -0.3156
  C  C189  1  0.264100  0.557000  0.791900  1.0  -0.0517
  C  C190  1  0.240800  0.518200  0.849200  1.0  -0.1908
  C  C191  1  0.303100  0.508500  0.883300  1.0  -0.0606
  C  C192  1  0.368700  0.737400  0.704600  1.0  -0.2901
  C  C193  1  0.438500  0.811700  0.723600  1.0  -0.0532
  C  C194  1  0.430900  0.881500  0.737200  1.0  -0.0948
  C  C195  1  0.353500  0.876900  0.731800  1.0  -0.1026
  C  C196  1  0.283700  0.802600  0.712700  1.0  -0.1006
  C  C197  1  0.291200  0.732800  0.699100  1.0  -0.0642
  C  C198  1  0.294200  0.573700  0.642400  1.0  -0.2387
  C  C199  1  0.276400  0.608800  0.587000  1.0  -0.1321
  C  C200  1  0.217300  0.552000  0.545700  1.0  -0.1012
  C  C201  1  0.179500  0.474200  0.555000  1.0  -0.1148
  C  C202  1  0.188000  0.436100  0.609600  1.0  -0.1662
  C  C203  1  0.252400  0.489900  0.651900  1.0  -0.0281
  C  C204  1  0.088400  0.362500  0.860600  1.0  -0.2505
  C  C205  1  0.095200  0.338600  0.795600  1.0  -0.0959
  C  C206  1  0.053600  0.259800  0.776400  1.0  -0.1205
  C  C207  1  0.997200  0.193700  0.817300  1.0  -0.1524
  C  C208  1  0.990300  0.217400  0.878500  1.0  -0.1153
  C  C209  1  0.028600  0.295800  0.899800  1.0  -0.0946
  C  C210  1  0.087400  0.513800  0.841500  1.0  -0.2041
  C  C211  1  0.030400  0.474100  0.793200  1.0  -0.0646
  C  C212  1  0.997700  0.516600  0.760500  1.0  -0.12
  C  C213  1  0.022100  0.599000  0.776200  1.0  -0.1047
  C  C214  1  0.079000  0.638700  0.824600  1.0  -0.1016
  C  C215  1  0.111700  0.596200  0.857200  1.0  -0.0519
  C  C216  1  0.002500  0.408000  0.268430  1.0  0.1263
  C  C217  1  0.069900  0.469700  0.234630  1.0  -0.1505
  C  C218  1  0.089900  0.549600  0.230930  1.0  0.0956
  C  C219  1  0.039500  0.572000  0.266730  1.0  -0.1851
  C  C220  1  0.971900  0.505900  0.301030  1.0  0.1549
  C  C221  1  0.159400  0.615300  0.195630  1.0  -0.0202
  C  C222  1  0.181200  0.593900  0.138530  1.0  -0.0815
  C  C223  1  0.247200  0.652100  0.103130  1.0  -0.3154
  C  C224  1  0.292900  0.735900  0.125230  1.0  -0.051
  C  C225  1  0.277400  0.759200  0.182530  1.0  -0.1915
  C  C226  1  0.205400  0.696900  0.216630  1.0  -0.0563
  C  C227  1  0.368700  0.631300  0.037930  1.0  -0.2909
  C  C228  1  0.373200  0.561500  0.056930  1.0  -0.0569
  C  C229  1  0.450600  0.569100  0.070530  1.0  -0.0936
  C  C230  1  0.523400  0.646500  0.065130  1.0  -0.1032
  C  C231  1  0.518900  0.716300  0.046030  1.0  -0.1006
  C  C232  1  0.441600  0.708800  0.032430  1.0  -0.0696
  C  C233  1  0.279500  0.705800  0.975730  1.0  -0.2392
  C  C234  1  0.332400  0.723600  0.920330  1.0  -0.1324
  C  C235  1  0.334700  0.782700  0.879030  1.0  -0.1036
  C  C236  1  0.294700  0.820500  0.888330  1.0  -0.1158
  C  C237  1  0.248100  0.812000  0.942930  1.0  -0.1677
  C  C238  1  0.237500  0.747600  0.985230  1.0  -0.0292
  C  C239  1  0.274100  0.911600  0.193930  1.0  -0.2491
  C  C240  1  0.243400  0.904800  0.128930  1.0  -0.0928
  C  C241  1  0.206200  0.946400  0.109730  1.0  -0.1231
  C  C242  1  0.196500  0.002800  0.150630  1.0  -0.1608
  C  C243  1  0.227100  0.009700  0.211830  1.0  -0.1168
  C  C244  1  0.267200  0.971400  0.233130  1.0  -0.0939
  C  C245  1  0.426400  0.912600  0.174830  1.0  -0.2058
  C  C246  1  0.443700  0.969600  0.126530  1.0  -0.0634
  C  C247  1  0.518900  0.002300  0.093830  1.0  -0.1174
  C  C248  1  0.576900  0.977900  0.109530  1.0  -0.105
  C  C249  1  0.559700  0.921000  0.157930  1.0  -0.1019
  C  C250  1  0.484500  0.888300  0.190530  1.0  -0.0539
  C  C251  1  0.405500  0.997500  0.601770  1.0  0.1296
  C  C252  1  0.399800  0.930100  0.567970  1.0  -0.1498
  C  C253  1  0.459700  0.910100  0.564270  1.0  0.0948
  C  C254  1  0.532500  0.960500  0.600070  1.0  -0.1797
  C  C255  1  0.534000  0.028100  0.634370  1.0  0.1565
  C  C256  1  0.455900  0.840600  0.528970  1.0  -0.0203
  C  C257  1  0.412700  0.818800  0.471870  1.0  -0.0832
  C  C258  1  0.404900  0.752800  0.436470  1.0  -0.3138
  C  C259  1  0.443000  0.707100  0.458570  1.0  -0.0494
  C  C260  1  0.481800  0.722600  0.515870  1.0  -0.1913
  C  C261  1  0.491500  0.794600  0.549970  1.0  -0.0586
  C  C262  1  0.262600  0.631300  0.371270  1.0  -0.2907
  C  C263  1  0.188300  0.626800  0.390270  1.0  -0.0573
  C  C264  1  0.118500  0.549400  0.403870  1.0  -0.0965
  C  C265  1  0.123100  0.476600  0.398470  1.0  -0.0992
  C  C266  1  0.197400  0.481100  0.379370  1.0  -0.1028
  C  C267  1  0.267200  0.558400  0.365770  1.0  -0.0676
  C  C268  1  0.426300  0.720500  0.309070  1.0  -0.2391
  C  C269  1  0.391200  0.667600  0.253670  1.0  -0.1317
  C  C270  1  0.448000  0.665300  0.212370  1.0  -0.0997
  C  C271  1  0.525800  0.705300  0.221670  1.0  -0.1165
  C  C272  1  0.563900  0.751900  0.276270  1.0  -0.1679
  C  C273  1  0.510100  0.762500  0.318570  1.0  -0.029
  C  C274  1  0.637500  0.725900  0.527270  1.0  -0.2515
  C  C275  1  0.661400  0.756600  0.462270  1.0  -0.0954
  C  C276  1  0.740200  0.793800  0.443070  1.0  -0.1204
  C  C277  1  0.806300  0.803500  0.483970  1.0  -0.1569
  C  C278  1  0.782600  0.772900  0.545170  1.0  -0.1104
  C  C279  1  0.704200  0.732800  0.566470  1.0  -0.0971
  C  C280  1  0.486200  0.573600  0.508170  1.0  -0.2019
  C  C281  1  0.525900  0.556300  0.459870  1.0  -0.063
  C  C282  1  0.483400  0.481100  0.427170  1.0  -0.1205
  C  C283  1  0.401000  0.423100  0.442870  1.0  -0.1013
  C  C284  1  0.361300  0.440300  0.491270  1.0  -0.0978
  C  C285  1  0.403800  0.515500  0.523870  1.0  -0.0509
  C  C286  1  0.997500  0.405500  0.064900  1.0  0.1266
  C  C287  1  0.930100  0.399800  0.098700  1.0  -0.1538
  C  C288  1  0.910100  0.459700  0.102400  1.0  0.0945
  C  C289  1  0.960500  0.532500  0.066600  1.0  -0.1813
  C  C290  1  0.028100  0.534000  0.032300  1.0  0.154
  C  C291  1  0.840600  0.455900  0.137700  1.0  -0.0191
  C  C292  1  0.818800  0.412700  0.194800  1.0  -0.0821
  C  C293  1  0.752800  0.404900  0.230200  1.0  -0.3169
  C  C294  1  0.707100  0.443000  0.208100  1.0  -0.0521
  C  C295  1  0.722600  0.481800  0.150800  1.0  -0.1902
  C  C296  1  0.794600  0.491500  0.116700  1.0  -0.0602
  C  C297  1  0.631300  0.262600  0.295400  1.0  -0.2898
  C  C298  1  0.626800  0.188300  0.276400  1.0  -0.0525
  C  C299  1  0.549400  0.118500  0.262800  1.0  -0.0953
  C  C300  1  0.476600  0.123100  0.268200  1.0  -0.1021
  C  C301  1  0.481100  0.197400  0.287300  1.0  -0.1002
  C  C302  1  0.558400  0.267200  0.300900  1.0  -0.0636
  C  C303  1  0.720500  0.426300  0.357600  1.0  -0.239
  C  C304  1  0.667600  0.391200  0.413000  1.0  -0.1308
  C  C305  1  0.665300  0.448000  0.454300  1.0  -0.1003
  C  C306  1  0.705300  0.525800  0.445000  1.0  -0.1136
  C  C307  1  0.751900  0.563900  0.390400  1.0  -0.1668
  C  C308  1  0.762500  0.510100  0.348100  1.0  -0.0288
  C  C309  1  0.725900  0.637500  0.139400  1.0  -0.2495
  C  C310  1  0.756600  0.661400  0.204400  1.0  -0.0967
  C  C311  1  0.793800  0.740200  0.223600  1.0  -0.1196
  C  C312  1  0.803500  0.806300  0.182700  1.0  -0.1534
  C  C313  1  0.772900  0.782600  0.121500  1.0  -0.1105
  C  C314  1  0.732800  0.704200  0.100200  1.0  -0.0949
  C  C315  1  0.573600  0.486200  0.158500  1.0  -0.2042
  C  C316  1  0.556300  0.525900  0.206800  1.0  -0.0645
  C  C317  1  0.481100  0.483400  0.239500  1.0  -0.1204
  C  C318  1  0.423100  0.401000  0.223800  1.0  -0.1055
  C  C319  1  0.440300  0.361300  0.175400  1.0  -0.1011
  C  C320  1  0.515500  0.403800  0.142800  1.0  -0.052
  C  C321  1  0.594500  0.592000  0.731570  1.0  0.126
  C  C322  1  0.600200  0.530300  0.765370  1.0  -0.1526
  C  C323  1  0.540300  0.450400  0.769070  1.0  0.0953
  C  C324  1  0.467500  0.428000  0.733270  1.0  -0.1822
  C  C325  1  0.466000  0.494100  0.698970  1.0  0.1538
  C  C326  1  0.544100  0.384700  0.804370  1.0  -0.0206
  C  C327  1  0.587300  0.406100  0.861470  1.0  -0.0814
  C  C328  1  0.595100  0.347900  0.896870  1.0  -0.3174
  C  C329  1  0.557000  0.264100  0.874770  1.0  -0.0507
  C  C330  1  0.518200  0.240800  0.817470  1.0  -0.1919
  C  C331  1  0.508500  0.303100  0.783370  1.0  -0.0568
  C  C332  1  0.737400  0.368700  0.962070  1.0  -0.2908
  C  C333  1  0.811700  0.438500  0.943070  1.0  -0.0585
  C  C334  1  0.881500  0.430900  0.929470  1.0  -0.0924
  C  C335  1  0.876900  0.353500  0.934870  1.0  -0.1028
  C  C336  1  0.802600  0.283700  0.953970  1.0  -0.1025
  C  C337  1  0.732800  0.291200  0.967570  1.0  -0.0693
  C  C338  1  0.573700  0.294200  0.024270  1.0  -0.2391
  C  C339  1  0.608800  0.276400  0.079670  1.0  -0.1328
  C  C340  1  0.552000  0.217300  0.120970  1.0  -0.1024
  C  C341  1  0.474200  0.179500  0.111670  1.0  -0.1156
  C  C342  1  0.436100  0.188000  0.057070  1.0  -0.1673
  C  C343  1  0.489900  0.252400  0.014770  1.0  -0.029
  C  C344  1  0.362500  0.088400  0.806070  1.0  -0.251
  C  C345  1  0.338600  0.095200  0.871070  1.0  -0.0934
  C  C346  1  0.259800  0.053600  0.890270  1.0  -0.123
  C  C347  1  0.193700  0.997200  0.849370  1.0  -0.1608
  C  C348  1  0.217400  0.990300  0.788170  1.0  -0.1165
  C  C349  1  0.295800  0.028600  0.766870  1.0  -0.0957
  C  C350  1  0.513800  0.087400  0.825170  1.0  -0.2055
  C  C351  1  0.474100  0.030400  0.873470  1.0  -0.0632
  C  C352  1  0.516600  0.997700  0.906170  1.0  -0.1176
  C  C353  1  0.599000  0.022100  0.890470  1.0  -0.1039
  C  C354  1  0.638700  0.079000  0.842070  1.0  -0.1016
  C  C355  1  0.596200  0.111700  0.809470  1.0  -0.054
  C  C356  1  0.408000  0.002500  0.398230  1.0  0.1305
  C  C357  1  0.469700  0.069900  0.432030  1.0  -0.1494
  C  C358  1  0.549600  0.089900  0.435730  1.0  0.095
  C  C359  1  0.572000  0.039500  0.399930  1.0  -0.1801
  C  C360  1  0.505900  0.971900  0.365630  1.0  0.1555
  C  C361  1  0.615300  0.159400  0.471030  1.0  -0.0203
  C  C362  1  0.593900  0.181200  0.528130  1.0  -0.0831
  C  C363  1  0.652100  0.247200  0.563530  1.0  -0.3153
  C  C364  1  0.735900  0.292900  0.541430  1.0  -0.0494
  C  C365  1  0.759200  0.277400  0.484130  1.0  -0.1907
  C  C366  1  0.696900  0.205400  0.450030  1.0  -0.0586
  C  C367  1  0.631300  0.368700  0.628730  1.0  -0.2907
  C  C368  1  0.561500  0.373200  0.609730  1.0  -0.0569
  C  C369  1  0.569100  0.450600  0.596130  1.0  -0.0955
  C  C370  1  0.646500  0.523400  0.601530  1.0  -0.0994
  C  C371  1  0.716300  0.518900  0.620630  1.0  -0.1017
  C  C372  1  0.708800  0.441600  0.634230  1.0  -0.0673
  C  C373  1  0.705800  0.279500  0.690930  1.0  -0.239
  C  C374  1  0.723600  0.332400  0.746330  1.0  -0.1329
  C  C375  1  0.782700  0.334700  0.787630  1.0  -0.1
  C  C376  1  0.820500  0.294700  0.778330  1.0  -0.1169
  C  C377  1  0.812000  0.248100  0.723730  1.0  -0.1682
  C  C378  1  0.747600  0.237500  0.681430  1.0  -0.0284
  C  C379  1  0.911600  0.274100  0.472730  1.0  -0.2523
  C  C380  1  0.904800  0.243400  0.537730  1.0  -0.0949
  C  C381  1  0.946400  0.206200  0.556930  1.0  -0.1222
  C  C382  1  0.002800  0.196500  0.516030  1.0  -0.1564
  C  C383  1  0.009700  0.227100  0.454830  1.0  -0.1115
  C  C384  1  0.971400  0.267200  0.433530  1.0  -0.0953
  C  C385  1  0.912600  0.426400  0.491830  1.0  -0.2031
  C  C386  1  0.969600  0.443700  0.540130  1.0  -0.063
  C  C387  1  0.002300  0.518900  0.572830  1.0  -0.1212
  C  C388  1  0.977900  0.576900  0.557130  1.0  -0.1019
  C  C389  1  0.921000  0.559700  0.508730  1.0  -0.0996
  C  C390  1  0.888300  0.484500  0.476130  1.0  -0.0512
  N  N391  1  0.577100  0.526000  0.967100  1.0  -0.3762
  N  N392  1  0.948900  0.422900  0.300430  1.0  -0.3763
  N  N393  1  0.474000  0.051100  0.633770  1.0  -0.3763
  N  N394  1  0.051100  0.474000  0.032900  1.0  -0.3755
  N  N395  1  0.526000  0.577100  0.699570  1.0  -0.3754
  N  N396  1  0.422900  0.948900  0.366230  1.0  -0.3751
  Cl  Cl397  1  0.621300  0.783400  0.705900  1.0  -0.5193
  Cl  Cl398  1  0.162100  0.378700  0.039230  1.0  -0.5213
  Cl  Cl399  1  0.216600  0.837900  0.372570  1.0  -0.5198
  Cl  Cl400  1  0.837900  0.216600  0.294100  1.0  -0.5181
  Cl  Cl401  1  0.783400  0.621300  0.960770  1.0  -0.5197
  Cl  Cl402  1  0.378700  0.162100  0.627430  1.0  -0.5188
