# generated using pymatgen
data_Cu4H20C37O20
_symmetry_space_group_name_H-M   'P 1'
_cell_length_a   12.24730000
_cell_length_b   25.91400000
_cell_length_c   25.91410000
_cell_angle_alpha   90.00000000
_cell_angle_beta   90.00000000
_cell_angle_gamma   90.00000000
_symmetry_Int_Tables_number   1
_chemical_formula_structural   Cu4H20C37O20
_chemical_formula_sum   'Cu16 H80 C148 O80'
_cell_volume   8224.52719308
_cell_formula_units_Z   4
loop_
 _symmetry_equiv_pos_site_id
 _symmetry_equiv_pos_as_xyz
  1  'x, y, z'
loop_
 _atom_site_type_symbol
 _atom_site_label
 _atom_site_symmetry_multiplicity
 _atom_site_fract_x
 _atom_site_fract_y
 _atom_site_fract_z
 _atom_site_occupancy
 _atom_site_charge
  Cu  Cu1  1  0.925890  0.506010  0.963260  1.0  0.9129
  Cu  Cu2  1  0.074110  0.493990  0.463260  1.0  0.9107
  Cu  Cu3  1  0.074110  0.006010  0.536740  1.0  0.9126
  Cu  Cu4  1  0.925890  0.993990  0.036740  1.0  0.9126
  Cu  Cu5  1  0.074110  0.493990  0.036740  1.0  0.9129
  Cu  Cu6  1  0.925890  0.506010  0.536740  1.0  0.9122
  Cu  Cu7  1  0.925890  0.993990  0.463260  1.0  0.9126
  Cu  Cu8  1  0.074110  0.006010  0.963260  1.0  0.9107
  Cu  Cu9  1  0.004640  0.297050  0.250000  1.0  0.9065
  Cu  Cu10  1  0.854250  0.223770  0.250000  1.0  0.8981
  Cu  Cu11  1  0.995360  0.702950  0.750000  1.0  0.907
  Cu  Cu12  1  0.145750  0.776230  0.750000  1.0  0.8979
  Cu  Cu13  1  0.995360  0.797050  0.250000  1.0  0.9069
  Cu  Cu14  1  0.145750  0.723770  0.250000  1.0  0.8972
  Cu  Cu15  1  0.004640  0.202950  0.750000  1.0  0.9062
  Cu  Cu16  1  0.854250  0.276230  0.750000  1.0  0.8982
  H  H17  1  0.902300  0.385600  0.129000  1.0  0.116
  H  H18  1  0.661900  0.280300  0.119100  1.0  0.1182
  H  H19  1  0.697700  0.387800  0.008200  1.0  0.121
  H  H20  1  0.485800  0.275000  0.076000  1.0  0.0761
  H  H21  1  0.584700  0.240900  0.053700  1.0  0.0615
  H  H22  1  0.335900  0.305300  0.011700  1.0  0.0646
  H  H23  1  0.431500  0.325400  0.974200  1.0  0.0792
  H  H24  1  0.211200  0.255400  0.864900  1.0  0.1254
  H  H25  1  0.998200  0.375600  0.868900  1.0  0.1198
  H  H26  1  0.247500  0.367200  0.972800  1.0  0.1147
  H  H27  1  0.097700  0.614400  0.629000  1.0  0.1159
  H  H28  1  0.338100  0.719700  0.619100  1.0  0.1177
  H  H29  1  0.302300  0.612200  0.508200  1.0  0.1215
  H  H30  1  0.514200  0.725000  0.576000  1.0  0.0769
  H  H31  1  0.415300  0.759100  0.553700  1.0  0.0615
  H  H32  1  0.664100  0.694700  0.511700  1.0  0.0648
  H  H33  1  0.568500  0.674600  0.474200  1.0  0.0779
  H  H34  1  0.788800  0.744600  0.364900  1.0  0.1253
  H  H35  1  0.001800  0.624400  0.368900  1.0  0.1192
  H  H36  1  0.752500  0.632800  0.472800  1.0  0.1153
  H  H37  1  0.097700  0.885600  0.371000  1.0  0.116
  H  H38  1  0.338100  0.780300  0.380900  1.0  0.1183
  H  H39  1  0.302300  0.887800  0.491800  1.0  0.1203
  H  H40  1  0.514200  0.775000  0.424000  1.0  0.0761
  H  H41  1  0.415300  0.740900  0.446300  1.0  0.0611
  H  H42  1  0.664100  0.805300  0.488300  1.0  0.0653
  H  H43  1  0.568500  0.825400  0.525800  1.0  0.0792
  H  H44  1  0.788800  0.755400  0.635100  1.0  0.1251
  H  H45  1  0.001800  0.875600  0.631100  1.0  0.1196
  H  H46  1  0.752500  0.867200  0.527200  1.0  0.1147
  H  H47  1  0.902300  0.114400  0.871000  1.0  0.1158
  H  H48  1  0.661900  0.219700  0.880900  1.0  0.1184
  H  H49  1  0.697700  0.112200  0.991800  1.0  0.1204
  H  H50  1  0.485800  0.225000  0.924000  1.0  0.0757
  H  H51  1  0.584700  0.259100  0.946300  1.0  0.0606
  H  H52  1  0.335900  0.194700  0.988300  1.0  0.0653
  H  H53  1  0.431500  0.174600  0.025800  1.0  0.0793
  H  H54  1  0.211200  0.244600  0.135100  1.0  0.1252
  H  H55  1  0.998200  0.124400  0.131100  1.0  0.12
  H  H56  1  0.247500  0.132800  0.027200  1.0  0.1149
  H  H57  1  0.097700  0.614400  0.871000  1.0  0.1159
  H  H58  1  0.338100  0.719700  0.880900  1.0  0.1181
  H  H59  1  0.302300  0.612200  0.991800  1.0  0.1206
  H  H60  1  0.514200  0.725000  0.924000  1.0  0.0756
  H  H61  1  0.415300  0.759100  0.946300  1.0  0.0618
  H  H62  1  0.664100  0.694700  0.988300  1.0  0.0656
  H  H63  1  0.568500  0.674600  0.025800  1.0  0.0785
  H  H64  1  0.788800  0.744600  0.135100  1.0  0.1252
  H  H65  1  0.001800  0.624400  0.131100  1.0  0.1196
  H  H66  1  0.752500  0.632800  0.027200  1.0  0.1153
  H  H67  1  0.902300  0.385600  0.371000  1.0  0.116
  H  H68  1  0.661900  0.280300  0.380900  1.0  0.1185
  H  H69  1  0.697700  0.387800  0.491800  1.0  0.1201
  H  H70  1  0.485800  0.275000  0.424000  1.0  0.0766
  H  H71  1  0.584700  0.240900  0.446300  1.0  0.0605
  H  H72  1  0.335900  0.305300  0.488300  1.0  0.0647
  H  H73  1  0.431500  0.325400  0.525800  1.0  0.0794
  H  H74  1  0.211200  0.255400  0.635100  1.0  0.1253
  H  H75  1  0.998200  0.375600  0.631100  1.0  0.1197
  H  H76  1  0.247500  0.367200  0.527200  1.0  0.1144
  H  H77  1  0.902300  0.114400  0.629000  1.0  0.1158
  H  H78  1  0.661900  0.219700  0.619100  1.0  0.1175
  H  H79  1  0.697700  0.112200  0.508200  1.0  0.1212
  H  H80  1  0.485800  0.225000  0.576000  1.0  0.076
  H  H81  1  0.584700  0.259100  0.553700  1.0  0.0604
  H  H82  1  0.335900  0.194700  0.511700  1.0  0.065
  H  H83  1  0.431500  0.174600  0.474200  1.0  0.0786
  H  H84  1  0.211200  0.244600  0.364900  1.0  0.1252
  H  H85  1  0.998200  0.124400  0.368900  1.0  0.1197
  H  H86  1  0.247500  0.132800  0.472800  1.0  0.1152
  H  H87  1  0.097700  0.885600  0.129000  1.0  0.1159
  H  H88  1  0.338100  0.780300  0.119100  1.0  0.1182
  H  H89  1  0.302300  0.887800  0.008200  1.0  0.1213
  H  H90  1  0.514200  0.775000  0.076000  1.0  0.0766
  H  H91  1  0.415300  0.740900  0.053700  1.0  0.0618
  H  H92  1  0.664100  0.805300  0.011700  1.0  0.0648
  H  H93  1  0.568500  0.825400  0.974200  1.0  0.0789
  H  H94  1  0.788800  0.755400  0.864900  1.0  0.1252
  H  H95  1  0.001800  0.875600  0.868900  1.0  0.1195
  H  H96  1  0.752500  0.867200  0.972800  1.0  0.1147
  C  C97  1  0.872500  0.436780  0.040640  1.0  0.6856
  C  C98  1  0.808600  0.393600  0.064340  1.0  -0.176
  C  C99  1  0.841600  0.371600  0.111010  1.0  0.0353
  C  C100  1  0.787500  0.330230  0.130890  1.0  -0.1195
  C  C101  1  0.699400  0.309300  0.105320  1.0  -0.1858
  C  C102  1  0.666200  0.331460  0.058760  1.0  0.315
  C  C103  1  0.721200  0.372900  0.039740  1.0  -0.1242
  C  C104  1  0.832100  0.304200  0.179740  1.0  0.6417
  C  C105  1  0.530900  0.268000  0.045030  1.0  0.0592
  C  C106  1  0.386000  0.295270  0.983470  1.0  0.0557
  C  C107  1  0.242100  0.306400  0.922590  1.0  0.2945
  C  C108  1  0.186600  0.286400  0.880590  1.0  -0.1214
  C  C109  1  0.094800  0.311600  0.861250  1.0  -0.1445
  C  C110  1  0.060000  0.358100  0.882450  1.0  0.0026
  C  C111  1  0.118500  0.378610  0.924570  1.0  -0.1271
  C  C112  1  0.208600  0.353000  0.944420  1.0  -0.1854
  C  C113  1  0.034300  0.286000  0.819020  1.0  0.7156
  C  C114  1  0.078000  0.426770  0.949750  1.0  0.6937
  C  C115  1  0.127500  0.563220  0.540640  1.0  0.6852
  C  C116  1  0.191400  0.606400  0.564340  1.0  -0.1765
  C  C117  1  0.158400  0.628400  0.611010  1.0  0.0361
  C  C118  1  0.212500  0.669770  0.630890  1.0  -0.1199
  C  C119  1  0.300600  0.690700  0.605320  1.0  -0.184
  C  C120  1  0.333800  0.668540  0.558760  1.0  0.3148
  C  C121  1  0.278800  0.627100  0.539740  1.0  -0.1239
  C  C122  1  0.167900  0.695800  0.679740  1.0  0.6423
  C  C123  1  0.469100  0.732000  0.545030  1.0  0.0591
  C  C124  1  0.614000  0.704730  0.483470  1.0  0.056
  C  C125  1  0.757900  0.693600  0.422590  1.0  0.2932
  C  C126  1  0.813400  0.713600  0.380590  1.0  -0.1227
  C  C127  1  0.905200  0.688400  0.361250  1.0  -0.1447
  C  C128  1  0.940000  0.641900  0.382450  1.0  0.0026
  C  C129  1  0.881500  0.621390  0.424570  1.0  -0.1273
  C  C130  1  0.791400  0.647000  0.444420  1.0  -0.1863
  C  C131  1  0.965700  0.714000  0.319020  1.0  0.7156
  C  C132  1  0.922000  0.573230  0.449750  1.0  0.6935
  C  C133  1  0.127500  0.936780  0.459360  1.0  0.6855
  C  C134  1  0.191400  0.893600  0.435660  1.0  -0.1763
  C  C135  1  0.158400  0.871600  0.388990  1.0  0.0355
  C  C136  1  0.212500  0.830230  0.369110  1.0  -0.1203
  C  C137  1  0.300600  0.809300  0.394680  1.0  -0.1849
  C  C138  1  0.333800  0.831460  0.441240  1.0  0.3154
  C  C139  1  0.278800  0.872900  0.460260  1.0  -0.1233
  C  C140  1  0.167900  0.804200  0.320260  1.0  0.6421
  C  C141  1  0.469100  0.768000  0.454970  1.0  0.06
  C  C142  1  0.614000  0.795270  0.516530  1.0  0.0551
  C  C143  1  0.757900  0.806400  0.577410  1.0  0.294
  C  C144  1  0.813400  0.786400  0.619410  1.0  -0.1221
  C  C145  1  0.905200  0.811600  0.638750  1.0  -0.1463
  C  C146  1  0.940000  0.858100  0.617550  1.0  0.0017
  C  C147  1  0.881500  0.878610  0.575430  1.0  -0.1277
  C  C148  1  0.791400  0.853000  0.555580  1.0  -0.1861
  C  C149  1  0.965700  0.786000  0.680980  1.0  0.7155
  C  C150  1  0.922000  0.926770  0.550250  1.0  0.6937
  C  C151  1  0.872500  0.063220  0.959360  1.0  0.6852
  C  C152  1  0.808600  0.106400  0.935660  1.0  -0.1759
  C  C153  1  0.841600  0.128400  0.888990  1.0  0.0345
  C  C154  1  0.787500  0.169770  0.869110  1.0  -0.1201
  C  C155  1  0.699400  0.190700  0.894680  1.0  -0.1862
  C  C156  1  0.666200  0.168540  0.941240  1.0  0.3144
  C  C157  1  0.721200  0.127100  0.960260  1.0  -0.1243
  C  C158  1  0.832100  0.195800  0.820260  1.0  0.642
  C  C159  1  0.530900  0.232000  0.954970  1.0  0.0586
  C  C160  1  0.386000  0.204730  0.016530  1.0  0.0567
  C  C161  1  0.242100  0.193600  0.077410  1.0  0.2945
  C  C162  1  0.186600  0.213600  0.119410  1.0  -0.12
  C  C163  1  0.094800  0.188400  0.138750  1.0  -0.1461
  C  C164  1  0.060000  0.141900  0.117550  1.0  0.0028
  C  C165  1  0.118500  0.121390  0.075430  1.0  -0.1277
  C  C166  1  0.208600  0.147000  0.055580  1.0  -0.1866
  C  C167  1  0.034300  0.214000  0.180980  1.0  0.716
  C  C168  1  0.078000  0.073230  0.050250  1.0  0.6941
  C  C169  1  0.127500  0.563220  0.959360  1.0  0.6853
  C  C170  1  0.191400  0.606400  0.935660  1.0  -0.1767
  C  C171  1  0.158400  0.628400  0.888990  1.0  0.0351
  C  C172  1  0.212500  0.669770  0.869110  1.0  -0.1203
  C  C173  1  0.300600  0.690700  0.894680  1.0  -0.1848
  C  C174  1  0.333800  0.668540  0.941240  1.0  0.3148
  C  C175  1  0.278800  0.627100  0.960260  1.0  -0.1232
  C  C176  1  0.167900  0.695800  0.820260  1.0  0.6422
  C  C177  1  0.469100  0.732000  0.954970  1.0  0.0593
  C  C178  1  0.614000  0.704730  0.016530  1.0  0.0559
  C  C179  1  0.757900  0.693600  0.077410  1.0  0.2936
  C  C180  1  0.813400  0.713600  0.119410  1.0  -0.1218
  C  C181  1  0.905200  0.688400  0.138750  1.0  -0.1462
  C  C182  1  0.940000  0.641900  0.117550  1.0  0.0026
  C  C183  1  0.881500  0.621390  0.075430  1.0  -0.1278
  C  C184  1  0.791400  0.647000  0.055580  1.0  -0.1869
  C  C185  1  0.965700  0.714000  0.180980  1.0  0.7158
  C  C186  1  0.922000  0.573230  0.050250  1.0  0.6938
  C  C187  1  0.872500  0.436780  0.459360  1.0  0.6854
  C  C188  1  0.808600  0.393600  0.435660  1.0  -0.1759
  C  C189  1  0.841600  0.371600  0.388990  1.0  0.0352
  C  C190  1  0.787500  0.330230  0.369110  1.0  -0.1201
  C  C191  1  0.699400  0.309300  0.394680  1.0  -0.1866
  C  C192  1  0.666200  0.331460  0.441240  1.0  0.3148
  C  C193  1  0.721200  0.372900  0.460260  1.0  -0.125
  C  C194  1  0.832100  0.304200  0.320260  1.0  0.6419
  C  C195  1  0.530900  0.268000  0.454970  1.0  0.0592
  C  C196  1  0.386000  0.295270  0.516530  1.0  0.0555
  C  C197  1  0.242100  0.306400  0.577410  1.0  0.2948
  C  C198  1  0.186600  0.286400  0.619410  1.0  -0.1209
  C  C199  1  0.094800  0.311600  0.638750  1.0  -0.1463
  C  C200  1  0.060000  0.358100  0.617550  1.0  0.002
  C  C201  1  0.118500  0.378610  0.575430  1.0  -0.1274
  C  C202  1  0.208600  0.353000  0.555580  1.0  -0.1857
  C  C203  1  0.034300  0.286000  0.680980  1.0  0.7156
  C  C204  1  0.078000  0.426770  0.550250  1.0  0.694
  C  C205  1  0.872500  0.063220  0.540640  1.0  0.6853
  C  C206  1  0.808600  0.106400  0.564340  1.0  -0.1757
  C  C207  1  0.841600  0.128400  0.611010  1.0  0.0354
  C  C208  1  0.787500  0.169770  0.630890  1.0  -0.1198
  C  C209  1  0.699400  0.190700  0.605320  1.0  -0.1853
  C  C210  1  0.666200  0.168540  0.558760  1.0  0.3145
  C  C211  1  0.721200  0.127100  0.539740  1.0  -0.1247
  C  C212  1  0.832100  0.195800  0.679740  1.0  0.6419
  C  C213  1  0.530900  0.232000  0.545030  1.0  0.0596
  C  C214  1  0.386000  0.204730  0.483470  1.0  0.0566
  C  C215  1  0.242100  0.193600  0.422590  1.0  0.2943
  C  C216  1  0.186600  0.213600  0.380590  1.0  -0.1219
  C  C217  1  0.094800  0.188400  0.361250  1.0  -0.1446
  C  C218  1  0.060000  0.141900  0.382450  1.0  0.0027
  C  C219  1  0.118500  0.121390  0.424570  1.0  -0.1271
  C  C220  1  0.208600  0.147000  0.444420  1.0  -0.1857
  C  C221  1  0.034300  0.214000  0.319020  1.0  0.7159
  C  C222  1  0.078000  0.073230  0.449750  1.0  0.6938
  C  C223  1  0.127500  0.936780  0.040640  1.0  0.6854
  C  C224  1  0.191400  0.893600  0.064340  1.0  -0.1764
  C  C225  1  0.158400  0.871600  0.111010  1.0  0.0356
  C  C226  1  0.212500  0.830230  0.130890  1.0  -0.1196
  C  C227  1  0.300600  0.809300  0.105320  1.0  -0.1841
  C  C228  1  0.333800  0.831460  0.058760  1.0  0.3156
  C  C229  1  0.278800  0.872900  0.039740  1.0  -0.123
  C  C230  1  0.167900  0.804200  0.179740  1.0  0.642
  C  C231  1  0.469100  0.768000  0.045030  1.0  0.0586
  C  C232  1  0.614000  0.795270  0.983470  1.0  0.0554
  C  C233  1  0.757900  0.806400  0.922590  1.0  0.2934
  C  C234  1  0.813400  0.786400  0.880590  1.0  -0.1219
  C  C235  1  0.905200  0.811600  0.861250  1.0  -0.1445
  C  C236  1  0.940000  0.858100  0.882450  1.0  0.0024
  C  C237  1  0.881500  0.878610  0.924570  1.0  -0.1273
  C  C238  1  0.791400  0.853000  0.944420  1.0  -0.1861
  C  C239  1  0.965700  0.786000  0.819020  1.0  0.7152
  C  C240  1  0.922000  0.926770  0.949750  1.0  0.6934
  C  C241  1  0.457700  0.250000  0.000000  1.0  -0.0274
  C  C242  1  0.542300  0.750000  0.500000  1.0  -0.0272
  C  C243  1  0.542300  0.750000  0.000000  1.0  -0.0272
  C  C244  1  0.457700  0.250000  0.500000  1.0  -0.0274
  O  O245  1  0.837000  0.456290  0.999930  1.0  -0.5547
  O  O246  1  0.962900  0.447820  0.062700  1.0  -0.5882
  O  O247  1  0.917000  0.326800  0.197780  1.0  -0.5634
  O  O248  1  0.783300  0.265460  0.195960  1.0  -0.5642
  O  O249  1  0.584900  0.313280  0.029300  1.0  -0.2715
  O  O250  1  0.325600  0.277630  0.939690  1.0  -0.27
  O  O251  1  0.124600  0.439120  0.991010  1.0  -0.5827
  O  O252  1  0.998100  0.448410  0.929300  1.0  -0.5669
  O  O253  1  0.947100  0.307360  0.803070  1.0  -0.5739
  O  O254  1  0.072100  0.244870  0.801910  1.0  -0.5735
  O  O255  1  0.163000  0.543710  0.499930  1.0  -0.5536
  O  O256  1  0.037100  0.552180  0.562700  1.0  -0.5887
  O  O257  1  0.083000  0.673200  0.697780  1.0  -0.5639
  O  O258  1  0.216700  0.734540  0.695960  1.0  -0.5649
  O  O259  1  0.415100  0.686720  0.529300  1.0  -0.2743
  O  O260  1  0.674400  0.722370  0.439690  1.0  -0.2691
  O  O261  1  0.875400  0.560880  0.491010  1.0  -0.5818
  O  O262  1  0.001900  0.551590  0.429300  1.0  -0.568
  O  O263  1  0.052900  0.692640  0.303070  1.0  -0.5737
  O  O264  1  0.927900  0.755130  0.301910  1.0  -0.5735
  O  O265  1  0.163000  0.956290  0.500070  1.0  -0.5541
  O  O266  1  0.037100  0.947820  0.437300  1.0  -0.5881
  O  O267  1  0.083000  0.826800  0.302220  1.0  -0.563
  O  O268  1  0.216700  0.765460  0.304040  1.0  -0.5653
  O  O269  1  0.415100  0.813280  0.470700  1.0  -0.2707
  O  O270  1  0.674400  0.777630  0.560310  1.0  -0.269
  O  O271  1  0.875400  0.939120  0.508990  1.0  -0.5807
  O  O272  1  0.001900  0.948410  0.570700  1.0  -0.5673
  O  O273  1  0.052900  0.807360  0.696930  1.0  -0.5734
  O  O274  1  0.927900  0.744870  0.698090  1.0  -0.5736
  O  O275  1  0.837000  0.043710  0.000070  1.0  -0.5546
  O  O276  1  0.962900  0.052180  0.937300  1.0  -0.5886
  O  O277  1  0.917000  0.173200  0.802220  1.0  -0.5643
  O  O278  1  0.783300  0.234540  0.804040  1.0  -0.5641
  O  O279  1  0.584900  0.186720  0.970700  1.0  -0.2723
  O  O280  1  0.325600  0.222370  0.060310  1.0  -0.2703
  O  O281  1  0.124600  0.060880  0.008990  1.0  -0.5818
  O  O282  1  0.998100  0.051590  0.070700  1.0  -0.5671
  O  O283  1  0.947100  0.192640  0.196930  1.0  -0.5746
  O  O284  1  0.072100  0.255130  0.198090  1.0  -0.5729
  O  O285  1  0.163000  0.543710  0.000070  1.0  -0.5539
  O  O286  1  0.037100  0.552180  0.937300  1.0  -0.5886
  O  O287  1  0.083000  0.673200  0.802220  1.0  -0.564
  O  O288  1  0.216700  0.734540  0.804040  1.0  -0.565
  O  O289  1  0.415100  0.686720  0.970700  1.0  -0.2735
  O  O290  1  0.674400  0.722370  0.060310  1.0  -0.2692
  O  O291  1  0.875400  0.560880  0.008990  1.0  -0.5807
  O  O292  1  0.001900  0.551590  0.070700  1.0  -0.5672
  O  O293  1  0.052900  0.692640  0.196930  1.0  -0.5736
  O  O294  1  0.927900  0.755130  0.198090  1.0  -0.5733
  O  O295  1  0.837000  0.456290  0.500070  1.0  -0.5551
  O  O296  1  0.962900  0.447820  0.437300  1.0  -0.5888
  O  O297  1  0.917000  0.326800  0.302220  1.0  -0.5638
  O  O298  1  0.783300  0.265460  0.304040  1.0  -0.5647
  O  O299  1  0.584900  0.313280  0.470700  1.0  -0.2707
  O  O300  1  0.325600  0.277630  0.560310  1.0  -0.2697
  O  O301  1  0.124600  0.439120  0.508990  1.0  -0.5816
  O  O302  1  0.998100  0.448410  0.570700  1.0  -0.5674
  O  O303  1  0.947100  0.307360  0.696930  1.0  -0.5739
  O  O304  1  0.072100  0.244870  0.698090  1.0  -0.5736
  O  O305  1  0.837000  0.043710  0.499930  1.0  -0.5549
  O  O306  1  0.962900  0.052180  0.562700  1.0  -0.5887
  O  O307  1  0.917000  0.173200  0.697780  1.0  -0.5642
  O  O308  1  0.783300  0.234540  0.695960  1.0  -0.5639
  O  O309  1  0.584900  0.186720  0.529300  1.0  -0.2729
  O  O310  1  0.325600  0.222370  0.439690  1.0  -0.2692
  O  O311  1  0.124600  0.060880  0.491010  1.0  -0.5825
  O  O312  1  0.998100  0.051590  0.429300  1.0  -0.5668
  O  O313  1  0.947100  0.192640  0.303070  1.0  -0.5747
  O  O314  1  0.072100  0.255130  0.301910  1.0  -0.5727
  O  O315  1  0.163000  0.956290  0.999930  1.0  -0.554
  O  O316  1  0.037100  0.947820  0.062700  1.0  -0.5893
  O  O317  1  0.083000  0.826800  0.197780  1.0  -0.5628
  O  O318  1  0.216700  0.765460  0.195960  1.0  -0.5652
  O  O319  1  0.415100  0.813280  0.029300  1.0  -0.272
  O  O320  1  0.674400  0.777630  0.939690  1.0  -0.2696
  O  O321  1  0.875400  0.939120  0.991010  1.0  -0.5819
  O  O322  1  0.001900  0.948410  0.929300  1.0  -0.5682
  O  O323  1  0.052900  0.807360  0.803070  1.0  -0.5735
  O  O324  1  0.927900  0.744870  0.801910  1.0  -0.5735
