# generated using pymatgen
data_Co2H6C16O9
_symmetry_space_group_name_H-M   'P 1'
_cell_length_a   13.58200000
_cell_length_b   10.81730000
_cell_length_c   14.70370000
_cell_angle_alpha   90.00000000
_cell_angle_beta   110.62800000
_cell_angle_gamma   90.00000000
_symmetry_Int_Tables_number   1
_chemical_formula_structural   Co2H6C16O9
_chemical_formula_sum   'Co8 H24 C64 O36'
_cell_volume   2021.77523223
_cell_formula_units_Z   4
loop_
 _symmetry_equiv_pos_site_id
 _symmetry_equiv_pos_as_xyz
  1  'x, y, z'
loop_
 _atom_site_type_symbol
 _atom_site_label
 _atom_site_symmetry_multiplicity
 _atom_site_fract_x
 _atom_site_fract_y
 _atom_site_fract_z
 _atom_site_occupancy
 _atom_site_charge
  Co  Co1  1  0.409410  0.902540  0.461140  1.0  1.0727
  Co  Co2  1  0.504100  0.010460  0.292350  1.0  1.0747
  Co  Co3  1  0.590590  0.402540  0.038860  1.0  1.0729
  Co  Co4  1  0.495900  0.510460  0.207650  1.0  1.0747
  Co  Co5  1  0.590590  0.097460  0.538860  1.0  1.0755
  Co  Co6  1  0.495900  0.989540  0.707650  1.0  1.075
  Co  Co7  1  0.409410  0.597460  0.961140  1.0  1.0753
  Co  Co8  1  0.504100  0.489540  0.792350  1.0  1.0748
  H  H9  1  0.138800  0.130100  0.358000  1.0  0.1296
  H  H10  1  0.001200  0.431900  0.210600  1.0  0.1321
  H  H11  1  0.139900  0.456700  0.156500  1.0  0.1215
  H  H12  1  0.850300  0.332800  0.210300  1.0  0.1322
  H  H13  1  0.911500  0.141600  0.507300  1.0  0.1242
  H  H14  1  0.050300  0.182000  0.456000  1.0  0.1362
  H  H15  1  0.861200  0.630100  0.142000  1.0  0.1304
  H  H16  1  0.998800  0.931900  0.289400  1.0  0.1316
  H  H17  1  0.860100  0.956700  0.343500  1.0  0.1213
  H  H18  1  0.149700  0.832800  0.289700  1.0  0.1324
  H  H19  1  0.088500  0.641600  0.992700  1.0  0.1238
  H  H20  1  0.949700  0.682000  0.044000  1.0  0.1361
  H  H21  1  0.861200  0.869900  0.642000  1.0  0.13
  H  H22  1  0.998800  0.568100  0.789400  1.0  0.1315
  H  H23  1  0.860100  0.543300  0.843500  1.0  0.1213
  H  H24  1  0.149700  0.667200  0.789700  1.0  0.1323
  H  H25  1  0.088500  0.858400  0.492700  1.0  0.1238
  H  H26  1  0.949700  0.818000  0.544000  1.0  0.1364
  H  H27  1  0.138800  0.369900  0.858000  1.0  0.1291
  H  H28  1  0.001200  0.068100  0.710600  1.0  0.1317
  H  H29  1  0.139900  0.043300  0.656500  1.0  0.1216
  H  H30  1  0.850300  0.167200  0.710300  1.0  0.1325
  H  H31  1  0.911500  0.358400  0.007300  1.0  0.1244
  H  H32  1  0.050300  0.318000  0.956000  1.0  0.1369
  C  C33  1  0.311130  0.117260  0.319210  1.0  0.7313
  C  C34  1  0.223010  0.209600  0.285100  1.0  -0.1175
  C  C35  1  0.138650  0.195900  0.317310  1.0  -0.0326
  C  C36  1  0.054190  0.277700  0.290540  1.0  0.0471
  C  C37  1  0.056480  0.375700  0.229640  1.0  -0.0845
  C  C38  1  0.140140  0.390600  0.197010  1.0  -0.0701
  C  C39  1  0.224440  0.308200  0.224020  1.0  -0.0036
  C  C40  1  0.314800  0.331700  0.187890  1.0  0.7354
  C  C41  1  0.965450  0.258800  0.326280  1.0  0.0599
  C  C42  1  0.862820  0.293800  0.269680  1.0  -0.0499
  C  C43  1  0.779520  0.270670  0.301370  1.0  -0.0364
  C  C44  1  0.796890  0.209170  0.389150  1.0  -0.0892
  C  C45  1  0.898960  0.178700  0.447200  1.0  -0.0244
  C  C46  1  0.982280  0.203000  0.416370  1.0  -0.1062
  C  C47  1  0.671440  0.316930  0.240670  1.0  0.7034
  C  C48  1  0.703450  0.166760  0.413140  1.0  0.717
  C  C49  1  0.688870  0.617260  0.180790  1.0  0.7324
  C  C50  1  0.776990  0.709600  0.214900  1.0  -0.1171
  C  C51  1  0.861350  0.695900  0.182690  1.0  -0.0335
  C  C52  1  0.945810  0.777700  0.209460  1.0  0.0458
  C  C53  1  0.943520  0.875700  0.270360  1.0  -0.0858
  C  C54  1  0.859860  0.890600  0.302990  1.0  -0.0697
  C  C55  1  0.775560  0.808200  0.275980  1.0  -0.0032
  C  C56  1  0.685200  0.831700  0.312110  1.0  0.7348
  C  C57  1  0.034550  0.758800  0.173720  1.0  0.0591
  C  C58  1  0.137180  0.793800  0.230320  1.0  -0.0492
  C  C59  1  0.220480  0.770670  0.198630  1.0  -0.0371
  C  C60  1  0.203110  0.709170  0.110850  1.0  -0.089
  C  C61  1  0.101040  0.678700  0.052800  1.0  -0.0257
  C  C62  1  0.017720  0.703000  0.083630  1.0  -0.106
  C  C63  1  0.328560  0.816930  0.259330  1.0  0.7043
  C  C64  1  0.296550  0.666760  0.086860  1.0  0.7172
  C  C65  1  0.688870  0.882740  0.680790  1.0  0.7329
  C  C66  1  0.776990  0.790400  0.714900  1.0  -0.117
  C  C67  1  0.861350  0.804100  0.682690  1.0  -0.0329
  C  C68  1  0.945810  0.722300  0.709460  1.0  0.0462
  C  C69  1  0.943520  0.624300  0.770360  1.0  -0.086
  C  C70  1  0.859860  0.609400  0.802990  1.0  -0.069
  C  C71  1  0.775560  0.691800  0.775980  1.0  -0.0033
  C  C72  1  0.685200  0.668300  0.812110  1.0  0.7339
  C  C73  1  0.034550  0.741200  0.673720  1.0  0.0584
  C  C74  1  0.137180  0.706200  0.730320  1.0  -0.0497
  C  C75  1  0.220480  0.729330  0.698630  1.0  -0.0368
  C  C76  1  0.203110  0.790830  0.610850  1.0  -0.0897
  C  C77  1  0.101040  0.821300  0.552800  1.0  -0.026
  C  C78  1  0.017720  0.797000  0.583630  1.0  -0.1059
  C  C79  1  0.328560  0.683070  0.759330  1.0  0.7042
  C  C80  1  0.296550  0.833240  0.586860  1.0  0.7167
  C  C81  1  0.311130  0.382740  0.819210  1.0  0.7318
  C  C82  1  0.223010  0.290400  0.785100  1.0  -0.1173
  C  C83  1  0.138650  0.304100  0.817310  1.0  -0.0321
  C  C84  1  0.054190  0.222300  0.790540  1.0  0.0475
  C  C85  1  0.056480  0.124300  0.729640  1.0  -0.0846
  C  C86  1  0.140140  0.109400  0.697010  1.0  -0.0693
  C  C87  1  0.224440  0.191800  0.724020  1.0  -0.0037
  C  C88  1  0.314800  0.168300  0.687890  1.0  0.7346
  C  C89  1  0.965450  0.241200  0.826280  1.0  0.0597
  C  C90  1  0.862820  0.206200  0.769680  1.0  -0.0508
  C  C91  1  0.779520  0.229330  0.801370  1.0  -0.0368
  C  C92  1  0.796890  0.290830  0.889150  1.0  -0.0896
  C  C93  1  0.898960  0.321300  0.947200  1.0  -0.0247
  C  C94  1  0.982280  0.297000  0.916370  1.0  -0.1062
  C  C95  1  0.671440  0.183070  0.740670  1.0  0.7034
  C  C96  1  0.703450  0.333240  0.913140  1.0  0.7171
  O  O97  1  0.301720  0.030830  0.371600  1.0  -0.5754
  O  O98  1  0.388770  0.136300  0.292350  1.0  -0.5771
  O  O99  1  0.384470  0.404180  0.239280  1.0  -0.6026
  O  O100  1  0.311420  0.284080  0.109440  1.0  -0.5117
  O  O101  1  0.633640  0.277250  0.154960  1.0  -0.5791
  O  O102  1  0.629820  0.396020  0.278820  1.0  -0.5964
  O  O103  1  0.621420  0.147160  0.342240  1.0  -0.589
  O  O104  1  0.715530  0.153170  0.501420  1.0  -0.5533
  O  O105  1  0.538860  0.958160  0.432380  1.0  -0.7205
  O  O106  1  0.698280  0.530830  0.128400  1.0  -0.5755
  O  O107  1  0.611230  0.636300  0.207650  1.0  -0.5767
  O  O108  1  0.615530  0.904180  0.260720  1.0  -0.6019
  O  O109  1  0.688580  0.784080  0.390560  1.0  -0.5119
  O  O110  1  0.366360  0.777250  0.345040  1.0  -0.5785
  O  O111  1  0.370180  0.896020  0.221180  1.0  -0.5956
  O  O112  1  0.378580  0.647160  0.157760  1.0  -0.5887
  O  O113  1  0.284470  0.653170  0.998580  1.0  -0.5523
  O  O114  1  0.461140  0.458160  0.067620  1.0  -0.72
  O  O115  1  0.698280  0.969170  0.628400  1.0  -0.5757
  O  O116  1  0.611230  0.863700  0.707650  1.0  -0.5763
  O  O117  1  0.615530  0.595820  0.760720  1.0  -0.6022
  O  O118  1  0.688580  0.715920  0.890560  1.0  -0.513
  O  O119  1  0.366360  0.722750  0.845040  1.0  -0.5775
  O  O120  1  0.370180  0.603980  0.721180  1.0  -0.595
  O  O121  1  0.378580  0.852840  0.657760  1.0  -0.5882
  O  O122  1  0.284470  0.846830  0.498580  1.0  -0.5528
  O  O123  1  0.461140  0.041840  0.567620  1.0  -0.719
  O  O124  1  0.301720  0.469170  0.871600  1.0  -0.5757
  O  O125  1  0.388770  0.363700  0.792350  1.0  -0.5772
  O  O126  1  0.384470  0.095820  0.739280  1.0  -0.603
  O  O127  1  0.311420  0.215920  0.609440  1.0  -0.512
  O  O128  1  0.633640  0.222750  0.654960  1.0  -0.5789
  O  O129  1  0.629820  0.103980  0.778820  1.0  -0.5967
  O  O130  1  0.621420  0.352840  0.842240  1.0  -0.5889
  O  O131  1  0.715530  0.346830  0.001420  1.0  -0.5533
  O  O132  1  0.538860  0.541840  0.932380  1.0  -0.7194
