# generated using pymatgen
data_CoNiH6C16O9
_symmetry_space_group_name_H-M   'P 1'
_cell_length_a   13.51860000
_cell_length_b   10.76850000
_cell_length_c   14.63230000
_cell_angle_alpha   90.00000000
_cell_angle_beta   110.63000000
_cell_angle_gamma   90.00000000
_symmetry_Int_Tables_number   1
_chemical_formula_structural   CoNiH6C16O9
_chemical_formula_sum   'Co4 Ni4 H24 C64 O36'
_cell_volume   1993.50559267
_cell_formula_units_Z   4
loop_
 _symmetry_equiv_pos_site_id
 _symmetry_equiv_pos_as_xyz
  1  'x, y, z'
loop_
 _atom_site_type_symbol
 _atom_site_label
 _atom_site_symmetry_multiplicity
 _atom_site_fract_x
 _atom_site_fract_y
 _atom_site_fract_z
 _atom_site_occupancy
 _atom_site_charge
  Co  Co1  1  0.410530  0.904090  0.461760  1.0  1.0861
  Co  Co2  1  0.503880  0.010660  0.292200  1.0  1.0944
  Co  Co3  1  0.589470  0.404090  0.038240  1.0  1.0857
  Co  Co4  1  0.496120  0.989340  0.707800  1.0  1.0967
  Ni  Ni5  1  0.589470  0.095910  0.538240  1.0  0.908
  Ni  Ni6  1  0.496120  0.510660  0.207800  1.0  0.9683
  Ni  Ni7  1  0.410530  0.595910  0.961760  1.0  0.9082
  Ni  Ni8  1  0.503880  0.489340  0.792200  1.0  0.9679
  H  H9  1  0.140300  0.129700  0.358900  1.0  0.1334
  H  H10  1  0.001800  0.432300  0.209700  1.0  0.1393
  H  H11  1  0.140300  0.455900  0.155300  1.0  0.1206
  H  H12  1  0.050300  0.181600  0.456800  1.0  0.1345
  H  H13  1  0.910900  0.140500  0.507700  1.0  0.1289
  H  H14  1  0.850400  0.332200  0.209700  1.0  0.1344
  H  H15  1  0.859700  0.629700  0.141100  1.0  0.134
  H  H16  1  0.998200  0.932300  0.290300  1.0  0.1384
  H  H17  1  0.859700  0.955900  0.344700  1.0  0.1209
  H  H18  1  0.949700  0.681600  0.043200  1.0  0.1341
  H  H19  1  0.089100  0.640500  0.992300  1.0  0.129
  H  H20  1  0.149600  0.832200  0.290300  1.0  0.1345
  H  H21  1  0.859700  0.870300  0.641100  1.0  0.1335
  H  H22  1  0.998200  0.567700  0.790300  1.0  0.1383
  H  H23  1  0.859700  0.544100  0.844700  1.0  0.1207
  H  H24  1  0.949700  0.818400  0.543200  1.0  0.1347
  H  H25  1  0.089100  0.859500  0.492300  1.0  0.129
  H  H26  1  0.149600  0.667800  0.790300  1.0  0.1345
  H  H27  1  0.140300  0.370300  0.858900  1.0  0.133
  H  H28  1  0.001800  0.067700  0.709700  1.0  0.1391
  H  H29  1  0.140300  0.044100  0.655300  1.0  0.1209
  H  H30  1  0.050300  0.318400  0.956800  1.0  0.1353
  H  H31  1  0.910900  0.359500  0.007700  1.0  0.1289
  H  H32  1  0.850400  0.167800  0.709700  1.0  0.1347
  C  C33  1  0.313600  0.117200  0.319660  1.0  0.7192
  C  C34  1  0.224300  0.209200  0.285200  1.0  -0.1016
  C  C35  1  0.139900  0.195600  0.317700  1.0  -0.0193
  C  C36  1  0.055000  0.277200  0.290600  1.0  0.0526
  C  C37  1  0.057300  0.375700  0.229000  1.0  -0.0883
  C  C38  1  0.140800  0.389900  0.196400  1.0  -0.0617
  C  C39  1  0.225800  0.308000  0.223700  1.0  0.0033
  C  C40  1  0.316000  0.331700  0.187000  1.0  0.7402
  C  C41  1  0.966100  0.258300  0.326000  1.0  0.0862
  C  C42  1  0.982100  0.202500  0.416600  1.0  -0.104
  C  C43  1  0.898400  0.178000  0.447400  1.0  -0.026
  C  C44  1  0.795800  0.209000  0.388870  1.0  -0.0808
  C  C45  1  0.778800  0.270200  0.300590  1.0  -0.0206
  C  C46  1  0.862900  0.293000  0.269400  1.0  -0.0542
  C  C47  1  0.702400  0.165500  0.412950  1.0  0.7052
  C  C48  1  0.670700  0.316600  0.239100  1.0  0.6984
  C  C49  1  0.686400  0.617200  0.180340  1.0  0.7204
  C  C50  1  0.775700  0.709200  0.214800  1.0  -0.1005
  C  C51  1  0.860100  0.695600  0.182300  1.0  -0.0199
  C  C52  1  0.945000  0.777200  0.209400  1.0  0.0518
  C  C53  1  0.942700  0.875700  0.271000  1.0  -0.0901
  C  C54  1  0.859200  0.889900  0.303600  1.0  -0.0616
  C  C55  1  0.774200  0.808000  0.276300  1.0  0.0031
  C  C56  1  0.684000  0.831700  0.313000  1.0  0.7395
  C  C57  1  0.033900  0.758300  0.174000  1.0  0.0852
  C  C58  1  0.017900  0.702500  0.083400  1.0  -0.1017
  C  C59  1  0.101600  0.678000  0.052600  1.0  -0.0272
  C  C60  1  0.204200  0.709000  0.111130  1.0  -0.0804
  C  C61  1  0.221200  0.770200  0.199410  1.0  -0.0211
  C  C62  1  0.137100  0.793000  0.230600  1.0  -0.0534
  C  C63  1  0.297600  0.665500  0.087050  1.0  0.7056
  C  C64  1  0.329300  0.816600  0.260900  1.0  0.6991
  C  C65  1  0.686400  0.882800  0.680340  1.0  0.7207
  C  C66  1  0.775700  0.790800  0.714800  1.0  -0.1002
  C  C67  1  0.860100  0.804400  0.682300  1.0  -0.02
  C  C68  1  0.945000  0.722800  0.709400  1.0  0.052
  C  C69  1  0.942700  0.624300  0.771000  1.0  -0.0907
  C  C70  1  0.859200  0.610100  0.803600  1.0  -0.0616
  C  C71  1  0.774200  0.692000  0.776300  1.0  0.003
  C  C72  1  0.684000  0.668300  0.813000  1.0  0.7389
  C  C73  1  0.033900  0.741700  0.674000  1.0  0.0851
  C  C74  1  0.017900  0.797500  0.583400  1.0  -0.1017
  C  C75  1  0.101600  0.822000  0.552600  1.0  -0.0272
  C  C76  1  0.204200  0.791000  0.611130  1.0  -0.0809
  C  C77  1  0.221200  0.729800  0.699410  1.0  -0.0212
  C  C78  1  0.137100  0.707000  0.730600  1.0  -0.0536
  C  C79  1  0.297600  0.834500  0.587050  1.0  0.7056
  C  C80  1  0.329300  0.683400  0.760900  1.0  0.6991
  C  C81  1  0.313600  0.382800  0.819660  1.0  0.7195
  C  C82  1  0.224300  0.290800  0.785200  1.0  -0.1013
  C  C83  1  0.139900  0.304400  0.817700  1.0  -0.0195
  C  C84  1  0.055000  0.222800  0.790600  1.0  0.0529
  C  C85  1  0.057300  0.124300  0.729000  1.0  -0.0888
  C  C86  1  0.140800  0.110100  0.696400  1.0  -0.0618
  C  C87  1  0.225800  0.192000  0.723700  1.0  0.0032
  C  C88  1  0.316000  0.168300  0.687000  1.0  0.7395
  C  C89  1  0.966100  0.241700  0.826000  1.0  0.0865
  C  C90  1  0.982100  0.297500  0.916600  1.0  -0.1039
  C  C91  1  0.898400  0.322000  0.947400  1.0  -0.0259
  C  C92  1  0.795800  0.291000  0.888870  1.0  -0.081
  C  C93  1  0.778800  0.229800  0.800590  1.0  -0.0212
  C  C94  1  0.862900  0.207000  0.769400  1.0  -0.0548
  C  C95  1  0.702400  0.334500  0.912950  1.0  0.706
  C  C96  1  0.670700  0.183400  0.739100  1.0  0.6984
  O  O97  1  0.304720  0.031220  0.373560  1.0  -0.5688
  O  O98  1  0.390110  0.135330  0.290920  1.0  -0.5628
  O  O99  1  0.386270  0.404250  0.238720  1.0  -0.598
  O  O100  1  0.312810  0.284400  0.107900  1.0  -0.5184
  O  O101  1  0.620020  0.146120  0.340430  1.0  -0.5955
  O  O102  1  0.713940  0.152180  0.501230  1.0  -0.5376
  O  O103  1  0.633830  0.277440  0.153120  1.0  -0.5658
  O  O104  1  0.628120  0.395820  0.277760  1.0  -0.6008
  O  O105  1  0.537930  0.959950  0.431240  1.0  -0.7232
  O  O106  1  0.695280  0.531220  0.126440  1.0  -0.5693
  O  O107  1  0.609890  0.635330  0.209080  1.0  -0.5622
  O  O108  1  0.613730  0.904250  0.261280  1.0  -0.5986
  O  O109  1  0.687190  0.784400  0.392100  1.0  -0.5178
  O  O110  1  0.379980  0.646120  0.159570  1.0  -0.5958
  O  O111  1  0.286060  0.652180  0.998770  1.0  -0.5371
  O  O112  1  0.366170  0.777440  0.346880  1.0  -0.5642
  O  O113  1  0.371880  0.895820  0.222240  1.0  -0.5997
  O  O114  1  0.462070  0.459950  0.068760  1.0  -0.7229
  O  O115  1  0.695280  0.968780  0.626440  1.0  -0.5677
  O  O116  1  0.609890  0.864670  0.709080  1.0  -0.5621
  O  O117  1  0.613730  0.595750  0.761280  1.0  -0.5989
  O  O118  1  0.687190  0.715600  0.892100  1.0  -0.5189
  O  O119  1  0.379980  0.853880  0.659570  1.0  -0.5953
  O  O120  1  0.286060  0.847820  0.498770  1.0  -0.537
  O  O121  1  0.366170  0.722560  0.846880  1.0  -0.5642
  O  O122  1  0.371880  0.604180  0.722240  1.0  -0.5991
  O  O123  1  0.462070  0.040050  0.568760  1.0  -0.7229
  O  O124  1  0.304720  0.468780  0.873560  1.0  -0.5677
  O  O125  1  0.390110  0.364670  0.790920  1.0  -0.563
  O  O126  1  0.386270  0.095750  0.738720  1.0  -0.5976
  O  O127  1  0.312810  0.215600  0.607900  1.0  -0.5183
  O  O128  1  0.620020  0.353880  0.840430  1.0  -0.5953
  O  O129  1  0.713940  0.347820  0.001230  1.0  -0.5376
  O  O130  1  0.633830  0.222560  0.653120  1.0  -0.565
  O  O131  1  0.628120  0.104180  0.777760  1.0  -0.6
  O  O132  1  0.537930  0.540050  0.931240  1.0  -0.7237
