# generated using pymatgen
data_Co2H6C16O9
_symmetry_space_group_name_H-M   'P 1'
_cell_length_a   13.51460000
_cell_length_b   10.76920000
_cell_length_c   14.62780000
_cell_angle_alpha   90.00000000
_cell_angle_beta   110.63100000
_cell_angle_gamma   90.00000000
_symmetry_Int_Tables_number   1
_chemical_formula_structural   Co2H6C16O9
_chemical_formula_sum   'Co8 H24 C64 O36'
_cell_volume   1992.41925463
_cell_formula_units_Z   4
loop_
 _symmetry_equiv_pos_site_id
 _symmetry_equiv_pos_as_xyz
  1  'x, y, z'
loop_
 _atom_site_type_symbol
 _atom_site_label
 _atom_site_symmetry_multiplicity
 _atom_site_fract_x
 _atom_site_fract_y
 _atom_site_fract_z
 _atom_site_occupancy
 _atom_site_charge
  Co  Co1  1  0.410430  0.904180  0.461720  1.0  1.0824
  Co  Co2  1  0.503840  0.010500  0.292210  1.0  1.0805
  Co  Co3  1  0.589570  0.404180  0.038280  1.0  1.0821
  Co  Co4  1  0.496160  0.510500  0.207790  1.0  1.0821
  Co  Co5  1  0.589570  0.095820  0.538280  1.0  1.0844
  Co  Co6  1  0.496160  0.989500  0.707790  1.0  1.0828
  Co  Co7  1  0.410430  0.595820  0.961720  1.0  1.0849
  Co  Co8  1  0.503840  0.489500  0.792210  1.0  1.081
  H  H9  1  0.139900  0.128700  0.358700  1.0  0.1321
  H  H10  1  0.002600  0.432600  0.210800  1.0  0.1239
  H  H11  1  0.140500  0.454900  0.154600  1.0  0.1196
  H  H12  1  0.050600  0.183000  0.457100  1.0  0.1346
  H  H13  1  0.910600  0.141300  0.507700  1.0  0.1238
  H  H14  1  0.850200  0.332600  0.209700  1.0  0.1296
  H  H15  1  0.860100  0.628700  0.141300  1.0  0.1327
  H  H16  1  0.997400  0.932600  0.289200  1.0  0.1229
  H  H17  1  0.859500  0.954900  0.345400  1.0  0.1196
  H  H18  1  0.949400  0.683000  0.042900  1.0  0.1345
  H  H19  1  0.089400  0.641300  0.992300  1.0  0.1237
  H  H20  1  0.149800  0.832600  0.290300  1.0  0.1295
  H  H21  1  0.860100  0.871300  0.641300  1.0  0.1323
  H  H22  1  0.997400  0.567400  0.789200  1.0  0.123
  H  H23  1  0.859500  0.545100  0.845400  1.0  0.1199
  H  H24  1  0.949400  0.817000  0.542900  1.0  0.1352
  H  H25  1  0.089400  0.858700  0.492300  1.0  0.1238
  H  H26  1  0.149800  0.667400  0.790300  1.0  0.1295
  H  H27  1  0.139900  0.371300  0.858700  1.0  0.1316
  H  H28  1  0.002600  0.067400  0.710800  1.0  0.124
  H  H29  1  0.140500  0.045100  0.654600  1.0  0.1198
  H  H30  1  0.050600  0.317000  0.957100  1.0  0.1355
  H  H31  1  0.910600  0.358700  0.007700  1.0  0.124
  H  H32  1  0.850200  0.167400  0.709700  1.0  0.1298
  C  C33  1  0.313000  0.117200  0.319100  1.0  0.7139
  C  C34  1  0.224800  0.208600  0.285300  1.0  -0.0935
  C  C35  1  0.139800  0.194800  0.317800  1.0  -0.0345
  C  C36  1  0.054900  0.277400  0.290600  1.0  0.0434
  C  C37  1  0.057700  0.375400  0.229500  1.0  -0.0904
  C  C38  1  0.141200  0.389400  0.196300  1.0  -0.0617
  C  C39  1  0.225700  0.307500  0.224000  1.0  -0.0266
  C  C40  1  0.316300  0.332000  0.187000  1.0  0.737
  C  C41  1  0.965800  0.258000  0.325700  1.0  0.0783
  C  C42  1  0.982300  0.203100  0.416700  1.0  -0.1119
  C  C43  1  0.898200  0.178500  0.447300  1.0  -0.0236
  C  C44  1  0.796300  0.208500  0.389000  1.0  -0.0845
  C  C45  1  0.778500  0.270500  0.300300  1.0  -0.0286
  C  C46  1  0.862600  0.293200  0.269200  1.0  -0.0592
  C  C47  1  0.670800  0.316500  0.239300  1.0  0.7076
  C  C48  1  0.702000  0.165500  0.412500  1.0  0.6968
  C  C49  1  0.687000  0.617200  0.180900  1.0  0.7155
  C  C50  1  0.775200  0.708600  0.214700  1.0  -0.0929
  C  C51  1  0.860200  0.694800  0.182200  1.0  -0.0353
  C  C52  1  0.945100  0.777400  0.209400  1.0  0.0425
  C  C53  1  0.942300  0.875400  0.270500  1.0  -0.0915
  C  C54  1  0.858800  0.889400  0.303700  1.0  -0.0621
  C  C55  1  0.774300  0.807500  0.276000  1.0  -0.027
  C  C56  1  0.683700  0.832000  0.313000  1.0  0.7366
  C  C57  1  0.034200  0.758000  0.174300  1.0  0.0774
  C  C58  1  0.017700  0.703100  0.083300  1.0  -0.1095
  C  C59  1  0.101800  0.678500  0.052700  1.0  -0.025
  C  C60  1  0.203700  0.708500  0.111000  1.0  -0.0842
  C  C61  1  0.221500  0.770500  0.199700  1.0  -0.0295
  C  C62  1  0.137400  0.793200  0.230800  1.0  -0.059
  C  C63  1  0.329200  0.816500  0.260700  1.0  0.7084
  C  C64  1  0.298000  0.665500  0.087500  1.0  0.6977
  C  C65  1  0.687000  0.882800  0.680900  1.0  0.7158
  C  C66  1  0.775200  0.791400  0.714700  1.0  -0.0928
  C  C67  1  0.860200  0.805200  0.682200  1.0  -0.036
  C  C68  1  0.945100  0.722600  0.709400  1.0  0.0428
  C  C69  1  0.942300  0.624600  0.770500  1.0  -0.0918
  C  C70  1  0.858800  0.610600  0.803700  1.0  -0.0615
  C  C71  1  0.774300  0.692500  0.776000  1.0  -0.0268
  C  C72  1  0.683700  0.668000  0.813000  1.0  0.7356
  C  C73  1  0.034200  0.742000  0.674300  1.0  0.0768
  C  C74  1  0.017700  0.796900  0.583300  1.0  -0.11
  C  C75  1  0.101800  0.821500  0.552700  1.0  -0.0252
  C  C76  1  0.203700  0.791500  0.611000  1.0  -0.0846
  C  C77  1  0.221500  0.729500  0.699700  1.0  -0.0296
  C  C78  1  0.137400  0.706800  0.730800  1.0  -0.0592
  C  C79  1  0.329200  0.683500  0.760700  1.0  0.7084
  C  C80  1  0.298000  0.834500  0.587500  1.0  0.6975
  C  C81  1  0.313000  0.382800  0.819100  1.0  0.7142
  C  C82  1  0.224800  0.291400  0.785300  1.0  -0.0933
  C  C83  1  0.139800  0.305200  0.817800  1.0  -0.035
  C  C84  1  0.054900  0.222600  0.790600  1.0  0.0437
  C  C85  1  0.057700  0.124600  0.729500  1.0  -0.0906
  C  C86  1  0.141200  0.110600  0.696300  1.0  -0.0611
  C  C87  1  0.225700  0.192500  0.724000  1.0  -0.0264
  C  C88  1  0.316300  0.168000  0.687000  1.0  0.7362
  C  C89  1  0.965800  0.242000  0.825700  1.0  0.0781
  C  C90  1  0.982300  0.296900  0.916700  1.0  -0.1123
  C  C91  1  0.898200  0.321500  0.947300  1.0  -0.0233
  C  C92  1  0.796300  0.291500  0.889000  1.0  -0.0848
  C  C93  1  0.778500  0.229500  0.800300  1.0  -0.0292
  C  C94  1  0.862600  0.206800  0.769200  1.0  -0.0598
  C  C95  1  0.670800  0.183500  0.739300  1.0  0.7077
  C  C96  1  0.702000  0.334500  0.912500  1.0  0.6972
  O  O97  1  0.304630  0.031000  0.373770  1.0  -0.581
  O  O98  1  0.389910  0.135000  0.290590  1.0  -0.5624
  O  O99  1  0.386200  0.404200  0.238470  1.0  -0.5938
  O  O100  1  0.312600  0.284500  0.107760  1.0  -0.5156
  O  O101  1  0.620100  0.145800  0.340310  1.0  -0.5923
  O  O102  1  0.713850  0.151900  0.501270  1.0  -0.5406
  O  O103  1  0.633540  0.277000  0.152900  1.0  -0.5737
  O  O104  1  0.628160  0.395600  0.277680  1.0  -0.6007
  O  O105  1  0.538070  0.959500  0.431520  1.0  -0.7318
  O  O106  1  0.695370  0.531000  0.126230  1.0  -0.5817
  O  O107  1  0.610090  0.635000  0.209410  1.0  -0.5615
  O  O108  1  0.613800  0.904200  0.261530  1.0  -0.5941
  O  O109  1  0.687400  0.784500  0.392240  1.0  -0.515
  O  O110  1  0.379900  0.645800  0.159690  1.0  -0.5928
  O  O111  1  0.286150  0.651900  0.998730  1.0  -0.5393
  O  O112  1  0.366460  0.777000  0.347100  1.0  -0.5728
  O  O113  1  0.371840  0.895600  0.222320  1.0  -0.6003
  O  O114  1  0.461930  0.459500  0.068480  1.0  -0.7311
  O  O115  1  0.695370  0.969000  0.626230  1.0  -0.5816
  O  O116  1  0.610090  0.865000  0.709410  1.0  -0.5613
  O  O117  1  0.613800  0.595800  0.761530  1.0  -0.5939
  O  O118  1  0.687400  0.715500  0.892240  1.0  -0.516
  O  O119  1  0.379900  0.854200  0.659690  1.0  -0.5921
  O  O120  1  0.286150  0.848100  0.498730  1.0  -0.5401
  O  O121  1  0.366460  0.723000  0.847100  1.0  -0.5731
  O  O122  1  0.371840  0.604400  0.722320  1.0  -0.5993
  O  O123  1  0.461930  0.040500  0.568480  1.0  -0.7306
  O  O124  1  0.304630  0.469000  0.873770  1.0  -0.5815
  O  O125  1  0.389910  0.365000  0.790590  1.0  -0.5625
  O  O126  1  0.386200  0.095800  0.738470  1.0  -0.5941
  O  O127  1  0.312600  0.215500  0.607760  1.0  -0.5159
  O  O128  1  0.620100  0.354200  0.840310  1.0  -0.5923
  O  O129  1  0.713850  0.348100  0.001270  1.0  -0.5413
  O  O130  1  0.633540  0.223000  0.652900  1.0  -0.5731
  O  O131  1  0.628160  0.104400  0.777680  1.0  -0.6004
  O  O132  1  0.538070  0.540500  0.931520  1.0  -0.7311
