# generated using pymatgen
data_Co2H6C16O9
_symmetry_space_group_name_H-M   'P 1'
_cell_length_a   13.56740000
_cell_length_b   10.79420000
_cell_length_c   14.68370000
_cell_angle_alpha   90.00000000
_cell_angle_beta   110.63800000
_cell_angle_gamma   90.00000000
_symmetry_Int_Tables_number   1
_chemical_formula_structural   Co2H6C16O9
_chemical_formula_sum   'Co8 H24 C64 O36'
_cell_volume   2012.41566996
_cell_formula_units_Z   4
loop_
 _symmetry_equiv_pos_site_id
 _symmetry_equiv_pos_as_xyz
  1  'x, y, z'
loop_
 _atom_site_type_symbol
 _atom_site_label
 _atom_site_symmetry_multiplicity
 _atom_site_fract_x
 _atom_site_fract_y
 _atom_site_fract_z
 _atom_site_occupancy
 _atom_site_charge
  Co  Co1  1  0.409870  0.902800  0.461420  1.0  1.0866
  Co  Co2  1  0.504020  0.010280  0.292220  1.0  1.0921
  Co  Co3  1  0.590120  0.402800  0.038580  1.0  1.0869
  Co  Co4  1  0.495980  0.510280  0.207780  1.0  1.0925
  Co  Co5  1  0.590120  0.097200  0.538580  1.0  1.0895
  Co  Co6  1  0.495980  0.989720  0.707780  1.0  1.0928
  Co  Co7  1  0.409870  0.597200  0.961420  1.0  1.0892
  Co  Co8  1  0.504020  0.489720  0.792220  1.0  1.0921
  H  H9  1  0.139300  0.129700  0.358400  1.0  0.1278
  H  H10  1  0.001300  0.432000  0.210200  1.0  0.1249
  H  H11  1  0.140100  0.456700  0.156200  1.0  0.1168
  H  H12  1  0.050600  0.182200  0.456300  1.0  0.1315
  H  H13  1  0.911500  0.141100  0.507800  1.0  0.1242
  H  H14  1  0.850100  0.332200  0.209700  1.0  0.1291
  H  H15  1  0.860700  0.629700  0.141600  1.0  0.1284
  H  H16  1  0.998700  0.932000  0.289800  1.0  0.1239
  H  H17  1  0.859900  0.956700  0.343800  1.0  0.1167
  H  H18  1  0.949400  0.682200  0.043700  1.0  0.1312
  H  H19  1  0.088500  0.641100  0.992200  1.0  0.1241
  H  H20  1  0.149900  0.832200  0.290300  1.0  0.1292
  H  H21  1  0.860700  0.870300  0.641600  1.0  0.128
  H  H22  1  0.998700  0.568000  0.789800  1.0  0.1241
  H  H23  1  0.859900  0.543300  0.843800  1.0  0.1167
  H  H24  1  0.949400  0.817800  0.543700  1.0  0.1318
  H  H25  1  0.088500  0.858900  0.492200  1.0  0.1239
  H  H26  1  0.149900  0.667800  0.790300  1.0  0.1292
  H  H27  1  0.139300  0.370300  0.858400  1.0  0.1274
  H  H28  1  0.001300  0.068000  0.710200  1.0  0.1248
  H  H29  1  0.140100  0.043300  0.656200  1.0  0.117
  H  H30  1  0.050600  0.317800  0.956300  1.0  0.1325
  H  H31  1  0.911500  0.358900  0.007800  1.0  0.1244
  H  H32  1  0.850100  0.167800  0.709700  1.0  0.1294
  C  C33  1  0.311960  0.117030  0.319350  1.0  0.7264
  C  C34  1  0.223610  0.209680  0.285260  1.0  -0.1038
  C  C35  1  0.139040  0.195680  0.317580  1.0  -0.0417
  C  C36  1  0.054510  0.277320  0.290570  1.0  0.0487
  C  C37  1  0.056770  0.375670  0.229360  1.0  -0.0916
  C  C38  1  0.140360  0.390520  0.196820  1.0  -0.0635
  C  C39  1  0.224790  0.308000  0.224020  1.0  -0.0054
  C  C40  1  0.315080  0.331770  0.187690  1.0  0.7445
  C  C41  1  0.965680  0.258560  0.326270  1.0  0.0534
  C  C42  1  0.982460  0.202960  0.416560  1.0  -0.1023
  C  C43  1  0.898990  0.178340  0.447640  1.0  -0.0335
  C  C44  1  0.796640  0.209150  0.389140  1.0  -0.0912
  C  C45  1  0.779440  0.270470  0.301190  1.0  -0.0329
  C  C46  1  0.862730  0.293380  0.269350  1.0  -0.0464
  C  C47  1  0.671240  0.316380  0.240220  1.0  0.7018
  C  C48  1  0.703320  0.166150  0.413280  1.0  0.7057
  C  C49  1  0.688040  0.617030  0.180650  1.0  0.7271
  C  C50  1  0.776390  0.709680  0.214740  1.0  -0.1034
  C  C51  1  0.860960  0.695680  0.182420  1.0  -0.0419
  C  C52  1  0.945490  0.777320  0.209430  1.0  0.0478
  C  C53  1  0.943230  0.875670  0.270640  1.0  -0.0931
  C  C54  1  0.859640  0.890520  0.303180  1.0  -0.0634
  C  C55  1  0.775210  0.808000  0.275980  1.0  -0.0051
  C  C56  1  0.684920  0.831770  0.312310  1.0  0.7443
  C  C57  1  0.034320  0.758560  0.173730  1.0  0.0526
  C  C58  1  0.017540  0.702960  0.083440  1.0  -0.1017
  C  C59  1  0.101010  0.678340  0.052360  1.0  -0.0341
  C  C60  1  0.203360  0.709150  0.110860  1.0  -0.0906
  C  C61  1  0.220560  0.770470  0.198810  1.0  -0.0338
  C  C62  1  0.137270  0.793380  0.230650  1.0  -0.0464
  C  C63  1  0.328760  0.816380  0.259780  1.0  0.7025
  C  C64  1  0.296680  0.666150  0.086720  1.0  0.7069
  C  C65  1  0.688040  0.882970  0.680650  1.0  0.7275
  C  C66  1  0.776390  0.790320  0.714740  1.0  -0.1032
  C  C67  1  0.860960  0.804320  0.682420  1.0  -0.042
  C  C68  1  0.945490  0.722680  0.709430  1.0  0.0483
  C  C69  1  0.943230  0.624330  0.770640  1.0  -0.0939
  C  C70  1  0.859640  0.609480  0.803180  1.0  -0.0633
  C  C71  1  0.775210  0.692000  0.775980  1.0  -0.0052
  C  C72  1  0.684920  0.668230  0.812310  1.0  0.7436
  C  C73  1  0.034320  0.741440  0.673730  1.0  0.0521
  C  C74  1  0.017540  0.797040  0.583440  1.0  -0.1019
  C  C75  1  0.101010  0.821660  0.552360  1.0  -0.0344
  C  C76  1  0.203360  0.790850  0.610860  1.0  -0.0908
  C  C77  1  0.220560  0.729530  0.698810  1.0  -0.0334
  C  C78  1  0.137270  0.706620  0.730650  1.0  -0.0467
  C  C79  1  0.328760  0.683620  0.759780  1.0  0.7024
  C  C80  1  0.296680  0.833850  0.586720  1.0  0.7064
  C  C81  1  0.311960  0.382970  0.819350  1.0  0.7268
  C  C82  1  0.223610  0.290320  0.785260  1.0  -0.1037
  C  C83  1  0.139040  0.304320  0.817580  1.0  -0.0419
  C  C84  1  0.054510  0.222680  0.790570  1.0  0.0491
  C  C85  1  0.056770  0.124330  0.729360  1.0  -0.0922
  C  C86  1  0.140360  0.109480  0.696820  1.0  -0.0632
  C  C87  1  0.224790  0.192000  0.724020  1.0  -0.0056
  C  C88  1  0.315080  0.168230  0.687690  1.0  0.7438
  C  C89  1  0.965680  0.241440  0.826270  1.0  0.0531
  C  C90  1  0.982460  0.297040  0.916560  1.0  -0.1021
  C  C91  1  0.898990  0.321660  0.947640  1.0  -0.0334
  C  C92  1  0.796640  0.290850  0.889140  1.0  -0.0912
  C  C93  1  0.779440  0.229530  0.801190  1.0  -0.0333
  C  C94  1  0.862730  0.206620  0.769350  1.0  -0.0471
  C  C95  1  0.671240  0.183620  0.740220  1.0  0.7018
  C  C96  1  0.703320  0.333850  0.913280  1.0  0.7058
  O  O97  1  0.302720  0.030920  0.372250  1.0  -0.5682
  O  O98  1  0.389010  0.135890  0.291790  1.0  -0.5687
  O  O99  1  0.385020  0.404080  0.239170  1.0  -0.5982
  O  O100  1  0.311600  0.284090  0.108820  1.0  -0.5185
  O  O101  1  0.621150  0.146490  0.341460  1.0  -0.5956
  O  O102  1  0.715140  0.152910  0.501270  1.0  -0.5449
  O  O103  1  0.633510  0.277000  0.154250  1.0  -0.5812
  O  O104  1  0.629340  0.395550  0.278590  1.0  -0.6025
  O  O105  1  0.538690  0.958770  0.432110  1.0  -0.7262
  O  O106  1  0.697280  0.530920  0.127750  1.0  -0.5678
  O  O107  1  0.610990  0.635890  0.208210  1.0  -0.5684
  O  O108  1  0.614980  0.904080  0.260830  1.0  -0.5978
  O  O109  1  0.688400  0.784090  0.391180  1.0  -0.5182
  O  O110  1  0.378850  0.646490  0.158540  1.0  -0.596
  O  O111  1  0.284860  0.652910  0.998730  1.0  -0.5447
  O  O112  1  0.366490  0.777000  0.345750  1.0  -0.58
  O  O113  1  0.370660  0.895550  0.221410  1.0  -0.601
  O  O114  1  0.461310  0.458770  0.067890  1.0  -0.7257
  O  O115  1  0.697280  0.969080  0.627750  1.0  -0.568
  O  O116  1  0.610990  0.864110  0.708210  1.0  -0.5683
  O  O117  1  0.614980  0.595920  0.760830  1.0  -0.5985
  O  O118  1  0.688400  0.715910  0.891180  1.0  -0.5195
  O  O119  1  0.378850  0.853510  0.658540  1.0  -0.5953
  O  O120  1  0.284860  0.847090  0.498730  1.0  -0.5449
  O  O121  1  0.366490  0.723000  0.845750  1.0  -0.5794
  O  O122  1  0.370660  0.604450  0.721410  1.0  -0.6002
  O  O123  1  0.461310  0.041230  0.567890  1.0  -0.7247
  O  O124  1  0.302720  0.469080  0.872250  1.0  -0.5684
  O  O125  1  0.389010  0.364110  0.791790  1.0  -0.5689
  O  O126  1  0.385020  0.095920  0.739170  1.0  -0.599
  O  O127  1  0.311600  0.215910  0.608820  1.0  -0.5188
  O  O128  1  0.621150  0.353510  0.841460  1.0  -0.5955
  O  O129  1  0.715140  0.347090  0.001270  1.0  -0.545
  O  O130  1  0.633510  0.223000  0.654250  1.0  -0.5808
  O  O131  1  0.629340  0.104450  0.778590  1.0  -0.6028
  O  O132  1  0.538690  0.541230  0.932110  1.0  -0.7252
