# generated using pymatgen
data_Ni2H6C16O9
_symmetry_space_group_name_H-M   'P 1'
_cell_length_a   13.52040000
_cell_length_b   10.76390000
_cell_length_c   14.63480000
_cell_angle_alpha   90.00000000
_cell_angle_beta   110.53200000
_cell_angle_gamma   90.00000000
_symmetry_Int_Tables_number   1
_chemical_formula_structural   Ni2H6C16O9
_chemical_formula_sum   'Ni8 H24 C64 O36'
_cell_volume   1994.54044423
_cell_formula_units_Z   4
loop_
 _symmetry_equiv_pos_site_id
 _symmetry_equiv_pos_as_xyz
  1  'x, y, z'
loop_
 _atom_site_type_symbol
 _atom_site_label
 _atom_site_symmetry_multiplicity
 _atom_site_fract_x
 _atom_site_fract_y
 _atom_site_fract_z
 _atom_site_occupancy
 _atom_site_charge
  Ni  Ni1  1  0.410600  0.905240  0.461820  1.0  0.9216
  Ni  Ni2  1  0.503460  0.011810  0.291970  1.0  0.9997
  Ni  Ni3  1  0.589400  0.405240  0.038180  1.0  0.9222
  Ni  Ni4  1  0.496540  0.511810  0.208030  1.0  0.9985
  Ni  Ni5  1  0.589400  0.094760  0.538180  1.0  0.9253
  Ni  Ni6  1  0.496540  0.988190  0.708030  1.0  0.9985
  Ni  Ni7  1  0.410600  0.594760  0.961820  1.0  0.9246
  Ni  Ni8  1  0.503460  0.488190  0.791970  1.0  0.9997
  H  H9  1  0.141200  0.130700  0.360100  1.0  0.1385
  H  H10  1  0.002300  0.432600  0.210300  1.0  0.1431
  H  H11  1  0.141000  0.456500  0.155600  1.0  0.1267
  H  H12  1  0.049900  0.182500  0.457100  1.0  0.1433
  H  H13  1  0.909600  0.140000  0.507000  1.0  0.1301
  H  H14  1  0.851000  0.334000  0.210200  1.0  0.139
  H  H15  1  0.858800  0.630700  0.139900  1.0  0.1387
  H  H16  1  0.997700  0.932600  0.289700  1.0  0.1422
  H  H17  1  0.859000  0.956500  0.344400  1.0  0.1268
  H  H18  1  0.950100  0.682500  0.042900  1.0  0.1428
  H  H19  1  0.090400  0.640000  0.993000  1.0  0.13
  H  H20  1  0.149000  0.834000  0.289800  1.0  0.1393
  H  H21  1  0.858800  0.869300  0.639900  1.0  0.1384
  H  H22  1  0.997700  0.567400  0.789700  1.0  0.1423
  H  H23  1  0.859000  0.543500  0.844400  1.0  0.1267
  H  H24  1  0.950100  0.817500  0.542900  1.0  0.1433
  H  H25  1  0.090400  0.860000  0.493000  1.0  0.13
  H  H26  1  0.149000  0.666000  0.789800  1.0  0.1393
  H  H27  1  0.141200  0.369300  0.860100  1.0  0.1382
  H  H28  1  0.002300  0.067400  0.710300  1.0  0.143
  H  H29  1  0.141000  0.043500  0.655600  1.0  0.127
  H  H30  1  0.049900  0.317500  0.957100  1.0  0.144
  H  H31  1  0.909600  0.360000  0.007000  1.0  0.1303
  H  H32  1  0.851000  0.166000  0.710200  1.0  0.1392
  C  C33  1  0.313700  0.118400  0.320200  1.0  0.7163
  C  C34  1  0.225600  0.210300  0.286200  1.0  -0.0944
  C  C35  1  0.140700  0.196300  0.318600  1.0  -0.0244
  C  C36  1  0.055300  0.277500  0.290700  1.0  0.056
  C  C37  1  0.057800  0.376000  0.229400  1.0  -0.0839
  C  C38  1  0.141500  0.390500  0.196800  1.0  -0.0463
  C  C39  1  0.226300  0.308600  0.224300  1.0  -0.0032
  C  C40  1  0.317000  0.332800  0.187600  1.0  0.7451
  C  C41  1  0.965400  0.259000  0.326200  1.0  0.0699
  C  C42  1  0.981800  0.203000  0.416800  1.0  -0.1087
  C  C43  1  0.897500  0.177900  0.447000  1.0  -0.0136
  C  C44  1  0.795600  0.208600  0.388700  1.0  -0.0805
  C  C45  1  0.778600  0.271200  0.300600  1.0  -0.0341
  C  C46  1  0.863000  0.294300  0.269600  1.0  -0.0507
  C  C47  1  0.701600  0.165100  0.411800  1.0  0.7145
  C  C48  1  0.670700  0.317600  0.238900  1.0  0.7031
  C  C49  1  0.686300  0.618400  0.179800  1.0  0.7172
  C  C50  1  0.774400  0.710300  0.213800  1.0  -0.0933
  C  C51  1  0.859300  0.696300  0.181400  1.0  -0.0256
  C  C52  1  0.944700  0.777500  0.209300  1.0  0.0544
  C  C53  1  0.942200  0.876000  0.270600  1.0  -0.0847
  C  C54  1  0.858500  0.890500  0.303200  1.0  -0.0462
  C  C55  1  0.773700  0.808600  0.275700  1.0  -0.0028
  C  C56  1  0.683000  0.832800  0.312400  1.0  0.745
  C  C57  1  0.034600  0.759000  0.173800  1.0  0.069
  C  C58  1  0.018200  0.703000  0.083200  1.0  -0.1068
  C  C59  1  0.102500  0.677900  0.053000  1.0  -0.0144
  C  C60  1  0.204400  0.708600  0.111300  1.0  -0.0797
  C  C61  1  0.221400  0.771200  0.199400  1.0  -0.0348
  C  C62  1  0.137000  0.794300  0.230400  1.0  -0.0502
  C  C63  1  0.298400  0.665100  0.088200  1.0  0.715
  C  C64  1  0.329300  0.817600  0.261100  1.0  0.704
  C  C65  1  0.686300  0.881600  0.679800  1.0  0.7175
  C  C66  1  0.774400  0.789700  0.713800  1.0  -0.0934
  C  C67  1  0.859300  0.803700  0.681400  1.0  -0.026
  C  C68  1  0.944700  0.722500  0.709300  1.0  0.0547
  C  C69  1  0.942200  0.624000  0.770600  1.0  -0.0852
  C  C70  1  0.858500  0.609500  0.803200  1.0  -0.0459
  C  C71  1  0.773700  0.691400  0.775700  1.0  -0.0028
  C  C72  1  0.683000  0.667200  0.812400  1.0  0.7445
  C  C73  1  0.034600  0.741000  0.673800  1.0  0.0686
  C  C74  1  0.018200  0.797000  0.583200  1.0  -0.1073
  C  C75  1  0.102500  0.822100  0.553000  1.0  -0.0147
  C  C76  1  0.204400  0.791400  0.611300  1.0  -0.0804
  C  C77  1  0.221400  0.728800  0.699400  1.0  -0.0347
  C  C78  1  0.137000  0.705700  0.730400  1.0  -0.0503
  C  C79  1  0.298400  0.834900  0.588200  1.0  0.7152
  C  C80  1  0.329300  0.682400  0.761100  1.0  0.704
  C  C81  1  0.313700  0.381600  0.820200  1.0  0.7167
  C  C82  1  0.225600  0.289700  0.786200  1.0  -0.0944
  C  C83  1  0.140700  0.303700  0.818600  1.0  -0.0246
  C  C84  1  0.055300  0.222500  0.790700  1.0  0.0561
  C  C85  1  0.057800  0.124000  0.729400  1.0  -0.0842
  C  C86  1  0.141500  0.109500  0.696800  1.0  -0.0458
  C  C87  1  0.226300  0.191400  0.724300  1.0  -0.0033
  C  C88  1  0.317000  0.167200  0.687600  1.0  0.7449
  C  C89  1  0.965400  0.241000  0.826200  1.0  0.0699
  C  C90  1  0.981800  0.297000  0.916800  1.0  -0.1092
  C  C91  1  0.897500  0.322100  0.947000  1.0  -0.0135
  C  C92  1  0.795600  0.291400  0.888700  1.0  -0.081
  C  C93  1  0.778600  0.228800  0.800600  1.0  -0.0347
  C  C94  1  0.863000  0.205700  0.769600  1.0  -0.0511
  C  C95  1  0.701600  0.334900  0.911800  1.0  0.7151
  C  C96  1  0.670700  0.182400  0.738900  1.0  0.7032
  O  O97  1  0.305760  0.032600  0.375200  1.0  -0.5649
  O  O98  1  0.390790  0.136400  0.291500  1.0  -0.5665
  O  O99  1  0.386860  0.405600  0.239220  1.0  -0.5908
  O  O100  1  0.313700  0.285000  0.108460  1.0  -0.5029
  O  O101  1  0.619290  0.146800  0.339590  1.0  -0.5876
  O  O102  1  0.712880  0.151300  0.500440  1.0  -0.5375
  O  O103  1  0.634740  0.278600  0.152720  1.0  -0.5623
  O  O104  1  0.627870  0.397000  0.277290  1.0  -0.5845
  O  O105  1  0.536930  0.960860  0.430510  1.0  -0.7122
  O  O106  1  0.694240  0.532600  0.124800  1.0  -0.5653
  O  O107  1  0.609210  0.636400  0.208500  1.0  -0.5658
  O  O108  1  0.613140  0.905600  0.260780  1.0  -0.5922
  O  O109  1  0.686300  0.785000  0.391540  1.0  -0.503
  O  O110  1  0.380710  0.646800  0.160410  1.0  -0.5878
  O  O111  1  0.287120  0.651300  0.999560  1.0  -0.5366
  O  O112  1  0.365260  0.778600  0.347280  1.0  -0.5605
  O  O113  1  0.372130  0.897000  0.222710  1.0  -0.5845
  O  O114  1  0.463070  0.460860  0.069490  1.0  -0.7121
  O  O115  1  0.694240  0.967400  0.624800  1.0  -0.5648
  O  O116  1  0.609210  0.863600  0.708500  1.0  -0.5657
  O  O117  1  0.613140  0.594400  0.760780  1.0  -0.592
  O  O118  1  0.686300  0.715000  0.891540  1.0  -0.5046
  O  O119  1  0.380710  0.853200  0.660410  1.0  -0.5873
  O  O120  1  0.287120  0.848700  0.499560  1.0  -0.5365
  O  O121  1  0.365260  0.721400  0.847280  1.0  -0.5599
  O  O122  1  0.372130  0.603000  0.722710  1.0  -0.5835
  O  O123  1  0.463070  0.039140  0.569490  1.0  -0.7116
  O  O124  1  0.305760  0.467400  0.875200  1.0  -0.5651
  O  O125  1  0.390790  0.363600  0.791500  1.0  -0.5665
  O  O126  1  0.386860  0.094400  0.739220  1.0  -0.591
  O  O127  1  0.313700  0.215000  0.608460  1.0  -0.5032
  O  O128  1  0.619290  0.353200  0.839590  1.0  -0.5875
  O  O129  1  0.712880  0.348700  0.000440  1.0  -0.5375
  O  O130  1  0.634740  0.221400  0.652720  1.0  -0.5615
  O  O131  1  0.627870  0.103000  0.777290  1.0  -0.5844
  O  O132  1  0.536930  0.539140  0.930510  1.0  -0.7116
