# generated using pymatgen
data_CaH4C10N3O4
_symmetry_space_group_name_H-M   'P 1'
_cell_length_a   14.25430000
_cell_length_b   15.44480000
_cell_length_c   15.44480000
_cell_angle_alpha   77.55480000
_cell_angle_beta   90.00000000
_cell_angle_gamma   90.00000000
_symmetry_Int_Tables_number   1
_chemical_formula_structural   CaH4C10N3O4
_chemical_formula_sum   'Ca8 H32 C80 N24 O32'
_cell_volume   3320.34999049
_cell_formula_units_Z   8
loop_
 _symmetry_equiv_pos_site_id
 _symmetry_equiv_pos_as_xyz
  1  'x, y, z'
loop_
 _atom_site_type_symbol
 _atom_site_label
 _atom_site_symmetry_multiplicity
 _atom_site_fract_x
 _atom_site_fract_y
 _atom_site_fract_z
 _atom_site_occupancy
 _atom_site_charge
  Ca  Ca1  1  0.110820  0.961180  0.440420  1.0  1.527
  Ca  Ca2  1  0.610820  0.538820  0.059580  1.0  1.5269
  Ca  Ca3  1  0.389180  0.940420  0.461180  1.0  1.527
  Ca  Ca4  1  0.889180  0.559580  0.038820  1.0  1.5268
  Ca  Ca5  1  0.889180  0.038820  0.559580  1.0  1.527
  Ca  Ca6  1  0.389180  0.461180  0.940420  1.0  1.527
  Ca  Ca7  1  0.610820  0.059580  0.538820  1.0  1.5265
  Ca  Ca8  1  0.110820  0.440420  0.961180  1.0  1.527
  H  H9  1  0.890600  0.788100  0.301300  1.0  0.1194
  H  H10  1  0.886600  0.703900  0.202100  1.0  0.1007
  H  H11  1  0.326200  0.899800  0.692600  1.0  0.1037
  H  H12  1  0.390600  0.711900  0.198700  1.0  0.1194
  H  H13  1  0.386600  0.796100  0.297900  1.0  0.1003
  H  H14  1  0.826200  0.600200  0.807400  1.0  0.1038
  H  H15  1  0.609400  0.801300  0.288100  1.0  0.118
  H  H16  1  0.613400  0.702100  0.203900  1.0  0.1015
  H  H17  1  0.173800  0.192600  0.399800  1.0  0.1036
  H  H18  1  0.109400  0.698700  0.211900  1.0  0.1189
  H  H19  1  0.113400  0.797900  0.296100  1.0  0.1018
  H  H20  1  0.673800  0.307400  0.100200  1.0  0.1034
  H  H21  1  0.109400  0.211900  0.698700  1.0  0.1196
  H  H22  1  0.113400  0.296100  0.797900  1.0  0.1017
  H  H23  1  0.673800  0.100200  0.307400  1.0  0.1039
  H  H24  1  0.609400  0.288100  0.801300  1.0  0.1186
  H  H25  1  0.613400  0.203900  0.702100  1.0  0.1019
  H  H26  1  0.173800  0.399800  0.192600  1.0  0.1038
  H  H27  1  0.390600  0.198700  0.711900  1.0  0.1187
  H  H28  1  0.386600  0.297900  0.796100  1.0  0.1004
  H  H29  1  0.826200  0.807400  0.600200  1.0  0.1034
  H  H30  1  0.890600  0.301300  0.788100  1.0  0.1186
  H  H31  1  0.886600  0.202100  0.703900  1.0  0.1004
  H  H32  1  0.326200  0.692600  0.899800  1.0  0.1038
  H  H33  1  0.750000  0.939300  0.439300  1.0  0.096
  H  H34  1  0.250000  0.560700  0.060700  1.0  0.0957
  H  H35  1  0.250000  0.060700  0.560700  1.0  0.0957
  H  H36  1  0.750000  0.439300  0.939300  1.0  0.096
  H  H37  1  0.130200  0.710500  0.710500  1.0  0.1176
  H  H38  1  0.630200  0.789500  0.789500  1.0  0.1169
  H  H39  1  0.369800  0.210500  0.210500  1.0  0.1171
  H  H40  1  0.869800  0.289500  0.289500  1.0  0.1167
  C  C41  1  0.926900  0.897390  0.407430  1.0  0.7225
  C  C42  1  0.834420  0.810390  0.317950  1.0  -0.0935
  C  C43  1  0.834520  0.868650  0.375330  1.0  -0.1287
  C  C44  1  0.188370  0.856060  0.597600  1.0  0.7113
  C  C45  1  0.824400  0.692060  0.190580  1.0  0.1958
  C  C46  1  0.225400  0.810970  0.686710  1.0  -0.1044
  C  C47  1  0.299600  0.846980  0.722900  1.0  -0.1235
  C  C48  1  0.446100  0.816700  0.923700  1.0  0.1451
  C  C49  1  0.426900  0.602610  0.092570  1.0  0.7212
  C  C50  1  0.334420  0.689610  0.182050  1.0  -0.0942
  C  C51  1  0.334520  0.631350  0.124670  1.0  -0.1291
  C  C52  1  0.688370  0.643940  0.902400  1.0  0.7125
  C  C53  1  0.324400  0.807940  0.309420  1.0  0.1953
  C  C54  1  0.725400  0.689030  0.813290  1.0  -0.1036
  C  C55  1  0.799600  0.653020  0.777100  1.0  -0.1215
  C  C56  1  0.946100  0.683300  0.576300  1.0  0.1463
  C  C57  1  0.573100  0.907430  0.397390  1.0  0.7219
  C  C58  1  0.665580  0.817950  0.310390  1.0  -0.093
  C  C59  1  0.665480  0.875330  0.368650  1.0  -0.1289
  C  C60  1  0.311630  0.097600  0.356060  1.0  0.7061
  C  C61  1  0.675600  0.690580  0.192060  1.0  0.1967
  C  C62  1  0.274600  0.186710  0.310970  1.0  -0.0993
  C  C63  1  0.200400  0.222900  0.346980  1.0  -0.1222
  C  C64  1  0.053900  0.423700  0.316700  1.0  0.1444
  C  C65  1  0.073100  0.592570  0.102610  1.0  0.7214
  C  C66  1  0.165580  0.682050  0.189610  1.0  -0.0942
  C  C67  1  0.165480  0.624670  0.131350  1.0  -0.1291
  C  C68  1  0.811630  0.402400  0.143940  1.0  0.7071
  C  C69  1  0.175600  0.809420  0.307940  1.0  0.1964
  C  C70  1  0.774600  0.313290  0.189030  1.0  -0.0993
  C  C71  1  0.700400  0.277100  0.153020  1.0  -0.1243
  C  C72  1  0.553900  0.076300  0.183300  1.0  0.1437
  C  C73  1  0.073100  0.102610  0.592570  1.0  0.7202
  C  C74  1  0.165580  0.189610  0.682050  1.0  -0.0937
  C  C75  1  0.165480  0.131350  0.624670  1.0  -0.1285
  C  C76  1  0.811630  0.143940  0.402400  1.0  0.7112
  C  C77  1  0.175600  0.307940  0.809420  1.0  0.1965
  C  C78  1  0.774600  0.189030  0.313290  1.0  -0.0979
  C  C79  1  0.700400  0.153020  0.277100  1.0  -0.1239
  C  C80  1  0.553900  0.183300  0.076300  1.0  0.1463
  C  C81  1  0.573100  0.397390  0.907430  1.0  0.7219
  C  C82  1  0.665580  0.310390  0.817950  1.0  -0.0928
  C  C83  1  0.665480  0.368650  0.875330  1.0  -0.1282
  C  C84  1  0.311630  0.356060  0.097600  1.0  0.7095
  C  C85  1  0.675600  0.192060  0.690580  1.0  0.1967
  C  C86  1  0.274600  0.310970  0.186710  1.0  -0.1006
  C  C87  1  0.200400  0.346980  0.222900  1.0  -0.125
  C  C88  1  0.053900  0.316700  0.423700  1.0  0.1452
  C  C89  1  0.426900  0.092570  0.602610  1.0  0.7218
  C  C90  1  0.334420  0.182050  0.689610  1.0  -0.0947
  C  C91  1  0.334520  0.124670  0.631350  1.0  -0.1298
  C  C92  1  0.688370  0.902400  0.643940  1.0  0.7071
  C  C93  1  0.324400  0.309420  0.807940  1.0  0.1958
  C  C94  1  0.725400  0.813290  0.689030  1.0  -0.103
  C  C95  1  0.799600  0.777100  0.653020  1.0  -0.1164
  C  C96  1  0.946100  0.576300  0.683300  1.0  0.1428
  C  C97  1  0.926900  0.407430  0.897390  1.0  0.7231
  C  C98  1  0.834420  0.317950  0.810390  1.0  -0.0936
  C  C99  1  0.834520  0.375330  0.868650  1.0  -0.1295
  C  C100  1  0.188370  0.597600  0.856060  1.0  0.7061
  C  C101  1  0.824400  0.190580  0.692060  1.0  0.1956
  C  C102  1  0.225400  0.686710  0.810970  1.0  -0.1032
  C  C103  1  0.299600  0.722900  0.846980  1.0  -0.1221
  C  C104  1  0.446100  0.923700  0.816700  1.0  0.1449
  C  C105  1  0.750000  0.900650  0.400650  1.0  0.0034
  C  C106  1  0.750000  0.785950  0.285950  1.0  0.0964
  C  C107  1  0.250000  0.599350  0.099350  1.0  0.0029
  C  C108  1  0.250000  0.714050  0.214050  1.0  0.0962
  C  C109  1  0.250000  0.099350  0.599350  1.0  0.0029
  C  C110  1  0.250000  0.214050  0.714050  1.0  0.0962
  C  C111  1  0.750000  0.400650  0.900650  1.0  0.0034
  C  C112  1  0.750000  0.285950  0.785950  1.0  0.0964
  C  C113  1  0.184200  0.732240  0.732240  1.0  -0.0171
  C  C114  1  0.335000  0.804690  0.804690  1.0  0.1123
  C  C115  1  0.684200  0.767760  0.767760  1.0  -0.0173
  C  C116  1  0.835000  0.695310  0.695310  1.0  0.1122
  C  C117  1  0.315800  0.232240  0.232240  1.0  -0.0177
  C  C118  1  0.165000  0.304690  0.304690  1.0  0.112
  C  C119  1  0.815800  0.267760  0.267760  1.0  -0.0172
  C  C120  1  0.665000  0.195310  0.195310  1.0  0.1115
  N  N121  1  0.798240  0.641040  0.138500  1.0  -0.3126
  N  N122  1  0.503700  0.876800  0.944000  1.0  -0.2047
  N  N123  1  0.298240  0.858960  0.361500  1.0  -0.3157
  N  N124  1  0.003700  0.623200  0.556000  1.0  -0.2018
  N  N125  1  0.701760  0.638500  0.141040  1.0  -0.3104
  N  N126  1  0.996300  0.444000  0.376800  1.0  -0.2042
  N  N127  1  0.201760  0.861500  0.358960  1.0  -0.3162
  N  N128  1  0.496300  0.056000  0.123200  1.0  -0.2047
  N  N129  1  0.201760  0.358960  0.861500  1.0  -0.3151
  N  N130  1  0.496300  0.123200  0.056000  1.0  -0.2021
  N  N131  1  0.701760  0.141040  0.638500  1.0  -0.3103
  N  N132  1  0.996300  0.376800  0.444000  1.0  -0.203
  N  N133  1  0.298240  0.361500  0.858960  1.0  -0.3166
  N  N134  1  0.003700  0.556000  0.623200  1.0  -0.2037
  N  N135  1  0.798240  0.138500  0.641040  1.0  -0.3123
  N  N136  1  0.503700  0.944000  0.876800  1.0  -0.206
  N  N137  1  0.750000  0.725950  0.225950  1.0  -0.025
  N  N138  1  0.250000  0.774050  0.274050  1.0  -0.0248
  N  N139  1  0.250000  0.274050  0.774050  1.0  -0.0248
  N  N140  1  0.750000  0.225950  0.725950  1.0  -0.025
  N  N141  1  0.406900  0.845820  0.845820  1.0  0.0392
  N  N142  1  0.906900  0.654180  0.654180  1.0  0.039
  N  N143  1  0.093100  0.345820  0.345820  1.0  0.0391
  N  N144  1  0.593100  0.154180  0.154180  1.0  0.0395
  O  O145  1  0.245430  0.899980  0.542800  1.0  -0.7653
  O  O146  1  0.102470  0.849240  0.580300  1.0  -0.6554
  O  O147  1  0.000210  0.873500  0.376460  1.0  -0.6799
  O  O148  1  0.926340  0.944050  0.465070  1.0  -0.7681
  O  O149  1  0.745430  0.600020  0.957200  1.0  -0.7652
  O  O150  1  0.602470  0.650760  0.919700  1.0  -0.6565
  O  O151  1  0.500210  0.626500  0.123540  1.0  -0.6795
  O  O152  1  0.426340  0.555950  0.034930  1.0  -0.7681
  O  O153  1  0.254570  0.042800  0.399980  1.0  -0.7665
  O  O154  1  0.397530  0.080300  0.349240  1.0  -0.6521
  O  O155  1  0.499790  0.876460  0.373500  1.0  -0.6793
  O  O156  1  0.573660  0.965070  0.444050  1.0  -0.7706
  O  O157  1  0.754570  0.457200  0.100020  1.0  -0.7657
  O  O158  1  0.897530  0.419700  0.150760  1.0  -0.6562
  O  O159  1  0.999790  0.623540  0.126500  1.0  -0.6791
  O  O160  1  0.073660  0.534930  0.055950  1.0  -0.7704
  O  O161  1  0.754570  0.100020  0.457200  1.0  -0.7658
  O  O162  1  0.897530  0.150760  0.419700  1.0  -0.6525
  O  O163  1  0.999790  0.126500  0.623540  1.0  -0.6795
  O  O164  1  0.073660  0.055950  0.534930  1.0  -0.7686
  O  O165  1  0.254570  0.399980  0.042800  1.0  -0.7656
  O  O166  1  0.397530  0.349240  0.080300  1.0  -0.6516
  O  O167  1  0.499790  0.373500  0.876460  1.0  -0.679
  O  O168  1  0.573660  0.444050  0.965070  1.0  -0.768
  O  O169  1  0.745430  0.957200  0.600020  1.0  -0.7658
  O  O170  1  0.602470  0.919700  0.650760  1.0  -0.6553
  O  O171  1  0.500210  0.123540  0.626500  1.0  -0.679
  O  O172  1  0.426340  0.034930  0.555950  1.0  -0.7702
  O  O173  1  0.245430  0.542800  0.899980  1.0  -0.7664
  O  O174  1  0.102470  0.580300  0.849240  1.0  -0.6557
  O  O175  1  0.000210  0.376460  0.873500  1.0  -0.6798
  O  O176  1  0.926340  0.465070  0.944050  1.0  -0.7708
