# generated using pymatgen
data_Ca3Eu2H18C42(NO4)6
_symmetry_space_group_name_H-M   'P 1'
_cell_length_a   9.45140000
_cell_length_b   16.18900000
_cell_length_c   23.98300000
_cell_angle_alpha   108.09800000
_cell_angle_beta   90.00000000
_cell_angle_gamma   90.00000000
_symmetry_Int_Tables_number   1
_chemical_formula_structural   Ca3Eu2H18C42(NO4)6
_chemical_formula_sum   'Ca6 Eu4 H36 C84 N12 O48'
_cell_volume   3488.05992855
_cell_formula_units_Z   2
loop_
 _symmetry_equiv_pos_site_id
 _symmetry_equiv_pos_as_xyz
  1  'x, y, z'
loop_
 _atom_site_type_symbol
 _atom_site_label
 _atom_site_symmetry_multiplicity
 _atom_site_fract_x
 _atom_site_fract_y
 _atom_site_fract_z
 _atom_site_occupancy
 _atom_site_charge
  Ca  Ca1  1  0.997310  0.500000  0.750000  1.0  1.642
  Ca  Ca2  1  0.002690  0.500000  0.250000  1.0  1.6416
  Ca  Ca3  1  0.000000  0.500000  0.000000  1.0  1.5749
  Ca  Ca4  1  0.000000  0.500000  0.500000  1.0  1.5749
  Ca  Ca5  1  0.000000  0.000000  0.000000  1.0  1.5701
  Ca  Ca6  1  0.000000  0.000000  0.500000  1.0  1.5702
  Eu  Eu7  1  0.495580  0.702560  0.902750  1.0  1.9952
  Eu  Eu8  1  0.495580  0.297450  0.597250  1.0  1.9946
  Eu  Eu9  1  0.504420  0.297450  0.097250  1.0  1.9947
  Eu  Eu10  1  0.504420  0.702560  0.402750  1.0  1.9954
  H  H11  1  0.386400  0.869900  0.743800  1.0  0.1218
  H  H12  1  0.574400  0.815500  0.680600  1.0  0.1012
  H  H13  1  0.718200  0.709500  0.696400  1.0  0.1199
  H  H14  1  0.647700  0.416400  0.960500  1.0  0.1173
  H  H15  1  0.473300  0.322600  0.909500  1.0  0.1058
  H  H16  1  0.314300  0.369200  0.852100  1.0  0.1187
  H  H17  1  0.313000  0.902500  0.118300  1.0  0.1147
  H  H18  1  0.466700  0.019600  0.131200  1.0  0.1073
  H  H19  1  0.644100  0.009900  0.062200  1.0  0.1097
  H  H20  1  0.386400  0.130100  0.756200  1.0  0.1221
  H  H21  1  0.574400  0.184500  0.819400  1.0  0.1022
  H  H22  1  0.718200  0.290500  0.803600  1.0  0.1192
  H  H23  1  0.647700  0.583600  0.539500  1.0  0.117
  H  H24  1  0.473300  0.677400  0.590500  1.0  0.1062
  H  H25  1  0.314300  0.630800  0.647900  1.0  0.1193
  H  H26  1  0.313000  0.097500  0.381700  1.0  0.1139
  H  H27  1  0.466700  0.980400  0.368800  1.0  0.1075
  H  H28  1  0.644100  0.990100  0.437800  1.0  0.1099
  H  H29  1  0.613600  0.130100  0.256200  1.0  0.1221
  H  H30  1  0.425600  0.184500  0.319400  1.0  0.1019
  H  H31  1  0.281800  0.290500  0.303600  1.0  0.1188
  H  H32  1  0.352300  0.583600  0.039500  1.0  0.1164
  H  H33  1  0.526700  0.677400  0.090500  1.0  0.1063
  H  H34  1  0.685700  0.630800  0.147900  1.0  0.1194
  H  H35  1  0.687000  0.097500  0.881700  1.0  0.1144
  H  H36  1  0.533300  0.980400  0.868800  1.0  0.1076
  H  H37  1  0.355900  0.990100  0.937800  1.0  0.1091
  H  H38  1  0.613600  0.869900  0.243800  1.0  0.1222
  H  H39  1  0.425600  0.815500  0.180600  1.0  0.1025
  H  H40  1  0.281800  0.709500  0.196400  1.0  0.1192
  H  H41  1  0.352300  0.416400  0.460500  1.0  0.1163
  H  H42  1  0.526700  0.322600  0.409500  1.0  0.1064
  H  H43  1  0.685700  0.369200  0.352100  1.0  0.1193
  H  H44  1  0.687000  0.902500  0.618300  1.0  0.1148
  H  H45  1  0.533300  0.019600  0.631200  1.0  0.1079
  H  H46  1  0.355900  0.009900  0.562200  1.0  0.1092
  C  C47  1  0.314400  0.832600  0.842400  1.0  0.6274
  C  C48  1  0.428000  0.798100  0.796700  1.0  0.1381
  C  C49  1  0.446800  0.828300  0.750000  1.0  -0.0989
  C  C50  1  0.557800  0.795200  0.712300  1.0  -0.1009
  C  C51  1  0.643600  0.732600  0.721700  1.0  -0.1122
  C  C52  1  0.617300  0.704300  0.769300  1.0  0.1421
  C  C53  1  0.707600  0.637400  0.784700  1.0  0.6732
  C  C54  1  0.689200  0.585700  0.967570  1.0  0.6469
  C  C55  1  0.584500  0.517700  0.934580  1.0  0.1251
  C  C56  1  0.581600  0.434500  0.938000  1.0  -0.1223
  C  C57  1  0.478800  0.378900  0.907400  1.0  -0.0892
  C  C58  1  0.383600  0.406600  0.873400  1.0  -0.1095
  C  C59  1  0.392600  0.490800  0.871400  1.0  0.1225
  C  C60  1  0.293600  0.529600  0.837710  1.0  0.6725
  C  C61  1  0.299200  0.753300  0.026600  1.0  0.6889
  C  C62  1  0.392500  0.831100  0.040200  1.0  0.1217
  C  C63  1  0.381600  0.901500  0.090300  1.0  -0.0928
  C  C64  1  0.474400  0.970600  0.098500  1.0  -0.0804
  C  C65  1  0.578500  0.965400  0.057100  1.0  -0.0947
  C  C66  1  0.583200  0.893300  0.008200  1.0  0.1439
  C  C67  1  0.689700  0.882700  0.960100  1.0  0.6941
  C  C68  1  0.314400  0.167400  0.657600  1.0  0.6269
  C  C69  1  0.428000  0.201900  0.703300  1.0  0.1379
  C  C70  1  0.446800  0.171700  0.750000  1.0  -0.0993
  C  C71  1  0.557800  0.204800  0.787700  1.0  -0.1002
  C  C72  1  0.643600  0.267400  0.778300  1.0  -0.1122
  C  C73  1  0.617300  0.295700  0.730700  1.0  0.1422
  C  C74  1  0.707600  0.362600  0.715300  1.0  0.673
  C  C75  1  0.689200  0.414300  0.532430  1.0  0.6471
  C  C76  1  0.584500  0.482300  0.565420  1.0  0.1249
  C  C77  1  0.581600  0.565500  0.562000  1.0  -0.1227
  C  C78  1  0.478800  0.621100  0.592600  1.0  -0.0883
  C  C79  1  0.383600  0.593400  0.626600  1.0  -0.1096
  C  C80  1  0.392600  0.509200  0.628600  1.0  0.1223
  C  C81  1  0.293600  0.470400  0.662290  1.0  0.6701
  C  C82  1  0.299200  0.246700  0.473400  1.0  0.6883
  C  C83  1  0.392500  0.168900  0.459800  1.0  0.1212
  C  C84  1  0.381600  0.098500  0.409700  1.0  -0.0936
  C  C85  1  0.474400  0.029400  0.401500  1.0  -0.081
  C  C86  1  0.578500  0.034600  0.442900  1.0  -0.095
  C  C87  1  0.583200  0.106700  0.491800  1.0  0.144
  C  C88  1  0.689700  0.117300  0.539900  1.0  0.6946
  C  C89  1  0.685600  0.167400  0.157600  1.0  0.6289
  C  C90  1  0.572000  0.201900  0.203300  1.0  0.1383
  C  C91  1  0.553200  0.171700  0.250000  1.0  -0.1
  C  C92  1  0.442200  0.204800  0.287700  1.0  -0.0998
  C  C93  1  0.356400  0.267400  0.278300  1.0  -0.1147
  C  C94  1  0.382700  0.295700  0.230700  1.0  0.1422
  C  C95  1  0.292400  0.362600  0.215300  1.0  0.6732
  C  C96  1  0.310800  0.414300  0.032430  1.0  0.6441
  C  C97  1  0.415500  0.482300  0.065420  1.0  0.1238
  C  C98  1  0.418400  0.565500  0.062000  1.0  -0.1216
  C  C99  1  0.521200  0.621100  0.092600  1.0  -0.0878
  C  C100  1  0.616400  0.593400  0.126600  1.0  -0.1084
  C  C101  1  0.607400  0.509200  0.128600  1.0  0.1227
  C  C102  1  0.706400  0.470400  0.162290  1.0  0.6736
  C  C103  1  0.700800  0.246700  0.973400  1.0  0.6891
  C  C104  1  0.607500  0.168900  0.959800  1.0  0.1214
  C  C105  1  0.618400  0.098500  0.909700  1.0  -0.0923
  C  C106  1  0.525600  0.029400  0.901500  1.0  -0.0813
  C  C107  1  0.421500  0.034600  0.942900  1.0  -0.0944
  C  C108  1  0.416800  0.106700  0.991800  1.0  0.1427
  C  C109  1  0.310300  0.117300  0.039900  1.0  0.6925
  C  C110  1  0.685600  0.832600  0.342400  1.0  0.6299
  C  C111  1  0.572000  0.798100  0.296700  1.0  0.1378
  C  C112  1  0.553200  0.828300  0.250000  1.0  -0.0993
  C  C113  1  0.442200  0.795200  0.212300  1.0  -0.1004
  C  C114  1  0.356400  0.732600  0.221700  1.0  -0.1144
  C  C115  1  0.382700  0.704300  0.269300  1.0  0.1418
  C  C116  1  0.292400  0.637400  0.284700  1.0  0.6724
  C  C117  1  0.310800  0.585700  0.467570  1.0  0.646
  C  C118  1  0.415500  0.517700  0.434580  1.0  0.1241
  C  C119  1  0.418400  0.434500  0.438000  1.0  -0.1216
  C  C120  1  0.521200  0.378900  0.407400  1.0  -0.0886
  C  C121  1  0.616400  0.406600  0.373400  1.0  -0.1081
  C  C122  1  0.607400  0.490800  0.371400  1.0  0.1223
  C  C123  1  0.706400  0.529600  0.337710  1.0  0.6743
  C  C124  1  0.700800  0.753300  0.526600  1.0  0.6895
  C  C125  1  0.607500  0.831100  0.540200  1.0  0.1225
  C  C126  1  0.618400  0.901500  0.590300  1.0  -0.092
  C  C127  1  0.525600  0.970600  0.598500  1.0  -0.0803
  C  C128  1  0.421500  0.965400  0.557100  1.0  -0.0946
  C  C129  1  0.416800  0.893300  0.508200  1.0  0.1419
  C  C130  1  0.310300  0.882700  0.460100  1.0  0.6933
  N  N131  1  0.511500  0.737500  0.806740  1.0  -0.4104
  N  N132  1  0.490900  0.546000  0.902250  1.0  -0.4227
  N  N133  1  0.491400  0.828200  0.999190  1.0  -0.4398
  N  N134  1  0.511500  0.262500  0.693260  1.0  -0.4134
  N  N135  1  0.490900  0.454000  0.597750  1.0  -0.4197
  N  N136  1  0.491400  0.171800  0.500810  1.0  -0.44
  N  N137  1  0.488500  0.262500  0.193260  1.0  -0.4131
  N  N138  1  0.509100  0.454000  0.097750  1.0  -0.4198
  N  N139  1  0.508600  0.171800  0.000810  1.0  -0.4407
  N  N140  1  0.488500  0.737500  0.306740  1.0  -0.4109
  N  N141  1  0.509100  0.546000  0.402250  1.0  -0.4229
  N  N142  1  0.508600  0.828200  0.499190  1.0  -0.4404
  O  O143  1  0.320800  0.807000  0.887900  1.0  -0.6644
  O  O144  1  0.227200  0.884800  0.834510  1.0  -0.5022
  O  O145  1  0.678700  0.627000  0.834150  1.0  -0.6592
  O  O146  1  0.799700  0.599500  0.750240  1.0  -0.7259
  O  O147  1  0.668600  0.662300  0.965610  1.0  -0.6755
  O  O148  1  0.786700  0.563100  0.993800  1.0  -0.745
  O  O149  1  0.315700  0.609000  0.842300  1.0  -0.6638
  O  O150  1  0.196300  0.484100  0.809890  1.0  -0.7187
  O  O151  1  0.314300  0.697700  0.976400  1.0  -0.6704
  O  O152  1  0.216100  0.746700  0.065490  1.0  -0.5541
  O  O153  1  0.674300  0.818000  0.915420  1.0  -0.6734
  O  O154  1  0.786400  0.937300  0.967370  1.0  -0.7664
  O  O155  1  0.320800  0.193000  0.612100  1.0  -0.6666
  O  O156  1  0.227200  0.115200  0.665490  1.0  -0.5014
  O  O157  1  0.678700  0.373000  0.665850  1.0  -0.6576
  O  O158  1  0.799700  0.400500  0.749760  1.0  -0.7269
  O  O159  1  0.668600  0.337700  0.534390  1.0  -0.68
  O  O160  1  0.786700  0.436900  0.506200  1.0  -0.7457
  O  O161  1  0.315700  0.391000  0.657700  1.0  -0.6609
  O  O162  1  0.196300  0.515900  0.690110  1.0  -0.7176
  O  O163  1  0.314300  0.302300  0.523600  1.0  -0.6675
  O  O164  1  0.216100  0.253300  0.434510  1.0  -0.553
  O  O165  1  0.674300  0.182000  0.584580  1.0  -0.6739
  O  O166  1  0.786400  0.062700  0.532630  1.0  -0.7663
  O  O167  1  0.679200  0.193000  0.112100  1.0  -0.6658
  O  O168  1  0.772800  0.115200  0.165490  1.0  -0.5063
  O  O169  1  0.321300  0.373000  0.165850  1.0  -0.6565
  O  O170  1  0.200300  0.400500  0.249760  1.0  -0.7275
  O  O171  1  0.331400  0.337700  0.034390  1.0  -0.6792
  O  O172  1  0.213300  0.436900  0.006200  1.0  -0.7486
  O  O173  1  0.684300  0.391000  0.157700  1.0  -0.6632
  O  O174  1  0.803700  0.515900  0.190110  1.0  -0.7205
  O  O175  1  0.685700  0.302300  0.023600  1.0  -0.6691
  O  O176  1  0.783900  0.253300  0.934510  1.0  -0.553
  O  O177  1  0.325700  0.182000  0.084580  1.0  -0.6743
  O  O178  1  0.213600  0.062700  0.032630  1.0  -0.7673
  O  O179  1  0.679200  0.807000  0.387900  1.0  -0.6652
  O  O180  1  0.772800  0.884800  0.334510  1.0  -0.5041
  O  O181  1  0.321300  0.627000  0.334150  1.0  -0.6575
  O  O182  1  0.200300  0.599500  0.250240  1.0  -0.7274
  O  O183  1  0.331400  0.662300  0.465610  1.0  -0.6795
  O  O184  1  0.213300  0.563100  0.493800  1.0  -0.7487
  O  O185  1  0.684300  0.609000  0.342300  1.0  -0.6617
  O  O186  1  0.803700  0.484100  0.309890  1.0  -0.7205
  O  O187  1  0.685700  0.697700  0.476400  1.0  -0.6713
  O  O188  1  0.783900  0.746700  0.565490  1.0  -0.5567
  O  O189  1  0.325700  0.818000  0.415420  1.0  -0.6744
  O  O190  1  0.213600  0.937300  0.467370  1.0  -0.767
