# generated using pymatgen
data_Ca2FeH16C12(N5O)2
_symmetry_space_group_name_H-M   'P 1'
_cell_length_a   8.81470000
_cell_length_b   8.81470000
_cell_length_c   13.73500000
_cell_angle_alpha   94.58950000
_cell_angle_beta   94.58950000
_cell_angle_gamma   100.25400000
_symmetry_Int_Tables_number   1
_chemical_formula_structural   Ca2FeH16C12(N5O)2
_chemical_formula_sum   'Ca4 Fe2 H32 C24 N20 O4'
_cell_volume   1041.93803924
_cell_formula_units_Z   2
loop_
 _symmetry_equiv_pos_site_id
 _symmetry_equiv_pos_as_xyz
  1  'x, y, z'
loop_
 _atom_site_type_symbol
 _atom_site_label
 _atom_site_symmetry_multiplicity
 _atom_site_fract_x
 _atom_site_fract_y
 _atom_site_fract_z
 _atom_site_occupancy
 _atom_site_charge
  Ca  Ca1  1  0.875900  0.574300  0.604000  1.0  1.5205
  Ca  Ca2  1  0.425700  0.124100  0.896000  1.0  1.5195
  Ca  Ca3  1  0.124100  0.425700  0.396000  1.0  1.5204
  Ca  Ca4  1  0.574300  0.875900  0.104000  1.0  1.519
  Fe  Fe5  1  0.500000  0.000000  0.500000  1.0  -0.8029
  Fe  Fe6  1  0.000000  0.500000  0.000000  1.0  -0.8029
  H  H7  1  0.481900  0.459100  0.553800  1.0  0.1017
  H  H8  1  0.448600  0.627400  0.620600  1.0  0.0605
  H  H9  1  0.580300  0.728100  0.707800  1.0  0.0439
  H  H10  1  0.743900  0.740500  0.792800  1.0  0.1101
  H  H11  1  0.251600  0.637600  0.787800  1.0  0.1019
  H  H12  1  0.699600  0.413800  0.808100  1.0  0.0928
  H  H13  1  0.962800  0.689000  0.407900  1.0  0.4528
  H  H14  1  0.836100  0.533100  0.392100  1.0  0.3546
  H  H15  1  0.540900  0.518100  0.946200  1.0  0.1021
  H  H16  1  0.372600  0.551400  0.879400  1.0  0.0604
  H  H17  1  0.271900  0.419700  0.792200  1.0  0.0483
  H  H18  1  0.259500  0.256100  0.707200  1.0  0.1125
  H  H19  1  0.362400  0.748400  0.712200  1.0  0.1021
  H  H20  1  0.586200  0.300400  0.691900  1.0  0.0939
  H  H21  1  0.311000  0.037200  0.092100  1.0  0.4551
  H  H22  1  0.466900  0.163900  0.107900  1.0  0.3521
  H  H23  1  0.518100  0.540900  0.446200  1.0  0.101
  H  H24  1  0.551400  0.372600  0.379400  1.0  0.0622
  H  H25  1  0.419700  0.271900  0.292200  1.0  0.0446
  H  H26  1  0.256100  0.259500  0.207200  1.0  0.1096
  H  H27  1  0.748400  0.362400  0.212200  1.0  0.1003
  H  H28  1  0.300400  0.586200  0.191900  1.0  0.0953
  H  H29  1  0.037200  0.311000  0.592100  1.0  0.454
  H  H30  1  0.163900  0.466900  0.607900  1.0  0.3552
  H  H31  1  0.459100  0.481900  0.053800  1.0  0.1025
  H  H32  1  0.627400  0.448600  0.120600  1.0  0.0607
  H  H33  1  0.728100  0.580300  0.207800  1.0  0.0452
  H  H34  1  0.740500  0.743900  0.292800  1.0  0.1119
  H  H35  1  0.637600  0.251600  0.287800  1.0  0.102
  H  H36  1  0.413800  0.699600  0.308100  1.0  0.0955
  H  H37  1  0.689000  0.962800  0.907900  1.0  0.4538
  H  H38  1  0.533100  0.836100  0.892100  1.0  0.3527
  C  C39  1  0.648700  0.190100  0.521500  1.0  0.2956
  C  C40  1  0.466400  0.017400  0.638200  1.0  0.321
  C  C41  1  0.653800  0.874000  0.529600  1.0  0.3146
  C  C42  1  0.480900  0.515700  0.626400  1.0  0.0716
  C  C43  1  0.634100  0.670100  0.763700  1.0  0.0666
  C  C44  1  0.809900  0.351300  0.978500  1.0  0.2934
  C  C45  1  0.982600  0.533600  0.861800  1.0  0.3205
  C  C46  1  0.126000  0.346200  0.970400  1.0  0.3076
  C  C47  1  0.484300  0.519100  0.873600  1.0  0.0717
  C  C48  1  0.329900  0.365900  0.736300  1.0  0.0682
  C  C49  1  0.351300  0.809900  0.478500  1.0  0.3088
  C  C50  1  0.533600  0.982600  0.361800  1.0  0.319
  C  C51  1  0.346200  0.126000  0.470400  1.0  0.3129
  C  C52  1  0.519100  0.484300  0.373600  1.0  0.0715
  C  C53  1  0.365900  0.329900  0.236300  1.0  0.0653
  C  C54  1  0.190100  0.648700  0.021500  1.0  0.3079
  C  C55  1  0.017400  0.466400  0.138200  1.0  0.3231
  C  C56  1  0.874000  0.653800  0.029600  1.0  0.3134
  C  C57  1  0.515700  0.480900  0.126400  1.0  0.0706
  C  C58  1  0.670100  0.634100  0.263700  1.0  0.0685
  C  C59  1  0.357100  0.642900  0.750000  1.0  0.0486
  C  C60  1  0.607400  0.392600  0.750000  1.0  0.072
  C  C61  1  0.642900  0.357100  0.250000  1.0  0.0482
  C  C62  1  0.392600  0.607400  0.250000  1.0  0.0735
  N  N63  1  0.733800  0.309400  0.533900  1.0  -0.6609
  N  N64  1  0.447200  0.030400  0.720900  1.0  -0.6988
  N  N65  1  0.738700  0.791300  0.549500  1.0  -0.6829
  N  N66  1  0.623700  0.531300  0.693600  1.0  -0.4071
  N  N67  1  0.340500  0.503100  0.680200  1.0  -0.2277
  N  N68  1  0.690600  0.266200  0.966100  1.0  -0.6546
  N  N69  1  0.969600  0.552800  0.779100  1.0  -0.7007
  N  N70  1  0.208700  0.261300  0.950500  1.0  -0.6931
  N  N71  1  0.468700  0.376300  0.806400  1.0  -0.4089
  N  N72  1  0.496900  0.659500  0.819800  1.0  -0.2231
  N  N73  1  0.266200  0.690600  0.466100  1.0  -0.6656
  N  N74  1  0.552800  0.969600  0.279100  1.0  -0.7016
  N  N75  1  0.261300  0.208700  0.450500  1.0  -0.6844
  N  N76  1  0.376300  0.468700  0.306400  1.0  -0.4077
  N  N77  1  0.659500  0.496900  0.319800  1.0  -0.2254
  N  N78  1  0.309400  0.733800  0.033900  1.0  -0.6647
  N  N79  1  0.030400  0.447200  0.220900  1.0  -0.698
  N  N80  1  0.791300  0.738700  0.049500  1.0  -0.6971
  N  N81  1  0.531300  0.623700  0.193600  1.0  -0.4074
  N  N82  1  0.503100  0.340500  0.180200  1.0  -0.2239
  O  O83  1  0.928100  0.582900  0.430000  1.0  -0.8905
  O  O84  1  0.417100  0.071900  0.070000  1.0  -0.8951
  O  O85  1  0.071900  0.417100  0.570000  1.0  -0.8942
  O  O86  1  0.582900  0.928100  0.930000  1.0  -0.8854
