# generated using pymatgen
data_NdH4(CO)6
_symmetry_space_group_name_H-M   'P 1'
_cell_length_a   7.83540000
_cell_length_b   12.04960000
_cell_length_c   12.25240000
_cell_angle_alpha   112.01500000
_cell_angle_beta   89.96700000
_cell_angle_gamma   99.92100000
_symmetry_Int_Tables_number   1
_chemical_formula_structural   NdH4(CO)6
_chemical_formula_sum   'Nd4 H16 C24 O24'
_cell_volume   1053.80956423
_cell_formula_units_Z   4
loop_
 _symmetry_equiv_pos_site_id
 _symmetry_equiv_pos_as_xyz
  1  'x, y, z'
loop_
 _atom_site_type_symbol
 _atom_site_label
 _atom_site_symmetry_multiplicity
 _atom_site_fract_x
 _atom_site_fract_y
 _atom_site_fract_z
 _atom_site_occupancy
 _atom_site_charge
  Nd  Nd1  1  0.991310  0.645700  0.354210  1.0  2.2915
  Nd  Nd2  1  0.490930  0.645130  0.252750  1.0  2.3079
  Nd  Nd3  1  0.008690  0.354300  0.645790  1.0  2.2918
  Nd  Nd4  1  0.509070  0.354870  0.747250  1.0  2.3092
  H  H5  1  0.744100  0.276000  0.143200  1.0  0.1328
  H  H6  1  0.635600  0.251100  0.026200  1.0  0.132
  H  H7  1  0.972900  0.402100  0.081700  1.0  0.1239
  H  H8  1  0.948500  0.262400  0.005100  1.0  0.1315
  H  H9  1  0.286300  0.021600  0.323300  1.0  0.1057
  H  H10  1  0.122600  0.944400  0.350700  1.0  0.1081
  H  H11  1  0.409300  0.072300  0.501200  1.0  0.099
  H  H12  1  0.264700  0.981700  0.529200  1.0  0.099
  H  H13  1  0.255900  0.724000  0.856800  1.0  0.1328
  H  H14  1  0.364400  0.748900  0.973800  1.0  0.1327
  H  H15  1  0.027100  0.597900  0.918300  1.0  0.1239
  H  H16  1  0.051500  0.737600  0.994900  1.0  0.132
  H  H17  1  0.713700  0.978400  0.676700  1.0  0.1073
  H  H18  1  0.877400  0.055600  0.649300  1.0  0.1049
  H  H19  1  0.590700  0.927700  0.498800  1.0  0.096
  H  H20  1  0.735300  0.018300  0.470800  1.0  0.1001
  C  C21  1  0.647000  0.429000  0.149000  1.0  0.6851
  C  C22  1  0.722000  0.310000  0.085700  1.0  -0.3165
  C  C23  1  0.894000  0.333000  0.025700  1.0  -0.3509
  C  C24  1  0.863000  0.359000  0.913600  1.0  0.7029
  C  C25  1  0.144000  0.426000  0.297100  1.0  0.6406
  C  C26  1  0.224000  0.308800  0.271800  1.0  -0.0665
  C  C27  1  0.388000  0.333000  0.351200  1.0  -0.0391
  C  C28  1  0.365000  0.363000  0.476000  1.0  0.7141
  C  C29  1  0.323000  0.861000  0.315100  1.0  0.671
  C  C30  1  0.248000  0.969000  0.365000  1.0  -0.1608
  C  C31  1  0.286000  0.037000  0.488000  1.0  -0.2914
  C  C32  1  0.179000  0.144000  0.545000  1.0  0.64
  C  C33  1  0.353000  0.571000  0.851000  1.0  0.6836
  C  C34  1  0.278000  0.690000  0.914300  1.0  -0.316
  C  C35  1  0.106000  0.667000  0.974300  1.0  -0.3523
  C  C36  1  0.137000  0.641000  0.086400  1.0  0.7026
  C  C37  1  0.856000  0.574000  0.702900  1.0  0.6406
  C  C38  1  0.776000  0.691200  0.728200  1.0  -0.0668
  C  C39  1  0.612000  0.667000  0.648800  1.0  -0.0388
  C  C40  1  0.635000  0.637000  0.524000  1.0  0.7148
  C  C41  1  0.677000  0.139000  0.684900  1.0  0.671
  C  C42  1  0.752000  0.031000  0.635000  1.0  -0.1604
  C  C43  1  0.714000  0.963000  0.512000  1.0  -0.2905
  C  C44  1  0.821000  0.856000  0.455000  1.0  0.6424
  O  O45  1  0.736300  0.518400  0.220700  1.0  -0.7234
  O  O46  1  0.488000  0.428400  0.118000  1.0  -0.695
  O  O47  1  0.231700  0.517900  0.289900  1.0  -0.7581
  O  O48  1  0.990900  0.428500  0.326800  1.0  -0.6403
  O  O49  1  0.271600  0.777100  0.359100  1.0  -0.7989
  O  O50  1  0.450000  0.855000  0.258900  1.0  -0.6249
  O  O51  1  0.721400  0.391000  0.901300  1.0  -0.705
  O  O52  1  0.984400  0.346100  0.849000  1.0  -0.6068
  O  O53  1  0.231100  0.223100  0.653400  1.0  -0.7875
  O  O54  1  0.047200  0.149500  0.495100  1.0  -0.6197
  O  O55  1  0.486200  0.350000  0.535500  1.0  -0.6829
  O  O56  1  0.226900  0.396900  0.516800  1.0  -0.7183
  O  O57  1  0.263700  0.481600  0.779300  1.0  -0.7213
  O  O58  1  0.512000  0.571600  0.882000  1.0  -0.6939
  O  O59  1  0.768300  0.482100  0.710100  1.0  -0.7583
  O  O60  1  0.009100  0.571500  0.673200  1.0  -0.6416
  O  O61  1  0.728400  0.222900  0.640900  1.0  -0.7981
  O  O62  1  0.550000  0.145000  0.741100  1.0  -0.6254
  O  O63  1  0.278600  0.609000  0.098700  1.0  -0.7055
  O  O64  1  0.015600  0.653900  0.151000  1.0  -0.6063
  O  O65  1  0.768900  0.776900  0.346600  1.0  -0.7889
  O  O66  1  0.952800  0.850500  0.504900  1.0  -0.6199
  O  O67  1  0.513800  0.650000  0.464500  1.0  -0.6832
  O  O68  1  0.773100  0.603100  0.483200  1.0  -0.7172
