# generated using pymatgen
data_CsYbMoH4C9N8O
_symmetry_space_group_name_H-M   'P 1'
_cell_length_a   9.84100000
_cell_length_b   10.22600000
_cell_length_c   13.40400000
_cell_angle_alpha   82.02000000
_cell_angle_beta   86.86000000
_cell_angle_gamma   65.10000000
_symmetry_Int_Tables_number   1
_chemical_formula_structural   CsYbMoH4C9N8O
_chemical_formula_sum   'Cs2 Yb2 Mo2 H8 C18 N16 O2'
_cell_volume   1211.65288194
_cell_formula_units_Z   2
loop_
 _symmetry_equiv_pos_site_id
 _symmetry_equiv_pos_as_xyz
  1  'x, y, z'
loop_
 _atom_site_type_symbol
 _atom_site_label
 _atom_site_symmetry_multiplicity
 _atom_site_fract_x
 _atom_site_fract_y
 _atom_site_fract_z
 _atom_site_occupancy
 _atom_site_charge
  Cs  Cs1  1  0.149830  0.549900  0.383920  1.0  0.9148
  Cs  Cs2  1  0.850170  0.450100  0.616080  1.0  0.9146
  Yb  Yb3  1  0.334140  0.218720  0.182620  1.0  1.5432
  Yb  Yb4  1  0.665860  0.781280  0.817380  1.0  1.5435
  Mo  Mo5  1  0.744400  0.625760  0.238650  1.0  -0.1441
  Mo  Mo6  1  0.255600  0.374240  0.761350  1.0  -0.1462
  H  H7  1  0.453400  0.420400  0.200900  1.0  0.2271
  H  H8  1  0.365700  0.533900  0.046000  1.0  0.134
  H  H9  1  0.313400  0.644100  0.125600  1.0  0.1386
  H  H10  1  0.200900  0.590500  0.086300  1.0  0.1412
  H  H11  1  0.546600  0.579600  0.799100  1.0  0.2288
  H  H12  1  0.634300  0.466100  0.954000  1.0  0.1337
  H  H13  1  0.686600  0.355900  0.874400  1.0  0.1375
  H  H14  1  0.799100  0.409500  0.913700  1.0  0.1376
  C  C15  1  0.845700  0.439400  0.349300  1.0  0.2013
  C  C16  1  0.745500  0.703400  0.381700  1.0  0.1727
  C  C17  1  0.542500  0.617200  0.304300  1.0  0.1883
  C  C18  1  0.570500  0.844900  0.217400  1.0  0.2321
  C  C19  1  0.703600  0.461600  0.178000  1.0  0.2022
  C  C20  1  0.280900  0.312100  0.922000  1.0  0.1989
  C  C21  1  0.964400  0.489100  0.189400  1.0  0.0982
  C  C22  1  0.873300  0.754900  0.213200  1.0  0.1759
  C  C23  1  0.303500  0.562900  0.103800  1.0  -0.0279
  C  C24  1  0.154300  0.560600  0.650700  1.0  0.2033
  C  C25  1  0.254500  0.296600  0.618300  1.0  0.1757
  C  C26  1  0.457500  0.382800  0.695700  1.0  0.1903
  C  C27  1  0.429500  0.155100  0.782600  1.0  0.2338
  C  C28  1  0.296400  0.538400  0.822000  1.0  0.2008
  C  C29  1  0.719100  0.687900  0.078000  1.0  0.199
  C  C30  1  0.035600  0.510900  0.810600  1.0  0.0974
  C  C31  1  0.126700  0.245100  0.786800  1.0  0.1781
  C  C32  1  0.696500  0.437100  0.896200  1.0  -0.0286
  N  N33  1  0.908600  0.337400  0.405800  1.0  -0.4788
  N  N34  1  0.748600  0.740900  0.457800  1.0  -0.4686
  N  N35  1  0.432800  0.609900  0.332500  1.0  -0.4803
  N  N36  1  0.481800  0.963000  0.207800  1.0  -0.5236
  N  N37  1  0.677200  0.374300  0.150300  1.0  -0.4211
  N  N38  1  0.293800  0.280000  0.007300  1.0  -0.4206
  N  N39  1  0.084300  0.411500  0.172300  1.0  -0.4511
  N  N40  1  0.945800  0.819200  0.201600  1.0  -0.4639
  N  N41  1  0.091400  0.662600  0.594200  1.0  -0.4792
  N  N42  1  0.251400  0.259100  0.542200  1.0  -0.4672
  N  N43  1  0.567200  0.390100  0.667500  1.0  -0.4813
  N  N44  1  0.518200  0.037000  0.792200  1.0  -0.5241
  N  N45  1  0.322800  0.625700  0.849700  1.0  -0.4211
  N  N46  1  0.706200  0.720000  0.992700  1.0  -0.4221
  N  N47  1  0.915700  0.588500  0.827700  1.0  -0.4542
  N  N48  1  0.054200  0.180800  0.798400  1.0  -0.461
  O  O49  1  0.349500  0.443200  0.184200  1.0  -0.6878
  O  O50  1  0.650500  0.556800  0.815800  1.0  -0.6895
