# generated using pymatgen
data_ZnH14C13S(NO2)2
_symmetry_space_group_name_H-M   'P 1'
_cell_length_a   9.52320000
_cell_length_b   15.84600000
_cell_length_c   22.36900000
_cell_angle_alpha   90.00000000
_cell_angle_beta   90.00000000
_cell_angle_gamma   90.00000000
_symmetry_Int_Tables_number   1
_chemical_formula_structural   ZnH14C13S(NO2)2
_chemical_formula_sum   'Zn8 H112 C104 S8 N16 O32'
_cell_volume   3375.58560584
_cell_formula_units_Z   8
loop_
 _symmetry_equiv_pos_site_id
 _symmetry_equiv_pos_as_xyz
  1  'x, y, z'
loop_
 _atom_site_type_symbol
 _atom_site_label
 _atom_site_symmetry_multiplicity
 _atom_site_fract_x
 _atom_site_fract_y
 _atom_site_fract_z
 _atom_site_occupancy
 _atom_site_charge
  Zn  Zn1  1  0.809530  0.311740  0.513660  1.0  0.9286
  Zn  Zn2  1  0.690470  0.688260  0.013660  1.0  0.9286
  Zn  Zn3  1  0.190470  0.811740  0.986340  1.0  0.9303
  Zn  Zn4  1  0.309530  0.188260  0.486340  1.0  0.9298
  Zn  Zn5  1  0.190470  0.688260  0.486340  1.0  0.9299
  Zn  Zn6  1  0.309530  0.311740  0.986340  1.0  0.9302
  Zn  Zn7  1  0.809530  0.188260  0.013660  1.0  0.9284
  Zn  Zn8  1  0.690470  0.811740  0.513660  1.0  0.9287
  H  H9  1  0.800000  0.492000  0.490800  1.0  0.0774
  H  H10  1  0.667000  0.590000  0.440000  1.0  0.137
  H  H11  1  0.412000  0.414000  0.395400  1.0  0.1305
  H  H12  1  0.557000  0.321000  0.445000  1.0  0.0528
  H  H13  1  0.444000  0.633000  0.389800  1.0  0.11
  H  H14  1  0.358000  0.552000  0.366700  1.0  0.0984
  H  H15  1  0.589000  0.604000  0.313000  1.0  0.0839
  H  H16  1  0.515000  0.514000  0.290000  1.0  0.0605
  H  H17  1  0.386000  0.674000  0.286000  1.0  0.1089
  H  H18  1  0.309000  0.603000  0.265500  1.0  0.0853
  H  H19  1  0.410000  0.530000  0.166700  1.0  0.1369
  H  H20  1  0.523000  0.551000  0.075200  1.0  0.0893
  H  H21  1  0.672000  0.768000  0.126600  1.0  0.0807
  H  H22  1  0.552000  0.762000  0.223200  1.0  0.1455
  H  H23  1  0.700000  0.508000  0.990800  1.0  0.0741
  H  H24  1  0.833000  0.410000  0.940000  1.0  0.1372
  H  H25  1  0.088000  0.586000  0.895400  1.0  0.1318
  H  H26  1  0.943000  0.679000  0.945000  1.0  0.0537
  H  H27  1  0.056000  0.367000  0.889800  1.0  0.1104
  H  H28  1  0.142000  0.448000  0.866700  1.0  0.0957
  H  H29  1  0.911000  0.396000  0.813000  1.0  0.0868
  H  H30  1  0.985000  0.486000  0.790000  1.0  0.0651
  H  H31  1  0.114000  0.326000  0.786000  1.0  0.1043
  H  H32  1  0.191000  0.397000  0.765500  1.0  0.0871
  H  H33  1  0.090000  0.470000  0.666667  1.0  0.1376
  H  H34  1  0.977000  0.449000  0.575200  1.0  0.0895
  H  H35  1  0.828000  0.232000  0.626600  1.0  0.0809
  H  H36  1  0.948000  0.238000  0.723200  1.0  0.1462
  H  H37  1  0.200000  0.992000  0.009200  1.0  0.0732
  H  H38  1  0.333000  0.090000  0.060000  1.0  0.1376
  H  H39  1  0.588000  0.914000  0.104600  1.0  0.1325
  H  H40  1  0.443000  0.821000  0.055000  1.0  0.052
  H  H41  1  0.556000  0.133000  0.110200  1.0  0.1101
  H  H42  1  0.642000  0.052000  0.133300  1.0  0.0961
  H  H43  1  0.411000  0.104000  0.187000  1.0  0.0879
  H  H44  1  0.485000  0.014000  0.210000  1.0  0.0605
  H  H45  1  0.614000  0.174000  0.214000  1.0  0.11
  H  H46  1  0.691000  0.103000  0.234500  1.0  0.0872
  H  H47  1  0.590000  0.030000  0.333333  1.0  0.1366
  H  H48  1  0.477000  0.051000  0.424800  1.0  0.0898
  H  H49  1  0.328000  0.268000  0.373400  1.0  0.0808
  H  H50  1  0.448000  0.262000  0.276800  1.0  0.146
  H  H51  1  0.300000  0.008000  0.509200  1.0  0.0772
  H  H52  1  0.167000  0.910000  0.560000  1.0  0.1368
  H  H53  1  0.912000  0.086000  0.604600  1.0  0.1312
  H  H54  1  0.057000  0.179000  0.555000  1.0  0.0546
  H  H55  1  0.944000  0.867000  0.610200  1.0  0.1101
  H  H56  1  0.858000  0.948000  0.633300  1.0  0.0987
  H  H57  1  0.089000  0.896000  0.687000  1.0  0.084
  H  H58  1  0.015000  0.986000  0.710000  1.0  0.064
  H  H59  1  0.886000  0.826000  0.714000  1.0  0.1058
  H  H60  1  0.809000  0.897000  0.734500  1.0  0.0855
  H  H61  1  0.910000  0.970000  0.833300  1.0  0.1379
  H  H62  1  0.023000  0.949000  0.924800  1.0  0.0896
  H  H63  1  0.172000  0.732000  0.873400  1.0  0.0804
  H  H64  1  0.052000  0.738000  0.776800  1.0  0.1465
  H  H65  1  0.200000  0.508000  0.509200  1.0  0.0731
  H  H66  1  0.333000  0.410000  0.560000  1.0  0.1372
  H  H67  1  0.588000  0.586000  0.604600  1.0  0.1324
  H  H68  1  0.443000  0.679000  0.555000  1.0  0.054
  H  H69  1  0.556000  0.367000  0.610200  1.0  0.1101
  H  H70  1  0.642000  0.448000  0.633300  1.0  0.0954
  H  H71  1  0.411000  0.396000  0.687000  1.0  0.0868
  H  H72  1  0.485000  0.486000  0.710000  1.0  0.0637
  H  H73  1  0.614000  0.326000  0.714000  1.0  0.1048
  H  H74  1  0.691000  0.397000  0.734500  1.0  0.087
  H  H75  1  0.590000  0.470000  0.833300  1.0  0.1375
  H  H76  1  0.477000  0.449000  0.924800  1.0  0.0897
  H  H77  1  0.328000  0.232000  0.873400  1.0  0.0807
  H  H78  1  0.448000  0.238000  0.776800  1.0  0.1464
  H  H79  1  0.300000  0.492000  0.009200  1.0  0.0772
  H  H80  1  0.167000  0.590000  0.060000  1.0  0.137
  H  H81  1  0.912000  0.414000  0.104600  1.0  0.131
  H  H82  1  0.057000  0.321000  0.055000  1.0  0.053
  H  H83  1  0.944000  0.633000  0.110200  1.0  0.1103
  H  H84  1  0.858000  0.552000  0.133300  1.0  0.0978
  H  H85  1  0.089000  0.604000  0.187000  1.0  0.0836
  H  H86  1  0.015000  0.514000  0.210000  1.0  0.0607
  H  H87  1  0.886000  0.674000  0.214000  1.0  0.1106
  H  H88  1  0.809000  0.603000  0.234500  1.0  0.0857
  H  H89  1  0.910000  0.530000  0.333333  1.0  0.1367
  H  H90  1  0.023000  0.551000  0.424800  1.0  0.0899
  H  H91  1  0.172000  0.768000  0.373400  1.0  0.0807
  H  H92  1  0.052000  0.762000  0.276800  1.0  0.1464
  H  H93  1  0.800000  0.008000  0.990800  1.0  0.0779
  H  H94  1  0.667000  0.910000  0.940000  1.0  0.137
  H  H95  1  0.412000  0.086000  0.895400  1.0  0.131
  H  H96  1  0.557000  0.179000  0.945000  1.0  0.0545
  H  H97  1  0.444000  0.867000  0.889800  1.0  0.1104
  H  H98  1  0.358000  0.948000  0.866700  1.0  0.0995
  H  H99  1  0.589000  0.896000  0.813000  1.0  0.0841
  H  H100  1  0.515000  0.986000  0.790000  1.0  0.065
  H  H101  1  0.386000  0.826000  0.786000  1.0  0.105
  H  H102  1  0.309000  0.897000  0.765500  1.0  0.086
  H  H103  1  0.410000  0.970000  0.666667  1.0  0.1379
  H  H104  1  0.523000  0.949000  0.575200  1.0  0.0895
  H  H105  1  0.672000  0.732000  0.626600  1.0  0.0807
  H  H106  1  0.552000  0.738000  0.723200  1.0  0.1463
  H  H107  1  0.700000  0.992000  0.490800  1.0  0.0736
  H  H108  1  0.833000  0.090000  0.440000  1.0  0.1375
  H  H109  1  0.088000  0.914000  0.395400  1.0  0.1315
  H  H110  1  0.943000  0.821000  0.445000  1.0  0.0516
  H  H111  1  0.056000  0.133000  0.389800  1.0  0.1099
  H  H112  1  0.142000  0.052000  0.366700  1.0  0.0961
  H  H113  1  0.911000  0.104000  0.313000  1.0  0.0879
  H  H114  1  0.985000  0.014000  0.290000  1.0  0.0605
  H  H115  1  0.114000  0.174000  0.286000  1.0  0.1088
  H  H116  1  0.191000  0.103000  0.265500  1.0  0.0863
  H  H117  1  0.090000  0.030000  0.166700  1.0  0.1367
  H  H118  1  0.977000  0.051000  0.075200  1.0  0.0892
  H  H119  1  0.828000  0.268000  0.126600  1.0  0.0807
  H  H120  1  0.948000  0.262000  0.223200  1.0  0.1452
  C  C121  1  0.723800  0.480900  0.471200  1.0  0.2036
  C  C122  1  0.645900  0.538800  0.439080  1.0  -0.1998
  C  C123  1  0.528100  0.514000  0.408740  1.0  0.1651
  C  C124  1  0.493000  0.430100  0.413100  1.0  -0.241
  C  C125  1  0.573900  0.375800  0.445750  1.0  0.2123
  C  C126  1  0.445100  0.573700  0.370880  1.0  -0.1983
  C  C127  1  0.504400  0.578200  0.307390  1.0  -0.0875
  C  C128  1  0.408100  0.628100  0.265680  1.0  -0.1824
  C  C129  1  0.475900  0.639800  0.204900  1.0  0.1802
  C  C130  1  0.469200  0.578400  0.161120  1.0  -0.2196
  C  C131  1  0.533700  0.591500  0.106690  1.0  0.1853
  C  C132  1  0.614400  0.720000  0.137390  1.0  0.1791
  C  C133  1  0.550300  0.712000  0.192030  1.0  -0.2379
  C  C134  1  0.776200  0.519100  0.971200  1.0  0.202
  C  C135  1  0.854100  0.461200  0.939080  1.0  -0.1991
  C  C136  1  0.971900  0.486000  0.908740  1.0  0.1653
  C  C137  1  0.007000  0.569900  0.913100  1.0  -0.2413
  C  C138  1  0.926100  0.624200  0.945750  1.0  0.2148
  C  C139  1  0.054900  0.426300  0.870880  1.0  -0.199
  C  C140  1  0.995600  0.421800  0.807390  1.0  -0.0873
  C  C141  1  0.091900  0.371900  0.765680  1.0  -0.1786
  C  C142  1  0.024100  0.360200  0.704900  1.0  0.1814
  C  C143  1  0.030800  0.421600  0.661120  1.0  -0.2124
  C  C144  1  0.966300  0.408500  0.606690  1.0  0.1835
  C  C145  1  0.885600  0.280000  0.637390  1.0  0.1785
  C  C146  1  0.949700  0.288000  0.692030  1.0  -0.238
  C  C147  1  0.276200  0.980900  0.028800  1.0  0.2027
  C  C148  1  0.354100  0.038800  0.060920  1.0  -0.2012
  C  C149  1  0.471900  0.014000  0.091260  1.0  0.1664
  C  C150  1  0.507000  0.930100  0.086900  1.0  -0.2394
  C  C151  1  0.426100  0.875800  0.054250  1.0  0.2127
  C  C152  1  0.554900  0.073700  0.129120  1.0  -0.1992
  C  C153  1  0.495600  0.078200  0.192610  1.0  -0.087
  C  C154  1  0.591900  0.128100  0.234320  1.0  -0.1784
  C  C155  1  0.524100  0.139800  0.295100  1.0  0.1806
  C  C156  1  0.530800  0.078400  0.338880  1.0  -0.2177
  C  C157  1  0.466300  0.091500  0.393310  1.0  0.1842
  C  C158  1  0.385600  0.220000  0.362610  1.0  0.179
  C  C159  1  0.449700  0.212000  0.307970  1.0  -0.233
  C  C160  1  0.223800  0.019100  0.528800  1.0  0.2051
  C  C161  1  0.145900  0.961200  0.560920  1.0  -0.1991
  C  C162  1  0.028100  0.986000  0.591260  1.0  0.166
  C  C163  1  0.993000  0.069900  0.586900  1.0  -0.2408
  C  C164  1  0.073900  0.124200  0.554250  1.0  0.2131
  C  C165  1  0.945100  0.926300  0.629120  1.0  -0.1985
  C  C166  1  0.004400  0.921800  0.692610  1.0  -0.0873
  C  C167  1  0.908100  0.871900  0.734320  1.0  -0.1822
  C  C168  1  0.975900  0.860200  0.795100  1.0  0.1805
  C  C169  1  0.969200  0.921600  0.838880  1.0  -0.2175
  C  C170  1  0.033700  0.908500  0.893310  1.0  0.1857
  C  C171  1  0.114400  0.780000  0.862610  1.0  0.1786
  C  C172  1  0.050300  0.788000  0.807970  1.0  -0.236
  C  C173  1  0.276200  0.519100  0.528800  1.0  0.2035
  C  C174  1  0.354100  0.461200  0.560920  1.0  -0.2003
  C  C175  1  0.471900  0.486000  0.591260  1.0  0.1663
  C  C176  1  0.507000  0.569900  0.586900  1.0  -0.2399
  C  C177  1  0.426100  0.624200  0.554250  1.0  0.2142
  C  C178  1  0.554900  0.426300  0.629120  1.0  -0.1993
  C  C179  1  0.495600  0.421800  0.692610  1.0  -0.0874
  C  C180  1  0.591900  0.371900  0.734320  1.0  -0.1815
  C  C181  1  0.524100  0.360200  0.795100  1.0  0.1818
  C  C182  1  0.530800  0.421600  0.838880  1.0  -0.2157
  C  C183  1  0.466300  0.408500  0.893310  1.0  0.1858
  C  C184  1  0.385600  0.280000  0.862610  1.0  0.1788
  C  C185  1  0.449700  0.288000  0.807970  1.0  -0.2359
  C  C186  1  0.223800  0.480900  0.028800  1.0  0.2045
  C  C187  1  0.145900  0.538800  0.060920  1.0  -0.1998
  C  C188  1  0.028100  0.514000  0.091260  1.0  0.1659
  C  C189  1  0.993000  0.430100  0.086900  1.0  -0.2394
  C  C190  1  0.073900  0.375800  0.054250  1.0  0.2123
  C  C191  1  0.945100  0.573700  0.129120  1.0  -0.1986
  C  C192  1  0.004400  0.578200  0.192610  1.0  -0.0875
  C  C193  1  0.908100  0.628100  0.234320  1.0  -0.1797
  C  C194  1  0.975900  0.639800  0.295100  1.0  0.1793
  C  C195  1  0.969200  0.578400  0.338880  1.0  -0.2171
  C  C196  1  0.033700  0.591500  0.393310  1.0  0.184
  C  C197  1  0.114400  0.720000  0.362610  1.0  0.179
  C  C198  1  0.050300  0.712000  0.307970  1.0  -0.2334
  C  C199  1  0.723800  0.019100  0.971200  1.0  0.2039
  C  C200  1  0.645900  0.961200  0.939080  1.0  -0.1981
  C  C201  1  0.528100  0.986000  0.908740  1.0  0.1649
  C  C202  1  0.493000  0.069900  0.913100  1.0  -0.2411
  C  C203  1  0.573900  0.124200  0.945750  1.0  0.2139
  C  C204  1  0.445100  0.926300  0.870880  1.0  -0.1982
  C  C205  1  0.504400  0.921800  0.807390  1.0  -0.0871
  C  C206  1  0.408100  0.871900  0.765680  1.0  -0.1793
  C  C207  1  0.475900  0.860200  0.704900  1.0  0.1801
  C  C208  1  0.469200  0.921600  0.661120  1.0  -0.2143
  C  C209  1  0.533700  0.908500  0.606690  1.0  0.1836
  C  C210  1  0.614400  0.780000  0.637390  1.0  0.1784
  C  C211  1  0.550300  0.788000  0.692030  1.0  -0.2382
  C  C212  1  0.776200  0.980900  0.471200  1.0  0.2013
  C  C213  1  0.854100  0.038800  0.439080  1.0  -0.201
  C  C214  1  0.971900  0.014000  0.408740  1.0  0.1656
  C  C215  1  0.007000  0.930100  0.413100  1.0  -0.2418
  C  C216  1  0.926100  0.875800  0.445750  1.0  0.2126
  C  C217  1  0.054900  0.073700  0.370880  1.0  -0.1991
  C  C218  1  0.995600  0.078200  0.307390  1.0  -0.0873
  C  C219  1  0.091900  0.128100  0.265680  1.0  -0.1812
  C  C220  1  0.024100  0.139800  0.204900  1.0  0.1814
  C  C221  1  0.030800  0.078400  0.161120  1.0  -0.2204
  C  C222  1  0.966300  0.091500  0.106690  1.0  0.1854
  C  C223  1  0.885600  0.220000  0.137390  1.0  0.179
  C  C224  1  0.949700  0.212000  0.192030  1.0  -0.2372
  S  S225  1  0.068510  0.320470  0.443920  1.0  1.6206
  S  S226  1  0.431490  0.679530  0.943920  1.0  1.6214
  S  S227  1  0.931490  0.820470  0.056080  1.0  1.6223
  S  S228  1  0.568510  0.179530  0.556080  1.0  1.6221
  S  S229  1  0.931490  0.679530  0.556080  1.0  1.6226
  S  S230  1  0.568510  0.320470  0.056080  1.0  1.6217
  S  S231  1  0.068510  0.179530  0.943920  1.0  1.6207
  S  S232  1  0.431490  0.820470  0.443920  1.0  1.6213
  N  N233  1  0.690200  0.399460  0.473900  1.0  -0.3881
  N  N234  1  0.605900  0.661650  0.094090  1.0  -0.381
  N  N235  1  0.809800  0.600540  0.973900  1.0  -0.3872
  N  N236  1  0.894100  0.338350  0.594090  1.0  -0.3807
  N  N237  1  0.309800  0.899460  0.026100  1.0  -0.3877
  N  N238  1  0.394100  0.161650  0.405910  1.0  -0.3791
  N  N239  1  0.190200  0.100540  0.526100  1.0  -0.3888
  N  N240  1  0.105900  0.838350  0.905910  1.0  -0.3786
  N  N241  1  0.309800  0.600540  0.526100  1.0  -0.3871
  N  N242  1  0.394100  0.338350  0.905910  1.0  -0.3784
  N  N243  1  0.190200  0.399460  0.026100  1.0  -0.3879
  N  N244  1  0.105900  0.661650  0.405910  1.0  -0.3794
  N  N245  1  0.690200  0.100540  0.973900  1.0  -0.3886
  N  N246  1  0.605900  0.838350  0.594090  1.0  -0.3809
  N  N247  1  0.809800  0.899460  0.473900  1.0  -0.3882
  N  N248  1  0.894100  0.161650  0.094090  1.0  -0.3806
  O  O249  1  0.950200  0.262540  0.459730  1.0  -0.7493
  O  O250  1  0.196100  0.290180  0.476140  1.0  -0.7493
  O  O251  1  0.092800  0.316100  0.380450  1.0  -0.7392
  O  O252  1  0.032900  0.403860  0.465080  1.0  -0.7123
  O  O253  1  0.549800  0.737460  0.959730  1.0  -0.7481
  O  O254  1  0.303900  0.709820  0.976140  1.0  -0.7483
  O  O255  1  0.407200  0.683900  0.880450  1.0  -0.7392
  O  O256  1  0.467100  0.596140  0.965080  1.0  -0.7126
  O  O257  1  0.049800  0.762540  0.040270  1.0  -0.7502
  O  O258  1  0.803900  0.790180  0.023860  1.0  -0.7476
  O  O259  1  0.907200  0.816100  0.119550  1.0  -0.7386
  O  O260  1  0.967100  0.903860  0.034920  1.0  -0.7133
  O  O261  1  0.450200  0.237460  0.540270  1.0  -0.7498
  O  O262  1  0.696100  0.209820  0.523860  1.0  -0.7489
  O  O263  1  0.592800  0.183900  0.619550  1.0  -0.7387
  O  O264  1  0.532900  0.096140  0.534920  1.0  -0.7132
  O  O265  1  0.049800  0.737460  0.540270  1.0  -0.7495
  O  O266  1  0.803900  0.709820  0.523860  1.0  -0.7478
  O  O267  1  0.907200  0.683900  0.619550  1.0  -0.738
  O  O268  1  0.967100  0.596140  0.534920  1.0  -0.7136
  O  O269  1  0.450200  0.262540  0.040270  1.0  -0.7504
  O  O270  1  0.696100  0.290180  0.023860  1.0  -0.7485
  O  O271  1  0.592800  0.316100  0.119550  1.0  -0.7396
  O  O272  1  0.532900  0.403860  0.034920  1.0  -0.7131
  O  O273  1  0.950200  0.237460  0.959730  1.0  -0.7487
  O  O274  1  0.196100  0.209820  0.976140  1.0  -0.7495
  O  O275  1  0.092800  0.183900  0.880450  1.0  -0.7391
  O  O276  1  0.032900  0.096140  0.965080  1.0  -0.7123
  O  O277  1  0.549800  0.762540  0.459730  1.0  -0.7489
  O  O278  1  0.303900  0.790180  0.476140  1.0  -0.7483
  O  O279  1  0.407200  0.816100  0.380450  1.0  -0.7391
  O  O280  1  0.467100  0.903860  0.465080  1.0  -0.7124
