# generated using pymatgen
data_NiH4C7O5
_symmetry_space_group_name_H-M   'P 1'
_cell_length_a   8.80790000
_cell_length_b   8.80790000
_cell_length_c   21.16630000
_cell_angle_alpha   90.00000000
_cell_angle_beta   90.00000000
_cell_angle_gamma   120.00000000
_symmetry_Int_Tables_number   1
_chemical_formula_structural   NiH4C7O5
_chemical_formula_sum   'Ni6 H24 C42 O30'
_cell_volume   1422.06788753
_cell_formula_units_Z   6
loop_
 _symmetry_equiv_pos_site_id
 _symmetry_equiv_pos_as_xyz
  1  'x, y, z'
loop_
 _atom_site_type_symbol
 _atom_site_label
 _atom_site_symmetry_multiplicity
 _atom_site_fract_x
 _atom_site_fract_y
 _atom_site_fract_z
 _atom_site_occupancy
 _atom_site_charge
  Ni  Ni1  1  0.965270  0.946290  0.917180  1.0  1.0388
  Ni  Ni2  1  0.981020  0.034730  0.583850  1.0  1.0394
  Ni  Ni3  1  0.053710  0.018980  0.250520  1.0  1.0391
  Ni  Ni4  1  0.018980  0.053710  0.082820  1.0  1.039
  Ni  Ni5  1  0.946290  0.965270  0.416150  1.0  1.0397
  Ni  Ni6  1  0.034730  0.981020  0.749480  1.0  1.0395
  H  H7  1  0.922100  0.390000  0.925400  1.0  0.1248
  H  H8  1  0.407400  0.896200  0.911200  1.0  0.129
  H  H9  1  0.636000  0.850000  0.866900  1.0  0.4537
  H  H10  1  0.884000  0.630000  0.972400  1.0  0.4582
  H  H11  1  0.467900  0.077900  0.592070  1.0  0.1249
  H  H12  1  0.488800  0.592600  0.577870  1.0  0.1291
  H  H13  1  0.214000  0.364000  0.533570  1.0  0.4532
  H  H14  1  0.746000  0.116000  0.639070  1.0  0.4586
  H  H15  1  0.610000  0.532100  0.258730  1.0  0.1248
  H  H16  1  0.103800  0.511200  0.244530  1.0  0.1286
  H  H17  1  0.150000  0.786000  0.200230  1.0  0.453
  H  H18  1  0.370000  0.254000  0.305730  1.0  0.458
  H  H19  1  0.532100  0.610000  0.074600  1.0  0.1249
  H  H20  1  0.511200  0.103800  0.088800  1.0  0.1297
  H  H21  1  0.786000  0.150000  0.133100  1.0  0.4537
  H  H22  1  0.254000  0.370000  0.027600  1.0  0.4588
  H  H23  1  0.390000  0.922100  0.407930  1.0  0.1248
  H  H24  1  0.896200  0.407400  0.422130  1.0  0.1301
  H  H25  1  0.850000  0.636000  0.466430  1.0  0.4523
  H  H26  1  0.630000  0.884000  0.360930  1.0  0.4588
  H  H27  1  0.077900  0.467900  0.741270  1.0  0.1248
  H  H28  1  0.592600  0.488800  0.755470  1.0  0.1293
  H  H29  1  0.364000  0.214000  0.799770  1.0  0.4526
  H  H30  1  0.116000  0.746000  0.694270  1.0  0.4588
  C  C31  1  0.637600  0.935300  0.948200  1.0  0.1971
  C  C32  1  0.952300  0.459400  0.888190  1.0  -0.2384
  C  C33  1  0.481700  0.937000  0.947140  1.0  -0.2415
  C  C34  1  0.949600  0.615700  0.887650  1.0  0.208
  C  C35  1  0.297700  0.362400  0.614870  1.0  0.1978
  C  C36  1  0.507100  0.047700  0.554860  1.0  -0.2428
  C  C37  1  0.455300  0.518300  0.613810  1.0  -0.2376
  C  C38  1  0.666100  0.050400  0.554320  1.0  0.2067
  C  C39  1  0.064700  0.702300  0.281530  1.0  0.196
  C  C40  1  0.540600  0.492900  0.221520  1.0  -0.2391
  C  C41  1  0.063000  0.544700  0.280470  1.0  -0.2389
  C  C42  1  0.384300  0.333900  0.220980  1.0  0.2062
  C  C43  1  0.702300  0.064700  0.051800  1.0  0.1928
  C  C44  1  0.492900  0.540600  0.111810  1.0  -0.2366
  C  C45  1  0.544700  0.063000  0.052860  1.0  -0.2467
  C  C46  1  0.333900  0.384300  0.112350  1.0  0.203
  C  C47  1  0.935300  0.637600  0.385130  1.0  0.1934
  C  C48  1  0.459400  0.952300  0.445140  1.0  -0.2386
  C  C49  1  0.937000  0.481700  0.386190  1.0  -0.2409
  C  C50  1  0.615700  0.949600  0.445680  1.0  0.2016
  C  C51  1  0.362400  0.297700  0.718470  1.0  0.1918
  C  C52  1  0.047700  0.507100  0.778480  1.0  -0.2355
  C  C53  1  0.518300  0.455300  0.719530  1.0  -0.243
  C  C54  1  0.050400  0.666100  0.779020  1.0  0.2012
  C  C55  1  0.267000  0.000000  0.000000  1.0  0.6728
  C  C56  1  0.750800  0.000000  0.000000  1.0  0.1493
  C  C57  1  0.435400  0.000000  0.000000  1.0  -0.0622
  C  C58  1  0.733000  0.733000  0.666667  1.0  0.6742
  C  C59  1  0.249200  0.249200  0.666667  1.0  0.1484
  C  C60  1  0.564600  0.564600  0.666667  1.0  -0.0615
  C  C61  1  0.000000  0.267000  0.333333  1.0  0.6739
  C  C62  1  0.000000  0.750800  0.333333  1.0  0.1485
  C  C63  1  0.000000  0.435400  0.333333  1.0  -0.0613
  C  C64  1  0.000000  0.720500  0.833330  1.0  0.1405
  C  C65  1  0.000000  0.236600  0.833330  1.0  0.668
  C  C66  1  0.000000  0.405600  0.833330  1.0  -0.0534
  C  C67  1  0.720500  0.000000  0.500000  1.0  0.1398
  C  C68  1  0.236600  0.000000  0.500000  1.0  0.6669
  C  C69  1  0.405600  0.000000  0.500000  1.0  -0.054
  C  C70  1  0.279500  0.279500  0.166670  1.0  0.1404
  C  C71  1  0.763400  0.763400  0.166670  1.0  0.6684
  C  C72  1  0.594400  0.594400  0.166670  1.0  -0.0535
  O  O73  1  0.214200  0.025500  0.947350  1.0  -0.6144
  O  O74  1  0.696500  0.870100  0.900810  1.0  -0.5275
  O  O75  1  0.039300  0.191300  0.884760  1.0  -0.6088
  O  O76  1  0.897900  0.680800  0.936780  1.0  -0.5381
  O  O77  1  0.811300  0.785800  0.614020  1.0  -0.6133
  O  O78  1  0.173600  0.303500  0.567480  1.0  -0.5334
  O  O79  1  0.152000  0.960700  0.551430  1.0  -0.6109
  O  O80  1  0.782900  0.102100  0.603450  1.0  -0.5312
  O  O81  1  0.974500  0.188700  0.280680  1.0  -0.6139
  O  O82  1  0.129900  0.826400  0.234140  1.0  -0.5282
  O  O83  1  0.808700  0.848000  0.218090  1.0  -0.6102
  O  O84  1  0.319200  0.217100  0.270110  1.0  -0.5343
  O  O85  1  0.188700  0.974500  0.052650  1.0  -0.6149
  O  O86  1  0.826400  0.129900  0.099190  1.0  -0.526
  O  O87  1  0.848000  0.808700  0.115240  1.0  -0.6096
  O  O88  1  0.217100  0.319200  0.063220  1.0  -0.5395
  O  O89  1  0.025500  0.214200  0.385980  1.0  -0.6119
  O  O90  1  0.870100  0.696500  0.432520  1.0  -0.5341
  O  O91  1  0.191300  0.039300  0.448570  1.0  -0.6106
  O  O92  1  0.680800  0.897900  0.396550  1.0  -0.5324
  O  O93  1  0.785800  0.811300  0.719320  1.0  -0.6141
  O  O94  1  0.303500  0.173600  0.765860  1.0  -0.5286
  O  O95  1  0.960700  0.152000  0.781910  1.0  -0.6101
  O  O96  1  0.102100  0.782900  0.729890  1.0  -0.5347
  O  O97  1  0.901400  0.000000  0.000000  1.0  -0.5878
  O  O98  1  0.098600  0.098600  0.666667  1.0  -0.5873
  O  O99  1  0.000000  0.901400  0.333333  1.0  -0.5885
  O  O100  1  0.000000  0.871400  0.833330  1.0  -0.5995
  O  O101  1  0.871400  0.000000  0.500000  1.0  -0.5991
  O  O102  1  0.128600  0.128600  0.166670  1.0  -0.5986
