# generated using pymatgen
data_MnH4C7O5
_symmetry_space_group_name_H-M   'P 1'
_cell_length_a   9.06300000
_cell_length_b   9.06300000
_cell_length_c   10.94700000
_cell_angle_alpha   90.00000000
_cell_angle_beta   90.00000000
_cell_angle_gamma   120.00000000
_symmetry_Int_Tables_number   1
_chemical_formula_structural   MnH4C7O5
_chemical_formula_sum   'Mn3 H12 C21 O15'
_cell_volume   778.69916637
_cell_formula_units_Z   3
loop_
 _symmetry_equiv_pos_site_id
 _symmetry_equiv_pos_as_xyz
  1  'x, y, z'
loop_
 _atom_site_type_symbol
 _atom_site_label
 _atom_site_symmetry_multiplicity
 _atom_site_fract_x
 _atom_site_fract_y
 _atom_site_fract_z
 _atom_site_occupancy
 _atom_site_charge
  Mn  Mn1  1  0.027790  0.027790  0.333333  1.0  1.1039
  Mn  Mn2  1  0.000000  0.972210  0.666667  1.0  1.1039
  Mn  Mn3  1  0.972210  0.000000  0.000000  1.0  1.1032
  H  H4  1  0.370000  0.143000  0.250000  1.0  0.4617
  H  H5  1  0.597000  0.091000  0.332000  1.0  0.1231
  H  H6  1  0.773000  0.630000  0.583330  1.0  0.4599
  H  H7  1  0.494000  0.403000  0.665330  1.0  0.1228
  H  H8  1  0.857000  0.227000  0.916670  1.0  0.4602
  H  H9  1  0.909000  0.506000  0.998670  1.0  0.1225
  H  H10  1  0.227000  0.857000  0.750000  1.0  0.46
  H  H11  1  0.506000  0.909000  0.668000  1.0  0.124
  H  H12  1  0.143000  0.370000  0.416670  1.0  0.4621
  H  H13  1  0.091000  0.597000  0.334670  1.0  0.1232
  H  H14  1  0.630000  0.773000  0.083330  1.0  0.4598
  H  H15  1  0.403000  0.494000  0.001330  1.0  0.1233
  C  C16  1  0.521200  0.045400  0.394900  1.0  -0.2383
  C  C17  1  0.371700  0.049200  0.395900  1.0  0.1937
  C  C18  1  0.524200  0.478800  0.728230  1.0  -0.2362
  C  C19  1  0.677500  0.628300  0.729230  1.0  0.1943
  C  C20  1  0.954600  0.475800  0.061570  1.0  -0.239
  C  C21  1  0.950800  0.322500  0.062570  1.0  0.1929
  C  C22  1  0.475800  0.954600  0.605100  1.0  -0.2344
  C  C23  1  0.322500  0.950800  0.604100  1.0  0.1924
  C  C24  1  0.045400  0.521200  0.271770  1.0  -0.2336
  C  C25  1  0.049200  0.371700  0.270770  1.0  0.1931
  C  C26  1  0.478800  0.524200  0.938430  1.0  -0.2376
  C  C27  1  0.628300  0.677500  0.937430  1.0  0.1916
  C  C28  1  0.738700  0.000000  0.500000  1.0  0.6905
  C  C29  1  0.267100  0.000000  0.500000  1.0  0.144
  C  C30  1  0.574600  0.000000  0.500000  1.0  -0.0728
  C  C31  1  0.261300  0.261300  0.833330  1.0  0.691
  C  C32  1  0.732900  0.732900  0.833330  1.0  0.1444
  C  C33  1  0.425400  0.425400  0.833330  1.0  -0.072
  C  C34  1  0.000000  0.738700  0.166670  1.0  0.6918
  C  C35  1  0.000000  0.267100  0.166670  1.0  0.1437
  C  C36  1  0.000000  0.574600  0.166670  1.0  -0.072
  O  O37  1  0.307100  0.096600  0.299690  1.0  -0.5335
  O  O38  1  0.781200  0.954500  0.403230  1.0  -0.6362
  O  O39  1  0.789500  0.692900  0.633020  1.0  -0.5322
  O  O40  1  0.173300  0.218800  0.736560  1.0  -0.6341
  O  O41  1  0.903400  0.210500  0.966360  1.0  -0.5314
  O  O42  1  0.045500  0.826700  0.069900  1.0  -0.6348
  O  O43  1  0.210500  0.903400  0.700310  1.0  -0.5337
  O  O44  1  0.826700  0.045500  0.596770  1.0  -0.6361
  O  O45  1  0.096600  0.307100  0.366980  1.0  -0.5353
  O  O46  1  0.954500  0.781200  0.263440  1.0  -0.6337
  O  O47  1  0.692900  0.789500  0.033640  1.0  -0.5319
  O  O48  1  0.218800  0.173300  0.930100  1.0  -0.6343
  O  O49  1  0.120600  0.000000  0.500000  1.0  -0.6122
  O  O50  1  0.879400  0.879400  0.833330  1.0  -0.6109
  O  O51  1  0.000000  0.120600  0.166670  1.0  -0.611
