# generated using pymatgen
data_MnH4C7O5
_symmetry_space_group_name_H-M   'P 1'
_cell_length_a   9.06590000
_cell_length_b   9.06590000
_cell_length_c   21.72730000
_cell_angle_alpha   90.00000000
_cell_angle_beta   90.00000000
_cell_angle_gamma   120.00000000
_symmetry_Int_Tables_number   1
_chemical_formula_structural   MnH4C7O5
_chemical_formula_sum   'Mn6 H24 C42 O30'
_cell_volume   1546.52961650
_cell_formula_units_Z   6
loop_
 _symmetry_equiv_pos_site_id
 _symmetry_equiv_pos_as_xyz
  1  'x, y, z'
loop_
 _atom_site_type_symbol
 _atom_site_label
 _atom_site_symmetry_multiplicity
 _atom_site_fract_x
 _atom_site_fract_y
 _atom_site_fract_z
 _atom_site_occupancy
 _atom_site_charge
  Mn  Mn1  1  0.021950  0.039190  0.917060  1.0  1.1122
  Mn  Mn2  1  0.017240  0.978050  0.583730  1.0  1.1121
  Mn  Mn3  1  0.960810  0.982760  0.250390  1.0  1.1125
  Mn  Mn4  1  0.982760  0.960810  0.082940  1.0  1.1122
  Mn  Mn5  1  0.039190  0.021950  0.416270  1.0  1.1124
  Mn  Mn6  1  0.978050  0.017240  0.749610  1.0  1.1124
  H  H7  1  0.364000  0.132000  0.867600  1.0  0.4016
  H  H8  1  0.101000  0.374000  0.969500  1.0  0.4089
  H  H9  1  0.581200  0.085100  0.911300  1.0  0.1206
  H  H10  1  0.061200  0.595800  0.924300  1.0  0.12
  H  H11  1  0.768000  0.636000  0.534270  1.0  0.4007
  H  H12  1  0.273000  0.899000  0.636170  1.0  0.4072
  H  H13  1  0.503900  0.418800  0.577970  1.0  0.1209
  H  H14  1  0.534600  0.938800  0.590970  1.0  0.1199
  H  H15  1  0.868000  0.232000  0.200930  1.0  0.4012
  H  H16  1  0.626000  0.727000  0.302830  1.0  0.4084
  H  H17  1  0.914900  0.496100  0.244630  1.0  0.1208
  H  H18  1  0.404200  0.465400  0.257630  1.0  0.1196
  H  H19  1  0.232000  0.868000  0.132400  1.0  0.3997
  H  H20  1  0.727000  0.626000  0.030500  1.0  0.408
  H  H21  1  0.496100  0.914900  0.088700  1.0  0.121
  H  H22  1  0.465400  0.404200  0.075700  1.0  0.12
  H  H23  1  0.132000  0.364000  0.465730  1.0  0.4009
  H  H24  1  0.374000  0.101000  0.363830  1.0  0.4098
  H  H25  1  0.085100  0.581200  0.422030  1.0  0.121
  H  H26  1  0.595800  0.061200  0.409030  1.0  0.1194
  H  H27  1  0.636000  0.768000  0.799070  1.0  0.4008
  H  H28  1  0.899000  0.273000  0.697170  1.0  0.4094
  H  H29  1  0.418800  0.503900  0.755370  1.0  0.1209
  H  H30  1  0.938800  0.534600  0.742370  1.0  0.1195
  C  C31  1  0.362200  0.055000  0.948490  1.0  0.1865
  C  C32  1  0.512600  0.052100  0.947340  1.0  -0.1746
  C  C33  1  0.041600  0.381300  0.886680  1.0  0.1893
  C  C34  1  0.038000  0.531900  0.887400  1.0  -0.1586
  C  C35  1  0.692800  0.637800  0.615160  1.0  0.1856
  C  C36  1  0.539500  0.487400  0.614010  1.0  -0.1718
  C  C37  1  0.339700  0.958400  0.553350  1.0  0.1887
  C  C38  1  0.493900  0.962000  0.554070  1.0  -0.1597
  C  C39  1  0.945000  0.307200  0.281820  1.0  0.1868
  C  C40  1  0.947900  0.460500  0.280670  1.0  -0.1752
  C  C41  1  0.618700  0.660300  0.220010  1.0  0.1896
  C  C42  1  0.468100  0.506100  0.220730  1.0  -0.1609
  C  C43  1  0.307200  0.945000  0.051510  1.0  0.1852
  C  C44  1  0.460500  0.947900  0.052660  1.0  -0.1774
  C  C45  1  0.660300  0.618700  0.113320  1.0  0.1872
  C  C46  1  0.506100  0.468100  0.112600  1.0  -0.1568
  C  C47  1  0.055000  0.362200  0.384840  1.0  0.1853
  C  C48  1  0.052100  0.512600  0.385990  1.0  -0.1753
  C  C49  1  0.381300  0.041600  0.446650  1.0  0.1872
  C  C50  1  0.531900  0.038000  0.445930  1.0  -0.158
  C  C51  1  0.637800  0.692800  0.718180  1.0  0.1854
  C  C52  1  0.487400  0.539500  0.719330  1.0  -0.1801
  C  C53  1  0.958400  0.339700  0.779990  1.0  0.1888
  C  C54  1  0.962000  0.493900  0.779270  1.0  -0.1585
  C  C55  1  0.255700  0.000000  0.000000  1.0  0.1496
  C  C56  1  0.725700  0.000000  0.000000  1.0  0.7076
  C  C57  1  0.563000  0.000000  0.000000  1.0  -0.0766
  C  C58  1  0.744300  0.744300  0.666667  1.0  0.1497
  C  C59  1  0.274300  0.274300  0.666667  1.0  0.7086
  C  C60  1  0.437000  0.437000  0.666667  1.0  -0.076
  C  C61  1  0.000000  0.255700  0.333333  1.0  0.149
  C  C62  1  0.000000  0.725700  0.333333  1.0  0.7089
  C  C63  1  0.000000  0.563000  0.333333  1.0  -0.0765
  C  C64  1  0.000000  0.282700  0.833330  1.0  0.1733
  C  C65  1  0.000000  0.752700  0.833330  1.0  0.7145
  C  C66  1  0.000000  0.589100  0.833330  1.0  -0.0769
  C  C67  1  0.282700  0.000000  0.500000  1.0  0.1737
  C  C68  1  0.752700  0.000000  0.500000  1.0  0.7135
  C  C69  1  0.589100  0.000000  0.500000  1.0  -0.0755
  C  C70  1  0.717300  0.717300  0.166670  1.0  0.1734
  C  C71  1  0.247300  0.247300  0.166670  1.0  0.7141
  C  C72  1  0.410900  0.410900  0.166670  1.0  -0.0768
  O  O73  1  0.301600  0.109600  0.900240  1.0  -0.5602
  O  O74  1  0.771000  0.959200  0.950480  1.0  -0.6371
  O  O75  1  0.083200  0.314600  0.936320  1.0  -0.5597
  O  O76  1  0.948100  0.791900  0.881410  1.0  -0.6267
  O  O77  1  0.808000  0.698400  0.566910  1.0  -0.5616
  O  O78  1  0.188200  0.229000  0.617150  1.0  -0.6359
  O  O79  1  0.231400  0.916800  0.602990  1.0  -0.5603
  O  O80  1  0.843800  0.051900  0.548080  1.0  -0.6292
  O  O81  1  0.890400  0.192000  0.233570  1.0  -0.5599
  O  O82  1  0.040800  0.811800  0.283810  1.0  -0.6354
  O  O83  1  0.685400  0.768600  0.269650  1.0  -0.5612
  O  O84  1  0.208100  0.156200  0.214740  1.0  -0.627
  O  O85  1  0.192000  0.890400  0.099760  1.0  -0.5609
  O  O86  1  0.811800  0.040800  0.049520  1.0  -0.6364
  O  O87  1  0.768600  0.685400  0.063680  1.0  -0.56
  O  O88  1  0.156200  0.208100  0.118590  1.0  -0.6272
  O  O89  1  0.109600  0.301600  0.433090  1.0  -0.5596
  O  O90  1  0.959200  0.771000  0.382850  1.0  -0.6344
  O  O91  1  0.314600  0.083200  0.397010  1.0  -0.5597
  O  O92  1  0.791900  0.948100  0.451920  1.0  -0.6296
  O  O93  1  0.698400  0.808000  0.766430  1.0  -0.5598
  O  O94  1  0.229000  0.188200  0.716190  1.0  -0.6343
  O  O95  1  0.916800  0.231400  0.730350  1.0  -0.5604
  O  O96  1  0.051900  0.843800  0.785260  1.0  -0.6277
  O  O97  1  0.109000  0.000000  0.000000  1.0  -0.6075
  O  O98  1  0.891000  0.891000  0.666667  1.0  -0.6086
  O  O99  1  0.000000  0.109000  0.333333  1.0  -0.6092
  O  O100  1  0.000000  0.135100  0.833330  1.0  -0.6206
  O  O101  1  0.135100  0.000000  0.500000  1.0  -0.6199
  O  O102  1  0.864900  0.864900  0.166670  1.0  -0.6205
