# generated using pymatgen
data_MnH4C7O5
_symmetry_space_group_name_H-M   'P 1'
_cell_length_a   9.05530000
_cell_length_b   9.05530000
_cell_length_c   10.88720000
_cell_angle_alpha   90.00000000
_cell_angle_beta   90.00000000
_cell_angle_gamma   120.00000000
_symmetry_Int_Tables_number   1
_chemical_formula_structural   MnH4C7O5
_chemical_formula_sum   'Mn3 H12 C21 O15'
_cell_volume   773.12998760
_cell_formula_units_Z   3
loop_
 _symmetry_equiv_pos_site_id
 _symmetry_equiv_pos_as_xyz
  1  'x, y, z'
loop_
 _atom_site_type_symbol
 _atom_site_label
 _atom_site_symmetry_multiplicity
 _atom_site_fract_x
 _atom_site_fract_y
 _atom_site_fract_z
 _atom_site_occupancy
 _atom_site_charge
  Mn  Mn1  1  0.030000  0.000000  0.500000  1.0  1.1121
  Mn  Mn2  1  0.970000  0.970000  0.833330  1.0  1.1119
  Mn  Mn3  1  0.000000  0.030000  0.166670  1.0  1.1117
  H  H4  1  0.374000  0.247000  0.597000  1.0  0.4514
  H  H5  1  0.588800  0.514500  0.510500  1.0  0.1237
  H  H6  1  0.873000  0.626000  0.930330  1.0  0.4508
  H  H7  1  0.925700  0.411200  0.843830  1.0  0.1241
  H  H8  1  0.753000  0.127000  0.263670  1.0  0.4524
  H  H9  1  0.485500  0.074300  0.177170  1.0  0.1241
  H  H10  1  0.127000  0.753000  0.403000  1.0  0.4518
  H  H11  1  0.074300  0.485500  0.489500  1.0  0.1228
  H  H12  1  0.247000  0.374000  0.069670  1.0  0.4519
  H  H13  1  0.514500  0.588800  0.156170  1.0  0.1232
  H  H14  1  0.626000  0.873000  0.736330  1.0  0.4518
  H  H15  1  0.411200  0.925700  0.822830  1.0  0.1231
  C  C16  1  0.372800  0.323500  0.437540  1.0  0.1976
  C  C17  1  0.523300  0.477200  0.439350  1.0  -0.2466
  C  C18  1  0.950700  0.627200  0.770870  1.0  0.1976
  C  C19  1  0.953900  0.476700  0.772680  1.0  -0.243
  C  C20  1  0.676500  0.049300  0.104210  1.0  0.1971
  C  C21  1  0.522800  0.046100  0.106020  1.0  -0.2478
  C  C22  1  0.049300  0.676500  0.562460  1.0  0.1963
  C  C23  1  0.046100  0.522800  0.560650  1.0  -0.2433
  C  C24  1  0.323500  0.372800  0.229130  1.0  0.1974
  C  C25  1  0.477200  0.523300  0.227320  1.0  -0.2402
  C  C26  1  0.627200  0.950700  0.895790  1.0  0.1962
  C  C27  1  0.476700  0.953900  0.893980  1.0  -0.2438
  C  C28  1  0.740200  0.740200  0.333333  1.0  0.6972
  C  C29  1  0.269300  0.269300  0.333333  1.0  0.1446
  C  C30  1  0.575500  0.575500  0.333333  1.0  -0.0642
  C  C31  1  0.000000  0.259800  0.666667  1.0  0.6969
  C  C32  1  0.000000  0.730700  0.666667  1.0  0.1452
  C  C33  1  0.000000  0.424500  0.666667  1.0  -0.0635
  C  C34  1  0.259800  0.000000  0.000000  1.0  0.697
  C  C35  1  0.730700  0.000000  0.000000  1.0  0.1461
  C  C36  1  0.424500  0.000000  0.000000  1.0  -0.0648
  O  O37  1  0.782700  0.827700  0.430510  1.0  -0.6348
  O  O38  1  0.309700  0.211300  0.534840  1.0  -0.5337
  O  O39  1  0.045000  0.217300  0.763840  1.0  -0.6336
  O  O40  1  0.901600  0.690300  0.868170  1.0  -0.5349
  O  O41  1  0.172300  0.955000  0.097180  1.0  -0.635
  O  O42  1  0.788700  0.098400  0.201510  1.0  -0.5298
  O  O43  1  0.955000  0.172300  0.569490  1.0  -0.6361
  O  O44  1  0.098400  0.788700  0.465160  1.0  -0.5321
  O  O45  1  0.827700  0.782700  0.236160  1.0  -0.6352
  O  O46  1  0.211300  0.309700  0.131830  1.0  -0.5322
  O  O47  1  0.217300  0.045000  0.902820  1.0  -0.6353
  O  O48  1  0.690300  0.901600  0.798490  1.0  -0.5297
  O  O49  1  0.122700  0.122700  0.333333  1.0  -0.6123
  O  O50  1  0.000000  0.877300  0.666667  1.0  -0.6121
  O  O51  1  0.877300  0.000000  0.000000  1.0  -0.6119
