# generated using pymatgen
data_NiH4C7O5
_symmetry_space_group_name_H-M   'P 1'
_cell_length_a   8.82400000
_cell_length_b   8.82400000
_cell_length_c   10.64400000
_cell_angle_alpha   90.00000000
_cell_angle_beta   90.00000000
_cell_angle_gamma   120.00000000
_symmetry_Int_Tables_number   1
_chemical_formula_structural   NiH4C7O5
_chemical_formula_sum   'Ni3 H12 C21 O15'
_cell_volume   717.73891931
_cell_formula_units_Z   3
loop_
 _symmetry_equiv_pos_site_id
 _symmetry_equiv_pos_as_xyz
  1  'x, y, z'
loop_
 _atom_site_type_symbol
 _atom_site_label
 _atom_site_symmetry_multiplicity
 _atom_site_fract_x
 _atom_site_fract_y
 _atom_site_fract_z
 _atom_site_occupancy
 _atom_site_charge
  Ni  Ni1  1  0.000000  0.958060  0.833330  1.0  1.0108
  Ni  Ni2  1  0.958060  0.000000  0.500000  1.0  1.01
  Ni  Ni3  1  0.041940  0.041940  0.166670  1.0  1.0116
  H  H4  1  0.211000  0.864000  0.729000  1.0  0.4688
  H  H5  1  0.512000  0.904000  0.831000  1.0  0.1279
  H  H6  1  0.653000  0.789000  0.395670  1.0  0.468
  H  H7  1  0.392000  0.488000  0.497670  1.0  0.1275
  H  H8  1  0.136000  0.347000  0.062330  1.0  0.4706
  H  H9  1  0.096000  0.608000  0.164330  1.0  0.1275
  H  H10  1  0.347000  0.136000  0.271000  1.0  0.4712
  H  H11  1  0.608000  0.096000  0.169000  1.0  0.1282
  H  H12  1  0.864000  0.211000  0.604330  1.0  0.4706
  H  H13  1  0.904000  0.512000  0.502330  1.0  0.1275
  H  H14  1  0.789000  0.653000  0.937670  1.0  0.4717
  H  H15  1  0.488000  0.392000  0.835670  1.0  0.1277
  C  C16  1  0.472800  0.944500  0.893300  1.0  -0.2333
  C  C17  1  0.314800  0.942600  0.894400  1.0  0.2225
  C  C18  1  0.471700  0.527200  0.559970  1.0  -0.2321
  C  C19  1  0.627800  0.685200  0.561070  1.0  0.2226
  C  C20  1  0.055500  0.528300  0.226630  1.0  -0.2311
  C  C21  1  0.057400  0.372200  0.227730  1.0  0.2236
  C  C22  1  0.528300  0.055500  0.106700  1.0  -0.2352
  C  C23  1  0.372200  0.057400  0.105600  1.0  0.2213
  C  C24  1  0.944500  0.472800  0.440030  1.0  -0.2358
  C  C25  1  0.942600  0.314800  0.438930  1.0  0.2221
  C  C26  1  0.527200  0.471700  0.773370  1.0  -0.2329
  C  C27  1  0.685200  0.627800  0.772270  1.0  0.2223
  C  C28  1  0.263300  0.000000  0.000000  1.0  0.1379
  C  C29  1  0.747400  0.000000  0.000000  1.0  0.6773
  C  C30  1  0.579100  0.000000  0.000000  1.0  -0.0814
  C  C31  1  0.736700  0.736700  0.666667  1.0  0.1369
  C  C32  1  0.252600  0.252600  0.666667  1.0  0.679
  C  C33  1  0.420900  0.420900  0.666667  1.0  -0.0802
  C  C34  1  0.000000  0.263300  0.333333  1.0  0.1367
  C  C35  1  0.000000  0.747400  0.333333  1.0  0.6798
  C  C36  1  0.000000  0.579100  0.333333  1.0  -0.0808
  O  O37  1  0.195900  0.885500  0.798200  1.0  -0.5485
  O  O38  1  0.829000  0.032100  0.896900  1.0  -0.6147
  O  O39  1  0.689600  0.804100  0.464870  1.0  -0.5483
  O  O40  1  0.203100  0.171000  0.563570  1.0  -0.6116
  O  O41  1  0.114500  0.310400  0.131530  1.0  -0.5491
  O  O42  1  0.967900  0.796900  0.230230  1.0  -0.6114
  O  O43  1  0.310400  0.114500  0.201800  1.0  -0.5471
  O  O44  1  0.796900  0.967900  0.103100  1.0  -0.6139
  O  O45  1  0.885500  0.195900  0.535130  1.0  -0.549
  O  O46  1  0.032100  0.829000  0.436430  1.0  -0.6113
  O  O47  1  0.804100  0.689600  0.868470  1.0  -0.5488
  O  O48  1  0.171000  0.203100  0.769770  1.0  -0.6111
  O  O49  1  0.113300  0.000000  0.000000  1.0  -0.5985
  O  O50  1  0.886700  0.886700  0.666667  1.0  -0.5982
  O  O51  1  0.000000  0.113300  0.333333  1.0  -0.5976
