# generated using pymatgen
data_ZnH5C8N3O4
_symmetry_space_group_name_H-M   'P 1'
_cell_length_a   9.57310000
_cell_length_b   9.57310000
_cell_length_c   16.38280000
_cell_angle_alpha   87.25800000
_cell_angle_beta   74.79770000
_cell_angle_gamma   117.99400000
_symmetry_Int_Tables_number   1
_chemical_formula_structural   ZnH5C8N3O4
_chemical_formula_sum   'Zn4 H20 C32 N12 O16'
_cell_volume   1253.32727087
_cell_formula_units_Z   4
loop_
 _symmetry_equiv_pos_site_id
 _symmetry_equiv_pos_as_xyz
  1  'x, y, z'
loop_
 _atom_site_type_symbol
 _atom_site_label
 _atom_site_symmetry_multiplicity
 _atom_site_fract_x
 _atom_site_fract_y
 _atom_site_fract_z
 _atom_site_occupancy
 _atom_site_charge
  Zn  Zn1  1  0.327750  0.440110  0.677900  1.0  0.997
  Zn  Zn2  1  0.618010  0.005650  0.822100  1.0  0.9922
  Zn  Zn3  1  0.672250  0.559890  0.322100  1.0  0.9954
  Zn  Zn4  1  0.381990  0.994350  0.177900  1.0  0.994
  H  H5  1  0.878700  0.795100  0.784600  1.0  0.0989
  H  H6  1  0.019300  0.859200  0.694500  1.0  0.1097
  H  H7  1  0.682000  0.461200  0.571800  1.0  0.0762
  H  H8  1  0.589600  0.659200  0.764400  1.0  0.1029
  H  H9  1  0.931700  0.258100  0.954800  1.0  0.1184
  H  H10  1  0.079700  0.663300  0.715400  1.0  0.0987
  H  H11  1  0.053700  0.713800  0.805500  1.0  0.1117
  H  H12  1  0.533000  0.253800  0.928200  1.0  0.0754
  H  H13  1  0.923600  0.354000  0.735600  1.0  0.1019
  H  H14  1  0.712900  0.886500  0.545200  1.0  0.1158
  H  H15  1  0.121300  0.204900  0.215400  1.0  0.0979
  H  H16  1  0.980700  0.140800  0.305500  1.0  0.1115
  H  H17  1  0.318000  0.538800  0.428200  1.0  0.0775
  H  H18  1  0.410400  0.340800  0.235600  1.0  0.1024
  H  H19  1  0.068300  0.741900  0.045200  1.0  0.1178
  H  H20  1  0.920300  0.336700  0.284600  1.0  0.0974
  H  H21  1  0.946300  0.286200  0.194500  1.0  0.1119
  H  H22  1  0.467000  0.746200  0.071800  1.0  0.0753
  H  H23  1  0.076400  0.646000  0.264400  1.0  0.1027
  H  H24  1  0.287100  0.113500  0.454800  1.0  0.1147
  C  C25  1  0.929000  0.762400  0.735400  1.0  -0.0023
  C  C26  1  0.696800  0.521600  0.614800  1.0  0.249
  C  C27  1  0.642900  0.627700  0.719400  1.0  0.1238
  C  C28  1  0.113100  0.489900  0.929200  1.0  -0.0679
  C  C29  1  0.155900  0.637000  0.956100  1.0  -0.1388
  C  C30  1  0.959500  0.355700  0.972800  1.0  -0.0961
  C  C31  1  0.223600  0.463000  0.854000  1.0  0.7202
  C  C32  1  0.321600  0.785800  0.913800  1.0  0.6668
  C  C33  1  0.997800  0.664400  0.764600  1.0  0.0026
  C  C34  1  0.636400  0.311600  0.885200  1.0  0.2513
  C  C35  1  0.847100  0.362300  0.780600  1.0  0.1279
  C  C36  1  0.919100  0.042300  0.570800  1.0  -0.0685
  C  C37  1  0.093100  0.112000  0.543900  1.0  -0.1373
  C  C38  1  0.828500  0.932300  0.527200  1.0  -0.0903
  C  C39  1  0.817000  0.077600  0.646000  1.0  0.7211
  C  C40  1  0.199600  0.235400  0.586200  1.0  0.6688
  C  C41  1  0.071000  0.237600  0.264600  1.0  -0.0032
  C  C42  1  0.303200  0.478400  0.385200  1.0  0.2485
  C  C43  1  0.357100  0.372300  0.280600  1.0  0.1242
  C  C44  1  0.886900  0.510100  0.070800  1.0  -0.0686
  C  C45  1  0.844100  0.363000  0.043900  1.0  -0.1386
  C  C46  1  0.040500  0.644300  0.027200  1.0  -0.0968
  C  C47  1  0.776400  0.537000  0.146000  1.0  0.7218
  C  C48  1  0.678400  0.214200  0.086200  1.0  0.6667
  C  C49  1  0.002200  0.335600  0.235400  1.0  0.0037
  C  C50  1  0.363600  0.688400  0.114800  1.0  0.2525
  C  C51  1  0.152900  0.637700  0.219400  1.0  0.1269
  C  C52  1  0.080900  0.957700  0.429200  1.0  -0.068
  C  C53  1  0.906900  0.888000  0.456100  1.0  -0.1398
  C  C54  1  0.171500  0.067700  0.472800  1.0  -0.0896
  C  C55  1  0.183000  0.922400  0.354000  1.0  0.7196
  C  C56  1  0.800400  0.764600  0.413800  1.0  0.6684
  N  N57  1  0.804600  0.671100  0.695100  1.0  0.1791
  N  N58  1  0.839800  0.601900  0.627700  1.0  -0.3689
  N  N59  1  0.570600  0.533200  0.669600  1.0  -0.4058
  N  N60  1  0.866200  0.499700  0.804900  1.0  0.1783
  N  N61  1  0.729600  0.467500  0.872300  1.0  -0.3736
  N  N62  1  0.702800  0.240200  0.830400  1.0  -0.4032
  N  N63  1  0.195400  0.328900  0.304900  1.0  0.1782
  N  N64  1  0.160200  0.398100  0.372300  1.0  -0.3703
  N  N65  1  0.429400  0.466800  0.330400  1.0  -0.4067
  N  N66  1  0.133800  0.500300  0.195100  1.0  0.1784
  N  N67  1  0.270400  0.532500  0.127700  1.0  -0.374
  N  N68  1  0.297200  0.759800  0.169600  1.0  -0.4044
  O  O69  1  0.215900  0.494900  0.781000  1.0  -0.5808
  O  O70  1  0.303100  0.400500  0.870200  1.0  -0.5609
  O  O71  1  0.429500  0.774300  0.854000  1.0  -0.5837
  O  O72  1  0.354500  0.917500  0.938000  1.0  -0.6379
  O  O73  1  0.775900  0.996900  0.719000  1.0  -0.5801
  O  O74  1  0.770700  0.173300  0.629800  1.0  -0.5637
  O  O75  1  0.128300  0.283500  0.646000  1.0  -0.5825
  O  O76  1  0.355500  0.292500  0.562000  1.0  -0.6424
  O  O77  1  0.784100  0.505100  0.219000  1.0  -0.5806
  O  O78  1  0.696900  0.599500  0.129800  1.0  -0.562
  O  O79  1  0.570500  0.225700  0.146000  1.0  -0.5829
  O  O80  1  0.645500  0.082500  0.062000  1.0  -0.6383
  O  O81  1  0.224100  0.003100  0.281000  1.0  -0.58
  O  O82  1  0.229300  0.826700  0.370200  1.0  -0.5632
  O  O83  1  0.871700  0.716500  0.354000  1.0  -0.5828
  O  O84  1  0.644500  0.707500  0.438000  1.0  -0.6403
