# generated using pymatgen
data_Zn3H68C76(N7O9)2
_symmetry_space_group_name_H-M   'P 1'
_cell_length_a   11.39200000
_cell_length_b   18.74300000
_cell_length_c   24.38600000
_cell_angle_alpha   90.00000000
_cell_angle_beta   90.00000000
_cell_angle_gamma   90.00000000
_symmetry_Int_Tables_number   1
_chemical_formula_structural   Zn3H68C76(N7O9)2
_chemical_formula_sum   'Zn6 H136 C152 N28 O36'
_cell_volume   5206.90496282
_cell_formula_units_Z   2
loop_
 _symmetry_equiv_pos_site_id
 _symmetry_equiv_pos_as_xyz
  1  'x, y, z'
loop_
 _atom_site_type_symbol
 _atom_site_label
 _atom_site_symmetry_multiplicity
 _atom_site_fract_x
 _atom_site_fract_y
 _atom_site_fract_z
 _atom_site_occupancy
 _atom_site_charge
  Zn  Zn1  1  0.533230  0.299070  0.517980  1.0  0.793
  Zn  Zn2  1  0.533230  0.700930  0.482020  1.0  0.7932
  Zn  Zn3  1  0.466770  0.200930  0.017980  1.0  0.7932
  Zn  Zn4  1  0.466770  0.799070  0.982020  1.0  0.793
  Zn  Zn5  1  0.537910  0.500000  0.500000  1.0  0.9424
  Zn  Zn6  1  0.462090  0.000000  0.000000  1.0  0.9415
  H  H7  1  0.574700  0.474500  0.644900  1.0  0.08
  H  H8  1  0.367900  0.405200  0.682200  1.0  0.1221
  H  H9  1  0.405100  0.484900  0.695200  1.0  0.1168
  H  H10  1  0.365300  0.463500  0.635200  1.0  0.1144
  H  H11  1  0.906700  0.390200  0.756400  1.0  0.1065
  H  H12  1  0.871000  0.216300  0.853700  1.0  0.1103
  H  H13  1  0.605800  0.277000  0.753400  1.0  0.1106
  H  H14  1  0.238400  0.463200  0.774900  1.0  0.1156
  H  H15  1  0.178900  0.472200  0.833200  1.0  0.1079
  H  H16  1  0.316500  0.461500  0.828600  1.0  0.111
  H  H17  1  0.235700  0.352200  0.855400  1.0  0.0856
  H  H18  1  0.307600  0.191700  0.843400  1.0  0.1236
  H  H19  1  0.330100  0.146900  0.789300  1.0  0.1314
  H  H20  1  0.284100  0.108400  0.843000  1.0  0.1174
  H  H21  1  0.486900  0.087200  0.830800  1.0  0.0789
  H  H22  1  0.124300  0.240100  0.450400  1.0  0.1196
  H  H23  1  0.323700  0.251900  0.449400  1.0  0.0751
  H  H24  1  0.323500  0.342500  0.592600  1.0  0.072
  H  H25  1  0.118600  0.340800  0.596100  1.0  0.1377
  H  H26  1  0.944800  0.268200  0.599900  1.0  0.1192
  H  H27  1  0.739700  0.271700  0.598500  1.0  0.0946
  H  H28  1  0.747500  0.329100  0.443800  1.0  0.07
  H  H29  1  0.946200  0.318600  0.439600  1.0  0.1361
  H  H30  1  0.493800  0.167000  0.587100  1.0  0.0924
  H  H31  1  0.503000  0.045400  0.581500  1.0  0.1212
  H  H32  1  0.593900  0.063600  0.424700  1.0  0.1257
  H  H33  1  0.588100  0.185700  0.435700  1.0  0.0785
  H  H34  1  0.745800  0.480900  0.578500  1.0  0.0764
  H  H35  1  0.944300  0.484600  0.581500  1.0  0.1242
  H  H36  1  0.128200  0.558500  0.568400  1.0  0.1243
  H  H37  1  0.328500  0.557600  0.567100  1.0  0.0736
  H  H38  1  0.545500  0.377800  0.725400  1.0  0.2886
  H  H39  1  0.081900  0.362300  0.767400  1.0  0.2893
  H  H40  1  0.506300  0.228100  0.814300  1.0  0.297
  H  H41  1  0.574700  0.525500  0.355100  1.0  0.0792
  H  H42  1  0.367900  0.594800  0.317800  1.0  0.1217
  H  H43  1  0.405100  0.515100  0.304800  1.0  0.1174
  H  H44  1  0.365300  0.536500  0.364800  1.0  0.1147
  H  H45  1  0.906700  0.609800  0.243600  1.0  0.1073
  H  H46  1  0.871000  0.783700  0.146300  1.0  0.1104
  H  H47  1  0.605800  0.723000  0.246600  1.0  0.1105
  H  H48  1  0.238400  0.536800  0.225100  1.0  0.1155
  H  H49  1  0.178900  0.527800  0.166800  1.0  0.1079
  H  H50  1  0.316500  0.538500  0.171400  1.0  0.1108
  H  H51  1  0.235700  0.647800  0.144600  1.0  0.0856
  H  H52  1  0.307600  0.808300  0.156600  1.0  0.1233
  H  H53  1  0.330100  0.853100  0.210700  1.0  0.1312
  H  H54  1  0.284100  0.891600  0.157000  1.0  0.1174
  H  H55  1  0.486900  0.912800  0.169200  1.0  0.0792
  H  H56  1  0.124300  0.759900  0.549600  1.0  0.1193
  H  H57  1  0.323700  0.748100  0.550600  1.0  0.0749
  H  H58  1  0.323500  0.657500  0.407400  1.0  0.0708
  H  H59  1  0.118600  0.659200  0.403900  1.0  0.1365
  H  H60  1  0.944800  0.731800  0.400100  1.0  0.1182
  H  H61  1  0.739700  0.728300  0.401500  1.0  0.0954
  H  H62  1  0.747500  0.670900  0.556200  1.0  0.0701
  H  H63  1  0.946200  0.681400  0.560400  1.0  0.1352
  H  H64  1  0.493800  0.833000  0.412900  1.0  0.0934
  H  H65  1  0.503000  0.954600  0.418500  1.0  0.121
  H  H66  1  0.593900  0.936400  0.575300  1.0  0.1256
  H  H67  1  0.588100  0.814300  0.564300  1.0  0.0783
  H  H68  1  0.745800  0.519100  0.421500  1.0  0.0771
  H  H69  1  0.944300  0.515400  0.418500  1.0  0.1253
  H  H70  1  0.128200  0.441500  0.431600  1.0  0.1237
  H  H71  1  0.328500  0.442400  0.432900  1.0  0.0741
  H  H72  1  0.545500  0.622200  0.274600  1.0  0.289
  H  H73  1  0.081900  0.637700  0.232600  1.0  0.2897
  H  H74  1  0.506300  0.771900  0.185700  1.0  0.2965
  H  H75  1  0.425300  0.025500  0.144900  1.0  0.0805
  H  H76  1  0.632100  0.094800  0.182200  1.0  0.1217
  H  H77  1  0.594900  0.015100  0.195200  1.0  0.1175
  H  H78  1  0.634700  0.036500  0.135200  1.0  0.115
  H  H79  1  0.093300  0.109800  0.256400  1.0  0.1072
  H  H80  1  0.129000  0.283700  0.353700  1.0  0.1108
  H  H81  1  0.394200  0.223000  0.253400  1.0  0.1107
  H  H82  1  0.761600  0.036800  0.274900  1.0  0.1157
  H  H83  1  0.821100  0.027800  0.333200  1.0  0.1087
  H  H84  1  0.683500  0.038500  0.328600  1.0  0.1095
  H  H85  1  0.764300  0.147800  0.355400  1.0  0.0854
  H  H86  1  0.692400  0.308300  0.343400  1.0  0.1235
  H  H87  1  0.669900  0.353100  0.289300  1.0  0.1329
  H  H88  1  0.715900  0.391600  0.343000  1.0  0.1173
  H  H89  1  0.513100  0.412800  0.330800  1.0  0.0788
  H  H90  1  0.875700  0.259900  0.950400  1.0  0.1197
  H  H91  1  0.676300  0.248100  0.949400  1.0  0.0747
  H  H92  1  0.676500  0.157500  0.092600  1.0  0.0717
  H  H93  1  0.881400  0.159200  0.096100  1.0  0.1377
  H  H94  1  0.055200  0.231800  0.099900  1.0  0.1192
  H  H95  1  0.260300  0.228300  0.098500  1.0  0.0948
  H  H96  1  0.252500  0.170900  0.943800  1.0  0.0707
  H  H97  1  0.053800  0.181400  0.939600  1.0  0.1364
  H  H98  1  0.506200  0.333000  0.087100  1.0  0.0923
  H  H99  1  0.497000  0.454600  0.081500  1.0  0.1216
  H  H100  1  0.406100  0.436400  0.924700  1.0  0.1257
  H  H101  1  0.411900  0.314300  0.935700  1.0  0.0787
  H  H102  1  0.254200  0.019100  0.078500  1.0  0.0766
  H  H103  1  0.055700  0.015400  0.081500  1.0  0.1244
  H  H104  1  0.871800  0.941500  0.068400  1.0  0.1241
  H  H105  1  0.671500  0.942400  0.067100  1.0  0.0741
  H  H106  1  0.454500  0.122200  0.225400  1.0  0.2884
  H  H107  1  0.918100  0.137700  0.267400  1.0  0.2884
  H  H108  1  0.493700  0.271900  0.314300  1.0  0.297
  H  H109  1  0.425300  0.974500  0.855100  1.0  0.0783
  H  H110  1  0.632100  0.905200  0.817800  1.0  0.1226
  H  H111  1  0.594900  0.984900  0.804800  1.0  0.1181
  H  H112  1  0.634700  0.963500  0.864800  1.0  0.1162
  H  H113  1  0.093300  0.890200  0.743600  1.0  0.1066
  H  H114  1  0.129000  0.716300  0.646300  1.0  0.1097
  H  H115  1  0.394200  0.777000  0.746600  1.0  0.1112
  H  H116  1  0.761600  0.963200  0.725100  1.0  0.1147
  H  H117  1  0.821100  0.972200  0.666800  1.0  0.1081
  H  H118  1  0.683500  0.961500  0.671400  1.0  0.1095
  H  H119  1  0.764300  0.852200  0.644600  1.0  0.0862
  H  H120  1  0.692400  0.691700  0.656600  1.0  0.1227
  H  H121  1  0.669900  0.646900  0.710700  1.0  0.1313
  H  H122  1  0.715900  0.608400  0.657000  1.0  0.1177
  H  H123  1  0.513100  0.587200  0.669200  1.0  0.0799
  H  H124  1  0.875700  0.740100  0.049600  1.0  0.1201
  H  H125  1  0.676300  0.751900  0.050600  1.0  0.075
  H  H126  1  0.676500  0.842500  0.907400  1.0  0.0711
  H  H127  1  0.881400  0.840800  0.903900  1.0  0.1363
  H  H128  1  0.055200  0.768200  0.900100  1.0  0.1185
  H  H129  1  0.260300  0.771700  0.901500  1.0  0.0954
  H  H130  1  0.252500  0.829100  0.056200  1.0  0.0705
  H  H131  1  0.053800  0.818600  0.060400  1.0  0.1352
  H  H132  1  0.506200  0.667000  0.912900  1.0  0.0931
  H  H133  1  0.497000  0.545400  0.918500  1.0  0.122
  H  H134  1  0.406100  0.563600  0.075300  1.0  0.1268
  H  H135  1  0.411900  0.685700  0.064300  1.0  0.0776
  H  H136  1  0.254200  0.980900  0.921500  1.0  0.077
  H  H137  1  0.055700  0.984600  0.918500  1.0  0.1253
  H  H138  1  0.871800  0.058500  0.931600  1.0  0.1235
  H  H139  1  0.671500  0.057600  0.932900  1.0  0.0745
  H  H140  1  0.454500  0.877800  0.774600  1.0  0.2894
  H  H141  1  0.918100  0.862300  0.732600  1.0  0.2879
  H  H142  1  0.493700  0.728100  0.685700  1.0  0.2965
  C  C143  1  0.535000  0.381300  0.603000  1.0  0.6178
  C  C144  1  0.532100  0.429800  0.653300  1.0  0.0819
  C  C145  1  0.406300  0.447400  0.667800  1.0  -0.3531
  C  C146  1  0.706000  0.386300  0.702400  1.0  0.5332
  C  C147  1  0.750700  0.339600  0.746900  1.0  -0.0913
  C  C148  1  0.861900  0.351100  0.768500  1.0  -0.0751
  C  C149  1  0.906700  0.305800  0.807300  1.0  -0.1093
  C  C150  1  0.839800  0.247700  0.827400  1.0  -0.0289
  C  C151  1  0.727100  0.238400  0.807300  1.0  -0.1063
  C  C152  1  0.682200  0.283900  0.767000  1.0  -0.0427
  C  C153  1  0.028800  0.317400  0.831600  1.0  0.5906
  C  C154  1  0.241200  0.448500  0.813000  1.0  -0.3512
  C  C155  1  0.224700  0.367000  0.816700  1.0  0.0691
  C  C156  1  0.317800  0.329900  0.781500  1.0  0.6343
  C  C157  1  0.653300  0.180100  0.830200  1.0  0.5311
  C  C158  1  0.334000  0.146200  0.829100  1.0  -0.3513
  C  C159  1  0.460300  0.132900  0.847000  1.0  0.0715
  C  C160  1  0.463700  0.125800  0.909600  1.0  0.6415
  C  C161  1  0.162300  0.263600  0.479500  1.0  -0.2037
  C  C162  1  0.282400  0.268600  0.480100  1.0  0.1671
  C  C163  1  0.282300  0.322200  0.563000  1.0  0.1822
  C  C164  1  0.158600  0.322000  0.565700  1.0  -0.2102
  C  C165  1  0.097700  0.292600  0.521100  1.0  0.1082
  C  C166  1  0.967900  0.294400  0.522200  1.0  0.0995
  C  C167  1  0.905700  0.280100  0.567200  1.0  -0.1862
  C  C168  1  0.781800  0.282600  0.566400  1.0  0.1682
  C  C169  1  0.787900  0.314900  0.475600  1.0  0.172
  C  C170  1  0.906100  0.310900  0.472700  1.0  -0.1837
  C  C171  1  0.515100  0.146100  0.553500  1.0  0.1594
  C  C172  1  0.519900  0.072700  0.550200  1.0  -0.2041
  C  C173  1  0.548600  0.038900  0.502700  1.0  0.1037
  C  C174  1  0.573700  0.083100  0.458900  1.0  -0.1951
  C  C175  1  0.568800  0.156600  0.465700  1.0  0.1692
  C  C176  1  0.787300  0.489400  0.545800  1.0  0.1785
  C  C177  1  0.906000  0.490400  0.547700  1.0  -0.2059
  C  C178  1  0.167400  0.534200  0.540000  1.0  -0.2047
  C  C179  1  0.287800  0.533500  0.539100  1.0  0.1765
  C  C180  1  0.535000  0.618700  0.397000  1.0  0.6159
  C  C181  1  0.532100  0.570200  0.346700  1.0  0.081
  C  C182  1  0.406300  0.552600  0.332200  1.0  -0.3537
  C  C183  1  0.706000  0.613700  0.297600  1.0  0.5343
  C  C184  1  0.750700  0.660400  0.253100  1.0  -0.0915
  C  C185  1  0.861900  0.648900  0.231500  1.0  -0.0725
  C  C186  1  0.906700  0.694200  0.192700  1.0  -0.109
  C  C187  1  0.839800  0.752300  0.172600  1.0  -0.0294
  C  C188  1  0.727100  0.761600  0.192700  1.0  -0.1064
  C  C189  1  0.682200  0.716100  0.233000  1.0  -0.0424
  C  C190  1  0.028800  0.682600  0.168400  1.0  0.5934
  C  C191  1  0.241200  0.551500  0.187000  1.0  -0.3507
  C  C192  1  0.224700  0.633000  0.183300  1.0  0.0703
  C  C193  1  0.317800  0.670100  0.218500  1.0  0.6332
  C  C194  1  0.653300  0.819900  0.169800  1.0  0.5298
  C  C195  1  0.334000  0.853800  0.170900  1.0  -0.3506
  C  C196  1  0.460300  0.867100  0.153000  1.0  0.0716
  C  C197  1  0.463700  0.874200  0.090400  1.0  0.6432
  C  C198  1  0.162300  0.736400  0.520500  1.0  -0.2029
  C  C199  1  0.282400  0.731400  0.519900  1.0  0.1667
  C  C200  1  0.282300  0.677800  0.437000  1.0  0.1818
  C  C201  1  0.158600  0.678000  0.434300  1.0  -0.2095
  C  C202  1  0.097700  0.707400  0.478900  1.0  0.1088
  C  C203  1  0.967900  0.705600  0.477800  1.0  0.0987
  C  C204  1  0.905700  0.719900  0.432800  1.0  -0.186
  C  C205  1  0.781800  0.717400  0.433600  1.0  0.1677
  C  C206  1  0.787900  0.685100  0.524400  1.0  0.1716
  C  C207  1  0.906100  0.689100  0.527300  1.0  -0.1808
  C  C208  1  0.515100  0.853900  0.446500  1.0  0.1592
  C  C209  1  0.519900  0.927300  0.449800  1.0  -0.2024
  C  C210  1  0.548600  0.961100  0.497300  1.0  0.104
  C  C211  1  0.573700  0.916900  0.541100  1.0  -0.1962
  C  C212  1  0.568800  0.843400  0.534300  1.0  0.1697
  C  C213  1  0.787300  0.510600  0.454200  1.0  0.1793
  C  C214  1  0.906000  0.509600  0.452300  1.0  -0.2063
  C  C215  1  0.167400  0.465800  0.460000  1.0  -0.2036
  C  C216  1  0.287800  0.466500  0.460900  1.0  0.1754
  C  C217  1  0.465000  0.118700  0.103000  1.0  0.6175
  C  C218  1  0.467900  0.070200  0.153300  1.0  0.0815
  C  C219  1  0.593700  0.052600  0.167800  1.0  -0.3523
  C  C220  1  0.294000  0.113700  0.202400  1.0  0.5318
  C  C221  1  0.249300  0.160400  0.246900  1.0  -0.0919
  C  C222  1  0.138100  0.148900  0.268500  1.0  -0.0732
  C  C223  1  0.093300  0.194200  0.307300  1.0  -0.1091
  C  C224  1  0.160200  0.252300  0.327400  1.0  -0.0306
  C  C225  1  0.272900  0.261600  0.307300  1.0  -0.1062
  C  C226  1  0.317800  0.216100  0.267000  1.0  -0.0419
  C  C227  1  0.971200  0.182600  0.331600  1.0  0.5917
  C  C228  1  0.758800  0.051500  0.313000  1.0  -0.3509
  C  C229  1  0.775300  0.133000  0.316700  1.0  0.0686
  C  C230  1  0.682200  0.170100  0.281500  1.0  0.6332
  C  C231  1  0.346700  0.319900  0.330200  1.0  0.5301
  C  C232  1  0.666000  0.353800  0.329100  1.0  -0.3508
  C  C233  1  0.539700  0.367100  0.347000  1.0  0.0708
  C  C234  1  0.536300  0.374200  0.409600  1.0  0.6416
  C  C235  1  0.837700  0.236400  0.979500  1.0  -0.2034
  C  C236  1  0.717600  0.231400  0.980100  1.0  0.1672
  C  C237  1  0.717700  0.177800  0.063000  1.0  0.1816
  C  C238  1  0.841400  0.178000  0.065700  1.0  -0.2089
  C  C239  1  0.902300  0.207400  0.021100  1.0  0.1091
  C  C240  1  0.032100  0.205600  0.022200  1.0  0.0985
  C  C241  1  0.094300  0.219900  0.067200  1.0  -0.1859
  C  C242  1  0.218200  0.217400  0.066400  1.0  0.1672
  C  C243  1  0.212100  0.185100  0.975600  1.0  0.1722
  C  C244  1  0.093900  0.189100  0.972700  1.0  -0.1829
  C  C245  1  0.484900  0.353900  0.053500  1.0  0.1596
  C  C246  1  0.480100  0.427300  0.050200  1.0  -0.2036
  C  C247  1  0.451400  0.461100  0.002700  1.0  0.1031
  C  C248  1  0.426300  0.416900  0.958900  1.0  -0.1958
  C  C249  1  0.431200  0.343400  0.965700  1.0  0.1679
  C  C250  1  0.212700  0.010600  0.045800  1.0  0.1794
  C  C251  1  0.094000  0.009600  0.047700  1.0  -0.2052
  C  C252  1  0.832600  0.965800  0.040000  1.0  -0.2052
  C  C253  1  0.712200  0.966500  0.039100  1.0  0.1766
  C  C254  1  0.465000  0.881300  0.897000  1.0  0.6162
  C  C255  1  0.467900  0.929800  0.846700  1.0  0.0811
  C  C256  1  0.593700  0.947400  0.832200  1.0  -0.3526
  C  C257  1  0.294000  0.886300  0.797600  1.0  0.5314
  C  C258  1  0.249300  0.839600  0.753100  1.0  -0.0918
  C  C259  1  0.138100  0.851100  0.731500  1.0  -0.0781
  C  C260  1  0.093300  0.805800  0.692700  1.0  -0.1097
  C  C261  1  0.160200  0.747700  0.672600  1.0  -0.0292
  C  C262  1  0.272900  0.738400  0.692700  1.0  -0.1061
  C  C263  1  0.317800  0.783900  0.733000  1.0  -0.0412
  C  C264  1  0.971200  0.817400  0.668400  1.0  0.5967
  C  C265  1  0.758800  0.948500  0.687000  1.0  -0.3516
  C  C266  1  0.775300  0.867000  0.683300  1.0  0.0694
  C  C267  1  0.682200  0.829900  0.718500  1.0  0.634
  C  C268  1  0.346700  0.680100  0.669800  1.0  0.5292
  C  C269  1  0.666000  0.646200  0.670900  1.0  -0.3508
  C  C270  1  0.539700  0.632900  0.653000  1.0  0.0704
  C  C271  1  0.536300  0.625800  0.590400  1.0  0.6432
  C  C272  1  0.837700  0.763600  0.020500  1.0  -0.2034
  C  C273  1  0.717600  0.768600  0.019900  1.0  0.1678
  C  C274  1  0.717700  0.822200  0.937000  1.0  0.1821
  C  C275  1  0.841400  0.822000  0.934300  1.0  -0.2084
  C  C276  1  0.902300  0.792600  0.978900  1.0  0.1074
  C  C277  1  0.032100  0.794400  0.977800  1.0  0.0993
  C  C278  1  0.094300  0.780100  0.932800  1.0  -0.1837
  C  C279  1  0.218200  0.782600  0.933600  1.0  0.168
  C  C280  1  0.212100  0.814900  0.024400  1.0  0.1709
  C  C281  1  0.093900  0.810900  0.027300  1.0  -0.1826
  C  C282  1  0.484900  0.646100  0.946500  1.0  0.1592
  C  C283  1  0.480100  0.572700  0.949800  1.0  -0.2039
  C  C284  1  0.451400  0.538900  0.997300  1.0  0.1031
  C  C285  1  0.426300  0.583100  0.041100  1.0  -0.196
  C  C286  1  0.431200  0.656600  0.034300  1.0  0.1686
  C  C287  1  0.212700  0.989400  0.954200  1.0  0.1799
  C  C288  1  0.094000  0.990400  0.952300  1.0  -0.2054
  C  C289  1  0.832600  0.034200  0.960000  1.0  -0.2047
  C  C290  1  0.712200  0.033500  0.960900  1.0  0.1755
  C  C291  1  0.972300  0.500000  0.500000  1.0  0.0971
  C  C292  1  0.102400  0.500000  0.500000  1.0  0.0895
  C  C293  1  0.027700  0.000000  0.000000  1.0  0.0962
  C  C294  1  0.897600  0.000000  0.000000  1.0  0.0906
  N  N295  1  0.589000  0.394500  0.699000  1.0  -0.4164
  N  N296  1  0.104300  0.349900  0.800200  1.0  -0.4048
  N  N297  1  0.535900  0.189000  0.827600  1.0  -0.4092
  N  N298  1  0.344500  0.295800  0.521800  1.0  -0.3242
  N  N299  1  0.722900  0.300100  0.520600  1.0  -0.3196
  N  N300  1  0.538500  0.187800  0.512200  1.0  -0.3035
  N  N301  1  0.589000  0.605500  0.301000  1.0  -0.4154
  N  N302  1  0.104300  0.650100  0.199800  1.0  -0.4047
  N  N303  1  0.535900  0.811000  0.172400  1.0  -0.4099
  N  N304  1  0.344500  0.704200  0.478200  1.0  -0.3253
  N  N305  1  0.722900  0.699900  0.479400  1.0  -0.3195
  N  N306  1  0.538500  0.812200  0.487800  1.0  -0.3044
  N  N307  1  0.411000  0.105500  0.199000  1.0  -0.4166
  N  N308  1  0.895700  0.150100  0.300200  1.0  -0.4046
  N  N309  1  0.464100  0.311000  0.327600  1.0  -0.4108
  N  N310  1  0.655500  0.204200  0.021800  1.0  -0.3243
  N  N311  1  0.277100  0.199900  0.020600  1.0  -0.3197
  N  N312  1  0.461500  0.312200  0.012200  1.0  -0.3035
  N  N313  1  0.411000  0.894500  0.801000  1.0  -0.4158
  N  N314  1  0.895700  0.849900  0.699800  1.0  -0.4051
  N  N315  1  0.464100  0.689000  0.672400  1.0  -0.4092
  N  N316  1  0.655500  0.795800  0.978200  1.0  -0.3239
  N  N317  1  0.277100  0.800100  0.979400  1.0  -0.3194
  N  N318  1  0.461500  0.687800  0.987800  1.0  -0.3038
  N  N319  1  0.727000  0.500000  0.500000  1.0  -0.3384
  N  N320  1  0.350400  0.500000  0.500000  1.0  -0.3319
  N  N321  1  0.273000  0.000000  0.000000  1.0  -0.3384
  N  N322  1  0.649600  0.000000  0.000000  1.0  -0.3329
  O  O323  1  0.533000  0.408300  0.554560  1.0  -0.6175
  O  O324  1  0.536300  0.314600  0.607770  1.0  -0.5689
  O  O325  1  0.773000  0.414200  0.668600  1.0  -0.5566
  O  O326  1  0.283900  0.294500  0.740500  1.0  -0.652
  O  O327  1  0.421700  0.335000  0.795700  1.0  -0.6592
  O  O328  1  0.052100  0.296700  0.877500  1.0  -0.5498
  O  O329  1  0.474900  0.182000  0.936630  1.0  -0.5774
  O  O330  1  0.454000  0.064100  0.929580  1.0  -0.5993
  O  O331  1  0.696900  0.126600  0.851600  1.0  -0.5565
  O  O332  1  0.533000  0.591700  0.445440  1.0  -0.6181
  O  O333  1  0.536300  0.685400  0.392230  1.0  -0.5699
  O  O334  1  0.773000  0.585800  0.331400  1.0  -0.557
  O  O335  1  0.283900  0.705500  0.259500  1.0  -0.664
  O  O336  1  0.421700  0.665000  0.204300  1.0  -0.6603
  O  O337  1  0.052100  0.703300  0.122500  1.0  -0.5521
  O  O338  1  0.474900  0.818000  0.063370  1.0  -0.5772
  O  O339  1  0.454000  0.935900  0.070420  1.0  -0.5995
  O  O340  1  0.696900  0.873400  0.148400  1.0  -0.557
  O  O341  1  0.467000  0.091700  0.054560  1.0  -0.6188
  O  O342  1  0.463700  0.185400  0.107770  1.0  -0.5699
  O  O343  1  0.227000  0.085800  0.168600  1.0  -0.5571
  O  O344  1  0.716100  0.205500  0.240500  1.0  -0.6612
  O  O345  1  0.578300  0.165000  0.295700  1.0  -0.6595
  O  O346  1  0.947900  0.203300  0.377500  1.0  -0.552
  O  O347  1  0.525100  0.318000  0.436630  1.0  -0.5767
  O  O348  1  0.546000  0.435900  0.429580  1.0  -0.5984
  O  O349  1  0.303100  0.373400  0.351600  1.0  -0.5561
  O  O350  1  0.467000  0.908300  0.945440  1.0  -0.6176
  O  O351  1  0.463700  0.814600  0.892230  1.0  -0.5691
  O  O352  1  0.227000  0.914200  0.831400  1.0  -0.557
  O  O353  1  0.716100  0.794500  0.759500  1.0  -0.6598
  O  O354  1  0.578300  0.835000  0.704300  1.0  -0.6596
  O  O355  1  0.947900  0.796700  0.622500  1.0  -0.5515
  O  O356  1  0.525100  0.682000  0.563370  1.0  -0.5775
  O  O357  1  0.546000  0.564100  0.570420  1.0  -0.5975
  O  O358  1  0.303100  0.626600  0.648400  1.0  -0.5561
