# generated using pymatgen
data_Sm2Cu3H24(C4O5)6
_symmetry_space_group_name_H-M   'P 1'
_cell_length_a   14.86500000
_cell_length_b   14.98300000
_cell_length_c   14.98300000
_cell_angle_alpha   120.00000000
_cell_angle_beta   90.00000000
_cell_angle_gamma   90.00000000
_symmetry_Int_Tables_number   1
_chemical_formula_structural   Sm2Cu3H24(C4O5)6
_chemical_formula_sum   'Sm4 Cu6 H48 C48 O60'
_cell_volume   2889.96846807
_cell_formula_units_Z   2
loop_
 _symmetry_equiv_pos_site_id
 _symmetry_equiv_pos_as_xyz
  1  'x, y, z'
loop_
 _atom_site_type_symbol
 _atom_site_label
 _atom_site_symmetry_multiplicity
 _atom_site_fract_x
 _atom_site_fract_y
 _atom_site_fract_z
 _atom_site_occupancy
 _atom_site_charge
  Sm  Sm1  1  0.750000  0.333333  0.666667  1.0  2.2163
  Sm  Sm2  1  0.750000  0.666667  0.333333  1.0  2.2163
  Sm  Sm3  1  0.250000  0.666667  0.333333  1.0  2.2163
  Sm  Sm4  1  0.250000  0.333333  0.666667  1.0  2.2163
  Cu  Cu5  1  0.000000  0.500000  0.500000  1.0  1.0567
  Cu  Cu6  1  0.000000  0.000000  0.500000  1.0  1.0567
  Cu  Cu7  1  0.000000  0.500000  0.000000  1.0  1.0567
  Cu  Cu8  1  0.500000  0.000000  0.500000  1.0  1.0567
  Cu  Cu9  1  0.500000  0.500000  0.500000  1.0  1.0567
  Cu  Cu10  1  0.500000  0.500000  0.000000  1.0  1.0567
  H  H11  1  0.839100  0.632600  0.790500  1.0  0.0964
  H  H12  1  0.762700  0.624200  0.714100  1.0  0.0831
  H  H13  1  0.839100  0.157900  0.367400  1.0  0.0976
  H  H14  1  0.762700  0.089900  0.375800  1.0  0.0824
  H  H15  1  0.839100  0.209500  0.842100  1.0  0.0973
  H  H16  1  0.762700  0.285900  0.910100  1.0  0.0829
  H  H17  1  0.839100  0.367400  0.209500  1.0  0.0965
  H  H18  1  0.762700  0.375800  0.285900  1.0  0.0831
  H  H19  1  0.839100  0.842100  0.632600  1.0  0.0967
  H  H20  1  0.762700  0.910100  0.624200  1.0  0.0829
  H  H21  1  0.839100  0.790500  0.157900  1.0  0.0971
  H  H22  1  0.762700  0.714100  0.089900  1.0  0.0826
  H  H23  1  0.660900  0.842100  0.209500  1.0  0.0974
  H  H24  1  0.737300  0.910100  0.285900  1.0  0.0829
  H  H25  1  0.660900  0.790500  0.632600  1.0  0.0977
  H  H26  1  0.737300  0.714100  0.624200  1.0  0.0831
  H  H27  1  0.660900  0.367400  0.157900  1.0  0.0969
  H  H28  1  0.737300  0.375800  0.089900  1.0  0.0834
  H  H29  1  0.660900  0.157900  0.790500  1.0  0.0977
  H  H30  1  0.737300  0.089900  0.714100  1.0  0.0834
  H  H31  1  0.660900  0.209500  0.367400  1.0  0.0967
  H  H32  1  0.737300  0.285900  0.375800  1.0  0.0828
  H  H33  1  0.660900  0.632600  0.842100  1.0  0.097
  H  H34  1  0.737300  0.624200  0.910100  1.0  0.0832
  H  H35  1  0.160900  0.367400  0.209500  1.0  0.0967
  H  H36  1  0.237300  0.375800  0.285900  1.0  0.0835
  H  H37  1  0.160900  0.842100  0.632600  1.0  0.0976
  H  H38  1  0.237300  0.910100  0.624200  1.0  0.0829
  H  H39  1  0.160900  0.790500  0.157900  1.0  0.0974
  H  H40  1  0.237300  0.714100  0.089900  1.0  0.0826
  H  H41  1  0.160900  0.632600  0.790500  1.0  0.097
  H  H42  1  0.237300  0.624200  0.714100  1.0  0.0831
  H  H43  1  0.160900  0.157900  0.367400  1.0  0.0972
  H  H44  1  0.237300  0.089900  0.375800  1.0  0.0827
  H  H45  1  0.160900  0.209500  0.842100  1.0  0.0975
  H  H46  1  0.237300  0.285900  0.910100  1.0  0.0837
  H  H47  1  0.339100  0.157900  0.790500  1.0  0.0968
  H  H48  1  0.262700  0.089900  0.714100  1.0  0.0828
  H  H49  1  0.339100  0.209500  0.367400  1.0  0.0969
  H  H50  1  0.262700  0.285900  0.375800  1.0  0.0824
  H  H51  1  0.339100  0.632600  0.842100  1.0  0.0966
  H  H52  1  0.262700  0.624200  0.910100  1.0  0.0832
  H  H53  1  0.339100  0.842100  0.209500  1.0  0.098
  H  H54  1  0.262700  0.910100  0.285900  1.0  0.083
  H  H55  1  0.339100  0.790500  0.632600  1.0  0.0969
  H  H56  1  0.262700  0.714100  0.624200  1.0  0.0826
  H  H57  1  0.339100  0.367400  0.157900  1.0  0.0965
  H  H58  1  0.262700  0.375800  0.089900  1.0  0.0831
  C  C59  1  0.860000  0.514000  0.643500  1.0  0.7221
  C  C60  1  0.801700  0.584700  0.733500  1.0  -0.0512
  C  C61  1  0.860000  0.129500  0.486000  1.0  0.7224
  C  C62  1  0.801700  0.148800  0.415300  1.0  -0.0503
  C  C63  1  0.860000  0.356500  0.870500  1.0  0.7218
  C  C64  1  0.801700  0.266500  0.851200  1.0  -0.0503
  C  C65  1  0.860000  0.486000  0.356500  1.0  0.723
  C  C66  1  0.801700  0.415300  0.266500  1.0  -0.051
  C  C67  1  0.860000  0.870500  0.514000  1.0  0.7224
  C  C68  1  0.801700  0.851200  0.584700  1.0  -0.0512
  C  C69  1  0.860000  0.643500  0.129500  1.0  0.7219
  C  C70  1  0.801700  0.733500  0.148800  1.0  -0.0522
  C  C71  1  0.640000  0.870500  0.356500  1.0  0.7227
  C  C72  1  0.698300  0.851200  0.266500  1.0  -0.0505
  C  C73  1  0.640000  0.643500  0.514000  1.0  0.7216
  C  C74  1  0.698300  0.733500  0.584700  1.0  -0.05
  C  C75  1  0.640000  0.486000  0.129500  1.0  0.7229
  C  C76  1  0.698300  0.415300  0.148800  1.0  -0.0512
  C  C77  1  0.640000  0.129500  0.643500  1.0  0.7224
  C  C78  1  0.698300  0.148800  0.733500  1.0  -0.0509
  C  C79  1  0.640000  0.356500  0.486000  1.0  0.7221
  C  C80  1  0.698300  0.266500  0.415300  1.0  -0.0513
  C  C81  1  0.640000  0.514000  0.870500  1.0  0.7227
  C  C82  1  0.698300  0.584700  0.851200  1.0  -0.0506
  C  C83  1  0.140000  0.486000  0.356500  1.0  0.7229
  C  C84  1  0.198300  0.415300  0.266500  1.0  -0.0514
  C  C85  1  0.140000  0.870500  0.514000  1.0  0.7228
  C  C86  1  0.198300  0.851200  0.584700  1.0  -0.0507
  C  C87  1  0.140000  0.643500  0.129500  1.0  0.722
  C  C88  1  0.198300  0.733500  0.148800  1.0  -0.0518
  C  C89  1  0.140000  0.514000  0.643500  1.0  0.7223
  C  C90  1  0.198300  0.584700  0.733500  1.0  -0.0507
  C  C91  1  0.140000  0.129500  0.486000  1.0  0.7225
  C  C92  1  0.198300  0.148800  0.415300  1.0  -0.0505
  C  C93  1  0.140000  0.356500  0.870500  1.0  0.7219
  C  C94  1  0.198300  0.266500  0.851200  1.0  -0.0504
  C  C95  1  0.360000  0.129500  0.643500  1.0  0.7221
  C  C96  1  0.301700  0.148800  0.733500  1.0  -0.051
  C  C97  1  0.360000  0.356500  0.486000  1.0  0.7221
  C  C98  1  0.301700  0.266500  0.415300  1.0  -0.0511
  C  C99  1  0.360000  0.514000  0.870500  1.0  0.7227
  C  C100  1  0.301700  0.584700  0.851200  1.0  -0.0513
  C  C101  1  0.360000  0.870500  0.356500  1.0  0.7226
  C  C102  1  0.301700  0.851200  0.266500  1.0  -0.0511
  C  C103  1  0.360000  0.643500  0.514000  1.0  0.7214
  C  C104  1  0.301700  0.733500  0.584700  1.0  -0.0504
  C  C105  1  0.360000  0.486000  0.129500  1.0  0.7226
  C  C106  1  0.301700  0.415300  0.148800  1.0  -0.0507
  O  O107  1  0.907600  0.556800  0.607400  1.0  -0.6155
  O  O108  1  0.857300  0.419600  0.613200  1.0  -0.7002
  O  O109  1  0.907600  0.050600  0.443200  1.0  -0.6147
  O  O110  1  0.857300  0.193600  0.580400  1.0  -0.7022
  O  O111  1  0.907600  0.392600  0.949400  1.0  -0.6149
  O  O112  1  0.857300  0.386800  0.806400  1.0  -0.7002
  O  O113  1  0.907600  0.443200  0.392600  1.0  -0.6155
  O  O114  1  0.857300  0.580400  0.386800  1.0  -0.6992
  O  O115  1  0.907600  0.949400  0.556800  1.0  -0.6151
  O  O116  1  0.857300  0.806400  0.419600  1.0  -0.7005
  O  O117  1  0.907600  0.607400  0.050600  1.0  -0.6147
  O  O118  1  0.857300  0.613200  0.193600  1.0  -0.7011
  O  O119  1  0.592400  0.949400  0.392600  1.0  -0.6145
  O  O120  1  0.642700  0.806400  0.386800  1.0  -0.7017
  O  O121  1  0.592400  0.607400  0.556800  1.0  -0.6145
  O  O122  1  0.642700  0.613200  0.419600  1.0  -0.7002
  O  O123  1  0.592400  0.443200  0.050600  1.0  -0.6151
  O  O124  1  0.642700  0.580400  0.193600  1.0  -0.7
  O  O125  1  0.592400  0.050600  0.607400  1.0  -0.6142
  O  O126  1  0.642700  0.193600  0.613200  1.0  -0.7005
  O  O127  1  0.592400  0.392600  0.443200  1.0  -0.6145
  O  O128  1  0.642700  0.386800  0.580400  1.0  -0.7005
  O  O129  1  0.592400  0.556800  0.949400  1.0  -0.615
  O  O130  1  0.642700  0.419600  0.806400  1.0  -0.6987
  O  O131  1  0.092400  0.443200  0.392600  1.0  -0.6148
  O  O132  1  0.142700  0.580400  0.386800  1.0  -0.6997
  O  O133  1  0.092400  0.949400  0.556800  1.0  -0.6146
  O  O134  1  0.142700  0.806400  0.419600  1.0  -0.7008
  O  O135  1  0.092400  0.607400  0.050600  1.0  -0.6151
  O  O136  1  0.142700  0.613200  0.193600  1.0  -0.7005
  O  O137  1  0.092400  0.556800  0.607400  1.0  -0.6163
  O  O138  1  0.142700  0.419600  0.613200  1.0  -0.699
  O  O139  1  0.092400  0.050600  0.443200  1.0  -0.6152
  O  O140  1  0.142700  0.193600  0.580400  1.0  -0.7014
  O  O141  1  0.092400  0.392600  0.949400  1.0  -0.6147
  O  O142  1  0.142700  0.386800  0.806400  1.0  -0.7002
  O  O143  1  0.407600  0.050600  0.607400  1.0  -0.6157
  O  O144  1  0.357300  0.193600  0.613200  1.0  -0.7008
  O  O145  1  0.407600  0.392600  0.443200  1.0  -0.6157
  O  O146  1  0.357300  0.386800  0.580400  1.0  -0.7009
  O  O147  1  0.407600  0.556800  0.949400  1.0  -0.6162
  O  O148  1  0.357300  0.419600  0.806400  1.0  -0.6999
  O  O149  1  0.407600  0.949400  0.392600  1.0  -0.616
  O  O150  1  0.357300  0.806400  0.386800  1.0  -0.7023
  O  O151  1  0.407600  0.607400  0.556800  1.0  -0.616
  O  O152  1  0.357300  0.613200  0.419600  1.0  -0.7
  O  O153  1  0.407600  0.443200  0.050600  1.0  -0.6166
  O  O154  1  0.357300  0.580400  0.193600  1.0  -0.6995
  O  O155  1  0.750000  0.527100  0.763550  1.0  -0.3404
  O  O156  1  0.750000  0.236450  0.472900  1.0  -0.3382
  O  O157  1  0.750000  0.236450  0.763550  1.0  -0.3377
  O  O158  1  0.750000  0.472900  0.236450  1.0  -0.3399
  O  O159  1  0.750000  0.763550  0.527100  1.0  -0.3383
  O  O160  1  0.750000  0.763550  0.236450  1.0  -0.3386
  O  O161  1  0.250000  0.472900  0.236450  1.0  -0.3399
  O  O162  1  0.250000  0.763550  0.527100  1.0  -0.3383
  O  O163  1  0.250000  0.763550  0.236450  1.0  -0.3386
  O  O164  1  0.250000  0.527100  0.763550  1.0  -0.3404
  O  O165  1  0.250000  0.236450  0.472900  1.0  -0.3382
  O  O166  1  0.250000  0.236450  0.763550  1.0  -0.3377
