# generated using pymatgen
data_Cd3Si2H72C76(N3O16)2
_symmetry_space_group_name_H-M   'P 1'
_cell_length_a   14.98790000
_cell_length_b   14.98790000
_cell_length_c   26.11200000
_cell_angle_alpha   82.73150000
_cell_angle_beta   82.73150000
_cell_angle_gamma   78.70530000
_symmetry_Int_Tables_number   1
_chemical_formula_structural   Cd3Si2H72C76(N3O16)2
_chemical_formula_sum   'Cd6 Si4 H144 C152 N12 O64'
_cell_volume   5674.60500878
_cell_formula_units_Z   2
loop_
 _symmetry_equiv_pos_site_id
 _symmetry_equiv_pos_as_xyz
  1  'x, y, z'
loop_
 _atom_site_type_symbol
 _atom_site_label
 _atom_site_symmetry_multiplicity
 _atom_site_fract_x
 _atom_site_fract_y
 _atom_site_fract_z
 _atom_site_occupancy
 _atom_site_charge
  Cd  Cd1  1  0.258930  0.904940  0.588810  1.0  1.0997
  Cd  Cd2  1  0.095060  0.741070  0.911190  1.0  1.0992
  Cd  Cd3  1  0.741070  0.095060  0.411190  1.0  1.0989
  Cd  Cd4  1  0.904940  0.258930  0.088810  1.0  1.0994
  Cd  Cd5  1  0.355380  0.644620  0.250000  1.0  0.9801
  Cd  Cd6  1  0.644620  0.355380  0.750000  1.0  0.9815
  Si  Si7  1  0.243640  0.164990  0.319900  1.0  0.9171
  Si  Si8  1  0.835010  0.756360  0.180100  1.0  0.9158
  Si  Si9  1  0.756360  0.835010  0.680100  1.0  0.917
  Si  Si10  1  0.164990  0.243640  0.819900  1.0  0.9159
  H  H11  1  0.322100  0.798500  0.402000  1.0  0.1176
  H  H12  1  0.256500  0.064300  0.420100  1.0  0.1227
  H  H13  1  0.287300  0.983100  0.278000  1.0  0.124
  H  H14  1  0.925200  0.320600  0.436800  1.0  0.1209
  H  H15  1  0.186300  0.319700  0.382500  1.0  0.1127
  H  H16  1  0.058700  0.130100  0.346400  1.0  0.1283
  H  H17  1  0.422800  0.116200  0.363600  1.0  0.1215
  H  H18  1  0.283300  0.347700  0.296000  1.0  0.1207
  H  H19  1  0.524100  0.346900  0.346000  1.0  0.1176
  H  H20  1  0.365600  0.164200  0.226800  1.0  0.1117
  H  H21  1  0.095000  0.199200  0.249900  1.0  0.1166
  H  H22  1  0.217600  0.199600  0.106200  1.0  0.1203
  H  H23  1  0.201500  0.677900  0.098000  1.0  0.117
  H  H24  1  0.935700  0.743500  0.079900  1.0  0.1218
  H  H25  1  0.016900  0.712700  0.222000  1.0  0.1238
  H  H26  1  0.679400  0.074800  0.063200  1.0  0.1215
  H  H27  1  0.680300  0.813700  0.117500  1.0  0.1124
  H  H28  1  0.869900  0.941300  0.153600  1.0  0.1273
  H  H29  1  0.883800  0.577200  0.136400  1.0  0.1223
  H  H30  1  0.652300  0.716700  0.204000  1.0  0.1205
  H  H31  1  0.653100  0.475900  0.154000  1.0  0.1187
  H  H32  1  0.835800  0.634400  0.273200  1.0  0.1125
  H  H33  1  0.800800  0.905000  0.250100  1.0  0.117
  H  H34  1  0.800400  0.782400  0.393800  1.0  0.1203
  H  H35  1  0.677900  0.201500  0.598000  1.0  0.1175
  H  H36  1  0.743500  0.935700  0.579900  1.0  0.1225
  H  H37  1  0.712700  0.016900  0.722000  1.0  0.1233
  H  H38  1  0.074800  0.679400  0.563200  1.0  0.1211
  H  H39  1  0.813700  0.680300  0.617500  1.0  0.113
  H  H40  1  0.941300  0.869900  0.653600  1.0  0.1285
  H  H41  1  0.577200  0.883800  0.636400  1.0  0.1209
  H  H42  1  0.716700  0.652300  0.704000  1.0  0.1204
  H  H43  1  0.475900  0.653100  0.654000  1.0  0.1176
  H  H44  1  0.634400  0.835800  0.773200  1.0  0.1122
  H  H45  1  0.905000  0.800800  0.750100  1.0  0.1179
  H  H46  1  0.782400  0.800400  0.893800  1.0  0.1204
  H  H47  1  0.798500  0.322100  0.902000  1.0  0.117
  H  H48  1  0.064300  0.256500  0.920100  1.0  0.1219
  H  H49  1  0.983100  0.287300  0.778000  1.0  0.1244
  H  H50  1  0.320600  0.925200  0.936800  1.0  0.1215
  H  H51  1  0.319700  0.186300  0.882500  1.0  0.1123
  H  H52  1  0.130100  0.058700  0.846400  1.0  0.1272
  H  H53  1  0.116200  0.422800  0.863600  1.0  0.1214
  H  H54  1  0.347700  0.283300  0.796000  1.0  0.1209
  H  H55  1  0.346900  0.524100  0.846000  1.0  0.1192
  H  H56  1  0.164200  0.365600  0.726800  1.0  0.1123
  H  H57  1  0.199200  0.095000  0.749900  1.0  0.1165
  H  H58  1  0.199600  0.217600  0.606200  1.0  0.1204
  H  H59  1  0.413600  0.351000  0.200000  1.0  0.1218
  H  H60  1  0.487800  0.384600  0.158100  1.0  0.1272
  H  H61  1  0.420200  0.327400  0.142600  1.0  0.1168
  H  H62  1  0.342000  0.577200  0.099800  1.0  0.1301
  H  H63  1  0.374500  0.487300  0.072600  1.0  0.1328
  H  H64  1  0.443800  0.526200  0.099800  1.0  0.1274
  H  H65  1  0.302000  0.449400  0.148900  1.0  0.2339
  H  H66  1  0.351200  0.499200  0.176400  1.0  0.2236
  H  H67  1  0.499700  0.856300  0.235000  1.0  0.1379
  H  H68  1  0.578300  0.906100  0.207500  1.0  0.1328
  H  H69  1  0.479400  0.962200  0.219300  1.0  0.1334
  H  H70  1  0.604300  0.051500  0.276100  1.0  0.147
  H  H71  1  0.526600  0.052800  0.241000  1.0  0.1407
  H  H72  1  0.625400  0.999000  0.226500  1.0  0.131
  H  H73  1  0.602300  0.873300  0.305600  1.0  0.3175
  H  H74  1  0.507500  0.924300  0.320800  1.0  0.3102
  H  H75  1  0.857300  0.862900  0.463500  1.0  0.1244
  H  H76  1  0.899500  0.903900  0.505100  1.0  0.0829
  H  H77  1  0.941900  0.805700  0.489600  1.0  0.1137
  H  H78  1  0.064600  0.980200  0.443600  1.0  0.0959
  H  H79  1  0.062400  0.894000  0.484300  1.0  0.0925
  H  H80  1  0.983600  0.979600  0.487900  1.0  0.159
  H  H81  1  0.014200  0.864400  0.415300  1.0  0.2296
  H  H82  1  0.947700  0.950900  0.411800  1.0  0.2209
  H  H83  1  0.142700  0.137100  0.536500  1.0  0.1239
  H  H84  1  0.100500  0.096100  0.494900  1.0  0.0823
  H  H85  1  0.058100  0.194300  0.510400  1.0  0.1134
  H  H86  1  0.935400  0.019800  0.556400  1.0  0.0966
  H  H87  1  0.937600  0.106000  0.515700  1.0  0.0891
  H  H88  1  0.016400  0.020400  0.512100  1.0  0.1593
  H  H89  1  0.985800  0.135600  0.584700  1.0  0.2301
  H  H90  1  0.052300  0.049100  0.588200  1.0  0.2216
  H  H91  1  0.649000  0.586400  0.300000  1.0  0.1196
  H  H92  1  0.615400  0.512200  0.341900  1.0  0.1246
  H  H93  1  0.672600  0.579800  0.357400  1.0  0.1164
  H  H94  1  0.422800  0.658000  0.400200  1.0  0.1292
  H  H95  1  0.512700  0.625500  0.427400  1.0  0.1337
  H  H96  1  0.473800  0.556200  0.400200  1.0  0.124
  H  H97  1  0.550600  0.698000  0.351100  1.0  0.2357
  H  H98  1  0.500800  0.648800  0.323600  1.0  0.2243
  H  H99  1  0.143700  0.500300  0.265000  1.0  0.133
  H  H100  1  0.093900  0.421700  0.292500  1.0  0.132
  H  H101  1  0.037800  0.520600  0.280700  1.0  0.1324
  H  H102  1  0.948500  0.395700  0.223900  1.0  0.1462
  H  H103  1  0.947200  0.473400  0.259000  1.0  0.1452
  H  H104  1  0.001000  0.374600  0.273500  1.0  0.1329
  H  H105  1  0.126700  0.397700  0.194400  1.0  0.3184
  H  H106  1  0.075700  0.492500  0.179200  1.0  0.3125
  H  H107  1  0.137100  0.142700  0.036500  1.0  0.1219
  H  H108  1  0.096100  0.100500  0.994900  1.0  0.0812
  H  H109  1  0.194300  0.058100  0.010400  1.0  0.1177
  H  H110  1  0.019800  0.935400  0.056400  1.0  0.0938
  H  H111  1  0.106000  0.937600  0.015700  1.0  0.092
  H  H112  1  0.020400  0.016400  0.012100  1.0  0.1612
  H  H113  1  0.135600  0.985800  0.084700  1.0  0.2303
  H  H114  1  0.049100  0.052300  0.088200  1.0  0.2203
  H  H115  1  0.862900  0.857300  0.963500  1.0  0.1206
  H  H116  1  0.903900  0.899500  0.005100  1.0  0.082
  H  H117  1  0.805700  0.941900  0.989600  1.0  0.118
  H  H118  1  0.980200  0.064600  0.943600  1.0  0.0934
  H  H119  1  0.894000  0.062400  0.984300  1.0  0.0867
  H  H120  1  0.979600  0.983600  0.987900  1.0  0.165
  H  H121  1  0.864400  0.014200  0.915300  1.0  0.2308
  H  H122  1  0.950900  0.947700  0.911800  1.0  0.2195
  H  H123  1  0.586400  0.649000  0.800000  1.0  0.1222
  H  H124  1  0.512200  0.615400  0.841900  1.0  0.1248
  H  H125  1  0.579800  0.672600  0.857400  1.0  0.1175
  H  H126  1  0.658000  0.422800  0.900200  1.0  0.1283
  H  H127  1  0.625500  0.512700  0.927400  1.0  0.1348
  H  H128  1  0.556200  0.473800  0.900200  1.0  0.124
  H  H129  1  0.698000  0.550600  0.851100  1.0  0.2246
  H  H130  1  0.648800  0.500800  0.823600  1.0  0.2236
  H  H131  1  0.500300  0.143700  0.765000  1.0  0.1394
  H  H132  1  0.421700  0.093900  0.792500  1.0  0.132
  H  H133  1  0.520600  0.037800  0.780700  1.0  0.1322
  H  H134  1  0.395700  0.948500  0.723900  1.0  0.1464
  H  H135  1  0.473400  0.947200  0.759000  1.0  0.1399
  H  H136  1  0.374600  0.001000  0.773500  1.0  0.1291
  H  H137  1  0.397700  0.126700  0.694400  1.0  0.3176
  H  H138  1  0.492500  0.075700  0.679200  1.0  0.3115
  H  H139  1  0.351000  0.413600  0.700000  1.0  0.1194
  H  H140  1  0.384600  0.487800  0.658100  1.0  0.1245
  H  H141  1  0.327400  0.420200  0.642600  1.0  0.1148
  H  H142  1  0.577200  0.342000  0.599800  1.0  0.128
  H  H143  1  0.487300  0.374500  0.572600  1.0  0.1325
  H  H144  1  0.526200  0.443800  0.599800  1.0  0.1249
  H  H145  1  0.449400  0.302000  0.648900  1.0  0.2317
  H  H146  1  0.499200  0.351200  0.676400  1.0  0.2232
  H  H147  1  0.856300  0.499700  0.735000  1.0  0.1351
  H  H148  1  0.906100  0.578300  0.707500  1.0  0.1315
  H  H149  1  0.962200  0.479400  0.719300  1.0  0.1325
  H  H150  1  0.051500  0.604300  0.776100  1.0  0.1475
  H  H151  1  0.052800  0.526600  0.741000  1.0  0.1423
  H  H152  1  0.999000  0.625400  0.726500  1.0  0.1319
  H  H153  1  0.873300  0.602300  0.805600  1.0  0.3174
  H  H154  1  0.924300  0.507500  0.820800  1.0  0.3112
  C  C155  1  0.322090  0.802530  0.300060  1.0  0.7086
  C  C156  1  0.306370  0.878870  0.334620  1.0  -0.1498
  C  C157  1  0.308780  0.859060  0.387830  1.0  0.0352
  C  C158  1  0.291640  0.928260  0.419970  1.0  -0.1429
  C  C159  1  0.270600  0.017800  0.398320  1.0  0.0262
  C  C160  1  0.269910  0.040790  0.344980  1.0  -0.2869
  C  C161  1  0.287770  0.969630  0.313760  1.0  0.0254
  C  C162  1  0.291850  0.906290  0.478470  1.0  0.7431
  C  C163  1  0.893950  0.176110  0.397960  1.0  0.6616
  C  C164  1  0.978500  0.219120  0.392260  1.0  -0.1294
  C  C165  1  0.978330  0.294810  0.417530  1.0  0.0219
  C  C166  1  0.056060  0.332820  0.414540  1.0  -0.1952
  C  C167  1  0.134140  0.293900  0.384860  1.0  -0.0662
  C  C168  1  0.137800  0.217840  0.358510  1.0  -0.3177
  C  C169  1  0.058500  0.181340  0.363170  1.0  0.0388
  C  C170  1  0.057250  0.411830  0.442790  1.0  0.7317
  C  C171  1  0.573490  0.172950  0.378880  1.0  0.7313
  C  C172  1  0.487320  0.224040  0.357140  1.0  -0.1372
  C  C173  1  0.417400  0.177960  0.351660  1.0  0.0243
  C  C174  1  0.339770  0.222670  0.328630  1.0  -0.3326
  C  C175  1  0.334120  0.316480  0.312000  1.0  -0.0168
  C  C176  1  0.401670  0.363490  0.318650  1.0  -0.1676
  C  C177  1  0.478100  0.315900  0.341340  1.0  0.0483
  C  C178  1  0.393180  0.464780  0.301500  1.0  0.7086
  C  C179  1  0.394900  0.178520  0.125900  1.0  0.6958
  C  C180  1  0.305410  0.182030  0.160460  1.0  -0.1683
  C  C181  1  0.308940  0.173380  0.214140  1.0  -0.0168
  C  C182  1  0.230840  0.177920  0.249080  1.0  -0.1951
  C  C183  1  0.149000  0.193700  0.227690  1.0  -0.0358
  C  C184  1  0.143290  0.201890  0.174590  1.0  -0.1715
  C  C185  1  0.220960  0.195260  0.141760  1.0  0.0028
  C  C186  1  0.051850  0.220050  0.152620  1.0  0.7069
  C  C187  1  0.197470  0.677910  0.199940  1.0  0.7092
  C  C188  1  0.121130  0.693630  0.165380  1.0  -0.1486
  C  C189  1  0.140940  0.691220  0.112170  1.0  0.0344
  C  C190  1  0.071740  0.708360  0.080030  1.0  -0.143
  C  C191  1  0.982200  0.729400  0.101680  1.0  0.0225
  C  C192  1  0.959210  0.730090  0.155020  1.0  -0.2911
  C  C193  1  0.030370  0.712230  0.186240  1.0  0.0215
  C  C194  1  0.093710  0.708150  0.021530  1.0  0.7415
  C  C195  1  0.823890  0.106050  0.102040  1.0  0.6562
  C  C196  1  0.780880  0.021500  0.107740  1.0  -0.1246
  C  C197  1  0.705190  0.021670  0.082470  1.0  0.0238
  C  C198  1  0.667180  0.943940  0.085460  1.0  -0.2019
  C  C199  1  0.706100  0.865860  0.115140  1.0  -0.0645
  C  C200  1  0.782160  0.862200  0.141490  1.0  -0.3169
  C  C201  1  0.818660  0.941500  0.136830  1.0  0.0387
  C  C202  1  0.588170  0.942750  0.057210  1.0  0.737
  C  C203  1  0.827050  0.426510  0.121120  1.0  0.7309
  C  C204  1  0.775960  0.512680  0.142860  1.0  -0.138
  C  C205  1  0.822040  0.582600  0.148340  1.0  0.0244
  C  C206  1  0.777330  0.660230  0.171370  1.0  -0.3259
  C  C207  1  0.683520  0.665880  0.188000  1.0  -0.0147
  C  C208  1  0.636510  0.598330  0.181350  1.0  -0.1682
  C  C209  1  0.684100  0.521900  0.158660  1.0  0.0483
  C  C210  1  0.535220  0.606820  0.198500  1.0  0.7082
  C  C211  1  0.821480  0.605100  0.374100  1.0  0.698
  C  C212  1  0.817970  0.694590  0.339540  1.0  -0.1692
  C  C213  1  0.826620  0.691060  0.285860  1.0  -0.0161
  C  C214  1  0.822080  0.769160  0.250920  1.0  -0.1923
  C  C215  1  0.806300  0.851000  0.272310  1.0  -0.0341
  C  C216  1  0.798110  0.856710  0.325410  1.0  -0.1703
  C  C217  1  0.804740  0.779040  0.358240  1.0  0.0023
  C  C218  1  0.779950  0.948150  0.347380  1.0  0.7119
  C  C219  1  0.677910  0.197470  0.699940  1.0  0.7099
  C  C220  1  0.693630  0.121130  0.665380  1.0  -0.1488
  C  C221  1  0.691220  0.140940  0.612170  1.0  0.0345
  C  C222  1  0.708360  0.071740  0.580030  1.0  -0.1436
  C  C223  1  0.729400  0.982200  0.601680  1.0  0.0257
  C  C224  1  0.730090  0.959210  0.655020  1.0  -0.2869
  C  C225  1  0.712230  0.030370  0.686240  1.0  0.0234
  C  C226  1  0.708150  0.093710  0.521530  1.0  0.7442
  C  C227  1  0.106050  0.823890  0.602040  1.0  0.6611
  C  C228  1  0.021500  0.780880  0.607740  1.0  -0.1288
  C  C229  1  0.021670  0.705190  0.582470  1.0  0.0234
  C  C230  1  0.943940  0.667180  0.585460  1.0  -0.199
  C  C231  1  0.865860  0.706100  0.615140  1.0  -0.0665
  C  C232  1  0.862200  0.782160  0.641490  1.0  -0.3176
  C  C233  1  0.941500  0.818660  0.636830  1.0  0.04
  C  C234  1  0.942750  0.588170  0.557210  1.0  0.7336
  C  C235  1  0.426510  0.827050  0.621120  1.0  0.7312
  C  C236  1  0.512680  0.775960  0.642860  1.0  -0.1374
  C  C237  1  0.582600  0.822040  0.648340  1.0  0.0232
  C  C238  1  0.660230  0.777330  0.671370  1.0  -0.3344
  C  C239  1  0.665880  0.683520  0.688000  1.0  -0.0168
  C  C240  1  0.598330  0.636510  0.681350  1.0  -0.1671
  C  C241  1  0.521900  0.684100  0.658660  1.0  0.0476
  C  C242  1  0.606820  0.535220  0.698500  1.0  0.7097
  C  C243  1  0.605100  0.821480  0.874100  1.0  0.6936
  C  C244  1  0.694590  0.817970  0.839540  1.0  -0.1682
  C  C245  1  0.691060  0.826620  0.785860  1.0  -0.0168
  C  C246  1  0.769160  0.822080  0.750920  1.0  -0.193
  C  C247  1  0.851000  0.806300  0.772310  1.0  -0.0356
  C  C248  1  0.856710  0.798110  0.825410  1.0  -0.169
  C  C249  1  0.779040  0.804740  0.858240  1.0  0.0043
  C  C250  1  0.948150  0.779950  0.847380  1.0  0.7088
  C  C251  1  0.802530  0.322090  0.800060  1.0  0.7091
  C  C252  1  0.878870  0.306370  0.834620  1.0  -0.1488
  C  C253  1  0.859060  0.308780  0.887830  1.0  0.0345
  C  C254  1  0.928260  0.291640  0.919970  1.0  -0.1431
  C  C255  1  0.017800  0.270600  0.898320  1.0  0.0236
  C  C256  1  0.040790  0.269910  0.844980  1.0  -0.2921
  C  C257  1  0.969630  0.287770  0.813760  1.0  0.024
  C  C258  1  0.906290  0.291850  0.978470  1.0  0.7409
  C  C259  1  0.176110  0.893950  0.897960  1.0  0.6564
  C  C260  1  0.219120  0.978500  0.892260  1.0  -0.1273
  C  C261  1  0.294810  0.978330  0.917530  1.0  0.0225
  C  C262  1  0.332820  0.056060  0.914540  1.0  -0.2026
  C  C263  1  0.293900  0.134140  0.884860  1.0  -0.0636
  C  C264  1  0.217840  0.137800  0.858510  1.0  -0.3161
  C  C265  1  0.181340  0.058500  0.863170  1.0  0.0385
  C  C266  1  0.411830  0.057250  0.942790  1.0  0.7332
  C  C267  1  0.172950  0.573490  0.878880  1.0  0.7305
  C  C268  1  0.224040  0.487320  0.857140  1.0  -0.1374
  C  C269  1  0.177960  0.417400  0.851660  1.0  0.0226
  C  C270  1  0.222670  0.339770  0.828630  1.0  -0.328
  C  C271  1  0.316480  0.334120  0.812000  1.0  -0.0158
  C  C272  1  0.363490  0.401670  0.818650  1.0  -0.1688
  C  C273  1  0.315900  0.478100  0.841340  1.0  0.0478
  C  C274  1  0.464780  0.393180  0.801500  1.0  0.7066
  C  C275  1  0.178520  0.394900  0.625900  1.0  0.6986
  C  C276  1  0.182030  0.305410  0.660460  1.0  -0.1679
  C  C277  1  0.173380  0.308940  0.714140  1.0  -0.0176
  C  C278  1  0.177920  0.230840  0.749080  1.0  -0.1939
  C  C279  1  0.193700  0.149000  0.727690  1.0  -0.0325
  C  C280  1  0.201890  0.143290  0.674590  1.0  -0.1698
  C  C281  1  0.195260  0.220960  0.641760  1.0  0.0013
  C  C282  1  0.220050  0.051850  0.652620  1.0  0.7104
  C  C283  1  0.426400  0.372800  0.164100  1.0  -0.2714
  C  C284  1  0.381400  0.518400  0.101400  1.0  -0.1716
  C  C285  1  0.524150  0.911550  0.231690  1.0  -0.348
  C  C286  1  0.580260  0.016460  0.254640  1.0  -0.3256
  C  C287  1  0.913000  0.866000  0.477100  1.0  -0.2557
  C  C288  1  0.025700  0.942900  0.464600  1.0  -0.2067
  C  C289  1  0.087000  0.134000  0.522900  1.0  -0.2541
  C  C290  1  0.974300  0.057100  0.535400  1.0  -0.2087
  C  C291  1  0.627200  0.573600  0.335900  1.0  -0.2703
  C  C292  1  0.481600  0.618600  0.398600  1.0  -0.1698
  C  C293  1  0.088450  0.475850  0.268310  1.0  -0.3481
  C  C294  1  0.983540  0.419740  0.245360  1.0  -0.3234
  C  C295  1  0.134000  0.087000  0.022900  1.0  -0.2512
  C  C296  1  0.057100  0.974300  0.035400  1.0  -0.2001
  C  C297  1  0.866000  0.913000  0.977100  1.0  -0.2548
  C  C298  1  0.942900  0.025700  0.964600  1.0  -0.2042
  C  C299  1  0.573600  0.627200  0.835900  1.0  -0.2708
  C  C300  1  0.618600  0.481600  0.898600  1.0  -0.1706
  C  C301  1  0.475850  0.088450  0.768310  1.0  -0.3522
  C  C302  1  0.419740  0.983540  0.745360  1.0  -0.3236
  C  C303  1  0.372800  0.426400  0.664100  1.0  -0.2713
  C  C304  1  0.518400  0.381400  0.601400  1.0  -0.1698
  C  C305  1  0.911550  0.524150  0.731690  1.0  -0.3472
  C  C306  1  0.016460  0.580260  0.754640  1.0  -0.3262
  N  N307  1  0.357040  0.463840  0.150330  1.0  -0.0858
  N  N308  1  0.554150  0.915090  0.295550  1.0  -0.4981
  N  N309  1  0.978200  0.907400  0.433500  1.0  -0.14
  N  N310  1  0.021800  0.092600  0.566500  1.0  -0.1392
  N  N311  1  0.536160  0.642960  0.349670  1.0  -0.089
  N  N312  1  0.084910  0.445850  0.204450  1.0  -0.4996
  N  N313  1  0.092600  0.021800  0.066500  1.0  -0.1348
  N  N314  1  0.907400  0.978200  0.933500  1.0  -0.1375
  N  N315  1  0.642960  0.536160  0.849670  1.0  -0.0881
  N  N316  1  0.445850  0.084910  0.704450  1.0  -0.4985
  N  N317  1  0.463840  0.357040  0.650330  1.0  -0.0908
  N  N318  1  0.915090  0.554150  0.795550  1.0  -0.4995
  O  O319  1  0.320220  0.821080  0.252760  1.0  -0.6111
  O  O320  1  0.338530  0.722070  0.321100  1.0  -0.5834
  O  O321  1  0.325410  0.830530  0.496140  1.0  -0.4744
  O  O322  1  0.260330  0.966670  0.505890  1.0  -0.5538
  O  O323  1  0.899350  0.100170  0.387680  1.0  -0.5871
  O  O324  1  0.822300  0.217260  0.412380  1.0  -0.5757
  O  O325  1  0.125730  0.446510  0.437490  1.0  -0.4355
  O  O326  1  0.988250  0.439210  0.473060  1.0  -0.4882
  O  O327  1  0.329050  0.501490  0.275250  1.0  -0.5603
  O  O328  1  0.450040  0.507080  0.313670  1.0  -0.5796
  O  O329  1  0.642960  0.207840  0.370860  1.0  -0.5708
  O  O330  1  0.574030  0.096790  0.403610  1.0  -0.6089
  O  O331  1  0.469060  0.160980  0.142830  1.0  -0.5077
  O  O332  1  0.382180  0.196860  0.077210  1.0  -0.5214
  O  O333  1  0.053440  0.226540  0.104240  1.0  -0.5771
  O  O334  1  0.979910  0.227630  0.182740  1.0  -0.5662
  O  O335  1  0.178920  0.679780  0.247240  1.0  -0.6043
  O  O336  1  0.277930  0.661470  0.178900  1.0  -0.5862
  O  O337  1  0.169470  0.674590  0.003860  1.0  -0.4783
  O  O338  1  0.033330  0.739670  0.994110  1.0  -0.5506
  O  O339  1  0.899830  0.100650  0.112320  1.0  -0.5898
  O  O340  1  0.782740  0.177700  0.087620  1.0  -0.5748
  O  O341  1  0.553490  0.874270  0.062510  1.0  -0.4354
  O  O342  1  0.560790  0.011750  0.026940  1.0  -0.4907
  O  O343  1  0.498510  0.670950  0.224750  1.0  -0.56
  O  O344  1  0.492920  0.549960  0.186330  1.0  -0.5814
  O  O345  1  0.792160  0.357040  0.129140  1.0  -0.5692
  O  O346  1  0.903210  0.425970  0.096390  1.0  -0.6121
  O  O347  1  0.839020  0.530940  0.357170  1.0  -0.5041
  O  O348  1  0.803140  0.617820  0.422790  1.0  -0.5213
  O  O349  1  0.773460  0.946560  0.395760  1.0  -0.5785
  O  O350  1  0.772370  0.020090  0.317260  1.0  -0.5608
  O  O351  1  0.679780  0.178920  0.747240  1.0  -0.6124
  O  O352  1  0.661470  0.277930  0.678900  1.0  -0.5836
  O  O353  1  0.674590  0.169470  0.503860  1.0  -0.4723
  O  O354  1  0.739670  0.033330  0.494110  1.0  -0.5546
  O  O355  1  0.100650  0.899830  0.612320  1.0  -0.5854
  O  O356  1  0.177700  0.782740  0.587620  1.0  -0.5733
  O  O357  1  0.874270  0.553490  0.562510  1.0  -0.4355
  O  O358  1  0.011750  0.560790  0.526940  1.0  -0.492
  O  O359  1  0.670950  0.498510  0.724750  1.0  -0.5592
  O  O360  1  0.549960  0.492920  0.686330  1.0  -0.5781
  O  O361  1  0.357040  0.792160  0.629140  1.0  -0.5706
  O  O362  1  0.425970  0.903210  0.596390  1.0  -0.6094
  O  O363  1  0.530940  0.839020  0.857170  1.0  -0.5083
  O  O364  1  0.617820  0.803140  0.922790  1.0  -0.5225
  O  O365  1  0.946560  0.773460  0.895760  1.0  -0.5774
  O  O366  1  0.020090  0.772370  0.817260  1.0  -0.5674
  O  O367  1  0.821080  0.320220  0.752760  1.0  -0.6026
  O  O368  1  0.722070  0.338530  0.821100  1.0  -0.5861
  O  O369  1  0.830530  0.325410  0.996140  1.0  -0.4765
  O  O370  1  0.966670  0.260330  0.005890  1.0  -0.5544
  O  O371  1  0.100170  0.899350  0.887680  1.0  -0.589
  O  O372  1  0.217260  0.822300  0.912380  1.0  -0.5737
  O  O373  1  0.446510  0.125730  0.937490  1.0  -0.4328
  O  O374  1  0.439210  0.988250  0.973060  1.0  -0.4879
  O  O375  1  0.501490  0.329050  0.775250  1.0  -0.559
  O  O376  1  0.507080  0.450040  0.813670  1.0  -0.5823
  O  O377  1  0.207840  0.642960  0.870860  1.0  -0.5692
  O  O378  1  0.096790  0.574030  0.903610  1.0  -0.6109
  O  O379  1  0.160980  0.469060  0.642830  1.0  -0.5039
  O  O380  1  0.196860  0.382180  0.577210  1.0  -0.5199
  O  O381  1  0.226540  0.053440  0.604240  1.0  -0.5798
  O  O382  1  0.227630  0.979910  0.682740  1.0  -0.5598
