# generated using pymatgen
data_Zn5Si2H72C76(N3O17)2
_symmetry_space_group_name_H-M   'P 1'
_cell_length_a   14.86000000
_cell_length_b   14.86000000
_cell_length_c   25.48300000
_cell_angle_alpha   80.85190000
_cell_angle_beta   80.85190000
_cell_angle_gamma   77.56230000
_symmetry_Int_Tables_number   1
_chemical_formula_structural   Zn5Si2H72C76(N3O17)2
_chemical_formula_sum   'Zn10 Si4 H144 C152 N12 O68'
_cell_volume   5379.58324088
_cell_formula_units_Z   2
loop_
 _symmetry_equiv_pos_site_id
 _symmetry_equiv_pos_as_xyz
  1  'x, y, z'
loop_
 _atom_site_type_symbol
 _atom_site_label
 _atom_site_symmetry_multiplicity
 _atom_site_fract_x
 _atom_site_fract_y
 _atom_site_fract_z
 _atom_site_occupancy
 _atom_site_charge
  Zn  Zn1  1  0.265930  0.910670  0.079130  1.0  1.003
  Zn  Zn2  1  0.126910  0.478410  0.007120  1.0  1.0325
  Zn  Zn3  1  0.089330  0.734070  0.420870  1.0  1.0024
  Zn  Zn4  1  0.521590  0.873090  0.492880  1.0  1.0333
  Zn  Zn5  1  0.734070  0.089330  0.920870  1.0  1.0023
  Zn  Zn6  1  0.873090  0.521590  0.992880  1.0  1.0336
  Zn  Zn7  1  0.910670  0.265930  0.579130  1.0  1.0033
  Zn  Zn8  1  0.478410  0.126910  0.507120  1.0  1.0326
  Zn  Zn9  1  0.362750  0.637250  0.750000  1.0  0.9072
  Zn  Zn10  1  0.637250  0.362750  0.250000  1.0  0.9075
  Si  Si11  1  0.247720  0.166080  0.812160  1.0  0.9047
  Si  Si12  1  0.833920  0.752280  0.687840  1.0  0.9037
  Si  Si13  1  0.752280  0.833920  0.187840  1.0  0.9048
  Si  Si14  1  0.166080  0.247720  0.312160  1.0  0.9037
  H  H15  1  0.268200  0.055000  0.915000  1.0  0.1006
  H  H16  1  0.287600  0.986200  0.766500  1.0  0.1084
  H  H17  1  0.337700  0.787700  0.890500  1.0  0.1037
  H  H18  1  0.173700  0.314100  0.883300  1.0  0.1044
  H  H19  1  0.069700  0.116500  0.836900  1.0  0.1163
  H  H20  1  0.911800  0.282200  0.938900  1.0  0.1104
  H  H21  1  0.527200  0.331400  0.856300  1.0  0.1183
  H  H22  1  0.294300  0.353300  0.792000  1.0  0.1121
  H  H23  1  0.416800  0.107400  0.861600  1.0  0.1044
  H  H24  1  0.206700  0.185500  0.595600  1.0  0.1162
  H  H25  1  0.092100  0.213900  0.747300  1.0  0.1053
  H  H26  1  0.368300  0.152500  0.711000  1.0  0.1086
  H  H27  1  0.945000  0.731800  0.585000  1.0  0.1002
  H  H28  1  0.013800  0.712400  0.733500  1.0  0.1077
  H  H29  1  0.212300  0.662300  0.609500  1.0  0.1027
  H  H30  1  0.685900  0.826300  0.616700  1.0  0.1032
  H  H31  1  0.883500  0.930300  0.663100  1.0  0.1148
  H  H32  1  0.717800  0.088200  0.561100  1.0  0.1118
  H  H33  1  0.668600  0.472800  0.643700  1.0  0.1182
  H  H34  1  0.646700  0.705700  0.708000  1.0  0.1122
  H  H35  1  0.892600  0.583200  0.638400  1.0  0.1038
  H  H36  1  0.814500  0.793300  0.904400  1.0  0.1166
  H  H37  1  0.786100  0.907900  0.752700  1.0  0.1063
  H  H38  1  0.847500  0.631700  0.789000  1.0  0.1085
  H  H39  1  0.731800  0.945000  0.085000  1.0  0.1013
  H  H40  1  0.712400  0.013800  0.233500  1.0  0.1078
  H  H41  1  0.662300  0.212300  0.109500  1.0  0.1036
  H  H42  1  0.826300  0.685900  0.116700  1.0  0.1044
  H  H43  1  0.930300  0.883500  0.163100  1.0  0.1162
  H  H44  1  0.088200  0.717800  0.061100  1.0  0.1109
  H  H45  1  0.472800  0.668600  0.143700  1.0  0.1183
  H  H46  1  0.705700  0.646700  0.208000  1.0  0.1114
  H  H47  1  0.583200  0.892600  0.138400  1.0  0.1045
  H  H48  1  0.793300  0.814500  0.404400  1.0  0.1161
  H  H49  1  0.907900  0.786100  0.252700  1.0  0.1054
  H  H50  1  0.631700  0.847500  0.289000  1.0  0.1088
  H  H51  1  0.055000  0.268200  0.415000  1.0  0.0995
  H  H52  1  0.986200  0.287600  0.266500  1.0  0.1081
  H  H53  1  0.787700  0.337700  0.390500  1.0  0.1028
  H  H54  1  0.314100  0.173700  0.383300  1.0  0.1032
  H  H55  1  0.116500  0.069700  0.336900  1.0  0.1151
  H  H56  1  0.282200  0.911800  0.438900  1.0  0.1112
  H  H57  1  0.331400  0.527200  0.356300  1.0  0.1182
  H  H58  1  0.353300  0.294300  0.292000  1.0  0.112
  H  H59  1  0.107400  0.416800  0.361600  1.0  0.1039
  H  H60  1  0.185500  0.206700  0.095600  1.0  0.117
  H  H61  1  0.213900  0.092100  0.247300  1.0  0.1062
  H  H62  1  0.152500  0.368300  0.211000  1.0  0.1083
  H  H63  1  0.391100  0.885900  0.606500  1.0  0.1097
  H  H64  1  0.341000  0.954800  0.647500  1.0  0.1152
  H  H65  1  0.312300  0.969500  0.589700  1.0  0.1229
  H  H66  1  0.112600  0.892000  0.679100  1.0  0.1343
  H  H67  1  0.132900  0.981700  0.641700  1.0  0.1311
  H  H68  1  0.168700  0.956500  0.697800  1.0  0.1256
  H  H69  1  0.286200  0.818800  0.661900  1.0  0.2475
  H  H70  1  0.252300  0.841100  0.609900  1.0  0.2398
  H  H71  1  0.483200  0.093800  0.065400  1.0  0.1089
  H  H72  1  0.394200  0.168200  0.080000  1.0  0.1151
  H  H73  1  0.469500  0.193300  0.032600  1.0  0.1206
  H  H74  1  0.289500  0.167900  0.964300  1.0  0.1087
  H  H75  1  0.347800  0.240400  0.971400  1.0  0.106
  H  H76  1  0.271300  0.213300  0.017400  1.0  0.1248
  H  H77  1  0.361100  0.066700  0.030900  1.0  0.2021
  H  H78  1  0.431300  0.089500  0.986900  1.0  0.2079
  H  H79  1  0.646800  0.587800  0.798200  1.0  0.1093
  H  H80  1  0.634400  0.516600  0.850000  1.0  0.1116
  H  H81  1  0.672400  0.606200  0.852400  1.0  0.1135
  H  H82  1  0.439400  0.657600  0.913300  1.0  0.1151
  H  H83  1  0.541000  0.649600  0.925700  1.0  0.1109
  H  H84  1  0.504400  0.559800  0.922000  1.0  0.1166
  H  H85  1  0.497600  0.609200  0.833000  1.0  0.228
  H  H86  1  0.533000  0.691600  0.836600  1.0  0.2125
  H  H87  1  0.114100  0.608900  0.893500  1.0  0.1124
  H  H88  1  0.045200  0.659000  0.852500  1.0  0.1134
  H  H89  1  0.030500  0.687700  0.910300  1.0  0.1216
  H  H90  1  0.108000  0.887400  0.820900  1.0  0.137
  H  H91  1  0.018300  0.867100  0.858300  1.0  0.131
  H  H92  1  0.043500  0.831300  0.802200  1.0  0.1248
  H  H93  1  0.181200  0.713800  0.838100  1.0  0.2466
  H  H94  1  0.158900  0.747700  0.890100  1.0  0.2397
  H  H95  1  0.906200  0.516800  0.434600  1.0  0.1075
  H  H96  1  0.831800  0.605800  0.420000  1.0  0.1144
  H  H97  1  0.806700  0.530500  0.467400  1.0  0.1247
  H  H98  1  0.832100  0.710500  0.535700  1.0  0.1083
  H  H99  1  0.759600  0.652200  0.528600  1.0  0.107
  H  H100  1  0.786700  0.728700  0.482600  1.0  0.1246
  H  H101  1  0.933300  0.638900  0.469100  1.0  0.1835
  H  H102  1  0.910500  0.568700  0.513100  1.0  0.2073
  H  H103  1  0.412200  0.353200  0.701800  1.0  0.1095
  H  H104  1  0.483400  0.365600  0.650000  1.0  0.1147
  H  H105  1  0.393800  0.327600  0.647600  1.0  0.116
  H  H106  1  0.342400  0.560600  0.586700  1.0  0.12
  H  H107  1  0.350400  0.459000  0.574300  1.0  0.1123
  H  H108  1  0.440200  0.495600  0.578000  1.0  0.1245
  H  H109  1  0.390800  0.502400  0.667000  1.0  0.2277
  H  H110  1  0.308400  0.467000  0.663400  1.0  0.2064
  H  H111  1  0.608900  0.114100  0.393500  1.0  0.1119
  H  H112  1  0.659000  0.045200  0.352500  1.0  0.1155
  H  H113  1  0.687700  0.030500  0.410300  1.0  0.1223
  H  H114  1  0.887400  0.108000  0.320900  1.0  0.1369
  H  H115  1  0.867100  0.018300  0.358300  1.0  0.1313
  H  H116  1  0.831300  0.043500  0.302200  1.0  0.1262
  H  H117  1  0.713800  0.181200  0.338100  1.0  0.2493
  H  H118  1  0.747700  0.158900  0.390100  1.0  0.2392
  H  H119  1  0.516800  0.906200  0.934600  1.0  0.1092
  H  H120  1  0.605800  0.831800  0.920000  1.0  0.1152
  H  H121  1  0.530500  0.806700  0.967400  1.0  0.1215
  H  H122  1  0.710500  0.832100  0.035700  1.0  0.1082
  H  H123  1  0.652200  0.759600  0.028600  1.0  0.1062
  H  H124  1  0.728700  0.786700  0.982600  1.0  0.1237
  H  H125  1  0.638900  0.933300  0.969100  1.0  0.2043
  H  H126  1  0.568700  0.910500  0.013100  1.0  0.2071
  H  H127  1  0.353200  0.412200  0.201800  1.0  0.1098
  H  H128  1  0.365600  0.483400  0.150000  1.0  0.1114
  H  H129  1  0.327600  0.393800  0.147600  1.0  0.1138
  H  H130  1  0.560600  0.342400  0.086700  1.0  0.1159
  H  H131  1  0.459000  0.350400  0.074300  1.0  0.1111
  H  H132  1  0.495600  0.440200  0.078000  1.0  0.1181
  H  H133  1  0.502400  0.390800  0.167000  1.0  0.2271
  H  H134  1  0.467000  0.308400  0.163400  1.0  0.2173
  H  H135  1  0.885900  0.391100  0.106500  1.0  0.112
  H  H136  1  0.954800  0.341000  0.147500  1.0  0.1139
  H  H137  1  0.969500  0.312300  0.089700  1.0  0.1216
  H  H138  1  0.892000  0.112600  0.179100  1.0  0.1359
  H  H139  1  0.981700  0.132900  0.141700  1.0  0.1304
  H  H140  1  0.956500  0.168700  0.197800  1.0  0.124
  H  H141  1  0.818800  0.286200  0.161900  1.0  0.2485
  H  H142  1  0.841100  0.252300  0.109900  1.0  0.2397
  H  H143  1  0.093800  0.483200  0.565400  1.0  0.1079
  H  H144  1  0.168200  0.394200  0.580000  1.0  0.1149
  H  H145  1  0.193300  0.469500  0.532600  1.0  0.127
  H  H146  1  0.167900  0.289500  0.464300  1.0  0.1089
  H  H147  1  0.240400  0.347800  0.471400  1.0  0.1097
  H  H148  1  0.213300  0.271300  0.517400  1.0  0.124
  H  H149  1  0.066700  0.361100  0.530900  1.0  0.1908
  H  H150  1  0.089500  0.431300  0.486900  1.0  0.2107
  H  H151  1  0.587800  0.646800  0.298200  1.0  0.1093
  H  H152  1  0.516600  0.634400  0.350000  1.0  0.1119
  H  H153  1  0.606200  0.672400  0.352400  1.0  0.1154
  H  H154  1  0.657600  0.439400  0.413300  1.0  0.1191
  H  H155  1  0.649600  0.541000  0.425700  1.0  0.111
  H  H156  1  0.559800  0.504400  0.422000  1.0  0.1226
  H  H157  1  0.609200  0.497600  0.333000  1.0  0.2281
  H  H158  1  0.691600  0.533000  0.336600  1.0  0.1952
  C  C159  1  0.311800  0.888800  0.970300  1.0  0.6875
  C  C160  1  0.305700  0.916900  0.911990  1.0  -0.1685
  C  C161  1  0.281350  0.010350  0.891700  1.0  -0.0009
  C  C162  1  0.276220  0.038820  0.836210  1.0  -0.2925
  C  C163  1  0.291820  0.969620  0.802920  1.0  -0.0061
  C  C164  1  0.313550  0.875950  0.823460  1.0  -0.1431
  C  C165  1  0.321490  0.850290  0.877300  1.0  -0.0198
  C  C166  1  0.326850  0.804050  0.785400  1.0  0.6614
  C  C167  1  0.031500  0.386100  0.950100  1.0  0.7061
  C  C168  1  0.041800  0.311000  0.916590  1.0  -0.1768
  C  C169  1  0.124970  0.283370  0.884540  1.0  0.0041
  C  C170  1  0.136780  0.211180  0.854490  1.0  -0.3187
  C  C171  1  0.062500  0.165500  0.856820  1.0  0.0189
  C  C172  1  0.979100  0.191900  0.888100  1.0  -0.1366
  C  C173  1  0.968000  0.264200  0.917900  1.0  0.0485
  C  C174  1  0.901300  0.136700  0.889800  1.0  0.6985
  C  C175  1  0.559100  0.151500  0.893900  1.0  0.696
  C  C176  1  0.484530  0.209930  0.863200  1.0  -0.1216
  C  C177  1  0.481100  0.304100  0.848400  1.0  0.0021
  C  C178  1  0.409820  0.357620  0.822020  1.0  -0.1487
  C  C179  1  0.341960  0.316760  0.810030  1.0  -0.0136
  C  C180  1  0.342880  0.222080  0.824240  1.0  -0.321
  C  C181  1  0.415030  0.170630  0.851240  1.0  -0.014
  C  C182  1  0.407800  0.460800  0.807600  1.0  0.7049
  C  C183  1  0.386600  0.147400  0.607100  1.0  0.6581
  C  C184  1  0.300800  0.166000  0.647130  1.0  -0.1541
  C  C185  1  0.213300  0.185700  0.631300  1.0  -0.0306
  C  C186  1  0.134200  0.206000  0.668710  1.0  -0.1452
  C  C187  1  0.144780  0.202580  0.722340  1.0  -0.0171
  C  C188  1  0.233440  0.182240  0.739800  1.0  -0.2695
  C  C189  1  0.309000  0.165200  0.700820  1.0  -0.0299
  C  C190  1  0.038900  0.231100  0.651500  1.0  0.6786
  C  C191  1  0.111200  0.688200  0.529700  1.0  0.6884
  C  C192  1  0.083100  0.694300  0.588010  1.0  -0.169
  C  C193  1  0.989650  0.718650  0.608300  1.0  -0.0028
  C  C194  1  0.961180  0.723780  0.663790  1.0  -0.2944
  C  C195  1  0.030380  0.708180  0.697080  1.0  -0.0084
  C  C196  1  0.124050  0.686450  0.676540  1.0  -0.1415
  C  C197  1  0.149710  0.678510  0.622700  1.0  -0.0221
  C  C198  1  0.195950  0.673150  0.714600  1.0  0.6614
  C  C199  1  0.613900  0.968500  0.549900  1.0  0.7072
  C  C200  1  0.689000  0.958200  0.583410  1.0  -0.1746
  C  C201  1  0.716630  0.875030  0.615460  1.0  0.0037
  C  C202  1  0.788820  0.863220  0.645510  1.0  -0.3177
  C  C203  1  0.834500  0.937500  0.643180  1.0  0.0192
  C  C204  1  0.808100  0.020900  0.611900  1.0  -0.1366
  C  C205  1  0.735800  0.032000  0.582100  1.0  0.0499
  C  C206  1  0.863300  0.098700  0.610200  1.0  0.6988
  C  C207  1  0.848500  0.440900  0.606100  1.0  0.6989
  C  C208  1  0.790070  0.515470  0.636800  1.0  -0.1203
  C  C209  1  0.695900  0.518900  0.651600  1.0  0.0009
  C  C210  1  0.642380  0.590180  0.677980  1.0  -0.1482
  C  C211  1  0.683240  0.658040  0.689970  1.0  -0.0136
  C  C212  1  0.777920  0.657120  0.675760  1.0  -0.3167
  C  C213  1  0.829370  0.584970  0.648760  1.0  -0.0171
  C  C214  1  0.539200  0.592200  0.692400  1.0  0.7002
  C  C215  1  0.852600  0.613400  0.892900  1.0  0.6652
  C  C216  1  0.834000  0.699200  0.852870  1.0  -0.1525
  C  C217  1  0.814300  0.786700  0.868700  1.0  -0.0283
  C  C218  1  0.794000  0.865800  0.831290  1.0  -0.1429
  C  C219  1  0.797420  0.855220  0.777660  1.0  -0.0185
  C  C220  1  0.817760  0.766560  0.760200  1.0  -0.2671
  C  C221  1  0.834800  0.691000  0.799180  1.0  -0.0297
  C  C222  1  0.768900  0.961100  0.848500  1.0  0.6804
  C  C223  1  0.688200  0.111200  0.029700  1.0  0.6884
  C  C224  1  0.694300  0.083100  0.088010  1.0  -0.1686
  C  C225  1  0.718650  0.989650  0.108300  1.0  -0.0018
  C  C226  1  0.723780  0.961180  0.163790  1.0  -0.2928
  C  C227  1  0.708180  0.030380  0.197080  1.0  -0.0068
  C  C228  1  0.686450  0.124050  0.176540  1.0  -0.1435
  C  C229  1  0.678510  0.149710  0.122700  1.0  -0.0204
  C  C230  1  0.673150  0.195950  0.214600  1.0  0.6608
  C  C231  1  0.968500  0.613900  0.049900  1.0  0.706
  C  C232  1  0.958200  0.689000  0.083410  1.0  -0.1763
  C  C233  1  0.875030  0.716630  0.115460  1.0  0.003
  C  C234  1  0.863220  0.788820  0.145510  1.0  -0.3197
  C  C235  1  0.937500  0.834500  0.143180  1.0  0.0183
  C  C236  1  0.020900  0.808100  0.111900  1.0  -0.1369
  C  C237  1  0.032000  0.735800  0.082100  1.0  0.0493
  C  C238  1  0.098700  0.863300  0.110200  1.0  0.6977
  C  C239  1  0.440900  0.848500  0.106100  1.0  0.698
  C  C240  1  0.515470  0.790070  0.136800  1.0  -0.1209
  C  C241  1  0.518900  0.695900  0.151600  1.0  0.0007
  C  C242  1  0.590180  0.642380  0.177980  1.0  -0.1495
  C  C243  1  0.658040  0.683240  0.189970  1.0  -0.0141
  C  C244  1  0.657120  0.777920  0.175760  1.0  -0.3214
  C  C245  1  0.584970  0.829370  0.148760  1.0  -0.0148
  C  C246  1  0.592200  0.539200  0.192400  1.0  0.7043
  C  C247  1  0.613400  0.852600  0.392900  1.0  0.6598
  C  C248  1  0.699200  0.834000  0.352870  1.0  -0.1551
  C  C249  1  0.786700  0.814300  0.368700  1.0  -0.0297
  C  C250  1  0.865800  0.794000  0.331290  1.0  -0.1462
  C  C251  1  0.855220  0.797420  0.277660  1.0  -0.0169
  C  C252  1  0.766560  0.817760  0.260200  1.0  -0.2674
  C  C253  1  0.691000  0.834800  0.299180  1.0  -0.0303
  C  C254  1  0.961100  0.768900  0.348500  1.0  0.6782
  C  C255  1  0.888800  0.311800  0.470300  1.0  0.6868
  C  C256  1  0.916900  0.305700  0.411990  1.0  -0.1694
  C  C257  1  0.010350  0.281350  0.391700  1.0  -0.0023
  C  C258  1  0.038820  0.276220  0.336210  1.0  -0.2978
  C  C259  1  0.969620  0.291820  0.302920  1.0  -0.0063
  C  C260  1  0.875950  0.313550  0.323460  1.0  -0.1413
  C  C261  1  0.850290  0.321490  0.377300  1.0  -0.0221
  C  C262  1  0.804050  0.326850  0.285400  1.0  0.6606
  C  C263  1  0.386100  0.031500  0.450100  1.0  0.7067
  C  C264  1  0.311000  0.041800  0.416590  1.0  -0.1754
  C  C265  1  0.283370  0.124970  0.384540  1.0  0.0037
  C  C266  1  0.211180  0.136780  0.354490  1.0  -0.3176
  C  C267  1  0.165500  0.062500  0.356820  1.0  0.0187
  C  C268  1  0.191900  0.979100  0.388100  1.0  -0.1369
  C  C269  1  0.264200  0.968000  0.417900  1.0  0.0498
  C  C270  1  0.136700  0.901300  0.389800  1.0  0.6992
  C  C271  1  0.151500  0.559100  0.393900  1.0  0.7001
  C  C272  1  0.209930  0.484530  0.363200  1.0  -0.1174
  C  C273  1  0.304100  0.481100  0.348400  1.0  0.0009
  C  C274  1  0.357620  0.409820  0.322020  1.0  -0.1483
  C  C275  1  0.316760  0.341960  0.310030  1.0  -0.0134
  C  C276  1  0.222080  0.342880  0.324240  1.0  -0.3184
  C  C277  1  0.170630  0.415030  0.351240  1.0  -0.0174
  C  C278  1  0.460800  0.407800  0.307600  1.0  0.7011
  C  C279  1  0.147400  0.386600  0.107100  1.0  0.665
  C  C280  1  0.166000  0.300800  0.147130  1.0  -0.1515
  C  C281  1  0.185700  0.213300  0.131300  1.0  -0.0278
  C  C282  1  0.206000  0.134200  0.168710  1.0  -0.1447
  C  C283  1  0.202580  0.144780  0.222340  1.0  -0.0164
  C  C284  1  0.182240  0.233440  0.239800  1.0  -0.2694
  C  C285  1  0.165200  0.309000  0.200820  1.0  -0.0292
  C  C286  1  0.231100  0.038900  0.151500  1.0  0.6789
  C  C287  1  0.333000  0.924000  0.618700  1.0  -0.163
  C  C288  1  0.157100  0.931700  0.667600  1.0  -0.4117
  C  C289  1  0.438400  0.144800  0.051200  1.0  -0.1843
  C  C290  1  0.317900  0.190700  0.989400  1.0  -0.2415
  C  C291  1  0.630400  0.581200  0.836400  1.0  -0.1782
  C  C292  1  0.502200  0.624000  0.907800  1.0  -0.183
  C  C293  1  0.076000  0.667000  0.881300  1.0  -0.1641
  C  C294  1  0.068300  0.842900  0.832400  1.0  -0.415
  C  C295  1  0.855200  0.561600  0.448800  1.0  -0.187
  C  C296  1  0.809300  0.682100  0.510600  1.0  -0.2417
  C  C297  1  0.418800  0.369600  0.663600  1.0  -0.1778
  C  C298  1  0.376000  0.497800  0.592200  1.0  -0.1844
  C  C299  1  0.667000  0.076000  0.381300  1.0  -0.1645
  C  C300  1  0.842900  0.068300  0.332400  1.0  -0.4109
  C  C301  1  0.561600  0.855200  0.948800  1.0  -0.1851
  C  C302  1  0.682100  0.809300  0.010600  1.0  -0.2415
  C  C303  1  0.369600  0.418800  0.163600  1.0  -0.18
  C  C304  1  0.497800  0.376000  0.092200  1.0  -0.1842
  C  C305  1  0.924000  0.333000  0.118700  1.0  -0.1629
  C  C306  1  0.931700  0.157100  0.167600  1.0  -0.4138
  C  C307  1  0.144800  0.438400  0.551200  1.0  -0.1866
  C  C308  1  0.190700  0.317900  0.489400  1.0  -0.2407
  C  C309  1  0.581200  0.630400  0.336400  1.0  -0.1775
  C  C310  1  0.624000  0.502200  0.407800  1.0  -0.1824
  N  N311  1  0.263700  0.865700  0.637600  1.0  -0.2716
  N  N312  1  0.389500  0.112700  0.013400  1.0  -0.1042
  N  N313  1  0.536000  0.631200  0.849600  1.0  -0.0442
  N  N314  1  0.134300  0.736300  0.862400  1.0  -0.267
  N  N315  1  0.887300  0.610500  0.486600  1.0  -0.1014
  N  N316  1  0.368800  0.464000  0.650400  1.0  -0.0439
  N  N317  1  0.736300  0.134300  0.362400  1.0  -0.2688
  N  N318  1  0.610500  0.887300  0.986600  1.0  -0.1015
  N  N319  1  0.464000  0.368800  0.150400  1.0  -0.045
  N  N320  1  0.865700  0.263700  0.137600  1.0  -0.2665
  N  N321  1  0.112700  0.389500  0.513400  1.0  -0.1017
  N  N322  1  0.631200  0.536000  0.349600  1.0  -0.0443
  O  O323  1  0.288330  0.952610  0.000530  1.0  -0.5888
  O  O324  1  0.337060  0.806060  0.987170  1.0  -0.5622
  O  O325  1  0.341780  0.718320  0.807550  1.0  -0.5742
  O  O326  1  0.322640  0.827920  0.737320  1.0  -0.5894
  O  O327  1  0.098220  0.428220  0.945520  1.0  -0.5761
  O  O328  1  0.955430  0.403530  0.981300  1.0  -0.6081
  O  O329  1  0.829280  0.165080  0.913740  1.0  -0.5465
  O  O330  1  0.920500  0.067300  0.867200  1.0  -0.4412
  O  O331  1  0.971030  0.238230  0.685790  1.0  -0.5385
  O  O332  1  0.035420  0.243500  0.600500  1.0  -0.6132
  O  O333  1  0.371130  0.133330  0.560720  1.0  -0.5883
  O  O334  1  0.464600  0.145800  0.618730  1.0  -0.5491
  O  O335  1  0.352840  0.505480  0.775220  1.0  -0.5861
  O  O336  1  0.458790  0.496190  0.827800  1.0  -0.5852
  O  O337  1  0.636590  0.177430  0.886250  1.0  -0.5912
  O  O338  1  0.539760  0.082360  0.925950  1.0  -0.5731
  O  O339  1  0.247600  0.521000  0.982600  1.0  -0.2906
  O  O340  1  0.047390  0.711670  0.499470  1.0  -0.5916
  O  O341  1  0.193940  0.662940  0.512830  1.0  -0.5652
  O  O342  1  0.281680  0.658220  0.692450  1.0  -0.5747
  O  O343  1  0.172080  0.677360  0.762680  1.0  -0.5935
  O  O344  1  0.571780  0.901780  0.554480  1.0  -0.5769
  O  O345  1  0.596470  0.044570  0.518700  1.0  -0.608
  O  O346  1  0.834920  0.170720  0.586260  1.0  -0.5507
  O  O347  1  0.932700  0.079500  0.632800  1.0  -0.4433
  O  O348  1  0.761770  0.028970  0.814210  1.0  -0.53
  O  O349  1  0.756500  0.964580  0.899500  1.0  -0.6127
  O  O350  1  0.866670  0.628870  0.939280  1.0  -0.5872
  O  O351  1  0.854200  0.535400  0.881270  1.0  -0.5428
  O  O352  1  0.494520  0.647160  0.724780  1.0  -0.5886
  O  O353  1  0.503810  0.541210  0.672200  1.0  -0.5873
  O  O354  1  0.822570  0.363410  0.613750  1.0  -0.5895
  O  O355  1  0.917640  0.460240  0.574050  1.0  -0.572
  O  O356  1  0.479000  0.752400  0.517400  1.0  -0.2916
  O  O357  1  0.711670  0.047390  0.999470  1.0  -0.5906
  O  O358  1  0.662940  0.193940  0.012830  1.0  -0.5636
  O  O359  1  0.658220  0.281680  0.192450  1.0  -0.5759
  O  O360  1  0.677360  0.172080  0.262680  1.0  -0.5884
  O  O361  1  0.901780  0.571780  0.054480  1.0  -0.5763
  O  O362  1  0.044570  0.596470  0.018700  1.0  -0.6079
  O  O363  1  0.170720  0.834920  0.086260  1.0  -0.5463
  O  O364  1  0.079500  0.932700  0.132800  1.0  -0.442
  O  O365  1  0.028970  0.761770  0.314210  1.0  -0.5353
  O  O366  1  0.964580  0.756500  0.399500  1.0  -0.6129
  O  O367  1  0.628870  0.866670  0.439280  1.0  -0.5885
  O  O368  1  0.535400  0.854200  0.381270  1.0  -0.5465
  O  O369  1  0.647160  0.494520  0.224780  1.0  -0.5859
  O  O370  1  0.541210  0.503810  0.172200  1.0  -0.5844
  O  O371  1  0.363410  0.822570  0.113750  1.0  -0.5906
  O  O372  1  0.460240  0.917640  0.074050  1.0  -0.5721
  O  O373  1  0.752400  0.479000  0.017400  1.0  -0.2911
  O  O374  1  0.952610  0.288330  0.500530  1.0  -0.5904
  O  O375  1  0.806060  0.337060  0.487170  1.0  -0.5669
  O  O376  1  0.718320  0.341780  0.307550  1.0  -0.5748
  O  O377  1  0.827920  0.322640  0.237320  1.0  -0.5929
  O  O378  1  0.428220  0.098220  0.445520  1.0  -0.5759
  O  O379  1  0.403530  0.955430  0.481300  1.0  -0.6086
  O  O380  1  0.165080  0.829280  0.413740  1.0  -0.5471
  O  O381  1  0.067300  0.920500  0.367200  1.0  -0.4417
  O  O382  1  0.238230  0.971030  0.185790  1.0  -0.5289
  O  O383  1  0.243500  0.035420  0.100500  1.0  -0.613
  O  O384  1  0.133330  0.371130  0.060720  1.0  -0.5867
  O  O385  1  0.145800  0.464600  0.118730  1.0  -0.5452
  O  O386  1  0.505480  0.352840  0.275220  1.0  -0.5886
  O  O387  1  0.496190  0.458790  0.327800  1.0  -0.5868
  O  O388  1  0.177430  0.636590  0.386250  1.0  -0.5906
  O  O389  1  0.082360  0.539760  0.425950  1.0  -0.573
  O  O390  1  0.521000  0.247600  0.482600  1.0  -0.2913
