# generated using pymatgen
data_Cu4SiH12(C2O)16
_symmetry_space_group_name_H-M   'P 1'
_cell_length_a   9.10500000
_cell_length_b   17.49200000
_cell_length_c   17.49200000
_cell_angle_alpha   90.00000000
_cell_angle_beta   90.00000000
_cell_angle_gamma   90.00000000
_symmetry_Int_Tables_number   1
_chemical_formula_structural   Cu4SiH12(C2O)16
_chemical_formula_sum   'Cu8 Si2 H24 C64 O32'
_cell_volume   2785.85743272
_cell_formula_units_Z   2
loop_
 _symmetry_equiv_pos_site_id
 _symmetry_equiv_pos_as_xyz
  1  'x, y, z'
loop_
 _atom_site_type_symbol
 _atom_site_label
 _atom_site_symmetry_multiplicity
 _atom_site_fract_x
 _atom_site_fract_y
 _atom_site_fract_z
 _atom_site_occupancy
 _atom_site_charge
  Cu  Cu1  1  0.415130  0.956280  0.543720  1.0  0.9017
  Cu  Cu2  1  0.415130  0.543720  0.956280  1.0  0.9025
  Cu  Cu3  1  0.415130  0.956280  0.956280  1.0  0.9021
  Cu  Cu4  1  0.415130  0.543720  0.543720  1.0  0.9017
  Cu  Cu5  1  0.584870  0.043720  0.043720  1.0  0.9022
  Cu  Cu6  1  0.584870  0.456280  0.456280  1.0  0.9014
  Cu  Cu7  1  0.584870  0.043720  0.456280  1.0  0.9017
  Cu  Cu8  1  0.584870  0.456280  0.043720  1.0  0.9018
  Si  Si9  1  0.000000  0.750000  0.250000  1.0  0.9259
  Si  Si10  1  0.000000  0.250000  0.750000  1.0  0.9259
  H  H11  1  0.860100  0.864800  0.348300  1.0  0.0897
  H  H12  1  0.860100  0.635200  0.151700  1.0  0.0906
  H  H13  1  0.860100  0.151700  0.864800  1.0  0.0903
  H  H14  1  0.860100  0.348300  0.635200  1.0  0.091
  H  H15  1  0.139900  0.135200  0.848300  1.0  0.0906
  H  H16  1  0.139900  0.364800  0.651700  1.0  0.0893
  H  H17  1  0.139900  0.848300  0.364800  1.0  0.0905
  H  H18  1  0.139900  0.651700  0.135200  1.0  0.0899
  H  H19  1  0.139900  0.135200  0.651700  1.0  0.0903
  H  H20  1  0.139900  0.364800  0.848300  1.0  0.0896
  H  H21  1  0.139900  0.848300  0.135200  1.0  0.0908
  H  H22  1  0.139900  0.651700  0.364800  1.0  0.0901
  H  H23  1  0.860100  0.864800  0.151700  1.0  0.0895
  H  H24  1  0.860100  0.635200  0.348300  1.0  0.0908
  H  H25  1  0.860100  0.151700  0.635200  1.0  0.0901
  H  H26  1  0.860100  0.348300  0.864800  1.0  0.0907
  H  H27  1  0.610400  0.750000  0.497800  1.0  0.1146
  H  H28  1  0.610400  0.750000  0.002200  1.0  0.1147
  H  H29  1  0.610400  0.002200  0.750000  1.0  0.1137
  H  H30  1  0.610400  0.497800  0.750000  1.0  0.1139
  H  H31  1  0.389600  0.250000  0.997800  1.0  0.1149
  H  H32  1  0.389600  0.250000  0.502200  1.0  0.1147
  H  H33  1  0.389600  0.997800  0.250000  1.0  0.1138
  H  H34  1  0.389600  0.502200  0.250000  1.0  0.114
  C  C35  1  0.826900  0.818550  0.368100  1.0  0.0746
  C  C36  1  0.725200  0.818700  0.427700  1.0  -0.1563
  C  C37  1  0.658800  0.890500  0.458400  1.0  0.6875
  C  C38  1  0.826900  0.681450  0.131900  1.0  0.0753
  C  C39  1  0.725200  0.681300  0.072300  1.0  -0.1567
  C  C40  1  0.658800  0.609500  0.041600  1.0  0.687
  C  C41  1  0.826900  0.131900  0.818550  1.0  0.0729
  C  C42  1  0.725200  0.072300  0.818700  1.0  -0.1596
  C  C43  1  0.658800  0.041600  0.890500  1.0  0.6877
  C  C44  1  0.826900  0.368100  0.681450  1.0  0.0737
  C  C45  1  0.725200  0.427700  0.681300  1.0  -0.159
  C  C46  1  0.658800  0.458400  0.609500  1.0  0.6872
  C  C47  1  0.173100  0.181450  0.868100  1.0  0.0748
  C  C48  1  0.274800  0.181300  0.927700  1.0  -0.1561
  C  C49  1  0.341200  0.109500  0.958400  1.0  0.6872
  C  C50  1  0.173100  0.318550  0.631900  1.0  0.0739
  C  C51  1  0.274800  0.318700  0.572300  1.0  -0.1553
  C  C52  1  0.341200  0.390500  0.541600  1.0  0.6869
  C  C53  1  0.173100  0.868100  0.318550  1.0  0.0728
  C  C54  1  0.274800  0.927700  0.318700  1.0  -0.1587
  C  C55  1  0.341200  0.958400  0.390500  1.0  0.6872
  C  C56  1  0.173100  0.631900  0.181450  1.0  0.073
  C  C57  1  0.274800  0.572300  0.181300  1.0  -0.1589
  C  C58  1  0.341200  0.541600  0.109500  1.0  0.687
  C  C59  1  0.173100  0.181450  0.631900  1.0  0.0749
  C  C60  1  0.274800  0.181300  0.572300  1.0  -0.1557
  C  C61  1  0.341200  0.109500  0.541600  1.0  0.6867
  C  C62  1  0.173100  0.318550  0.868100  1.0  0.0744
  C  C63  1  0.274800  0.318700  0.927700  1.0  -0.1551
  C  C64  1  0.341200  0.390500  0.958400  1.0  0.6873
  C  C65  1  0.173100  0.868100  0.181450  1.0  0.0734
  C  C66  1  0.274800  0.927700  0.181300  1.0  -0.158
  C  C67  1  0.341200  0.958400  0.109500  1.0  0.687
  C  C68  1  0.173100  0.631900  0.318550  1.0  0.0724
  C  C69  1  0.274800  0.572300  0.318700  1.0  -0.1584
  C  C70  1  0.341200  0.541600  0.390500  1.0  0.6873
  C  C71  1  0.826900  0.818550  0.131900  1.0  0.0741
  C  C72  1  0.725200  0.818700  0.072300  1.0  -0.155
  C  C73  1  0.658800  0.890500  0.041600  1.0  0.6872
  C  C74  1  0.826900  0.681450  0.368100  1.0  0.0753
  C  C75  1  0.725200  0.681300  0.427700  1.0  -0.1559
  C  C76  1  0.658800  0.609500  0.458400  1.0  0.6873
  C  C77  1  0.826900  0.131900  0.681450  1.0  0.0733
  C  C78  1  0.725200  0.072300  0.681300  1.0  -0.1587
  C  C79  1  0.658800  0.041600  0.609500  1.0  0.6873
  C  C80  1  0.826900  0.368100  0.818550  1.0  0.0733
  C  C81  1  0.725200  0.427700  0.818700  1.0  -0.1584
  C  C82  1  0.658800  0.458400  0.890500  1.0  0.6876
  C  C83  1  0.879500  0.750000  0.337500  1.0  -0.4045
  C  C84  1  0.676700  0.750000  0.457300  1.0  0.0245
  C  C85  1  0.879500  0.750000  0.162500  1.0  -0.4026
  C  C86  1  0.676700  0.750000  0.042700  1.0  0.0246
  C  C87  1  0.879500  0.162500  0.750000  1.0  -0.4013
  C  C88  1  0.676700  0.042700  0.750000  1.0  0.027
  C  C89  1  0.879500  0.337500  0.750000  1.0  -0.4014
  C  C90  1  0.676700  0.457300  0.750000  1.0  0.0265
  C  C91  1  0.120500  0.250000  0.837500  1.0  -0.4057
  C  C92  1  0.323300  0.250000  0.957300  1.0  0.0257
  C  C93  1  0.120500  0.250000  0.662500  1.0  -0.404
  C  C94  1  0.323300  0.250000  0.542700  1.0  0.0248
  C  C95  1  0.120500  0.837500  0.250000  1.0  -0.4029
  C  C96  1  0.323300  0.957300  0.250000  1.0  0.0275
  C  C97  1  0.120500  0.662500  0.250000  1.0  -0.4026
  C  C98  1  0.323300  0.542700  0.250000  1.0  0.0272
  O  O99  1  0.558900  0.882200  0.506210  1.0  -0.5747
  O  O100  1  0.704500  0.953000  0.432500  1.0  -0.5546
  O  O101  1  0.558900  0.617800  0.993790  1.0  -0.5748
  O  O102  1  0.704500  0.547000  0.067500  1.0  -0.5544
  O  O103  1  0.558900  0.993790  0.882200  1.0  -0.5748
  O  O104  1  0.704500  0.067500  0.953000  1.0  -0.5545
  O  O105  1  0.558900  0.506210  0.617800  1.0  -0.5749
  O  O106  1  0.704500  0.432500  0.547000  1.0  -0.5542
  O  O107  1  0.441100  0.117800  0.006210  1.0  -0.5746
  O  O108  1  0.295500  0.047000  0.932500  1.0  -0.5549
  O  O109  1  0.441100  0.382200  0.493790  1.0  -0.5753
  O  O110  1  0.295500  0.453000  0.567500  1.0  -0.5545
  O  O111  1  0.441100  0.006210  0.382200  1.0  -0.5747
  O  O112  1  0.295500  0.932500  0.453000  1.0  -0.5545
  O  O113  1  0.441100  0.493790  0.117800  1.0  -0.5752
  O  O114  1  0.295500  0.567500  0.047000  1.0  -0.5543
  O  O115  1  0.441100  0.117800  0.493790  1.0  -0.5752
  O  O116  1  0.295500  0.047000  0.567500  1.0  -0.5538
  O  O117  1  0.441100  0.382200  0.006210  1.0  -0.5754
  O  O118  1  0.295500  0.453000  0.932500  1.0  -0.5544
  O  O119  1  0.441100  0.006210  0.117800  1.0  -0.5753
  O  O120  1  0.295500  0.932500  0.047000  1.0  -0.5544
  O  O121  1  0.441100  0.493790  0.382200  1.0  -0.5749
  O  O122  1  0.295500  0.567500  0.453000  1.0  -0.5545
  O  O123  1  0.558900  0.882200  0.993790  1.0  -0.5756
  O  O124  1  0.704500  0.953000  0.067500  1.0  -0.5539
  O  O125  1  0.558900  0.617800  0.506210  1.0  -0.5745
  O  O126  1  0.704500  0.547000  0.432500  1.0  -0.5551
  O  O127  1  0.558900  0.993790  0.617800  1.0  -0.5751
  O  O128  1  0.704500  0.067500  0.547000  1.0  -0.554
  O  O129  1  0.558900  0.506210  0.882200  1.0  -0.5746
  O  O130  1  0.704500  0.432500  0.953000  1.0  -0.5543
