# generated using pymatgen
data_CoH24C32O9
_symmetry_space_group_name_H-M   'P 1'
_cell_length_a   8.14550000
_cell_length_b   13.18690000
_cell_length_c   19.36650000
_cell_angle_alpha   109.90500000
_cell_angle_beta   99.43920000
_cell_angle_gamma   90.00000000
_symmetry_Int_Tables_number   1
_chemical_formula_structural   CoH24C32O9
_chemical_formula_sum   'Co2 H48 C64 O18'
_cell_volume   1925.97234717
_cell_formula_units_Z   2
loop_
 _symmetry_equiv_pos_site_id
 _symmetry_equiv_pos_as_xyz
  1  'x, y, z'
loop_
 _atom_site_type_symbol
 _atom_site_label
 _atom_site_symmetry_multiplicity
 _atom_site_fract_x
 _atom_site_fract_y
 _atom_site_fract_z
 _atom_site_occupancy
 _atom_site_charge
  Co  Co1  1  0.000000  0.000000  0.000000  1.0  0.9811
  Co  Co2  1  0.500000  0.000000  0.000000  1.0  0.9811
  H  H3  1  0.045000  0.643700  0.750600  1.0  0.0986
  H  H4  1  0.896800  0.545600  0.636000  1.0  0.0968
  H  H5  1  0.513700  0.732000  0.678600  1.0  0.106
  H  H6  1  0.663100  0.831300  0.793400  1.0  0.0973
  H  H7  1  0.655900  0.439500  0.654400  1.0  0.0953
  H  H8  1  0.808900  0.326300  0.693800  1.0  0.0788
  H  H9  1  0.659500  0.341600  0.737400  1.0  0.0942
  H  H10  1  0.761700  0.238100  0.725800  1.0  0.1214
  H  H11  1  0.408600  0.058800  0.402400  1.0  0.0725
  H  H12  1  0.329400  0.988200  0.440600  1.0  0.1082
  H  H13  1  0.239800  0.089000  0.431000  1.0  0.0759
  H  H14  1  0.344000  0.238900  0.425800  1.0  0.0923
  H  H15  1  0.455000  0.893100  0.249400  1.0  0.0982
  H  H16  1  0.603200  0.909600  0.364000  1.0  0.0977
  H  H17  1  0.986300  0.053400  0.321400  1.0  0.105
  H  H18  1  0.836900  0.037900  0.206600  1.0  0.0979
  H  H19  1  0.844100  0.785100  0.345600  1.0  0.0972
  H  H20  1  0.691100  0.632500  0.306200  1.0  0.0765
  H  H21  1  0.840500  0.604200  0.262600  1.0  0.0921
  H  H22  1  0.738300  0.512300  0.274200  1.0  0.1204
  H  H23  1  0.091400  0.656400  0.597600  1.0  0.0728
  H  H24  1  0.170600  0.547600  0.559400  1.0  0.1074
  H  H25  1  0.260200  0.658000  0.569000  1.0  0.0755
  H  H26  1  0.156000  0.813100  0.574200  1.0  0.0915
  H  H27  1  0.955000  0.356300  0.249400  1.0  0.0986
  H  H28  1  0.103200  0.454400  0.364000  1.0  0.0964
  H  H29  1  0.486300  0.268000  0.321400  1.0  0.1032
  H  H30  1  0.336900  0.168700  0.206600  1.0  0.097
  H  H31  1  0.344100  0.560500  0.345600  1.0  0.095
  H  H32  1  0.191100  0.673700  0.306200  1.0  0.0774
  H  H33  1  0.340500  0.658400  0.262600  1.0  0.0921
  H  H34  1  0.238300  0.761900  0.274200  1.0  0.1213
  H  H35  1  0.591400  0.941200  0.597600  1.0  0.0728
  H  H36  1  0.670600  0.011800  0.559400  1.0  0.1093
  H  H37  1  0.760200  0.911000  0.569000  1.0  0.0763
  H  H38  1  0.656000  0.761100  0.574200  1.0  0.0911
  H  H39  1  0.545000  0.106900  0.750600  1.0  0.0987
  H  H40  1  0.396800  0.090400  0.636000  1.0  0.0968
  H  H41  1  0.013700  0.946600  0.678600  1.0  0.1033
  H  H42  1  0.163100  0.962100  0.793400  1.0  0.0976
  H  H43  1  0.155900  0.214900  0.654400  1.0  0.0968
  H  H44  1  0.308900  0.367500  0.693800  1.0  0.077
  H  H45  1  0.159500  0.395800  0.737400  1.0  0.0932
  H  H46  1  0.261700  0.487700  0.725800  1.0  0.1188
  H  H47  1  0.908600  0.343600  0.402400  1.0  0.071
  H  H48  1  0.829400  0.452400  0.440600  1.0  0.1076
  H  H49  1  0.739800  0.342000  0.431000  1.0  0.0766
  H  H50  1  0.844000  0.186900  0.425800  1.0  0.0926
  C  C51  1  0.966100  0.808460  0.860120  1.0  0.6901
  C  C52  1  0.869200  0.746570  0.784940  1.0  -0.1442
  C  C53  1  0.937300  0.661430  0.736460  1.0  -0.0386
  C  C54  1  0.848500  0.602740  0.667680  1.0  -0.1202
  C  C55  1  0.689200  0.627120  0.644840  1.0  0.0793
  C  C56  1  0.621000  0.713860  0.693120  1.0  -0.1274
  C  C57  1  0.710100  0.773000  0.762000  1.0  -0.0305
  C  C58  1  0.593000  0.561930  0.570460  1.0  -0.065
  C  C59  1  0.548400  0.452940  0.554880  1.0  -0.0043
  C  C60  1  0.597200  0.399670  0.607340  1.0  -0.1832
  C  C61  1  0.561000  0.293650  0.590900  1.0  0.1781
  C  C62  1  0.718500  0.289860  0.703720  1.0  -0.002
  C  C63  1  0.464600  0.231350  0.520500  1.0  0.2412
  C  C64  1  0.346000  0.060260  0.440520  1.0  -0.0003
  C  C65  1  0.411100  0.279260  0.470520  1.0  -0.2118
  C  C66  1  0.454000  0.390410  0.483820  1.0  -0.0028
  C  C67  1  0.533900  0.948340  0.139880  1.0  0.6832
  C  C68  1  0.630800  0.961630  0.215060  1.0  -0.1433
  C  C69  1  0.562700  0.924970  0.263540  1.0  -0.0383
  C  C70  1  0.651500  0.935060  0.332320  1.0  -0.1222
  C  C71  1  0.810800  0.982280  0.355160  1.0  0.079
  C  C72  1  0.879000  0.020740  0.306880  1.0  -0.1266
  C  C73  1  0.789900  0.011000  0.238000  1.0  -0.0301
  C  C74  1  0.907000  0.991470  0.429540  1.0  -0.0661
  C  C75  1  0.951600  0.898060  0.445120  1.0  -0.0056
  C  C76  1  0.902800  0.792330  0.392660  1.0  -0.182
  C  C77  1  0.939000  0.702750  0.409100  1.0  0.1759
  C  C78  1  0.781500  0.586140  0.296280  1.0  -0.0013
  C  C79  1  0.035400  0.710850  0.479500  1.0  0.2408
  C  C80  1  0.154000  0.619740  0.559480  1.0  -0.002
  C  C81  1  0.088900  0.808740  0.529480  1.0  -0.2089
  C  C82  1  0.046000  0.906590  0.516180  1.0  -0.0022
  C  C83  1  0.033900  0.191540  0.139880  1.0  0.6835
  C  C84  1  0.130800  0.253430  0.215060  1.0  -0.147
  C  C85  1  0.062700  0.338570  0.263540  1.0  -0.0365
  C  C86  1  0.151500  0.397260  0.332320  1.0  -0.1218
  C  C87  1  0.310800  0.372880  0.355160  1.0  0.0792
  C  C88  1  0.379000  0.286140  0.306880  1.0  -0.1293
  C  C89  1  0.289900  0.227000  0.238000  1.0  -0.03
  C  C90  1  0.407000  0.438070  0.429540  1.0  -0.0664
  C  C91  1  0.451600  0.547060  0.445120  1.0  -0.0055
  C  C92  1  0.402800  0.600330  0.392660  1.0  -0.1822
  C  C93  1  0.439000  0.706350  0.409100  1.0  0.1782
  C  C94  1  0.281500  0.710140  0.296280  1.0  -0.0021
  C  C95  1  0.535400  0.768650  0.479500  1.0  0.2417
  C  C96  1  0.654000  0.939740  0.559480  1.0  1e-04
  C  C97  1  0.588900  0.720740  0.529480  1.0  -0.2066
  C  C98  1  0.546000  0.609590  0.516180  1.0  -0.0033
  C  C99  1  0.466100  0.051660  0.860120  1.0  0.6877
  C  C100  1  0.369200  0.038370  0.784940  1.0  -0.1433
  C  C101  1  0.437300  0.075030  0.736460  1.0  -0.0405
  C  C102  1  0.348500  0.064940  0.667680  1.0  -0.1221
  C  C103  1  0.189200  0.017720  0.644840  1.0  0.0794
  C  C104  1  0.121000  0.979260  0.693120  1.0  -0.1248
  C  C105  1  0.210100  0.989000  0.762000  1.0  -0.0304
  C  C106  1  0.093000  0.008530  0.570460  1.0  -0.0648
  C  C107  1  0.048400  0.101940  0.554880  1.0  -0.0043
  C  C108  1  0.097200  0.207670  0.607340  1.0  -0.1836
  C  C109  1  0.061000  0.297250  0.590900  1.0  0.1785
  C  C110  1  0.218500  0.413860  0.703720  1.0  -0.0005
  C  C111  1  0.964600  0.289150  0.520500  1.0  0.2407
  C  C112  1  0.846000  0.380260  0.440520  1.0  -0.0017
  C  C113  1  0.911100  0.191260  0.470520  1.0  -0.2076
  C  C114  1  0.954000  0.093410  0.483820  1.0  -0.0028
  O  O115  1  0.892400  0.879550  0.904840  1.0  -0.6059
  O  O116  1  0.112700  0.787980  0.875760  1.0  -0.5026
  O  O117  1  0.609000  0.236280  0.636660  1.0  -0.2796
  O  O118  1  0.435200  0.126460  0.511080  1.0  -0.252
  O  O119  1  0.607600  0.974710  0.095160  1.0  -0.6019
  O  O120  1  0.387300  0.912220  0.124240  1.0  -0.5006
  O  O121  1  0.891000  0.599620  0.363340  1.0  -0.2827
  O  O122  1  0.064800  0.615380  0.488920  1.0  -0.2526
  O  O123  1  0.107600  0.120450  0.095160  1.0  -0.6053
  O  O124  1  0.887300  0.212020  0.124240  1.0  -0.5024
  O  O125  1  0.391000  0.763720  0.363340  1.0  -0.2807
  O  O126  1  0.564800  0.873540  0.488920  1.0  -0.2528
  O  O127  1  0.392400  0.025290  0.904840  1.0  -0.604
  O  O128  1  0.612700  0.087780  0.875760  1.0  -0.5023
  O  O129  1  0.109000  0.400380  0.636660  1.0  -0.2808
  O  O130  1  0.935200  0.384620  0.511080  1.0  -0.2528
  O  O131  1  0.750000  0.066600  0.000000  1.0  -0.4768
  O  O132  1  0.250000  0.933400  0.000000  1.0  -0.477
