# generated using pymatgen
data_NiH24C32O9
_symmetry_space_group_name_H-M   'P 1'
_cell_length_a   7.94800000
_cell_length_b   13.41000000
_cell_length_c   19.50000000
_cell_angle_alpha   110.11100000
_cell_angle_beta   99.34520000
_cell_angle_gamma   90.00000000
_symmetry_Int_Tables_number   1
_chemical_formula_structural   NiH24C32O9
_chemical_formula_sum   'Ni2 H48 C64 O18'
_cell_volume   1922.23910792
_cell_formula_units_Z   2
loop_
 _symmetry_equiv_pos_site_id
 _symmetry_equiv_pos_as_xyz
  1  'x, y, z'
loop_
 _atom_site_type_symbol
 _atom_site_label
 _atom_site_symmetry_multiplicity
 _atom_site_fract_x
 _atom_site_fract_y
 _atom_site_fract_z
 _atom_site_occupancy
 _atom_site_charge
  Ni  Ni1  1  0.000000  0.000000  0.000000  1.0  0.8051
  Ni  Ni2  1  0.500000  0.000000  0.000000  1.0  0.8051
  H  H3  1  0.048500  0.109800  0.754400  1.0  0.0981
  H  H4  1  0.898600  0.093200  0.639200  1.0  0.0968
  H  H5  1  0.510000  0.941800  0.677000  1.0  0.1055
  H  H6  1  0.660400  0.958000  0.792400  1.0  0.1075
  H  H7  1  0.644400  0.210500  0.657200  1.0  0.1067
  H  H8  1  0.655600  0.813600  0.572800  1.0  0.1057
  H  H9  1  0.757200  0.656800  0.569600  1.0  0.0684
  H  H10  1  0.577500  0.659700  0.593400  1.0  0.0689
  H  H11  1  0.655300  0.550300  0.557600  1.0  0.0955
  H  H12  1  0.356100  0.613800  0.258200  1.0  0.0855
  H  H13  1  0.255700  0.517800  0.264800  1.0  0.1137
  H  H14  1  0.196800  0.633600  0.298200  1.0  0.0761
  H  H15  1  0.451500  0.355400  0.245600  1.0  0.098
  H  H16  1  0.601400  0.454000  0.360800  1.0  0.0967
  H  H17  1  0.990000  0.264800  0.323000  1.0  0.1059
  H  H18  1  0.839600  0.165600  0.207600  1.0  0.1062
  H  H19  1  0.855600  0.553300  0.342800  1.0  0.1042
  H  H20  1  0.844400  0.240800  0.427200  1.0  0.1066
  H  H21  1  0.742800  0.087200  0.430400  1.0  0.0676
  H  H22  1  0.922500  0.066300  0.406600  1.0  0.0701
  H  H23  1  0.844700  0.992700  0.442400  1.0  0.093
  H  H24  1  0.143900  0.355600  0.741800  1.0  0.089
  H  H25  1  0.244300  0.253000  0.735200  1.0  0.1129
  H  H26  1  0.303200  0.335400  0.701800  1.0  0.0783
  H  H27  1  0.951500  0.890200  0.245600  1.0  0.0973
  H  H28  1  0.101400  0.906800  0.360800  1.0  0.0979
  H  H29  1  0.490000  0.058200  0.323000  1.0  0.1052
  H  H30  1  0.339600  0.042000  0.207600  1.0  0.1074
  H  H31  1  0.355600  0.789500  0.342800  1.0  0.107
  H  H32  1  0.344400  0.186400  0.427200  1.0  0.1066
  H  H33  1  0.242800  0.343200  0.430400  1.0  0.0689
  H  H34  1  0.422500  0.340300  0.406600  1.0  0.0684
  H  H35  1  0.344700  0.449700  0.442400  1.0  0.0982
  H  H36  1  0.643900  0.386200  0.741800  1.0  0.0864
  H  H37  1  0.744300  0.482200  0.735200  1.0  0.1106
  H  H38  1  0.803200  0.366400  0.701800  1.0  0.0773
  H  H39  1  0.548500  0.644600  0.754400  1.0  0.0978
  H  H40  1  0.398600  0.546000  0.639200  1.0  0.0966
  H  H41  1  0.010000  0.735200  0.677000  1.0  0.1065
  H  H42  1  0.160400  0.834400  0.792400  1.0  0.1069
  H  H43  1  0.144400  0.446700  0.657200  1.0  0.1045
  H  H44  1  0.155600  0.759200  0.572800  1.0  0.1056
  H  H45  1  0.257200  0.912800  0.569600  1.0  0.0689
  H  H46  1  0.077500  0.933700  0.593400  1.0  0.0694
  H  H47  1  0.155300  0.007300  0.557600  1.0  0.0963
  H  H48  1  0.856100  0.644400  0.258200  1.0  0.0861
  H  H49  1  0.755700  0.747000  0.264800  1.0  0.1139
  H  H50  1  0.696800  0.664600  0.298200  1.0  0.0777
  C  C51  1  0.969200  0.049390  0.860980  1.0  0.6627
  C  C52  1  0.870100  0.036890  0.785980  1.0  -0.1289
  C  C53  1  0.939600  0.076170  0.739140  1.0  -0.0347
  C  C54  1  0.849400  0.066180  0.669760  1.0  -0.139
  C  C55  1  0.686700  0.016350  0.645500  1.0  0.0742
  C  C56  1  0.618500  0.976100  0.692400  1.0  -0.1442
  C  C57  1  0.708600  0.985790  0.761980  1.0  -0.0341
  C  C58  1  0.589100  0.204480  0.609960  1.0  -0.2326
  C  C59  1  0.544200  0.100980  0.555960  1.0  0.0317
  C  C60  1  0.590600  0.007850  0.570700  1.0  -0.0206
  C  C61  1  0.547000  0.907300  0.515400  1.0  0.0235
  C  C62  1  0.589800  0.809950  0.527900  1.0  -0.2517
  C  C63  1  0.645500  0.621630  0.557460  1.0  0.0
  C  C64  1  0.537800  0.713540  0.476680  1.0  0.186
  C  C65  1  0.445900  0.706400  0.405000  1.0  0.1797
  C  C66  1  0.293800  0.591390  0.289180  1.0  -0.0098
  C  C67  1  0.530800  0.188410  0.139020  1.0  0.659
  C  C68  1  0.629900  0.250910  0.214020  1.0  -0.1316
  C  C69  1  0.560400  0.337030  0.260860  1.0  -0.0336
  C  C70  1  0.650600  0.396420  0.330240  1.0  -0.1366
  C  C71  1  0.813300  0.370850  0.354500  1.0  0.0754
  C  C72  1  0.881500  0.283700  0.307600  1.0  -0.1469
  C  C73  1  0.791400  0.223810  0.238020  1.0  -0.032
  C  C74  1  0.910900  0.594520  0.390040  1.0  -0.2286
  C  C75  1  0.955800  0.545020  0.444040  1.0  0.0309
  C  C76  1  0.909400  0.437150  0.429300  1.0  -0.0209
  C  C77  1  0.953000  0.391900  0.484600  1.0  0.0231
  C  C78  1  0.910200  0.282050  0.472100  1.0  -0.2508
  C  C79  1  0.854500  0.064170  0.442540  1.0  0.0005
  C  C80  1  0.962200  0.236860  0.523320  1.0  0.1868
  C  C81  1  0.054100  0.301400  0.595000  1.0  0.1799
  C  C82  1  0.206200  0.302210  0.710820  1.0  -0.0077
  C  C83  1  0.030800  0.950610  0.139020  1.0  0.6586
  C  C84  1  0.129900  0.963110  0.214020  1.0  -0.1272
  C  C85  1  0.060400  0.923830  0.260860  1.0  -0.0345
  C  C86  1  0.150600  0.933820  0.330240  1.0  -0.138
  C  C87  1  0.313300  0.983650  0.354500  1.0  0.0754
  C  C88  1  0.381500  0.023900  0.307600  1.0  -0.1435
  C  C89  1  0.291400  0.014210  0.238020  1.0  -0.0335
  C  C90  1  0.410900  0.795520  0.390040  1.0  -0.2392
  C  C91  1  0.455800  0.899020  0.444040  1.0  0.032
  C  C92  1  0.409400  0.992150  0.429300  1.0  -0.0213
  C  C93  1  0.453000  0.092700  0.484600  1.0  0.0262
  C  C94  1  0.410200  0.190050  0.472100  1.0  -0.2517
  C  C95  1  0.354500  0.378370  0.442540  1.0  -0.0002
  C  C96  1  0.462200  0.286460  0.523320  1.0  0.1862
  C  C97  1  0.554100  0.293600  0.595000  1.0  0.1779
  C  C98  1  0.706200  0.408610  0.710820  1.0  -0.0067
  C  C99  1  0.469200  0.811590  0.860980  1.0  0.6679
  C  C100  1  0.370100  0.749090  0.785980  1.0  -0.1269
  C  C101  1  0.439600  0.662970  0.739140  1.0  -0.0338
  C  C102  1  0.349400  0.603580  0.669760  1.0  -0.1374
  C  C103  1  0.186700  0.629150  0.645500  1.0  0.0745
  C  C104  1  0.118500  0.716300  0.692400  1.0  -0.1483
  C  C105  1  0.208600  0.776190  0.761980  1.0  -0.0333
  C  C106  1  0.089100  0.405480  0.609960  1.0  -0.2384
  C  C107  1  0.044200  0.454980  0.555960  1.0  0.0327
  C  C108  1  0.090600  0.562850  0.570700  1.0  -0.0205
  C  C109  1  0.047000  0.608100  0.515400  1.0  0.025
  C  C110  1  0.089800  0.717950  0.527900  1.0  -0.2502
  C  C111  1  0.145500  0.935830  0.557460  1.0  0.0011
  C  C112  1  0.037800  0.763140  0.476680  1.0  0.1858
  C  C113  1  0.945900  0.698600  0.405000  1.0  0.1793
  C  C114  1  0.793800  0.697790  0.289180  1.0  -0.0095
  O  O115  1  0.566000  0.618540  0.485660  1.0  -0.2205
  O  O116  1  0.401800  0.604480  0.357780  1.0  -0.2341
  O  O117  1  0.892900  0.021250  0.904640  1.0  -0.5757
  O  O118  1  0.119300  0.085480  0.877240  1.0  -0.4754
  O  O119  1  0.934000  0.132880  0.514340  1.0  -0.2213
  O  O120  1  0.098200  0.246700  0.642220  1.0  -0.2306
  O  O121  1  0.607100  0.116610  0.095360  1.0  -0.5724
  O  O122  1  0.380700  0.208240  0.122760  1.0  -0.4725
  O  O123  1  0.434000  0.381460  0.514340  1.0  -0.2215
  O  O124  1  0.598200  0.395520  0.642220  1.0  -0.2313
  O  O125  1  0.107100  0.978750  0.095360  1.0  -0.5708
  O  O126  1  0.880700  0.914520  0.122760  1.0  -0.4709
  O  O127  1  0.066000  0.867120  0.485660  1.0  -0.222
  O  O128  1  0.901800  0.753300  0.357780  1.0  -0.2323
  O  O129  1  0.392900  0.883390  0.904640  1.0  -0.575
  O  O130  1  0.619300  0.791760  0.877240  1.0  -0.475
  O  O131  1  0.250000  0.062550  0.000000  1.0  -0.3926
  O  O132  1  0.750000  0.937450  0.000000  1.0  -0.3923
