# generated using pymatgen
data_Nd2P5H32C18S2(NO5)4
_symmetry_space_group_name_H-M   'P 1'
_cell_length_a   14.30300000
_cell_length_b   18.71590000
_cell_length_c   17.05110000
_cell_angle_alpha   90.00000000
_cell_angle_beta   102.11800000
_cell_angle_gamma   90.00000000
_symmetry_Int_Tables_number   1
_chemical_formula_structural   Nd2P5H32C18S2(NO5)4
_chemical_formula_sum   'Nd8 P20 H128 C72 S8 N16 O80'
_cell_volume   4462.76040689
_cell_formula_units_Z   4
loop_
 _symmetry_equiv_pos_site_id
 _symmetry_equiv_pos_as_xyz
  1  'x, y, z'
loop_
 _atom_site_type_symbol
 _atom_site_label
 _atom_site_symmetry_multiplicity
 _atom_site_fract_x
 _atom_site_fract_y
 _atom_site_fract_z
 _atom_site_occupancy
 _atom_site_charge
  Nd  Nd1  1  0.500000  0.652770  0.500000  1.0  2.3415
  Nd  Nd2  1  0.000000  0.152770  0.000000  1.0  2.3415
  Nd  Nd3  1  0.500000  0.347230  0.500000  1.0  2.3416
  Nd  Nd4  1  0.000000  0.847230  0.000000  1.0  2.3416
  Nd  Nd5  1  0.643160  0.500000  0.390230  1.0  2.1457
  Nd  Nd6  1  0.143160  0.000000  0.890230  1.0  2.1457
  Nd  Nd7  1  0.356840  0.500000  0.609770  1.0  2.1466
  Nd  Nd8  1  0.856840  0.000000  0.109770  1.0  2.1466
  P  P9  1  0.509980  0.663270  0.309740  1.0  1.5241
  P  P10  1  0.723020  0.755390  0.501440  1.0  1.5804
  P  P11  1  0.009980  0.163270  0.809740  1.0  1.5241
  P  P12  1  0.223020  0.255390  0.001440  1.0  1.5804
  P  P13  1  0.490020  0.663270  0.690260  1.0  1.523
  P  P14  1  0.276980  0.755390  0.498560  1.0  1.5809
  P  P15  1  0.990020  0.163270  0.190260  1.0  1.523
  P  P16  1  0.776980  0.255390  0.998560  1.0  1.5809
  P  P17  1  0.490020  0.336730  0.690260  1.0  1.5236
  P  P18  1  0.276980  0.244610  0.498560  1.0  1.5811
  P  P19  1  0.990020  0.836730  0.190260  1.0  1.5236
  P  P20  1  0.776980  0.744610  0.998560  1.0  1.5811
  P  P21  1  0.509980  0.336730  0.309740  1.0  1.524
  P  P22  1  0.723020  0.244610  0.501440  1.0  1.5801
  P  P23  1  0.009980  0.836730  0.809740  1.0  1.524
  P  P24  1  0.223020  0.744610  0.001440  1.0  1.5801
  P  P25  1  0.619530  0.500000  0.575750  1.0  1.5179
  P  P26  1  0.119530  0.000000  0.075750  1.0  1.5179
  P  P27  1  0.380470  0.500000  0.424250  1.0  1.5189
  P  P28  1  0.880470  0.000000  0.924250  1.0  1.5189
  H  H29  1  0.698500  0.845900  0.316600  1.0  0.0948
  H  H30  1  0.676200  0.833000  0.223600  1.0  0.0992
  H  H31  1  0.651200  0.707800  0.171200  1.0  0.1151
  H  H32  1  0.660300  0.644400  0.232800  1.0  0.0902
  H  H33  1  0.529300  0.767100  0.238300  1.0  0.1443
  H  H34  1  0.557000  0.782800  0.330500  1.0  0.1778
  H  H35  1  0.865000  0.702400  0.749500  1.0  0.1024
  H  H36  1  0.798600  0.636300  0.722700  1.0  0.0935
  H  H37  1  0.705600  0.831800  0.644900  1.0  0.1082
  H  H38  1  0.808000  0.824100  0.699900  1.0  0.1022
  H  H39  1  0.791200  0.664100  0.586600  1.0  0.1732
  H  H40  1  0.852500  0.733600  0.605900  1.0  0.1512
  H  H41  1  0.699300  0.725100  0.335300  1.0  0.2596
  H  H42  1  0.683700  0.712000  0.655900  1.0  0.2356
  H  H43  1  0.198500  0.345900  0.816600  1.0  0.0948
  H  H44  1  0.176200  0.333000  0.723600  1.0  0.0992
  H  H45  1  0.151200  0.207800  0.671200  1.0  0.1151
  H  H46  1  0.160300  0.144400  0.732800  1.0  0.0902
  H  H47  1  0.029300  0.267100  0.738300  1.0  0.1443
  H  H48  1  0.057000  0.282800  0.830500  1.0  0.1778
  H  H49  1  0.365000  0.202400  0.249500  1.0  0.1024
  H  H50  1  0.298600  0.136300  0.222700  1.0  0.0935
  H  H51  1  0.205600  0.331800  0.144900  1.0  0.1082
  H  H52  1  0.308000  0.324100  0.199900  1.0  0.1022
  H  H53  1  0.291200  0.164100  0.086600  1.0  0.1732
  H  H54  1  0.352500  0.233600  0.105900  1.0  0.1512
  H  H55  1  0.199300  0.225100  0.835300  1.0  0.2596
  H  H56  1  0.183700  0.212000  0.155900  1.0  0.2356
  H  H57  1  0.301500  0.845900  0.683400  1.0  0.0976
  H  H58  1  0.323800  0.833000  0.776400  1.0  0.0968
  H  H59  1  0.348800  0.707800  0.828800  1.0  0.1166
  H  H60  1  0.339700  0.644400  0.767200  1.0  0.0913
  H  H61  1  0.470700  0.767100  0.761700  1.0  0.1434
  H  H62  1  0.443000  0.782800  0.669500  1.0  0.179
  H  H63  1  0.135000  0.702400  0.250500  1.0  0.0995
  H  H64  1  0.201400  0.636300  0.277300  1.0  0.0938
  H  H65  1  0.294400  0.831800  0.355100  1.0  0.108
  H  H66  1  0.192000  0.824100  0.300100  1.0  0.0983
  H  H67  1  0.208800  0.664100  0.413400  1.0  0.1764
  H  H68  1  0.147500  0.733600  0.394100  1.0  0.1521
  H  H69  1  0.300700  0.725100  0.664700  1.0  0.2574
  H  H70  1  0.316300  0.712000  0.344100  1.0  0.2398
  H  H71  1  0.801500  0.345900  0.183400  1.0  0.0976
  H  H72  1  0.823800  0.333000  0.276400  1.0  0.0968
  H  H73  1  0.848800  0.207800  0.328800  1.0  0.1166
  H  H74  1  0.839700  0.144400  0.267200  1.0  0.0913
  H  H75  1  0.970700  0.267100  0.261700  1.0  0.1434
  H  H76  1  0.943000  0.282800  0.169500  1.0  0.179
  H  H77  1  0.635000  0.202400  0.750500  1.0  0.0995
  H  H78  1  0.701400  0.136300  0.777300  1.0  0.0938
  H  H79  1  0.794400  0.331800  0.855100  1.0  0.108
  H  H80  1  0.692000  0.324100  0.800100  1.0  0.0983
  H  H81  1  0.708800  0.164100  0.913400  1.0  0.1764
  H  H82  1  0.647500  0.233600  0.894100  1.0  0.1521
  H  H83  1  0.800700  0.225100  0.164700  1.0  0.2574
  H  H84  1  0.816300  0.212000  0.844100  1.0  0.2398
  H  H85  1  0.301500  0.154100  0.683400  1.0  0.0962
  H  H86  1  0.323800  0.167000  0.776400  1.0  0.0967
  H  H87  1  0.348800  0.292200  0.828800  1.0  0.1167
  H  H88  1  0.339700  0.355600  0.767200  1.0  0.0897
  H  H89  1  0.470700  0.232900  0.761700  1.0  0.1438
  H  H90  1  0.443000  0.217200  0.669500  1.0  0.1778
  H  H91  1  0.135000  0.297600  0.250500  1.0  0.0997
  H  H92  1  0.201400  0.363700  0.277300  1.0  0.0959
  H  H93  1  0.294400  0.168200  0.355100  1.0  0.1103
  H  H94  1  0.192000  0.175900  0.300100  1.0  0.1009
  H  H95  1  0.208800  0.335900  0.413400  1.0  0.1748
  H  H96  1  0.147500  0.266400  0.394100  1.0  0.1529
  H  H97  1  0.300700  0.274900  0.664700  1.0  0.2564
  H  H98  1  0.316300  0.288000  0.344100  1.0  0.2387
  H  H99  1  0.801500  0.654100  0.183400  1.0  0.0962
  H  H100  1  0.823800  0.667000  0.276400  1.0  0.0967
  H  H101  1  0.848800  0.792200  0.328800  1.0  0.1167
  H  H102  1  0.839700  0.855600  0.267200  1.0  0.0897
  H  H103  1  0.970700  0.732900  0.261700  1.0  0.1438
  H  H104  1  0.943000  0.717200  0.169500  1.0  0.1778
  H  H105  1  0.635000  0.797600  0.750500  1.0  0.0997
  H  H106  1  0.701400  0.863700  0.777300  1.0  0.0959
  H  H107  1  0.794400  0.668200  0.855100  1.0  0.1103
  H  H108  1  0.692000  0.675900  0.800100  1.0  0.1009
  H  H109  1  0.708800  0.835900  0.913400  1.0  0.1748
  H  H110  1  0.647500  0.766400  0.894100  1.0  0.1529
  H  H111  1  0.800700  0.774900  0.164700  1.0  0.2564
  H  H112  1  0.816300  0.788000  0.844100  1.0  0.2387
  H  H113  1  0.698500  0.154100  0.316600  1.0  0.0961
  H  H114  1  0.676200  0.167000  0.223600  1.0  0.0989
  H  H115  1  0.651200  0.292200  0.171200  1.0  0.115
  H  H116  1  0.660300  0.355600  0.232800  1.0  0.0896
  H  H117  1  0.529300  0.232900  0.238300  1.0  0.1446
  H  H118  1  0.557000  0.217200  0.330500  1.0  0.1781
  H  H119  1  0.865000  0.297600  0.749500  1.0  0.1025
  H  H120  1  0.798600  0.363700  0.722700  1.0  0.0953
  H  H121  1  0.705600  0.168200  0.644900  1.0  0.1061
  H  H122  1  0.808000  0.175900  0.699900  1.0  0.1018
  H  H123  1  0.791200  0.335900  0.586600  1.0  0.1733
  H  H124  1  0.852500  0.266400  0.605900  1.0  0.1505
  H  H125  1  0.699300  0.274900  0.335300  1.0  0.2584
  H  H126  1  0.683700  0.288000  0.655900  1.0  0.2353
  H  H127  1  0.198500  0.654100  0.816600  1.0  0.0961
  H  H128  1  0.176200  0.667000  0.723600  1.0  0.0989
  H  H129  1  0.151200  0.792200  0.671200  1.0  0.115
  H  H130  1  0.160300  0.855600  0.732800  1.0  0.0896
  H  H131  1  0.029300  0.732900  0.738300  1.0  0.1446
  H  H132  1  0.057000  0.717200  0.830500  1.0  0.1781
  H  H133  1  0.365000  0.797600  0.249500  1.0  0.1025
  H  H134  1  0.298600  0.863700  0.222700  1.0  0.0953
  H  H135  1  0.205600  0.668200  0.144900  1.0  0.1061
  H  H136  1  0.308000  0.675900  0.199900  1.0  0.1018
  H  H137  1  0.291200  0.835900  0.086600  1.0  0.1733
  H  H138  1  0.352500  0.766400  0.105900  1.0  0.1505
  H  H139  1  0.199300  0.774900  0.835300  1.0  0.2584
  H  H140  1  0.183700  0.788000  0.155900  1.0  0.2353
  H  H141  1  0.920100  0.500000  0.840300  1.0  0.1498
  H  H142  1  0.762500  0.500000  0.857600  1.0  0.1229
  H  H143  1  0.637300  0.500000  0.746300  1.0  0.116
  H  H144  1  0.825200  0.500000  0.600900  1.0  0.1378
  H  H145  1  0.420100  0.000000  0.340300  1.0  0.1498
  H  H146  1  0.262500  0.000000  0.357600  1.0  0.1229
  H  H147  1  0.137300  0.000000  0.246300  1.0  0.116
  H  H148  1  0.325200  0.000000  0.100900  1.0  0.1378
  H  H149  1  0.079900  0.500000  0.159700  1.0  0.1514
  H  H150  1  0.237500  0.500000  0.142400  1.0  0.1228
  H  H151  1  0.362700  0.500000  0.253700  1.0  0.1167
  H  H152  1  0.174800  0.500000  0.399100  1.0  0.1364
  H  H153  1  0.579900  0.000000  0.659700  1.0  0.1514
  H  H154  1  0.737500  0.000000  0.642400  1.0  0.1228
  H  H155  1  0.862700  0.000000  0.753700  1.0  0.1167
  H  H156  1  0.674800  0.000000  0.899100  1.0  0.1364
  C  C157  1  0.708900  0.813600  0.274800  1.0  -0.0805
  C  C158  1  0.684800  0.691300  0.223500  1.0  -0.0831
  C  C159  1  0.563900  0.748700  0.289300  1.0  -0.4443
  C  C160  1  0.799000  0.686500  0.737100  1.0  -0.087
  C  C161  1  0.743500  0.805200  0.689200  1.0  -0.0844
  C  C162  1  0.787700  0.715300  0.594700  1.0  -0.452
  C  C163  1  0.208900  0.313600  0.774800  1.0  -0.0805
  C  C164  1  0.184800  0.191300  0.723500  1.0  -0.0831
  C  C165  1  0.063900  0.248700  0.789300  1.0  -0.4443
  C  C166  1  0.299000  0.186500  0.237100  1.0  -0.087
  C  C167  1  0.243500  0.305200  0.189200  1.0  -0.0844
  C  C168  1  0.287700  0.215300  0.094700  1.0  -0.452
  C  C169  1  0.291100  0.813600  0.725200  1.0  -0.0813
  C  C170  1  0.315200  0.691300  0.776500  1.0  -0.0834
  C  C171  1  0.436100  0.748700  0.710700  1.0  -0.4421
  C  C172  1  0.201000  0.686500  0.262900  1.0  -0.0869
  C  C173  1  0.256500  0.805200  0.310800  1.0  -0.0847
  C  C174  1  0.212300  0.715300  0.405300  1.0  -0.4563
  C  C175  1  0.791100  0.313600  0.225200  1.0  -0.0813
  C  C176  1  0.815200  0.191300  0.276500  1.0  -0.0834
  C  C177  1  0.936100  0.248700  0.210700  1.0  -0.4421
  C  C178  1  0.701000  0.186500  0.762900  1.0  -0.0869
  C  C179  1  0.756500  0.305200  0.810800  1.0  -0.0847
  C  C180  1  0.712300  0.215300  0.905300  1.0  -0.4563
  C  C181  1  0.291100  0.186400  0.725200  1.0  -0.0808
  C  C182  1  0.315200  0.308700  0.776500  1.0  -0.0846
  C  C183  1  0.436100  0.251300  0.710700  1.0  -0.4428
  C  C184  1  0.201000  0.313500  0.262900  1.0  -0.0876
  C  C185  1  0.256500  0.194800  0.310800  1.0  -0.0815
  C  C186  1  0.212300  0.284700  0.405300  1.0  -0.4556
  C  C187  1  0.791100  0.686400  0.225200  1.0  -0.0808
  C  C188  1  0.815200  0.808700  0.276500  1.0  -0.0846
  C  C189  1  0.936100  0.751300  0.210700  1.0  -0.4428
  C  C190  1  0.701000  0.813500  0.762900  1.0  -0.0876
  C  C191  1  0.756500  0.694800  0.810800  1.0  -0.0815
  C  C192  1  0.712300  0.784700  0.905300  1.0  -0.4556
  C  C193  1  0.708900  0.186400  0.274800  1.0  -0.0793
  C  C194  1  0.684800  0.308700  0.223500  1.0  -0.0867
  C  C195  1  0.563900  0.251300  0.289300  1.0  -0.4476
  C  C196  1  0.799000  0.313500  0.737100  1.0  -0.0866
  C  C197  1  0.743500  0.194800  0.689200  1.0  -0.0834
  C  C198  1  0.787700  0.284700  0.594700  1.0  -0.4528
  C  C199  1  0.208900  0.686400  0.774800  1.0  -0.0793
  C  C200  1  0.184800  0.808700  0.723500  1.0  -0.0867
  C  C201  1  0.063900  0.751300  0.789300  1.0  -0.4476
  C  C202  1  0.299000  0.813500  0.237100  1.0  -0.0866
  C  C203  1  0.243500  0.694800  0.189200  1.0  -0.0834
  C  C204  1  0.287700  0.784700  0.094700  1.0  -0.4528
  C  C205  1  0.885600  0.500000  0.719500  1.0  0.0906
  C  C206  1  0.869300  0.500000  0.796100  1.0  -0.0876
  C  C207  1  0.775200  0.500000  0.806300  1.0  -0.0527
  C  C208  1  0.700000  0.500000  0.739200  1.0  -0.0402
  C  C209  1  0.717100  0.500000  0.661100  1.0  -0.2535
  C  C210  1  0.811700  0.500000  0.651900  1.0  -0.0202
  C  C211  1  0.385600  0.000000  0.219500  1.0  0.0906
  C  C212  1  0.369300  0.000000  0.296100  1.0  -0.0876
  C  C213  1  0.275200  0.000000  0.306300  1.0  -0.0527
  C  C214  1  0.200000  0.000000  0.239200  1.0  -0.0402
  C  C215  1  0.217100  0.000000  0.161100  1.0  -0.2535
  C  C216  1  0.311700  0.000000  0.151900  1.0  -0.0202
  C  C217  1  0.114400  0.500000  0.280500  1.0  0.0904
  C  C218  1  0.130700  0.500000  0.203900  1.0  -0.0878
  C  C219  1  0.224800  0.500000  0.193700  1.0  -0.0538
  C  C220  1  0.300000  0.500000  0.260800  1.0  -0.0412
  C  C221  1  0.282900  0.500000  0.338900  1.0  -0.2504
  C  C222  1  0.188300  0.500000  0.348100  1.0  -0.0196
  C  C223  1  0.614400  0.000000  0.780500  1.0  0.0904
  C  C224  1  0.630700  0.000000  0.703900  1.0  -0.0878
  C  C225  1  0.724800  0.000000  0.693700  1.0  -0.0538
  C  C226  1  0.800000  0.000000  0.760800  1.0  -0.0412
  C  C227  1  0.782900  0.000000  0.838900  1.0  -0.2504
  C  C228  1  0.688300  0.000000  0.848100  1.0  -0.0196
  S  S229  1  0.007300  0.530300  0.703600  1.0  0.4808
  S  S230  1  0.507300  0.030300  0.203600  1.0  0.4808
  S  S231  1  0.992700  0.530300  0.296400  1.0  0.4818
  S  S232  1  0.492700  0.030300  0.796400  1.0  0.4818
  S  S233  1  0.992700  0.469700  0.296400  1.0  0.4823
  S  S234  1  0.492700  0.969700  0.796400  1.0  0.4823
  S  S235  1  0.007300  0.469700  0.703600  1.0  0.4834
  S  S236  1  0.507300  0.969700  0.203600  1.0  0.4834
  N  N237  1  0.667900  0.742200  0.286900  1.0  0.1646
  N  N238  1  0.745100  0.728200  0.667300  1.0  0.1713
  N  N239  1  0.167900  0.242200  0.786900  1.0  0.1646
  N  N240  1  0.245100  0.228200  0.167300  1.0  0.1713
  N  N241  1  0.332100  0.742200  0.713100  1.0  0.1633
  N  N242  1  0.254900  0.728200  0.332700  1.0  0.1705
  N  N243  1  0.832100  0.242200  0.213100  1.0  0.1633
  N  N244  1  0.754900  0.228200  0.832700  1.0  0.1705
  N  N245  1  0.332100  0.257800  0.713100  1.0  0.1629
  N  N246  1  0.254900  0.271800  0.332700  1.0  0.1704
  N  N247  1  0.832100  0.757800  0.213100  1.0  0.1629
  N  N248  1  0.754900  0.771800  0.832700  1.0  0.1704
  N  N249  1  0.667900  0.257800  0.286900  1.0  0.1645
  N  N250  1  0.745100  0.271800  0.667300  1.0  0.171
  N  N251  1  0.167900  0.757800  0.786900  1.0  0.1645
  N  N252  1  0.245100  0.771800  0.167300  1.0  0.171
  O  O253  1  0.467700  0.629900  0.230300  1.0  -0.7122
  O  O254  1  0.436400  0.685000  0.359400  1.0  -0.8978
  O  O255  1  0.588200  0.620700  0.363500  1.0  -0.919
  O  O256  1  0.741600  0.835600  0.506100  1.0  -0.6021
  O  O257  1  0.766500  0.719400  0.437900  1.0  -0.8212
  O  O258  1  0.617800  0.739500  0.496300  1.0  -0.9198
  O  O259  1  0.629200  0.565500  0.525000  1.0  -0.9311
  O  O260  1  0.994000  0.602200  0.670400  1.0  -0.6174
  O  O261  1  0.061000  0.545400  0.777300  1.0  -0.5755
  O  O262  1  0.967700  0.129900  0.730300  1.0  -0.7122
  O  O263  1  0.936400  0.185000  0.859400  1.0  -0.8978
  O  O264  1  0.088200  0.120700  0.863500  1.0  -0.919
  O  O265  1  0.241600  0.335600  0.006100  1.0  -0.6021
  O  O266  1  0.266500  0.219400  0.937900  1.0  -0.8212
  O  O267  1  0.117800  0.239500  0.996300  1.0  -0.9198
  O  O268  1  0.129200  0.065500  0.025000  1.0  -0.9311
  O  O269  1  0.494000  0.102200  0.170400  1.0  -0.6174
  O  O270  1  0.561000  0.045400  0.277300  1.0  -0.5755
  O  O271  1  0.532300  0.629900  0.769700  1.0  -0.7133
  O  O272  1  0.563600  0.685000  0.640600  1.0  -0.899
  O  O273  1  0.411800  0.620700  0.636500  1.0  -0.9183
  O  O274  1  0.258400  0.835600  0.493900  1.0  -0.6029
  O  O275  1  0.233500  0.719400  0.562100  1.0  -0.8212
  O  O276  1  0.382200  0.739500  0.503700  1.0  -0.9186
  O  O277  1  0.370800  0.565500  0.475000  1.0  -0.9341
  O  O278  1  0.006000  0.602200  0.329600  1.0  -0.6232
  O  O279  1  0.939000  0.545400  0.222700  1.0  -0.5725
  O  O280  1  0.032300  0.129900  0.269700  1.0  -0.7133
  O  O281  1  0.063600  0.185000  0.140600  1.0  -0.899
  O  O282  1  0.911800  0.120700  0.136500  1.0  -0.9183
  O  O283  1  0.758400  0.335600  0.993900  1.0  -0.6029
  O  O284  1  0.733500  0.219400  0.062100  1.0  -0.8212
  O  O285  1  0.882200  0.239500  0.003700  1.0  -0.9186
  O  O286  1  0.870800  0.065500  0.975000  1.0  -0.9341
  O  O287  1  0.506000  0.102200  0.829600  1.0  -0.6232
  O  O288  1  0.439000  0.045400  0.722700  1.0  -0.5725
  O  O289  1  0.532300  0.370100  0.769700  1.0  -0.7112
  O  O290  1  0.563600  0.315000  0.640600  1.0  -0.8988
  O  O291  1  0.411800  0.379300  0.636500  1.0  -0.9181
  O  O292  1  0.258400  0.164400  0.493900  1.0  -0.5988
  O  O293  1  0.233500  0.280600  0.562100  1.0  -0.821
  O  O294  1  0.382200  0.260500  0.503700  1.0  -0.9192
  O  O295  1  0.370800  0.434500  0.475000  1.0  -0.9352
  O  O296  1  0.006000  0.397800  0.329600  1.0  -0.6242
  O  O297  1  0.939000  0.454600  0.222700  1.0  -0.5734
  O  O298  1  0.032300  0.870100  0.269700  1.0  -0.7112
  O  O299  1  0.063600  0.815000  0.140600  1.0  -0.8988
  O  O300  1  0.911800  0.879300  0.136500  1.0  -0.9181
  O  O301  1  0.758400  0.664400  0.993900  1.0  -0.5988
  O  O302  1  0.733500  0.780600  0.062100  1.0  -0.821
  O  O303  1  0.882200  0.760500  0.003700  1.0  -0.9192
  O  O304  1  0.870800  0.934500  0.975000  1.0  -0.9352
  O  O305  1  0.506000  0.897800  0.829600  1.0  -0.6242
  O  O306  1  0.439000  0.954600  0.722700  1.0  -0.5734
  O  O307  1  0.467700  0.370100  0.230300  1.0  -0.7126
  O  O308  1  0.436400  0.315000  0.359400  1.0  -0.8973
  O  O309  1  0.588200  0.379300  0.363500  1.0  -0.9188
  O  O310  1  0.741600  0.164400  0.506100  1.0  -0.5975
  O  O311  1  0.766500  0.280600  0.437900  1.0  -0.8212
  O  O312  1  0.617800  0.260500  0.496300  1.0  -0.9197
  O  O313  1  0.629200  0.434500  0.525000  1.0  -0.9321
  O  O314  1  0.994000  0.397800  0.670400  1.0  -0.6185
  O  O315  1  0.061000  0.454600  0.777300  1.0  -0.5753
  O  O316  1  0.967700  0.870100  0.730300  1.0  -0.7126
  O  O317  1  0.936400  0.815000  0.859400  1.0  -0.8973
  O  O318  1  0.088200  0.879300  0.863500  1.0  -0.9188
  O  O319  1  0.241600  0.664400  0.006100  1.0  -0.5975
  O  O320  1  0.266500  0.780600  0.937900  1.0  -0.8212
  O  O321  1  0.117800  0.760500  0.996300  1.0  -0.9197
  O  O322  1  0.129200  0.934500  0.025000  1.0  -0.9321
  O  O323  1  0.494000  0.897800  0.170400  1.0  -0.6185
  O  O324  1  0.561000  0.954600  0.277300  1.0  -0.5753
  O  O325  1  0.526500  0.500000  0.602400  1.0  -0.9243
  O  O326  1  0.016000  0.500000  0.627000  1.0  -0.5188
  O  O327  1  0.026500  0.000000  0.102400  1.0  -0.9243
  O  O328  1  0.516000  0.000000  0.127000  1.0  -0.5188
  O  O329  1  0.473500  0.500000  0.397600  1.0  -0.9229
  O  O330  1  0.984000  0.500000  0.373000  1.0  -0.5247
  O  O331  1  0.973500  0.000000  0.897600  1.0  -0.9229
  O  O332  1  0.484000  0.000000  0.873000  1.0  -0.5247
