# generated using pymatgen
data_Co3H26C28(N10O)2
_symmetry_space_group_name_H-M   'P 1'
_cell_length_a   6.66730000
_cell_length_b   13.07710000
_cell_length_c   21.27510000
_cell_angle_alpha   90.00000000
_cell_angle_beta   90.00000000
_cell_angle_gamma   102.49200000
_symmetry_Int_Tables_number   1
_chemical_formula_structural   Co3H26C28(N10O)2
_chemical_formula_sum   'Co6 H52 C56 N40 O4'
_cell_volume   1811.03983849
_cell_formula_units_Z   2
loop_
 _symmetry_equiv_pos_site_id
 _symmetry_equiv_pos_as_xyz
  1  'x, y, z'
loop_
 _atom_site_type_symbol
 _atom_site_label
 _atom_site_symmetry_multiplicity
 _atom_site_fract_x
 _atom_site_fract_y
 _atom_site_fract_z
 _atom_site_occupancy
 _atom_site_charge
  Co  Co1  1  0.517510  0.546560  0.066950  1.0  0.8981
  Co  Co2  1  0.982490  0.953440  0.566950  1.0  0.8964
  Co  Co3  1  0.482490  0.453440  0.933050  1.0  0.8965
  Co  Co4  1  0.000000  0.500000  0.000000  1.0  0.8702
  Co  Co5  1  0.017510  0.046560  0.433050  1.0  0.8979
  Co  Co6  1  0.500000  0.000000  0.500000  1.0  0.8701
  H  H7  1  0.464600  0.889300  0.675700  1.0  0.1096
  H  H8  1  0.766000  0.891300  0.475100  1.0  0.4089
  H  H9  1  0.598000  0.744900  0.304800  1.0  0.1034
  H  H10  1  0.360000  0.241500  0.589700  1.0  0.2468
  H  H11  1  0.517700  0.242900  0.252100  1.0  0.1092
  H  H12  1  0.266000  0.391300  0.024900  1.0  0.4095
  H  H13  1  0.067700  0.470300  0.421700  1.0  0.1061
  H  H14  1  0.903000  0.971400  0.326100  1.0  0.278
  H  H15  1  0.567700  0.970300  0.078300  1.0  0.1061
  H  H16  1  0.403000  0.471400  0.173900  1.0  0.2786
  H  H17  1  0.447000  0.405500  0.431700  1.0  0.114
  H  H18  1  0.216000  0.479200  0.146200  1.0  0.2875
  H  H19  1  0.716000  0.979200  0.353800  1.0  0.2873
  H  H20  1  0.284000  0.020800  0.646200  1.0  0.2892
  H  H21  1  0.234000  0.108700  0.524900  1.0  0.4091
  H  H22  1  0.035400  0.610700  0.175700  1.0  0.11
  H  H23  1  0.097000  0.028600  0.673900  1.0  0.2787
  H  H24  1  0.017700  0.742900  0.247900  1.0  0.1091
  H  H25  1  0.885000  0.888600  0.733900  1.0  0.122
  H  H26  1  0.098000  0.244900  0.195200  1.0  0.104
  H  H27  1  0.127000  0.219600  0.601300  1.0  0.2635
  H  H28  1  0.640000  0.758500  0.410300  1.0  0.2413
  H  H29  1  0.571000  0.148000  0.085900  1.0  0.1107
  H  H30  1  0.535400  0.110700  0.324300  1.0  0.11
  H  H31  1  0.115000  0.111400  0.266100  1.0  0.1225
  H  H32  1  0.784000  0.520800  0.853800  1.0  0.2905
  H  H33  1  0.860000  0.741500  0.910300  1.0  0.2462
  H  H34  1  0.049900  0.916900  0.923000  1.0  0.1055
  H  H35  1  0.385000  0.388600  0.766100  1.0  0.1221
  H  H36  1  0.873000  0.780400  0.398700  1.0  0.2648
  H  H37  1  0.432300  0.029700  0.921700  1.0  0.1062
  H  H38  1  0.929000  0.352000  0.585900  1.0  0.1105
  H  H39  1  0.482300  0.757100  0.747900  1.0  0.1087
  H  H40  1  0.902000  0.755100  0.804800  1.0  0.1037
  H  H41  1  0.071000  0.648000  0.414100  1.0  0.1105
  H  H42  1  0.553000  0.594500  0.568300  1.0  0.1142
  H  H43  1  0.549900  0.416900  0.577000  1.0  0.1059
  H  H44  1  0.450100  0.583100  0.423000  1.0  0.1054
  H  H45  1  0.053000  0.094500  0.931700  1.0  0.1139
  H  H46  1  0.947000  0.905500  0.068300  1.0  0.1143
  H  H47  1  0.950100  0.083100  0.077000  1.0  0.1056
  H  H48  1  0.597000  0.528600  0.826100  1.0  0.2792
  H  H49  1  0.627000  0.719600  0.898700  1.0  0.2642
  H  H50  1  0.140000  0.258500  0.089700  1.0  0.241
  H  H51  1  0.734000  0.608700  0.975100  1.0  0.4078
  H  H52  1  0.982300  0.257100  0.752100  1.0  0.1092
  H  H53  1  0.615000  0.611400  0.233900  1.0  0.1225
  H  H54  1  0.402000  0.255100  0.695200  1.0  0.1045
  H  H55  1  0.429000  0.852000  0.914100  1.0  0.1104
  H  H56  1  0.964600  0.389300  0.824300  1.0  0.11
  H  H57  1  0.373000  0.280400  0.101300  1.0  0.2646
  H  H58  1  0.932300  0.529700  0.578300  1.0  0.1057
  C  C59  1  0.558200  0.006910  0.922850  1.0  -0.0399
  C  C60  1  0.638600  0.215760  0.254620  1.0  -0.0349
  C  C61  1  0.256300  0.808690  0.060990  1.0  0.3263
  C  C62  1  0.257400  0.919400  0.070910  1.0  -0.0345
  C  C63  1  0.260400  0.134170  0.080290  1.0  0.214
  C  C64  1  0.743700  0.191310  0.939010  1.0  0.3255
  C  C65  1  0.058200  0.506910  0.577150  1.0  -0.0461
  C  C66  1  0.493100  0.637570  0.236940  1.0  -0.1353
  C  C67  1  0.056100  0.401090  0.581740  1.0  -0.1619
  C  C68  1  0.517600  0.283350  0.720770  1.0  -0.0448
  C  C69  1  0.576300  0.560540  0.423680  1.0  -0.1725
  C  C70  1  0.006900  0.862430  0.736940  1.0  -0.1356
  C  C71  1  0.825100  0.096450  0.301120  1.0  0.2496
  C  C72  1  0.861400  0.284240  0.754620  1.0  -0.0391
  C  C73  1  0.076300  0.060540  0.076320  1.0  -0.1757
  C  C74  1  0.196100  0.744590  0.784780  1.0  -0.0858
  C  C75  1  0.208300  0.666960  0.833950  1.0  0.3186
  C  C76  1  0.443900  0.098910  0.081740  1.0  -0.1607
  C  C77  1  0.574400  0.454600  0.428590  1.0  -0.0543
  C  C78  1  0.941800  0.493090  0.422850  1.0  -0.0422
  C  C79  1  0.017600  0.783350  0.779230  1.0  -0.038
  C  C80  1  0.556100  0.901090  0.918260  1.0  -0.161
  C  C81  1  0.423700  0.439460  0.576320  1.0  -0.1775
  C  C82  1  0.239600  0.365830  0.580290  1.0  0.214
  C  C83  1  0.482400  0.716650  0.279230  1.0  -0.0373
  C  C84  1  0.441800  0.993090  0.077150  1.0  -0.0402
  C  C85  1  0.943900  0.598910  0.418260  1.0  -0.1571
  C  C86  1  0.351200  0.863060  0.702510  1.0  -0.1068
  C  C87  1  0.851200  0.363060  0.797490  1.0  -0.0992
  C  C88  1  0.982400  0.216650  0.220770  1.0  -0.0372
  C  C89  1  0.739600  0.865830  0.919710  1.0  0.2144
  C  C90  1  0.425600  0.545400  0.571410  1.0  -0.0534
  C  C91  1  0.148800  0.636940  0.202510  1.0  -0.0993
  C  C92  1  0.506900  0.362430  0.763060  1.0  -0.1374
  C  C93  1  0.757400  0.419400  0.429090  1.0  -0.0357
  C  C94  1  0.648800  0.136940  0.297490  1.0  -0.0989
  C  C95  1  0.138600  0.715760  0.245380  1.0  -0.0397
  C  C96  1  0.361400  0.784240  0.745380  1.0  -0.0372
  C  C97  1  0.325100  0.596450  0.198880  1.0  0.2485
  C  C98  1  0.674900  0.403550  0.801120  1.0  0.2495
  C  C99  1  0.760400  0.634170  0.419710  1.0  0.2145
  C  C100  1  0.074400  0.954600  0.071410  1.0  -0.0532
  C  C101  1  0.243700  0.691310  0.560990  1.0  0.3261
  C  C102  1  0.925600  0.045400  0.928590  1.0  -0.0552
  C  C103  1  0.742600  0.080600  0.929090  1.0  -0.0336
  C  C104  1  0.791700  0.333040  0.166050  1.0  0.3191
  C  C105  1  0.708300  0.166960  0.666050  1.0  0.319
  C  C106  1  0.291700  0.833040  0.333950  1.0  0.3182
  C  C107  1  0.696100  0.244590  0.715220  1.0  -0.0854
  C  C108  1  0.303900  0.755410  0.284780  1.0  -0.0863
  C  C109  1  0.993100  0.137570  0.263060  1.0  -0.132
  C  C110  1  0.803900  0.255410  0.215220  1.0  -0.0859
  C  C111  1  0.174900  0.903550  0.698880  1.0  0.249
  C  C112  1  0.756300  0.308690  0.439010  1.0  0.3259
  C  C113  1  0.923700  0.939460  0.923680  1.0  -0.1762
  C  C114  1  0.242600  0.580600  0.570910  1.0  -0.0348
  N  N115  1  0.141400  0.833400  0.548580  1.0  -0.0868
  N  N116  1  0.439800  0.864540  0.377190  1.0  -0.2976
  N  N117  1  0.160100  0.985580  0.655700  1.0  -0.6302
  N  N118  1  0.560200  0.135460  0.622810  1.0  -0.2989
  N  N119  1  0.641400  0.333400  0.951420  1.0  -0.0865
  N  N120  1  0.131600  0.878000  0.343610  1.0  -0.3501
  N  N121  1  0.763600  0.741530  0.419360  1.0  -0.6064
  N  N122  1  0.367500  0.931420  0.414090  1.0  -0.0573
  N  N123  1  0.910300  0.264770  0.955380  1.0  -0.3041
  N  N124  1  0.184200  0.938970  0.394610  1.0  -0.1938
  N  N125  1  0.132500  0.568580  0.914090  1.0  -0.0548
  N  N126  1  0.631600  0.378000  0.156390  1.0  -0.3484
  N  N127  1  0.660100  0.485580  0.844300  1.0  -0.6325
  N  N128  1  0.589700  0.235230  0.455380  1.0  -0.2994
  N  N129  1  0.654700  0.146370  0.461530  1.0  -0.117
  N  N130  1  0.736400  0.758470  0.919360  1.0  -0.6082
  N  N131  1  0.424200  0.766980  0.063930  1.0  -0.3242
  N  N132  1  0.060200  0.635460  0.877190  1.0  -0.3017
  N  N133  1  0.924200  0.266980  0.436070  1.0  -0.3171
  N  N134  1  0.315800  0.561030  0.894610  1.0  -0.1925
  N  N135  1  0.868400  0.122000  0.656390  1.0  -0.3471
  N  N136  1  0.632500  0.068580  0.585910  1.0  -0.0556
  N  N137  1  0.075800  0.733020  0.563930  1.0  -0.3172
  N  N138  1  0.368400  0.622000  0.843610  1.0  -0.3498
  N  N139  1  0.089700  0.735230  0.044620  1.0  -0.3029
  N  N140  1  0.575800  0.233020  0.936070  1.0  -0.3168
  N  N141  1  0.263600  0.241530  0.080640  1.0  -0.6078
  N  N142  1  0.236400  0.258470  0.580640  1.0  -0.6078
  N  N143  1  0.939800  0.364540  0.122810  1.0  -0.2977
  N  N144  1  0.339900  0.514420  0.155700  1.0  -0.631
  N  N145  1  0.815800  0.061030  0.605390  1.0  -0.1921
  N  N146  1  0.154700  0.646370  0.038470  1.0  -0.1224
  N  N147  1  0.858600  0.166600  0.451420  1.0  -0.0848
  N  N148  1  0.839900  0.014420  0.344300  1.0  -0.6326
  N  N149  1  0.410300  0.764770  0.544620  1.0  -0.3028
  N  N150  1  0.845300  0.353630  0.961530  1.0  -0.1156
  N  N151  1  0.358600  0.666667  0.048580  1.0  -0.0804
  N  N152  1  0.345300  0.853630  0.538470  1.0  -0.116
  N  N153  1  0.867500  0.431420  0.085910  1.0  -0.0555
  N  N154  1  0.684200  0.438970  0.105390  1.0  -0.1934
  O  O155  1  0.786580  0.949870  0.487800  1.0  -0.9812
  O  O156  1  0.713420  0.550130  0.987800  1.0  -0.9798
  O  O157  1  0.213420  0.050130  0.512200  1.0  -0.9814
  O  O158  1  0.286580  0.449870  0.012200  1.0  -0.9821
