# generated using pymatgen
data_Co3H24C28(N10O)2
_symmetry_space_group_name_H-M   'P 1'
_cell_length_a   6.70980000
_cell_length_b   13.09450000
_cell_length_c   21.34200000
_cell_angle_alpha   90.00000000
_cell_angle_beta   90.00000000
_cell_angle_gamma   102.50600000
_symmetry_Int_Tables_number   1
_chemical_formula_structural   Co3H24C28(N10O)2
_chemical_formula_sum   'Co6 H48 C56 N40 O4'
_cell_volume   1830.64881563
_cell_formula_units_Z   2
loop_
 _symmetry_equiv_pos_site_id
 _symmetry_equiv_pos_as_xyz
  1  'x, y, z'
loop_
 _atom_site_type_symbol
 _atom_site_label
 _atom_site_symmetry_multiplicity
 _atom_site_fract_x
 _atom_site_fract_y
 _atom_site_fract_z
 _atom_site_occupancy
 _atom_site_charge
  Co  Co1  1  0.518020  0.046820  0.433070  1.0  0.8258
  Co  Co2  1  0.981980  0.453180  0.933070  1.0  0.8237
  Co  Co3  1  0.481980  0.953180  0.566930  1.0  0.8228
  Co  Co4  1  0.018020  0.546820  0.066930  1.0  0.8249
  Co  Co5  1  0.000000  0.000000  0.500000  1.0  0.5231
  Co  Co6  1  0.500000  0.500000  0.000000  1.0  0.5231
  H  H7  1  0.215200  0.981800  0.352600  1.0  0.2957
  H  H8  1  0.398500  0.968500  0.321100  1.0  0.3049
  H  H9  1  0.613900  0.114500  0.266000  1.0  0.1229
  H  H10  1  0.598200  0.248700  0.197600  1.0  0.088
  H  H11  1  0.043100  0.111200  0.322600  1.0  0.1121
  H  H12  1  0.025900  0.243100  0.252100  1.0  0.1044
  H  H13  1  0.952400  0.406000  0.431200  1.0  0.1071
  H  H14  1  0.957300  0.582100  0.421900  1.0  0.1106
  H  H15  1  0.566000  0.644800  0.413100  1.0  0.1119
  H  H16  1  0.561600  0.469200  0.421300  1.0  0.1032
  H  H17  1  0.365000  0.777000  0.393300  1.0  0.2822
  H  H18  1  0.142000  0.758000  0.407000  1.0  0.252
  H  H19  1  0.284800  0.518200  0.852600  1.0  0.2968
  H  H20  1  0.101500  0.531500  0.821100  1.0  0.3058
  H  H21  1  0.886100  0.385500  0.766000  1.0  0.1229
  H  H22  1  0.901800  0.251300  0.697600  1.0  0.0883
  H  H23  1  0.456900  0.388800  0.822600  1.0  0.1118
  H  H24  1  0.474100  0.256900  0.752100  1.0  0.105
  H  H25  1  0.547600  0.094000  0.931200  1.0  0.1071
  H  H26  1  0.542700  0.917900  0.921900  1.0  0.109
  H  H27  1  0.934000  0.855200  0.913100  1.0  0.1124
  H  H28  1  0.938400  0.030800  0.921300  1.0  0.104
  H  H29  1  0.135000  0.723000  0.893300  1.0  0.2823
  H  H30  1  0.358000  0.742000  0.907000  1.0  0.2516
  H  H31  1  0.784800  0.018200  0.647400  1.0  0.2968
  H  H32  1  0.601500  0.031500  0.678900  1.0  0.3051
  H  H33  1  0.386100  0.885500  0.734000  1.0  0.1226
  H  H34  1  0.401800  0.751300  0.802400  1.0  0.0878
  H  H35  1  0.956900  0.888800  0.677400  1.0  0.1114
  H  H36  1  0.974100  0.756900  0.747900  1.0  0.1045
  H  H37  1  0.047600  0.594000  0.568800  1.0  0.1074
  H  H38  1  0.042700  0.417900  0.578100  1.0  0.1092
  H  H39  1  0.434000  0.355200  0.586900  1.0  0.1127
  H  H40  1  0.438400  0.530800  0.578700  1.0  0.1037
  H  H41  1  0.635000  0.223000  0.606700  1.0  0.2817
  H  H42  1  0.858000  0.242000  0.593000  1.0  0.2516
  H  H43  1  0.715200  0.481800  0.147400  1.0  0.296
  H  H44  1  0.898500  0.468500  0.178900  1.0  0.3052
  H  H45  1  0.113900  0.614500  0.234000  1.0  0.1229
  H  H46  1  0.098200  0.748700  0.302400  1.0  0.0878
  H  H47  1  0.543100  0.611200  0.177400  1.0  0.112
  H  H48  1  0.525900  0.743100  0.247900  1.0  0.1042
  H  H49  1  0.452400  0.906000  0.068800  1.0  0.1073
  H  H50  1  0.457300  0.082100  0.078100  1.0  0.111
  H  H51  1  0.066000  0.144800  0.086900  1.0  0.1121
  H  H52  1  0.061600  0.969200  0.078700  1.0  0.1035
  H  H53  1  0.865000  0.277000  0.106700  1.0  0.2814
  H  H54  1  0.642000  0.258000  0.093000  1.0  0.2516
  C  C55  1  0.328180  0.097380  0.300290  1.0  0.2613
  C  C56  1  0.495000  0.139800  0.263100  1.0  -0.2027
  C  C57  1  0.484600  0.219700  0.221740  1.0  -0.0266
  C  C58  1  0.294980  0.335380  0.166810  1.0  0.3421
  C  C59  1  0.255630  0.307430  0.438650  1.0  0.3499
  C  C60  1  0.153800  0.137500  0.296670  1.0  -0.1932
  C  C61  1  0.307630  0.257330  0.215620  1.0  -0.1026
  C  C62  1  0.143800  0.216800  0.254430  1.0  -0.0243
  C  C63  1  0.256530  0.418530  0.428010  1.0  -0.0935
  C  C64  1  0.261920  0.632620  0.418290  1.0  0.2975
  C  C65  1  0.076700  0.453800  0.427820  1.0  -0.0401
  C  C66  1  0.079800  0.559800  0.422560  1.0  -0.2189
  C  C67  1  0.441980  0.597080  0.417170  1.0  -0.1646
  C  C68  1  0.439210  0.491610  0.422040  1.0  -0.0367
  C  C69  1  0.171820  0.402620  0.800290  1.0  0.2612
  C  C70  1  0.005000  0.360200  0.763100  1.0  -0.2052
  C  C71  1  0.015400  0.280300  0.721740  1.0  -0.0268
  C  C72  1  0.205020  0.164620  0.666810  1.0  0.3422
  C  C73  1  0.244370  0.192570  0.938650  1.0  0.3495
  C  C74  1  0.346200  0.362500  0.796670  1.0  -0.1934
  C  C75  1  0.192370  0.242670  0.715620  1.0  -0.1025
  C  C76  1  0.356200  0.283200  0.754430  1.0  -0.0249
  C  C77  1  0.243470  0.081470  0.928010  1.0  -0.0933
  C  C78  1  0.238080  0.867380  0.918290  1.0  0.2974
  C  C79  1  0.423300  0.046200  0.927820  1.0  -0.0418
  C  C80  1  0.420200  0.940200  0.922560  1.0  -0.2186
  C  C81  1  0.058020  0.902920  0.917170  1.0  -0.1682
  C  C82  1  0.060790  0.008390  0.922040  1.0  -0.0353
  C  C83  1  0.671820  0.902620  0.699710  1.0  0.2613
  C  C84  1  0.505000  0.860200  0.736900  1.0  -0.2051
  C  C85  1  0.515400  0.780300  0.778260  1.0  -0.0275
  C  C86  1  0.705020  0.664620  0.833190  1.0  0.343
  C  C87  1  0.744370  0.692570  0.561350  1.0  0.3499
  C  C88  1  0.846200  0.862500  0.703330  1.0  -0.1934
  C  C89  1  0.692370  0.742670  0.784380  1.0  -0.1021
  C  C90  1  0.856200  0.783200  0.745570  1.0  -0.0249
  C  C91  1  0.743470  0.581470  0.571990  1.0  -0.0937
  C  C92  1  0.738080  0.367380  0.581710  1.0  0.2972
  C  C93  1  0.923300  0.546200  0.572180  1.0  -0.041
  C  C94  1  0.920200  0.440200  0.577440  1.0  -0.2188
  C  C95  1  0.558020  0.402920  0.582830  1.0  -0.1698
  C  C96  1  0.560790  0.508390  0.577960  1.0  -0.0349
  C  C97  1  0.828180  0.597380  0.199710  1.0  0.2611
  C  C98  1  0.995000  0.639800  0.236900  1.0  -0.2025
  C  C99  1  0.984600  0.719700  0.278260  1.0  -0.0275
  C  C100  1  0.794980  0.835380  0.333190  1.0  0.3426
  C  C101  1  0.755630  0.807430  0.061350  1.0  0.3496
  C  C102  1  0.653800  0.637500  0.203330  1.0  -0.1931
  C  C103  1  0.807630  0.757330  0.284380  1.0  -0.1022
  C  C104  1  0.643800  0.716800  0.245570  1.0  -0.0248
  C  C105  1  0.756530  0.918530  0.071990  1.0  -0.0932
  C  C106  1  0.761920  0.132620  0.081710  1.0  0.2973
  C  C107  1  0.576700  0.953800  0.072180  1.0  -0.0391
  C  C108  1  0.579800  0.059800  0.077440  1.0  -0.2192
  C  C109  1  0.941980  0.097080  0.082830  1.0  -0.1649
  C  C110  1  0.939210  0.991610  0.077960  1.0  -0.0364
  N  N111  1  0.343450  0.014650  0.342670  1.0  -0.6236
  N  N112  1  0.157400  0.146700  0.462240  1.0  0.0344
  N  N113  1  0.354520  0.165720  0.450710  1.0  -0.0515
  N  N114  1  0.421480  0.266580  0.435340  1.0  -0.3383
  N  N115  1  0.090160  0.235060  0.455500  1.0  -0.3302
  N  N116  1  0.188530  0.441030  0.106640  1.0  -0.0939
  N  N117  1  0.369540  0.433240  0.087030  1.0  0.0427
  N  N118  1  0.441890  0.366490  0.123830  1.0  -0.307
  N  N119  1  0.136990  0.379890  0.157510  1.0  -0.3352
  N  N120  1  0.265330  0.739830  0.417940  1.0  -0.5784
  N  N121  1  0.156550  0.485350  0.842670  1.0  -0.6221
  N  N122  1  0.342600  0.353300  0.962240  1.0  0.0372
  N  N123  1  0.145480  0.334280  0.950710  1.0  -0.0554
  N  N124  1  0.078520  0.233420  0.935340  1.0  -0.3381
  N  N125  1  0.409840  0.264940  0.955500  1.0  -0.3281
  N  N126  1  0.311470  0.058970  0.606640  1.0  -0.094
  N  N127  1  0.130460  0.066760  0.587030  1.0  0.0445
  N  N128  1  0.058110  0.133510  0.623830  1.0  -0.3082
  N  N129  1  0.363010  0.120110  0.657510  1.0  -0.3342
  N  N130  1  0.234670  0.760170  0.917940  1.0  -0.5776
  N  N131  1  0.656550  0.985350  0.657330  1.0  -0.6235
  N  N132  1  0.842600  0.853300  0.537760  1.0  0.0373
  N  N133  1  0.645480  0.834280  0.549290  1.0  -0.055
  N  N134  1  0.578520  0.733420  0.564660  1.0  -0.3379
  N  N135  1  0.909840  0.764940  0.544500  1.0  -0.3275
  N  N136  1  0.811470  0.558970  0.893360  1.0  -0.0938
  N  N137  1  0.630460  0.566760  0.912970  1.0  0.0441
  N  N138  1  0.558110  0.633510  0.876170  1.0  -0.3081
  N  N139  1  0.863010  0.620110  0.842490  1.0  -0.3352
  N  N140  1  0.734670  0.260170  0.582060  1.0  -0.5778
  N  N141  1  0.843450  0.514650  0.157330  1.0  -0.625
  N  N142  1  0.657400  0.646700  0.037760  1.0  0.0349
  N  N143  1  0.854520  0.665720  0.049290  1.0  -0.0511
  N  N144  1  0.921480  0.766580  0.064660  1.0  -0.3385
  N  N145  1  0.590160  0.735060  0.044500  1.0  -0.3296
  N  N146  1  0.688530  0.941030  0.393360  1.0  -0.0945
  N  N147  1  0.869540  0.933240  0.412970  1.0  0.0417
  N  N148  1  0.941890  0.866490  0.376170  1.0  -0.3067
  N  N149  1  0.636990  0.879890  0.342490  1.0  -0.336
  N  N150  1  0.765330  0.239830  0.082060  1.0  -0.5793
  O  O151  1  0.287110  0.950010  0.487890  1.0  -0.6457
  O  O152  1  0.212890  0.549990  0.987890  1.0  -0.6452
  O  O153  1  0.712890  0.049990  0.512110  1.0  -0.6457
  O  O154  1  0.787110  0.450010  0.012110  1.0  -0.6456
