# generated using pymatgen
data_CdH10(C2O)4
_symmetry_space_group_name_H-M   'P 1'
_cell_length_a   11.71100000
_cell_length_b   11.71100000
_cell_length_c   17.19620000
_cell_angle_alpha   95.32500000
_cell_angle_beta   95.32500000
_cell_angle_gamma   105.77900000
_symmetry_Int_Tables_number   1
_chemical_formula_structural   CdH10(C2O)4
_chemical_formula_sum   'Cd8 H80 C64 O32'
_cell_volume   2242.53728057
_cell_formula_units_Z   8
loop_
 _symmetry_equiv_pos_site_id
 _symmetry_equiv_pos_as_xyz
  1  'x, y, z'
loop_
 _atom_site_type_symbol
 _atom_site_label
 _atom_site_symmetry_multiplicity
 _atom_site_fract_x
 _atom_site_fract_y
 _atom_site_fract_z
 _atom_site_occupancy
 _atom_site_charge
  Cd  Cd1  1  0.085570  0.587580  0.824560  1.0  1.0723
  Cd  Cd2  1  0.412420  0.914430  0.675440  1.0  1.0705
  Cd  Cd3  1  0.914430  0.412420  0.175440  1.0  1.0718
  Cd  Cd4  1  0.587580  0.085570  0.324560  1.0  1.07
  Cd  Cd5  1  0.363200  0.636810  0.750000  1.0  1.1396
  Cd  Cd6  1  0.636810  0.363190  0.250000  1.0  1.1383
  Cd  Cd7  1  0.000000  0.500000  0.000000  1.0  1.1973
  Cd  Cd8  1  0.500000  0.000000  0.500000  1.0  1.1973
  H  H9  1  0.471300  0.625100  0.944000  1.0  0.0882
  H  H10  1  0.423200  0.638200  0.073600  1.0  0.0922
  H  H11  1  0.376500  0.495500  0.067800  1.0  0.0898
  H  H12  1  0.428400  0.440000  0.864200  1.0  0.0736
  H  H13  1  0.379200  0.370000  0.935500  1.0  0.0952
  H  H14  1  0.836500  0.234500  0.890100  1.0  0.0894
  H  H15  1  0.952100  0.130300  0.817200  1.0  0.0843
  H  H16  1  0.812500  0.061500  0.807800  1.0  0.0775
  H  H17  1  0.718400  0.337800  0.818400  1.0  0.0866
  H  H18  1  0.661900  0.195700  0.801200  1.0  0.0866
  H  H19  1  0.103500  0.913300  0.034200  1.0  0.0946
  H  H20  1  0.148000  0.989600  0.915500  1.0  0.0812
  H  H21  1  0.008500  0.969500  0.888400  1.0  0.0852
  H  H22  1  0.855200  0.868000  0.978000  1.0  0.0788
  H  H23  1  0.904600  0.828000  0.058100  1.0  0.0838
  H  H24  1  0.113500  0.638500  0.559400  1.0  0.1004
  H  H25  1  0.025500  0.386100  0.569600  1.0  0.0909
  H  H26  1  0.163900  0.457700  0.572600  1.0  0.0667
  H  H27  1  0.868300  0.503300  0.559100  1.0  0.0851
  H  H28  1  0.912600  0.644600  0.556200  1.0  0.0882
  H  H29  1  0.374900  0.528700  0.556000  1.0  0.0876
  H  H30  1  0.361800  0.576800  0.426400  1.0  0.0902
  H  H31  1  0.504500  0.623500  0.432200  1.0  0.0888
  H  H32  1  0.560000  0.571600  0.635800  1.0  0.0779
  H  H33  1  0.630000  0.620800  0.564500  1.0  0.0945
  H  H34  1  0.765500  0.163500  0.609900  1.0  0.0899
  H  H35  1  0.869700  0.047900  0.682800  1.0  0.0833
  H  H36  1  0.938500  0.187500  0.692200  1.0  0.0798
  H  H37  1  0.662200  0.281600  0.681600  1.0  0.0811
  H  H38  1  0.804300  0.338100  0.698800  1.0  0.0863
  H  H39  1  0.086700  0.896500  0.465800  1.0  0.0926
  H  H40  1  0.010400  0.852000  0.584500  1.0  0.0815
  H  H41  1  0.030500  0.991500  0.611600  1.0  0.0869
  H  H42  1  0.132000  0.144800  0.522000  1.0  0.0815
  H  H43  1  0.172000  0.095400  0.441900  1.0  0.0829
  H  H44  1  0.361500  0.886500  0.940600  1.0  0.0997
  H  H45  1  0.613900  0.974500  0.930400  1.0  0.0902
  H  H46  1  0.542300  0.836100  0.927400  1.0  0.0764
  H  H47  1  0.496700  0.131700  0.940900  1.0  0.0866
  H  H48  1  0.355400  0.087400  0.943800  1.0  0.0846
  H  H49  1  0.528700  0.374900  0.056000  1.0  0.0883
  H  H50  1  0.576800  0.361800  0.926400  1.0  0.0929
  H  H51  1  0.623500  0.504500  0.932200  1.0  0.0894
  H  H52  1  0.571600  0.560000  0.135800  1.0  0.0767
  H  H53  1  0.620800  0.630000  0.064500  1.0  0.0931
  H  H54  1  0.163500  0.765500  0.109900  1.0  0.0904
  H  H55  1  0.047900  0.869700  0.182800  1.0  0.0802
  H  H56  1  0.187500  0.938500  0.192200  1.0  0.0771
  H  H57  1  0.281600  0.662200  0.181600  1.0  0.086
  H  H58  1  0.338100  0.804300  0.198800  1.0  0.0851
  H  H59  1  0.896500  0.086700  0.965800  1.0  0.0935
  H  H60  1  0.852000  0.010400  0.084500  1.0  0.0794
  H  H61  1  0.991500  0.030500  0.111600  1.0  0.0858
  H  H62  1  0.144800  0.132000  0.022000  1.0  0.0848
  H  H63  1  0.095400  0.172000  0.941900  1.0  0.0833
  H  H64  1  0.886500  0.361500  0.440600  1.0  0.0996
  H  H65  1  0.974500  0.613900  0.430400  1.0  0.0913
  H  H66  1  0.836100  0.542300  0.427400  1.0  0.0676
  H  H67  1  0.131700  0.496700  0.440900  1.0  0.0849
  H  H68  1  0.087400  0.355400  0.443800  1.0  0.0882
  H  H69  1  0.625100  0.471300  0.444000  1.0  0.0874
  H  H70  1  0.638200  0.423200  0.573600  1.0  0.0912
  H  H71  1  0.495500  0.376500  0.567800  1.0  0.0892
  H  H72  1  0.440000  0.428400  0.364200  1.0  0.0737
  H  H73  1  0.370000  0.379200  0.435500  1.0  0.0956
  H  H74  1  0.234500  0.836500  0.390100  1.0  0.0893
  H  H75  1  0.130300  0.952100  0.317200  1.0  0.0826
  H  H76  1  0.061500  0.812500  0.307800  1.0  0.0811
  H  H77  1  0.337800  0.718400  0.318400  1.0  0.0792
  H  H78  1  0.195700  0.661900  0.301200  1.0  0.0874
  H  H79  1  0.913300  0.103500  0.534200  1.0  0.0927
  H  H80  1  0.989600  0.148000  0.415500  1.0  0.0826
  H  H81  1  0.969500  0.008500  0.388400  1.0  0.0858
  H  H82  1  0.868000  0.855200  0.478000  1.0  0.0812
  H  H83  1  0.828000  0.904600  0.558100  1.0  0.083
  H  H84  1  0.638500  0.113500  0.059400  1.0  0.101
  H  H85  1  0.386100  0.025500  0.069600  1.0  0.091
  H  H86  1  0.457700  0.163900  0.072600  1.0  0.0759
  H  H87  1  0.503300  0.868300  0.059100  1.0  0.0863
  H  H88  1  0.644600  0.912600  0.056200  1.0  0.0857
  C  C89  1  0.287720  0.558880  0.930670  1.0  0.7121
  C  C90  1  0.413010  0.554590  0.960430  1.0  -0.1828
  C  C91  1  0.435180  0.562620  0.049800  1.0  -0.1184
  C  C92  1  0.438060  0.441540  0.922200  1.0  -0.1053
  C  C93  1  0.947520  0.357880  0.832790  1.0  0.6666
  C  C94  1  0.846950  0.245250  0.833930  1.0  -0.1627
  C  C95  1  0.871980  0.133020  0.795000  1.0  -0.1254
  C  C96  1  0.730800  0.263000  0.793700  1.0  -0.1245
  C  C97  1  0.036300  0.767500  0.950900  1.0  0.6991
  C  C98  1  0.039200  0.891200  0.988400  1.0  -0.1733
  C  C99  1  0.070400  0.987800  0.934600  1.0  -0.1275
  C  C100  1  0.921700  0.889500  0.021600  1.0  -0.1213
  C  C101  1  0.066070  0.588930  0.666667  1.0  0.709
  C  C102  1  0.053600  0.570800  0.577400  1.0  -0.1814
  C  C103  1  0.081800  0.453800  0.550100  1.0  -0.1101
  C  C104  1  0.928900  0.567700  0.540000  1.0  -0.1252
  C  C105  1  0.441120  0.712280  0.569330  1.0  0.7095
  C  C106  1  0.445410  0.586990  0.539570  1.0  -0.1865
  C  C107  1  0.437380  0.564820  0.450200  1.0  -0.1194
  C  C108  1  0.558460  0.561940  0.577800  1.0  -0.1047
  C  C109  1  0.642120  0.052480  0.667210  1.0  0.6679
  C  C110  1  0.754750  0.153050  0.666070  1.0  -0.1633
  C  C111  1  0.866980  0.128020  0.705000  1.0  -0.1242
  C  C112  1  0.737000  0.269200  0.706300  1.0  -0.1243
  C  C113  1  0.232500  0.963700  0.549100  1.0  0.6992
  C  C114  1  0.108800  0.960800  0.511600  1.0  -0.1728
  C  C115  1  0.012200  0.929600  0.565400  1.0  -0.1277
  C  C116  1  0.110500  0.078300  0.478400  1.0  -0.1218
  C  C117  1  0.411070  0.933930  0.833300  1.0  0.7082
  C  C118  1  0.429200  0.946400  0.922600  1.0  -0.1807
  C  C119  1  0.546200  0.918200  0.949900  1.0  -0.111
  C  C120  1  0.432300  0.071100  0.960000  1.0  -0.1255
  C  C121  1  0.712280  0.441120  0.069330  1.0  0.7167
  C  C122  1  0.586990  0.445410  0.039570  1.0  -0.1857
  C  C123  1  0.564820  0.437380  0.950200  1.0  -0.1186
  C  C124  1  0.561940  0.558460  0.077800  1.0  -0.1055
  C  C125  1  0.052480  0.642120  0.167210  1.0  0.6648
  C  C126  1  0.153050  0.754750  0.166070  1.0  -0.1629
  C  C127  1  0.128020  0.866980  0.205000  1.0  -0.1253
  C  C128  1  0.269200  0.737000  0.206300  1.0  -0.1247
  C  C129  1  0.963700  0.232500  0.049100  1.0  0.6987
  C  C130  1  0.960800  0.108800  0.011600  1.0  -0.1747
  C  C131  1  0.929600  0.012200  0.065400  1.0  -0.1268
  C  C132  1  0.078300  0.110500  0.978400  1.0  -0.1216
  C  C133  1  0.933930  0.411070  0.333333  1.0  0.7091
  C  C134  1  0.946400  0.429200  0.422600  1.0  -0.181
  C  C135  1  0.918200  0.546200  0.449900  1.0  -0.1097
  C  C136  1  0.071100  0.432300  0.460000  1.0  -0.1263
  C  C137  1  0.558880  0.287720  0.430670  1.0  0.712
  C  C138  1  0.554590  0.413010  0.460430  1.0  -0.1853
  C  C139  1  0.562620  0.435180  0.549800  1.0  -0.1188
  C  C140  1  0.441540  0.438060  0.422200  1.0  -0.1051
  C  C141  1  0.357880  0.947520  0.332790  1.0  0.666
  C  C142  1  0.245250  0.846950  0.333930  1.0  -0.1636
  C  C143  1  0.133020  0.871980  0.295000  1.0  -0.125
  C  C144  1  0.263000  0.730800  0.293700  1.0  -0.1255
  C  C145  1  0.767500  0.036300  0.450900  1.0  0.6989
  C  C146  1  0.891200  0.039200  0.488400  1.0  -0.1731
  C  C147  1  0.987800  0.070400  0.434600  1.0  -0.1284
  C  C148  1  0.889500  0.921700  0.521600  1.0  -0.1214
  C  C149  1  0.588930  0.066070  0.166700  1.0  0.7093
  C  C150  1  0.570800  0.053600  0.077400  1.0  -0.1819
  C  C151  1  0.453800  0.081800  0.050100  1.0  -0.1101
  C  C152  1  0.567700  0.928900  0.040000  1.0  -0.1262
  O  O153  1  0.272010  0.580990  0.858700  1.0  -0.6966
  O  O154  1  0.206410  0.542990  0.972860  1.0  -0.5854
  O  O155  1  0.936780  0.454680  0.870970  1.0  -0.6924
  O  O156  1  0.033330  0.361070  0.795200  1.0  -0.581
  O  O157  1  0.072580  0.756020  0.884500  1.0  -0.6148
  O  O158  1  0.997320  0.684280  0.990890  1.0  -0.6365
  O  O159  1  0.169800  0.617600  0.705240  1.0  -0.7013
  O  O160  1  0.975200  0.571200  0.701500  1.0  -0.5728
  O  O161  1  0.419010  0.727990  0.641300  1.0  -0.7005
  O  O162  1  0.457010  0.793590  0.527140  1.0  -0.5923
  O  O163  1  0.545320  0.063220  0.629030  1.0  -0.6932
  O  O164  1  0.638930  0.966670  0.704800  1.0  -0.5859
  O  O165  1  0.243980  0.927420  0.615500  1.0  -0.6124
  O  O166  1  0.315720  0.002680  0.509110  1.0  -0.6356
  O  O167  1  0.382400  0.830200  0.794760  1.0  -0.7016
  O  O168  1  0.428800  0.024800  0.798500  1.0  -0.5728
  O  O169  1  0.727990  0.419010  0.141300  1.0  -0.6975
  O  O170  1  0.793590  0.457010  0.027140  1.0  -0.5854
  O  O171  1  0.063220  0.545320  0.129030  1.0  -0.6937
  O  O172  1  0.966670  0.638930  0.204800  1.0  -0.5824
  O  O173  1  0.927420  0.243980  0.115500  1.0  -0.6146
  O  O174  1  0.002680  0.315720  0.009110  1.0  -0.6357
  O  O175  1  0.830200  0.382400  0.294760  1.0  -0.7015
  O  O176  1  0.024800  0.428800  0.298500  1.0  -0.5734
  O  O177  1  0.580990  0.272010  0.358700  1.0  -0.6997
  O  O178  1  0.542990  0.206410  0.472860  1.0  -0.5859
  O  O179  1  0.454680  0.936780  0.370970  1.0  -0.6911
  O  O180  1  0.361070  0.033330  0.295200  1.0  -0.5795
  O  O181  1  0.756020  0.072580  0.384500  1.0  -0.6127
  O  O182  1  0.684280  0.997320  0.490890  1.0  -0.6341
  O  O183  1  0.617600  0.169800  0.205240  1.0  -0.702
  O  O184  1  0.571200  0.975200  0.201500  1.0  -0.5735
