# generated using pymatgen
data_GdH3(C5O4)2
_symmetry_space_group_name_H-M   'P 1'
_cell_length_a   7.18490000
_cell_length_b   10.73290000
_cell_length_c   17.17530000
_cell_angle_alpha   97.16000000
_cell_angle_beta   90.00000000
_cell_angle_gamma   90.00000000
_symmetry_Int_Tables_number   1
_chemical_formula_structural   GdH3(C5O4)2
_chemical_formula_sum   'Gd4 H12 C40 O32'
_cell_volume   1314.14177908
_cell_formula_units_Z   4
loop_
 _symmetry_equiv_pos_site_id
 _symmetry_equiv_pos_as_xyz
  1  'x, y, z'
loop_
 _atom_site_type_symbol
 _atom_site_label
 _atom_site_symmetry_multiplicity
 _atom_site_fract_x
 _atom_site_fract_y
 _atom_site_fract_z
 _atom_site_occupancy
 _atom_site_charge
  Gd  Gd1  1  0.020040  0.825010  0.753160  1.0  2.2185
  Gd  Gd2  1  0.520040  0.674990  0.746840  1.0  2.2234
  Gd  Gd3  1  0.979960  0.174990  0.246840  1.0  2.218
  Gd  Gd4  1  0.479960  0.325010  0.253160  1.0  2.2225
  H  H5  1  0.317000  0.507000  0.480600  1.0  0.1166
  H  H6  1  0.966000  0.190000  0.560000  1.0  0.4358
  H  H7  1  0.651000  0.833000  0.551800  1.0  0.1147
  H  H8  1  0.817000  0.993000  0.019400  1.0  0.1166
  H  H9  1  0.466000  0.310000  0.940000  1.0  0.4356
  H  H10  1  0.151000  0.667000  0.948200  1.0  0.1137
  H  H11  1  0.683000  0.493000  0.519400  1.0  0.1169
  H  H12  1  0.034000  0.810000  0.440000  1.0  0.4347
  H  H13  1  0.349000  0.167000  0.448200  1.0  0.1142
  H  H14  1  0.183000  0.007000  0.980600  1.0  0.1174
  H  H15  1  0.534000  0.690000  0.060000  1.0  0.4353
  H  H16  1  0.849000  0.333000  0.051800  1.0  0.115
  C  C17  1  0.251700  0.594400  0.625570  1.0  0.7178
  C  C18  1  0.117700  0.547900  0.561870  1.0  -0.1115
  C  C19  1  0.925800  0.542300  0.573370  1.0  -0.0427
  C  C20  1  0.826900  0.584000  0.648710  1.0  0.7174
  C  C21  1  0.189900  0.505600  0.488180  1.0  -0.0379
  C  C22  1  0.352500  0.891500  0.634050  1.0  0.7616
  C  C23  1  0.428400  0.952700  0.566550  1.0  -0.085
  C  C24  1  0.341200  0.053700  0.536950  1.0  -0.0661
  C  C25  1  0.181400  0.122000  0.579210  1.0  0.64
  C  C26  1  0.588200  0.901000  0.529490  1.0  -0.0669
  C  C27  1  0.751700  0.905600  0.874430  1.0  0.7165
  C  C28  1  0.617700  0.952100  0.938130  1.0  -0.1118
  C  C29  1  0.425800  0.957700  0.926630  1.0  -0.0425
  C  C30  1  0.326900  0.916000  0.851290  1.0  0.7175
  C  C31  1  0.689900  0.994400  0.011820  1.0  -0.0382
  C  C32  1  0.852500  0.608500  0.865950  1.0  0.761
  C  C33  1  0.928400  0.547300  0.933450  1.0  -0.0848
  C  C34  1  0.841200  0.446300  0.963050  1.0  -0.0671
  C  C35  1  0.681400  0.378000  0.920790  1.0  0.6407
  C  C36  1  0.088200  0.599000  0.970510  1.0  -0.0667
  C  C37  1  0.748300  0.405600  0.374430  1.0  0.7161
  C  C38  1  0.882300  0.452100  0.438130  1.0  -0.1121
  C  C39  1  0.074200  0.457700  0.426630  1.0  -0.0419
  C  C40  1  0.173100  0.416000  0.351290  1.0  0.7184
  C  C41  1  0.810100  0.494400  0.511820  1.0  -0.0384
  C  C42  1  0.647500  0.108500  0.365950  1.0  0.7598
  C  C43  1  0.571600  0.047300  0.433450  1.0  -0.0848
  C  C44  1  0.658800  0.946300  0.463050  1.0  -0.0668
  C  C45  1  0.818600  0.878000  0.420790  1.0  0.641
  C  C46  1  0.411800  0.099000  0.470510  1.0  -0.0667
  C  C47  1  0.248300  0.094400  0.125570  1.0  0.7172
  C  C48  1  0.382300  0.047900  0.061870  1.0  -0.1116
  C  C49  1  0.574200  0.042300  0.073370  1.0  -0.0422
  C  C50  1  0.673100  0.084000  0.148710  1.0  0.7187
  C  C51  1  0.310100  0.005600  0.988180  1.0  -0.0379
  C  C52  1  0.147500  0.391500  0.134050  1.0  0.7604
  C  C53  1  0.071600  0.452700  0.066550  1.0  -0.0853
  C  C54  1  0.158800  0.553700  0.036950  1.0  -0.066
  C  C55  1  0.318600  0.622000  0.079210  1.0  0.6408
  C  C56  1  0.911800  0.401000  0.029490  1.0  -0.0668
  O  O57  1  0.189400  0.644280  0.692230  1.0  -0.8232
  O  O58  1  0.421000  0.582900  0.613710  1.0  -0.6161
  O  O59  1  0.808100  0.702760  0.670430  1.0  -0.8398
  O  O60  1  0.747700  0.506040  0.684650  1.0  -0.5872
  O  O61  1  0.178900  0.887570  0.642880  1.0  -0.7238
  O  O62  1  0.468800  0.845070  0.676220  1.0  -0.6994
  O  O63  1  0.182400  0.153500  0.649920  1.0  -0.4992
  O  O64  1  0.047400  0.148400  0.533010  1.0  -0.5228
  O  O65  1  0.689400  0.855720  0.807770  1.0  -0.822
  O  O66  1  0.921000  0.917100  0.886290  1.0  -0.6158
  O  O67  1  0.308100  0.797240  0.829570  1.0  -0.8409
  O  O68  1  0.247700  0.993960  0.815350  1.0  -0.5881
  O  O69  1  0.678900  0.612430  0.857120  1.0  -0.7247
  O  O70  1  0.968800  0.654930  0.823780  1.0  -0.7001
  O  O71  1  0.682400  0.346500  0.850080  1.0  -0.4983
  O  O72  1  0.547400  0.351600  0.966990  1.0  -0.5226
  O  O73  1  0.810600  0.355720  0.307770  1.0  -0.8233
  O  O74  1  0.579000  0.417100  0.386290  1.0  -0.6161
  O  O75  1  0.191900  0.297240  0.329570  1.0  -0.8407
  O  O76  1  0.252300  0.493960  0.315350  1.0  -0.5883
  O  O77  1  0.821100  0.112430  0.357120  1.0  -0.726
  O  O78  1  0.531200  0.154930  0.323780  1.0  -0.7001
  O  O79  1  0.817600  0.846500  0.350080  1.0  -0.4974
  O  O80  1  0.952600  0.851600  0.466990  1.0  -0.5226
  O  O81  1  0.310600  0.144280  0.192230  1.0  -0.8243
  O  O82  1  0.079000  0.082900  0.113710  1.0  -0.6162
  O  O83  1  0.691900  0.202760  0.170430  1.0  -0.8394
  O  O84  1  0.752300  0.006040  0.184650  1.0  -0.5873
  O  O85  1  0.321100  0.387570  0.142880  1.0  -0.7251
  O  O86  1  0.031200  0.345070  0.176220  1.0  -0.6999
  O  O87  1  0.317600  0.653500  0.149920  1.0  -0.4987
  O  O88  1  0.452600  0.648400  0.033010  1.0  -0.523
