# generated using pymatgen
data_Gd2H3(C5O4)3
_symmetry_space_group_name_H-M   'P 1'
_cell_length_a   10.06620000
_cell_length_b   11.44920000
_cell_length_c   12.77460000
_cell_angle_alpha   108.73000000
_cell_angle_beta   96.94800000
_cell_angle_gamma   96.80200000
_symmetry_Int_Tables_number   1
_chemical_formula_structural   Gd2H3(C5O4)3
_chemical_formula_sum   'Gd4 H6 C30 O24'
_cell_volume   1364.55593242
_cell_formula_units_Z   2
loop_
 _symmetry_equiv_pos_site_id
 _symmetry_equiv_pos_as_xyz
  1  'x, y, z'
loop_
 _atom_site_type_symbol
 _atom_site_label
 _atom_site_symmetry_multiplicity
 _atom_site_fract_x
 _atom_site_fract_y
 _atom_site_fract_z
 _atom_site_occupancy
 _atom_site_charge
  Gd  Gd1  1  0.931860  0.923660  0.616050  1.0  2.1099
  Gd  Gd2  1  0.548360  0.401840  0.241780  1.0  2.0803
  Gd  Gd3  1  0.068140  0.076340  0.383950  1.0  2.1084
  Gd  Gd4  1  0.451640  0.598160  0.758220  1.0  2.0817
  H  H5  1  0.861000  0.446000  0.375000  1.0  0.079
  H  H6  1  0.238000  0.676000  0.319000  1.0  0.1218
  H  H7  1  0.980000  0.693000  0.110000  1.0  0.1126
  H  H8  1  0.139000  0.554000  0.625000  1.0  0.0764
  H  H9  1  0.762000  0.324000  0.681000  1.0  0.1203
  H  H10  1  0.020000  0.307000  0.890000  1.0  0.1116
  C  C11  1  0.065000  0.822000  0.375900  1.0  0.7254
  C  C12  1  0.048300  0.686000  0.363500  1.0  -0.0346
  C  C13  1  0.931600  0.615400  0.374900  1.0  -0.1855
  C  C14  1  0.802200  0.669600  0.393500  1.0  0.7615
  C  C15  1  0.934100  0.491000  0.366500  1.0  0.0184
  C  C16  1  0.048500  0.436100  0.345300  1.0  -0.1306
  C  C17  1  0.052600  0.306300  0.348000  1.0  0.6882
  C  C18  1  0.161800  0.505700  0.327800  1.0  -0.0038
  C  C19  1  0.288000  0.455700  0.296400  1.0  0.6828
  C  C20  1  0.160500  0.629100  0.335800  1.0  -0.1083
  C  C21  1  0.770800  0.537200  0.116000  1.0  0.7316
  C  C22  1  0.886000  0.516900  0.052000  1.0  -0.1271
  C  C23  1  0.898600  0.397800  0.981300  1.0  -0.0599
  C  C24  1  0.789300  0.285200  0.954400  1.0  0.6422
  C  C25  1  0.987900  0.617000  0.069000  1.0  -0.0525
  C  C26  1  0.935000  0.178000  0.624100  1.0  0.7273
  C  C27  1  0.951700  0.314000  0.636500  1.0  -0.0427
  C  C28  1  0.068400  0.384600  0.625100  1.0  -0.1932
  C  C29  1  0.197800  0.330400  0.606500  1.0  0.7648
  C  C30  1  0.065900  0.509000  0.633500  1.0  0.0225
  C  C31  1  0.951500  0.563900  0.654700  1.0  -0.1303
  C  C32  1  0.947400  0.693700  0.652000  1.0  0.6964
  C  C33  1  0.838200  0.494300  0.672200  1.0  -0.0048
  C  C34  1  0.712000  0.544300  0.703600  1.0  0.6848
  C  C35  1  0.839500  0.370900  0.664200  1.0  -0.108
  C  C36  1  0.229200  0.462800  0.884000  1.0  0.7311
  C  C37  1  0.114000  0.483100  0.948000  1.0  -0.125
  C  C38  1  0.101400  0.602200  0.018700  1.0  -0.0652
  C  C39  1  0.210700  0.714800  0.045600  1.0  0.6412
  C  C40  1  0.012100  0.383000  0.931000  1.0  -0.0511
  O  O41  1  0.075500  0.905100  0.473400  1.0  -0.7839
  O  O42  1  0.078000  0.853700  0.292900  1.0  -0.6393
  O  O43  1  0.814500  0.787900  0.435300  1.0  -0.7241
  O  O44  1  0.691200  0.596900  0.367500  1.0  -0.7267
  O  O45  1  0.944800  0.237100  0.347500  1.0  -0.6965
  O  O46  1  0.165200  0.269600  0.354800  1.0  -0.6732
  O  O47  1  0.288600  0.388100  0.197500  1.0  -0.6486
  O  O48  1  0.395600  0.492800  0.369600  1.0  -0.7003
  O  O49  1  0.718700  0.446000  0.140700  1.0  -0.7977
  O  O50  1  0.734900  0.643300  0.144500  1.0  -0.5818
  O  O51  1  0.822700  0.193700  0.980000  1.0  -0.548
  O  O52  1  0.673700  0.288300  0.906000  1.0  -0.5281
  O  O53  1  0.924500  0.094900  0.526600  1.0  -0.7738
  O  O54  1  0.922000  0.146300  0.707100  1.0  -0.6403
  O  O55  1  0.185500  0.212100  0.564700  1.0  -0.724
  O  O56  1  0.308800  0.403100  0.632500  1.0  -0.7257
  O  O57  1  0.055200  0.762900  0.652500  1.0  -0.6984
  O  O58  1  0.834800  0.730400  0.645200  1.0  -0.6754
  O  O59  1  0.711400  0.611900  0.802500  1.0  -0.6473
  O  O60  1  0.604400  0.507200  0.630400  1.0  -0.6993
  O  O61  1  0.281300  0.554000  0.859300  1.0  -0.8036
  O  O62  1  0.265100  0.356700  0.855500  1.0  -0.581
  O  O63  1  0.177300  0.806300  0.020000  1.0  -0.5474
  O  O64  1  0.326300  0.711700  0.094000  1.0  -0.5333
