# generated using pymatgen
data_ZnH12C19(NO2)2
_symmetry_space_group_name_H-M   'P 1'
_cell_length_a   7.69780000
_cell_length_b   17.25000000
_cell_length_c   14.08900000
_cell_angle_alpha   90.00000000
_cell_angle_beta   93.10200000
_cell_angle_gamma   90.00000000
_symmetry_Int_Tables_number   1
_chemical_formula_structural   ZnH12C19(NO2)2
_chemical_formula_sum   'Zn4 H48 C76 N8 O16'
_cell_volume   1868.09556379
_cell_formula_units_Z   4
loop_
 _symmetry_equiv_pos_site_id
 _symmetry_equiv_pos_as_xyz
  1  'x, y, z'
loop_
 _atom_site_type_symbol
 _atom_site_label
 _atom_site_symmetry_multiplicity
 _atom_site_fract_x
 _atom_site_fract_y
 _atom_site_fract_z
 _atom_site_occupancy
 _atom_site_charge
  Zn  Zn1  1  0.411490  0.626290  0.295070  1.0  0.8948
  Zn  Zn2  1  0.588510  0.126290  0.204930  1.0  0.8952
  Zn  Zn3  1  0.588510  0.373710  0.704930  1.0  0.8953
  Zn  Zn4  1  0.411490  0.873710  0.795070  1.0  0.895
  H  H5  1  0.747100  0.642900  0.428800  1.0  0.0767
  H  H6  1  0.810500  0.655900  0.589100  1.0  0.0934
  H  H7  1  0.595100  0.638600  0.694600  1.0  0.1126
  H  H8  1  0.268400  0.589100  0.475000  1.0  0.0645
  H  H9  1  0.038100  0.686100  0.819500  1.0  0.11
  H  H10  1  0.744200  0.691500  0.224600  1.0  0.0694
  H  H11  1  0.954100  0.659000  0.123200  1.0  0.1173
  H  H12  1  0.688600  0.465200  0.057900  1.0  0.1187
  H  H13  1  0.486900  0.502400  0.161800  1.0  0.0812
  H  H14  1  0.073700  0.571200  0.007800  1.0  0.0881
  H  H15  1  0.188300  0.495800  0.608900  1.0  0.0949
  H  H16  1  0.874200  0.574800  0.804500  1.0  0.095
  H  H17  1  0.252900  0.142900  0.071200  1.0  0.0766
  H  H18  1  0.189500  0.155900  0.910900  1.0  0.0936
  H  H19  1  0.404900  0.138600  0.805400  1.0  0.1128
  H  H20  1  0.731600  0.089100  0.025000  1.0  0.0639
  H  H21  1  0.961900  0.186100  0.680500  1.0  0.1097
  H  H22  1  0.255800  0.191500  0.275400  1.0  0.0697
  H  H23  1  0.045900  0.159000  0.376800  1.0  0.1172
  H  H24  1  0.311400  0.965200  0.442100  1.0  0.1195
  H  H25  1  0.513100  0.002400  0.338200  1.0  0.0816
  H  H26  1  0.926300  0.071200  0.492200  1.0  0.0873
  H  H27  1  0.811700  0.995800  0.891100  1.0  0.095
  H  H28  1  0.125800  0.074800  0.695500  1.0  0.095
  H  H29  1  0.252900  0.357100  0.571200  1.0  0.0765
  H  H30  1  0.189500  0.344100  0.410900  1.0  0.0936
  H  H31  1  0.404900  0.361400  0.305400  1.0  0.1126
  H  H32  1  0.731600  0.410900  0.525000  1.0  0.0644
  H  H33  1  0.961900  0.313900  0.180500  1.0  0.1098
  H  H34  1  0.255800  0.308500  0.775400  1.0  0.0694
  H  H35  1  0.045900  0.341000  0.876800  1.0  0.1171
  H  H36  1  0.311400  0.534800  0.942100  1.0  0.1197
  H  H37  1  0.513100  0.497600  0.838200  1.0  0.0815
  H  H38  1  0.926300  0.428800  0.992200  1.0  0.0875
  H  H39  1  0.811700  0.504200  0.391100  1.0  0.095
  H  H40  1  0.125800  0.425200  0.195500  1.0  0.095
  H  H41  1  0.747100  0.857100  0.928800  1.0  0.0763
  H  H42  1  0.810500  0.844100  0.089100  1.0  0.0934
  H  H43  1  0.595100  0.861400  0.194600  1.0  0.1127
  H  H44  1  0.268400  0.910900  0.975000  1.0  0.0647
  H  H45  1  0.038100  0.813900  0.319500  1.0  0.11
  H  H46  1  0.744200  0.808500  0.724600  1.0  0.0694
  H  H47  1  0.954100  0.841000  0.623200  1.0  0.1168
  H  H48  1  0.688600  0.034800  0.557900  1.0  0.1193
  H  H49  1  0.486900  0.997600  0.661800  1.0  0.0815
  H  H50  1  0.073700  0.928800  0.507800  1.0  0.0881
  H  H51  1  0.188300  0.004200  0.108900  1.0  0.0953
  H  H52  1  0.874200  0.925200  0.304500  1.0  0.095
  C  C53  1  0.659400  0.635100  0.470600  1.0  0.1699
  C  C54  1  0.698000  0.643300  0.566900  1.0  -0.1092
  C  C55  1  0.570500  0.632800  0.629600  1.0  -0.0692
  C  C56  1  0.404500  0.613300  0.595200  1.0  0.0249
  C  C57  1  0.378300  0.604400  0.498300  1.0  0.1892
  C  C58  1  0.254200  0.602500  0.655700  1.0  -0.052
  C  C59  1  0.205700  0.661000  0.719400  1.0  -0.0937
  C  C60  1  0.066600  0.648600  0.775500  1.0  -0.0643
  C  C61  1  0.733600  0.645000  0.191400  1.0  0.1625
  C  C62  1  0.860800  0.625700  0.130500  1.0  -0.2224
  C  C63  1  0.849700  0.556800  0.080100  1.0  0.1536
  C  C64  1  0.704100  0.511100  0.092000  1.0  -0.2048
  C  C65  1  0.583000  0.534000  0.154300  1.0  0.1621
  C  C66  1  0.990400  0.533800  0.019500  1.0  -0.1365
  C  C67  1  0.904800  0.452800  0.690400  1.0  0.6631
  C  C68  1  0.012200  0.524600  0.704100  1.0  -0.1635
  C  C69  1  0.156700  0.535000  0.649900  1.0  -0.0341
  C  C70  1  0.969200  0.581600  0.767300  1.0  -0.037
  C  C71  1  0.287100  0.739600  0.719600  1.0  0.6817
  C  C72  1  0.340600  0.135100  0.029400  1.0  0.169
  C  C73  1  0.302000  0.143300  0.933100  1.0  -0.1105
  C  C74  1  0.429500  0.132800  0.870400  1.0  -0.0699
  C  C75  1  0.595500  0.113300  0.904800  1.0  0.025
  C  C76  1  0.621700  0.104400  0.001700  1.0  0.1894
  C  C77  1  0.745800  0.102500  0.844300  1.0  -0.0517
  C  C78  1  0.794300  0.161000  0.780600  1.0  -0.0935
  C  C79  1  0.933400  0.148600  0.724500  1.0  -0.0645
  C  C80  1  0.266400  0.145000  0.308600  1.0  0.1626
  C  C81  1  0.139200  0.125700  0.369500  1.0  -0.2231
  C  C82  1  0.150300  0.056800  0.419900  1.0  0.1544
  C  C83  1  0.295900  0.011100  0.408000  1.0  -0.2046
  C  C84  1  0.417000  0.034000  0.345700  1.0  0.1615
  C  C85  1  0.009600  0.033800  0.480500  1.0  -0.1366
  C  C86  1  0.095200  0.952800  0.809600  1.0  0.6634
  C  C87  1  0.987800  0.024600  0.795900  1.0  -0.1636
  C  C88  1  0.843300  0.035000  0.850100  1.0  -0.034
  C  C89  1  0.030800  0.081600  0.732700  1.0  -0.0386
  C  C90  1  0.712900  0.239600  0.780400  1.0  0.6821
  C  C91  1  0.340600  0.364900  0.529400  1.0  0.1691
  C  C92  1  0.302000  0.356700  0.433100  1.0  -0.1098
  C  C93  1  0.429500  0.367200  0.370400  1.0  -0.0703
  C  C94  1  0.595500  0.386700  0.404800  1.0  0.0252
  C  C95  1  0.621700  0.395600  0.501700  1.0  0.1893
  C  C96  1  0.745800  0.397500  0.344300  1.0  -0.0522
  C  C97  1  0.794300  0.339000  0.280600  1.0  -0.0949
  C  C98  1  0.933400  0.351400  0.224500  1.0  -0.0663
  C  C99  1  0.266400  0.355000  0.808600  1.0  0.163
  C  C100  1  0.139200  0.374300  0.869500  1.0  -0.2225
  C  C101  1  0.150300  0.443200  0.919900  1.0  0.1539
  C  C102  1  0.295900  0.488900  0.908000  1.0  -0.2039
  C  C103  1  0.417000  0.466000  0.845700  1.0  0.1612
  C  C104  1  0.009600  0.466200  0.980500  1.0  -0.1365
  C  C105  1  0.095200  0.547200  0.309600  1.0  0.6633
  C  C106  1  0.987800  0.475400  0.295900  1.0  -0.1635
  C  C107  1  0.843300  0.465000  0.350100  1.0  -0.034
  C  C108  1  0.030800  0.418400  0.232700  1.0  -0.0391
  C  C109  1  0.712900  0.260400  0.280400  1.0  0.6826
  C  C110  1  0.659400  0.864900  0.970600  1.0  0.1688
  C  C111  1  0.698000  0.856700  0.066900  1.0  -0.1091
  C  C112  1  0.570500  0.867200  0.129600  1.0  -0.0698
  C  C113  1  0.404500  0.886700  0.095200  1.0  0.0248
  C  C114  1  0.378300  0.895600  0.998300  1.0  0.1891
  C  C115  1  0.254200  0.897500  0.155700  1.0  -0.0526
  C  C116  1  0.205700  0.839000  0.219400  1.0  -0.0949
  C  C117  1  0.066600  0.851400  0.275500  1.0  -0.065
  C  C118  1  0.733600  0.855000  0.691400  1.0  0.1633
  C  C119  1  0.860800  0.874300  0.630500  1.0  -0.2238
  C  C120  1  0.849700  0.943200  0.580100  1.0  0.1529
  C  C121  1  0.704100  0.988900  0.592000  1.0  -0.2035
  C  C122  1  0.583000  0.966000  0.654300  1.0  0.1618
  C  C123  1  0.990400  0.966200  0.519500  1.0  -0.1367
  C  C124  1  0.904800  0.047200  0.190400  1.0  0.6625
  C  C125  1  0.012200  0.975400  0.204100  1.0  -0.1629
  C  C126  1  0.156700  0.965000  0.149900  1.0  -0.0348
  C  C127  1  0.969200  0.918400  0.267300  1.0  -0.0368
  C  C128  1  0.287100  0.760400  0.219600  1.0  0.6822
  N  N129  1  0.596600  0.600330  0.205300  1.0  -0.3456
  N  N130  1  0.499400  0.616320  0.435300  1.0  -0.3416
  N  N131  1  0.403400  0.100330  0.294700  1.0  -0.3457
  N  N132  1  0.500600  0.116320  0.064700  1.0  -0.3401
  N  N133  1  0.403400  0.399670  0.794700  1.0  -0.3459
  N  N134  1  0.500600  0.383680  0.564700  1.0  -0.3403
  N  N135  1  0.596600  0.899670  0.705300  1.0  -0.3462
  N  N136  1  0.499400  0.883680  0.935300  1.0  -0.3423
  O  O137  1  0.345700  0.765080  0.799500  1.0  -0.594
  O  O138  1  0.286700  0.777150  0.645600  1.0  -0.5853
  O  O139  1  0.957400  0.397950  0.644000  1.0  -0.5613
  O  O140  1  0.758100  0.454610  0.728600  1.0  -0.6068
  O  O141  1  0.654300  0.265080  0.700500  1.0  -0.5953
  O  O142  1  0.713300  0.277150  0.854400  1.0  -0.5862
  O  O143  1  0.042600  0.897950  0.856000  1.0  -0.5597
  O  O144  1  0.241900  0.954610  0.771400  1.0  -0.6065
  O  O145  1  0.654300  0.234920  0.200500  1.0  -0.5956
  O  O146  1  0.713300  0.222850  0.354400  1.0  -0.5853
  O  O147  1  0.042600  0.602050  0.356000  1.0  -0.5582
  O  O148  1  0.241900  0.545390  0.271400  1.0  -0.6068
  O  O149  1  0.345700  0.734920  0.299500  1.0  -0.5946
  O  O150  1  0.286700  0.722850  0.145600  1.0  -0.5859
  O  O151  1  0.957400  0.102050  0.144000  1.0  -0.5594
  O  O152  1  0.758100  0.045390  0.228600  1.0  -0.6072
