# generated using pymatgen
data_Cu2H10C14N4O7
_symmetry_space_group_name_H-M   'P 1'
_cell_length_a   7.39600000
_cell_length_b   15.66600000
_cell_length_c   17.57060000
_cell_angle_alpha   110.89600000
_cell_angle_beta   102.15000000
_cell_angle_gamma   90.00000000
_symmetry_Int_Tables_number   1
_chemical_formula_structural   Cu2H10C14N4O7
_chemical_formula_sum   'Cu8 H40 C56 N16 O28'
_cell_volume   1853.03766767
_cell_formula_units_Z   4
loop_
 _symmetry_equiv_pos_site_id
 _symmetry_equiv_pos_as_xyz
  1  'x, y, z'
loop_
 _atom_site_type_symbol
 _atom_site_label
 _atom_site_symmetry_multiplicity
 _atom_site_fract_x
 _atom_site_fract_y
 _atom_site_fract_z
 _atom_site_occupancy
 _atom_site_charge
  Cu  Cu1  1  0.890380  0.415030  0.505220  1.0  0.9921
  Cu  Cu2  1  0.889230  0.407940  0.324540  1.0  1.0156
  Cu  Cu3  1  0.385160  0.084970  0.494780  1.0  0.9922
  Cu  Cu4  1  0.564690  0.092060  0.675460  1.0  1.015
  Cu  Cu5  1  0.109620  0.584970  0.494780  1.0  0.9923
  Cu  Cu6  1  0.110770  0.592060  0.675460  1.0  1.0169
  Cu  Cu7  1  0.614840  0.915030  0.505220  1.0  0.9923
  Cu  Cu8  1  0.435310  0.907940  0.324540  1.0  1.016
  H  H9  1  0.258500  0.469300  0.787200  1.0  0.1325
  H  H10  1  0.015300  0.260200  0.588400  1.0  0.1168
  H  H11  1  0.169800  0.225200  0.725400  1.0  0.3473
  H  H12  1  0.267000  0.304700  0.799800  1.0  0.3561
  H  H13  1  0.855400  0.116800  0.436000  1.0  0.1194
  H  H14  1  0.986800  0.135900  0.232400  1.0  0.106
  H  H15  1  0.024200  0.981000  0.181600  1.0  0.1164
  H  H16  1  0.386300  0.316200  0.123800  1.0  0.0981
  H  H17  1  0.993500  0.894800  0.262000  1.0  0.1028
  H  H18  1  0.471300  0.030700  0.212800  1.0  0.132
  H  H19  1  0.426900  0.239800  0.411600  1.0  0.1145
  H  H20  1  0.444400  0.274800  0.274600  1.0  0.348
  H  H21  1  0.467200  0.195300  0.200200  1.0  0.355
  H  H22  1  0.419400  0.383200  0.564000  1.0  0.118
  H  H23  1  0.754400  0.364100  0.767600  1.0  0.1066
  H  H24  1  0.842600  0.519000  0.818400  1.0  0.1177
  H  H25  1  0.262500  0.183800  0.876200  1.0  0.0986
  H  H26  1  0.731500  0.605200  0.738000  1.0  0.1033
  H  H27  1  0.741500  0.530700  0.212800  1.0  0.1324
  H  H28  1  0.984700  0.739800  0.411600  1.0  0.1162
  H  H29  1  0.830200  0.774800  0.274600  1.0  0.3479
  H  H30  1  0.733000  0.695300  0.200200  1.0  0.3557
  H  H31  1  0.144600  0.883200  0.564000  1.0  0.1192
  H  H32  1  0.013200  0.864100  0.767600  1.0  0.1055
  H  H33  1  0.975800  0.019000  0.818400  1.0  0.1165
  H  H34  1  0.613700  0.683800  0.876200  1.0  0.0983
  H  H35  1  0.006500  0.105200  0.738000  1.0  0.1046
  H  H36  1  0.528700  0.969300  0.787200  1.0  0.131
  H  H37  1  0.573100  0.760200  0.588400  1.0  0.1174
  H  H38  1  0.555600  0.725200  0.725400  1.0  0.3473
  H  H39  1  0.532800  0.804700  0.799800  1.0  0.3546
  H  H40  1  0.580600  0.616800  0.436000  1.0  0.1193
  H  H41  1  0.245600  0.635900  0.232400  1.0  0.1067
  H  H42  1  0.157400  0.481000  0.181600  1.0  0.1171
  H  H43  1  0.737500  0.816200  0.123800  1.0  0.0984
  H  H44  1  0.268500  0.394800  0.262000  1.0  0.1026
  H  H45  1  0.792100  0.250000  0.000000  1.0  0.0997
  H  H46  1  0.170800  0.250000  0.000000  1.0  0.1066
  H  H47  1  0.207900  0.750000  0.000000  1.0  0.0982
  H  H48  1  0.829200  0.750000  0.000000  1.0  0.1064
  C  C49  1  0.190700  0.434100  0.734000  1.0  0.1222
  C  C50  1  0.057400  0.319600  0.625000  1.0  0.1525
  C  C51  1  0.881810  0.937700  0.404020  1.0  0.6708
  C  C52  1  0.891000  0.089900  0.385400  1.0  -0.042
  C  C53  1  0.921100  0.142000  0.340000  1.0  -0.1678
  C  C54  1  0.914600  0.996600  0.355200  1.0  -0.1113
  C  C55  1  0.903000  0.243400  0.370800  1.0  0.6788
  C  C56  1  0.969800  0.100600  0.263400  1.0  -0.047
  C  C57  1  0.993500  0.008200  0.233200  1.0  -0.1093
  C  C58  1  0.757200  0.329900  0.156400  1.0  0.6555
  C  C59  1  0.612900  0.289500  0.075600  1.0  -0.1631
  C  C60  1  0.425600  0.289400  0.074200  1.0  -0.0474
  C  C61  1  0.971000  0.956500  0.280200  1.0  -0.0453
  C  C62  1  0.456700  0.065900  0.266000  1.0  0.1221
  C  C63  1  0.432400  0.180400  0.375000  1.0  0.1531
  C  C64  1  0.477790  0.562300  0.595980  1.0  0.6705
  C  C65  1  0.505600  0.410100  0.614600  1.0  -0.041
  C  C66  1  0.581100  0.358000  0.660000  1.0  -0.1692
  C  C67  1  0.559400  0.503400  0.644800  1.0  -0.1112
  C  C68  1  0.532200  0.256600  0.629200  1.0  0.6793
  C  C69  1  0.706400  0.399400  0.736600  1.0  -0.0472
  C  C70  1  0.760300  0.491800  0.766800  1.0  -0.1099
  C  C71  1  0.600800  0.170100  0.843600  1.0  0.6569
  C  C72  1  0.537300  0.210500  0.924400  1.0  -0.1649
  C  C73  1  0.351400  0.210600  0.925800  1.0  -0.0446
  C  C74  1  0.690800  0.543500  0.719800  1.0  -0.048
  C  C75  1  0.809300  0.565900  0.266000  1.0  0.1232
  C  C76  1  0.942600  0.680400  0.375000  1.0  0.1536
  C  C77  1  0.118190  0.062300  0.595980  1.0  0.6669
  C  C78  1  0.109000  0.910100  0.614600  1.0  -0.0411
  C  C79  1  0.078900  0.858000  0.660000  1.0  -0.1678
  C  C80  1  0.085400  0.003400  0.644800  1.0  -0.1116
  C  C81  1  0.097000  0.756600  0.629200  1.0  0.6788
  C  C82  1  0.030200  0.899400  0.736600  1.0  -0.0474
  C  C83  1  0.006500  0.991800  0.766800  1.0  -0.1083
  C  C84  1  0.242800  0.670100  0.843600  1.0  0.6543
  C  C85  1  0.387100  0.710500  0.924400  1.0  -0.1621
  C  C86  1  0.574400  0.710600  0.925800  1.0  -0.0473
  C  C87  1  0.029000  0.043500  0.719800  1.0  -0.0456
  C  C88  1  0.543300  0.934100  0.734000  1.0  0.1217
  C  C89  1  0.567600  0.819600  0.625000  1.0  0.1529
  C  C90  1  0.522210  0.437700  0.404020  1.0  0.6667
  C  C91  1  0.494400  0.589900  0.385400  1.0  -0.0408
  C  C92  1  0.418900  0.642000  0.340000  1.0  -0.1703
  C  C93  1  0.440600  0.496600  0.355200  1.0  -0.1114
  C  C94  1  0.467800  0.743400  0.370800  1.0  0.6788
  C  C95  1  0.293600  0.600600  0.263400  1.0  -0.0466
  C  C96  1  0.239700  0.508200  0.233200  1.0  -0.1122
  C  C97  1  0.399200  0.829900  0.156400  1.0  0.6564
  C  C98  1  0.462700  0.789500  0.075600  1.0  -0.1628
  C  C99  1  0.648600  0.789400  0.074200  1.0  -0.0441
  C  C100  1  0.309200  0.456500  0.280200  1.0  -0.0469
  C  C101  1  0.666400  0.250000  0.000000  1.0  0.0114
  C  C102  1  0.297000  0.250000  0.000000  1.0  -0.1122
  C  C103  1  0.333600  0.750000  0.000000  1.0  0.0095
  C  C104  1  0.703000  0.750000  0.000000  1.0  -0.1089
  N  N105  1  0.030140  0.392600  0.606880  1.0  -0.2388
  N  N106  1  0.115960  0.465800  0.677120  1.0  -0.2392
  N  N107  1  0.155200  0.341900  0.704400  1.0  0.1939
  N  N108  1  0.203700  0.282900  0.749000  1.0  -0.6259
  N  N109  1  0.423260  0.107400  0.393120  1.0  -0.2393
  N  N110  1  0.438840  0.034200  0.322880  1.0  -0.2374
  N  N111  1  0.450800  0.158100  0.295600  1.0  0.1929
  N  N112  1  0.454700  0.217100  0.251000  1.0  -0.6253
  N  N113  1  0.969860  0.607400  0.393120  1.0  -0.2371
  N  N114  1  0.884040  0.534200  0.322880  1.0  -0.2377
  N  N115  1  0.844800  0.658100  0.295600  1.0  0.1942
  N  N116  1  0.796300  0.717100  0.251000  1.0  -0.6252
  N  N117  1  0.576740  0.892600  0.606880  1.0  -0.2347
  N  N118  1  0.561160  0.965800  0.677120  1.0  -0.2394
  N  N119  1  0.549200  0.841900  0.704400  1.0  0.1913
  N  N120  1  0.545300  0.782900  0.749000  1.0  -0.6262
  O  O121  1  0.909670  0.282200  0.319340  1.0  -0.5657
  O  O122  1  0.879890  0.282700  0.444780  1.0  -0.583
  O  O123  1  0.000880  0.890400  0.422760  1.0  -0.5058
  O  O124  1  0.721730  0.942100  0.421860  1.0  -0.6738
  O  O125  1  0.073840  0.455600  0.429080  1.0  -0.6948
  O  O126  1  0.696700  0.362300  0.221200  1.0  -0.5856
  O  O127  1  0.923200  0.328200  0.155600  1.0  -0.5846
  O  O128  1  0.590330  0.217800  0.680660  1.0  -0.5652
  O  O129  1  0.435110  0.217300  0.555220  1.0  -0.5823
  O  O130  1  0.578120  0.609600  0.577240  1.0  -0.5059
  O  O131  1  0.299870  0.557900  0.578140  1.0  -0.6742
  O  O132  1  0.644760  0.044400  0.570920  1.0  -0.6939
  O  O133  1  0.475500  0.137700  0.778800  1.0  -0.5863
  O  O134  1  0.767600  0.171800  0.844400  1.0  -0.5821
  O  O135  1  0.090330  0.717800  0.680660  1.0  -0.5653
  O  O136  1  0.120110  0.717300  0.555220  1.0  -0.5827
  O  O137  1  0.999120  0.109600  0.577240  1.0  -0.506
  O  O138  1  0.278270  0.057900  0.578140  1.0  -0.6747
  O  O139  1  0.926160  0.544400  0.570920  1.0  -0.6954
  O  O140  1  0.303300  0.637700  0.778800  1.0  -0.5852
  O  O141  1  0.076800  0.671800  0.844400  1.0  -0.5843
  O  O142  1  0.409670  0.782200  0.319340  1.0  -0.5653
  O  O143  1  0.564890  0.782700  0.444780  1.0  -0.5826
  O  O144  1  0.421880  0.390400  0.422760  1.0  -0.505
  O  O145  1  0.700130  0.442100  0.421860  1.0  -0.6744
  O  O146  1  0.355240  0.955600  0.429080  1.0  -0.6951
  O  O147  1  0.524500  0.862300  0.221200  1.0  -0.5854
  O  O148  1  0.232400  0.828200  0.155600  1.0  -0.5835
