# generated using pymatgen
data_CdH18C21(NO)8
_symmetry_space_group_name_H-M   'P 1'
_cell_length_a   10.54150000
_cell_length_b   10.54150000
_cell_length_c   16.99810000
_cell_angle_alpha   77.79900000
_cell_angle_beta   73.36100000
_cell_angle_gamma   101.39000000
_symmetry_Int_Tables_number   1
_chemical_formula_structural   CdH18C21(NO)8
_chemical_formula_sum   'Cd2 H36 C42 N16 O16'
_cell_volume   1700.45778086
_cell_formula_units_Z   2
loop_
 _symmetry_equiv_pos_site_id
 _symmetry_equiv_pos_as_xyz
  1  'x, y, z'
loop_
 _atom_site_type_symbol
 _atom_site_label
 _atom_site_symmetry_multiplicity
 _atom_site_fract_x
 _atom_site_fract_y
 _atom_site_fract_z
 _atom_site_occupancy
 _atom_site_charge
  Cd  Cd1  1  0.500000  0.500000  0.000000  1.0  0.8794
  Cd  Cd2  1  0.000000  0.500000  0.500000  1.0  0.8794
  H  H3  1  0.193600  0.395200  0.754400  1.0  0.1462
  H  H4  1  0.095400  0.503500  0.665300  1.0  0.099
  H  H5  1  0.149100  0.259100  0.522400  1.0  0.1049
  H  H6  1  0.240500  0.138400  0.608700  1.0  0.1415
  H  H7  1  0.446700  0.428500  0.714600  1.0  0.1413
  H  H8  1  0.523300  0.530100  0.807400  1.0  0.102
  H  H9  1  0.326600  0.203500  0.999900  1.0  0.0924
  H  H10  1  0.241000  0.092900  0.911700  1.0  0.1361
  H  H11  1  0.286500  0.026200  0.698700  1.0  0.1423
  H  H12  1  0.649600  0.948000  0.745600  1.0  0.1467
  H  H13  1  0.668800  0.760700  0.834700  1.0  0.0986
  H  H14  1  0.281500  0.671500  0.977600  1.0  0.1019
  H  H15  1  0.247100  0.849200  0.891300  1.0  0.1413
  H  H16  1  0.643100  0.161300  0.785400  1.0  0.139
  H  H17  1  0.837500  0.330700  0.692600  1.0  0.1024
  H  H18  1  0.703400  0.326500  0.500100  1.0  0.0931
  H  H19  1  0.504600  0.152700  0.588300  1.0  0.1357
  H  H20  1  0.224900  0.985200  0.801300  1.0  0.142
  H  H21  1  0.806400  0.604800  0.245600  1.0  0.1466
  H  H22  1  0.904600  0.496500  0.334700  1.0  0.0988
  H  H23  1  0.850900  0.740900  0.477600  1.0  0.1036
  H  H24  1  0.759500  0.861600  0.391300  1.0  0.1401
  H  H25  1  0.553300  0.571500  0.285400  1.0  0.1396
  H  H26  1  0.476700  0.469900  0.192600  1.0  0.1021
  H  H27  1  0.673400  0.796500  0.000100  1.0  0.0931
  H  H28  1  0.759000  0.907100  0.088300  1.0  0.1358
  H  H29  1  0.713500  0.973800  0.301300  1.0  0.1417
  H  H30  1  0.350400  0.052000  0.254400  1.0  0.146
  H  H31  1  0.331200  0.239300  0.165300  1.0  0.0997
  H  H32  1  0.718500  0.328500  0.022400  1.0  0.1022
  H  H33  1  0.752900  0.150800  0.108700  1.0  0.1403
  H  H34  1  0.356900  0.838700  0.214600  1.0  0.1366
  H  H35  1  0.162500  0.669300  0.307400  1.0  0.1027
  H  H36  1  0.296600  0.673500  0.499900  1.0  0.0922
  H  H37  1  0.495400  0.847300  0.411700  1.0  0.1362
  H  H38  1  0.775100  0.014800  0.198700  1.0  0.1408
  C  C39  1  0.184700  0.364100  0.707200  1.0  -0.2573
  C  C40  1  0.126200  0.428500  0.653300  1.0  0.1782
  C  C41  1  0.156300  0.286100  0.571200  1.0  0.175
  C  C42  1  0.213200  0.214400  0.621600  1.0  -0.2001
  C  C43  1  0.231000  0.252800  0.692000  1.0  0.1968
  C  C44  1  0.334900  0.250300  0.803000  1.0  0.2271
  C  C45  1  0.419300  0.380000  0.773300  1.0  -0.2067
  C  C46  1  0.464600  0.440400  0.829200  1.0  0.1803
  C  C47  1  0.349700  0.250600  0.941300  1.0  0.1811
  C  C48  1  0.298800  0.182900  0.888700  1.0  -0.2192
  C  C49  1  0.571300  0.891900  0.792800  1.0  -0.2583
  C  C50  1  0.581800  0.779500  0.846700  1.0  0.1798
  C  C51  1  0.357300  0.727500  0.928800  1.0  0.1724
  C  C52  1  0.336000  0.834800  0.878400  1.0  -0.2057
  C  C53  1  0.444800  0.923000  0.808000  1.0  0.1978
  C  C54  1  0.553300  0.137900  0.697000  1.0  0.2264
  C  C55  1  0.653300  0.192600  0.726700  1.0  -0.2044
  C  C56  1  0.769600  0.293800  0.670800  1.0  0.1804
  C  C57  1  0.691900  0.291000  0.558700  1.0  0.1789
  C  C58  1  0.571600  0.187500  0.611300  1.0  -0.2119
  C  C59  1  0.815300  0.635900  0.292800  1.0  -0.2595
  C  C60  1  0.873800  0.571500  0.346700  1.0  0.1779
  C  C61  1  0.843700  0.713900  0.428800  1.0  0.1727
  C  C62  1  0.786800  0.785600  0.378400  1.0  -0.2036
  C  C63  1  0.769000  0.747200  0.308000  1.0  0.1986
  C  C64  1  0.665100  0.749700  0.197000  1.0  0.2269
  C  C65  1  0.580700  0.620000  0.226700  1.0  -0.2052
  C  C66  1  0.535400  0.559600  0.170800  1.0  0.1814
  C  C67  1  0.650300  0.749400  0.058700  1.0  0.1806
  C  C68  1  0.701200  0.817100  0.111300  1.0  -0.2167
  C  C69  1  0.428700  0.108100  0.207200  1.0  -0.2629
  C  C70  1  0.418200  0.220500  0.153300  1.0  0.1807
  C  C71  1  0.642700  0.272500  0.071200  1.0  0.1719
  C  C72  1  0.664000  0.165200  0.121600  1.0  -0.2037
  C  C73  1  0.555200  0.077000  0.192000  1.0  0.1976
  C  C74  1  0.446700  0.862100  0.303000  1.0  0.2284
  C  C75  1  0.346700  0.807400  0.273300  1.0  -0.2044
  C  C76  1  0.230400  0.706200  0.329200  1.0  0.1816
  C  C77  1  0.308100  0.709000  0.441300  1.0  0.1789
  C  C78  1  0.428400  0.812500  0.388700  1.0  -0.2144
  C  C79  1  0.299200  0.049200  0.750000  1.0  0.0884
  C  C80  1  0.700800  0.950800  0.250000  1.0  0.0896
  N  N81  1  0.109900  0.391700  0.585200  1.0  -0.3342
  N  N82  1  0.291300  0.187100  0.746000  1.0  -0.1474
  N  N83  1  0.428400  0.376900  0.912900  1.0  -0.3196
  N  N84  1  0.476900  0.695100  0.914800  1.0  -0.3324
  N  N85  1  0.433100  0.037300  0.754000  1.0  -0.1461
  N  N86  1  0.789800  0.341300  0.587100  1.0  -0.3166
  N  N87  1  0.890100  0.608300  0.414800  1.0  -0.3322
  N  N88  1  0.708700  0.812900  0.254000  1.0  -0.1469
  N  N89  1  0.571600  0.623100  0.087100  1.0  -0.3206
  N  N90  1  0.523100  0.304900  0.085200  1.0  -0.3336
  N  N91  1  0.566900  0.962700  0.246000  1.0  -0.1473
  N  N92  1  0.210200  0.658700  0.412900  1.0  -0.3177
  N  N93  1  0.918400  0.032900  0.835900  1.0  0.4379
  N  N94  1  0.368800  0.754300  0.664100  1.0  0.4376
  N  N95  1  0.081600  0.967100  0.164100  1.0  0.4371
  N  N96  1  0.631200  0.245700  0.335900  1.0  0.4362
  O  O97  1  0.726100  0.553300  0.908400  1.0  -0.2874
  O  O98  1  0.961700  0.634500  0.591600  1.0  -0.2856
  O  O99  1  0.273900  0.446700  0.091600  1.0  -0.2862
  O  O100  1  0.038300  0.365500  0.408400  1.0  -0.2864
  O  O101  1  0.945500  0.950100  0.801400  1.0  -0.324
  O  O102  1  0.940700  0.036500  0.897000  1.0  -0.4409
  O  O103  1  0.868500  0.113100  0.807800  1.0  -0.4267
  O  O104  1  0.251500  0.746900  0.698600  1.0  -0.3263
  O  O105  1  0.433500  0.837700  0.603000  1.0  -0.4397
  O  O106  1  0.420900  0.676300  0.692200  1.0  -0.4288
  O  O107  1  0.054500  0.049900  0.198600  1.0  -0.3247
  O  O108  1  0.059300  0.963500  0.103000  1.0  -0.4387
  O  O109  1  0.131500  0.886900  0.192200  1.0  -0.4283
  O  O110  1  0.748500  0.253100  0.301400  1.0  -0.3237
  O  O111  1  0.566500  0.162300  0.397000  1.0  -0.4377
  O  O112  1  0.579100  0.323700  0.307800  1.0  -0.4279
