# generated using pymatgen
data_ZnH18C21N8O7
_symmetry_space_group_name_H-M   'P 1'
_cell_length_a   15.51000000
_cell_length_b   19.70700000
_cell_length_c   19.70700000
_cell_angle_alpha   90.00000000
_cell_angle_beta   90.00000000
_cell_angle_gamma   90.00000000
_symmetry_Int_Tables_number   1
_chemical_formula_structural   ZnH18C21N8O7
_chemical_formula_sum   'Zn8 H144 C168 N64 O56'
_cell_volume   6023.55431799
_cell_formula_units_Z   8
loop_
 _symmetry_equiv_pos_site_id
 _symmetry_equiv_pos_as_xyz
  1  'x, y, z'
loop_
 _atom_site_type_symbol
 _atom_site_label
 _atom_site_symmetry_multiplicity
 _atom_site_fract_x
 _atom_site_fract_y
 _atom_site_fract_z
 _atom_site_occupancy
 _atom_site_charge
  Zn  Zn1  1  0.000000  0.750000  0.250000  1.0  0.827
  Zn  Zn2  1  0.000000  0.250000  0.750000  1.0  0.827
  Zn  Zn3  1  0.500000  0.250000  0.750000  1.0  0.827
  Zn  Zn4  1  0.500000  0.750000  0.250000  1.0  0.827
  Zn  Zn5  1  0.315630  0.750000  0.750000  1.0  0.718
  Zn  Zn6  1  0.184370  0.250000  0.250000  1.0  0.7195
  Zn  Zn7  1  0.684370  0.250000  0.250000  1.0  0.7195
  Zn  Zn8  1  0.815630  0.750000  0.750000  1.0  0.718
  H  H9  1  0.242400  0.737300  0.414500  1.0  0.1655
  H  H10  1  0.155100  0.785500  0.332300  1.0  0.1373
  H  H11  1  0.009800  0.620800  0.324800  1.0  0.124
  H  H12  1  0.091600  0.568600  0.407900  1.0  0.1661
  H  H13  1  0.358500  0.586100  0.553400  1.0  0.1699
  H  H14  1  0.392800  0.642400  0.652700  1.0  0.1256
  H  H15  1  0.213800  0.779200  0.620500  1.0  0.1156
  H  H16  1  0.170600  0.726600  0.521700  1.0  0.1674
  H  H17  1  0.300100  0.530100  0.484000  1.0  0.1365
  H  H18  1  0.242400  0.762700  0.085500  1.0  0.166
  H  H19  1  0.155100  0.714500  0.167700  1.0  0.137
  H  H20  1  0.009800  0.879200  0.175200  1.0  0.1237
  H  H21  1  0.091600  0.931400  0.092100  1.0  0.1664
  H  H22  1  0.358500  0.913900  0.946600  1.0  0.1705
  H  H23  1  0.392800  0.857600  0.847300  1.0  0.126
  H  H24  1  0.213800  0.720800  0.879500  1.0  0.1152
  H  H25  1  0.170600  0.773400  0.978300  1.0  0.1676
  H  H26  1  0.300100  0.969900  0.016000  1.0  0.1367
  H  H27  1  0.242400  0.085500  0.737300  1.0  0.1646
  H  H28  1  0.155100  0.167700  0.785500  1.0  0.136
  H  H29  1  0.009800  0.175200  0.620800  1.0  0.1244
  H  H30  1  0.091600  0.092100  0.568600  1.0  0.166
  H  H31  1  0.358500  0.946600  0.586100  1.0  0.1695
  H  H32  1  0.392800  0.847300  0.642400  1.0  0.1262
  H  H33  1  0.213800  0.879500  0.779200  1.0  0.1171
  H  H34  1  0.170600  0.978300  0.726600  1.0  0.1676
  H  H35  1  0.300100  0.016000  0.530100  1.0  0.1374
  H  H36  1  0.242400  0.414500  0.762700  1.0  0.1641
  H  H37  1  0.155100  0.332300  0.714500  1.0  0.1362
  H  H38  1  0.009800  0.324800  0.879200  1.0  0.1248
  H  H39  1  0.091600  0.407900  0.931400  1.0  0.1664
  H  H40  1  0.358500  0.553400  0.913900  1.0  0.1709
  H  H41  1  0.392800  0.652700  0.857600  1.0  0.1258
  H  H42  1  0.213800  0.620500  0.720800  1.0  0.117
  H  H43  1  0.170600  0.521700  0.773400  1.0  0.1685
  H  H44  1  0.300100  0.484000  0.969900  1.0  0.1375
  H  H45  1  0.257600  0.262700  0.914500  1.0  0.1658
  H  H46  1  0.344900  0.214500  0.832300  1.0  0.1371
  H  H47  1  0.490200  0.379200  0.824800  1.0  0.1237
  H  H48  1  0.408400  0.431400  0.907900  1.0  0.1662
  H  H49  1  0.141500  0.413900  0.053400  1.0  0.1706
  H  H50  1  0.107200  0.357600  0.152700  1.0  0.1256
  H  H51  1  0.286200  0.220800  0.120500  1.0  0.1157
  H  H52  1  0.329400  0.273400  0.021700  1.0  0.1684
  H  H53  1  0.199900  0.469900  0.984000  1.0  0.1354
  H  H54  1  0.257600  0.237300  0.585500  1.0  0.1661
  H  H55  1  0.344900  0.285500  0.667700  1.0  0.1372
  H  H56  1  0.490200  0.120800  0.675200  1.0  0.1235
  H  H57  1  0.408400  0.068600  0.592100  1.0  0.1664
  H  H58  1  0.141500  0.086100  0.446600  1.0  0.1704
  H  H59  1  0.107200  0.142400  0.347300  1.0  0.126
  H  H60  1  0.286200  0.279200  0.379500  1.0  0.1159
  H  H61  1  0.329400  0.226600  0.478300  1.0  0.1684
  H  H62  1  0.199900  0.030100  0.516000  1.0  0.1368
  H  H63  1  0.257600  0.914500  0.237300  1.0  0.1642
  H  H64  1  0.344900  0.832300  0.285500  1.0  0.1356
  H  H65  1  0.490200  0.824800  0.120800  1.0  0.1246
  H  H66  1  0.408400  0.907900  0.068600  1.0  0.1666
  H  H67  1  0.141500  0.053400  0.086100  1.0  0.1693
  H  H68  1  0.107200  0.152700  0.142400  1.0  0.1266
  H  H69  1  0.286200  0.120500  0.279200  1.0  0.1172
  H  H70  1  0.329400  0.021700  0.226600  1.0  0.1684
  H  H71  1  0.199900  0.984000  0.030100  1.0  0.1374
  H  H72  1  0.257600  0.585500  0.262700  1.0  0.164
  H  H73  1  0.344900  0.667700  0.214500  1.0  0.136
  H  H74  1  0.490200  0.675200  0.379200  1.0  0.1245
  H  H75  1  0.408400  0.592100  0.431400  1.0  0.1664
  H  H76  1  0.141500  0.446600  0.413900  1.0  0.1716
  H  H77  1  0.107200  0.347300  0.357600  1.0  0.1261
  H  H78  1  0.286200  0.379500  0.220800  1.0  0.1174
  H  H79  1  0.329400  0.478300  0.273400  1.0  0.1692
  H  H80  1  0.199900  0.516000  0.469900  1.0  0.1388
  H  H81  1  0.757600  0.262700  0.585500  1.0  0.1659
  H  H82  1  0.844900  0.214500  0.667700  1.0  0.1372
  H  H83  1  0.990200  0.379200  0.675200  1.0  0.1234
  H  H84  1  0.908400  0.431400  0.592100  1.0  0.167
  H  H85  1  0.641500  0.413900  0.446600  1.0  0.1709
  H  H86  1  0.607200  0.357600  0.347300  1.0  0.1262
  H  H87  1  0.786200  0.220800  0.379500  1.0  0.1159
  H  H88  1  0.829400  0.273400  0.478300  1.0  0.1685
  H  H89  1  0.699900  0.469900  0.516000  1.0  0.1368
  H  H90  1  0.757600  0.237300  0.914500  1.0  0.1659
  H  H91  1  0.844900  0.285500  0.832300  1.0  0.1373
  H  H92  1  0.990200  0.120800  0.824800  1.0  0.1238
  H  H93  1  0.908400  0.068600  0.907900  1.0  0.1662
  H  H94  1  0.641500  0.086100  0.053400  1.0  0.1704
  H  H95  1  0.607200  0.142400  0.152700  1.0  0.1257
  H  H96  1  0.786200  0.279200  0.120500  1.0  0.1159
  H  H97  1  0.829400  0.226600  0.021700  1.0  0.1681
  H  H98  1  0.699900  0.030100  0.984000  1.0  0.1368
  H  H99  1  0.757600  0.914500  0.262700  1.0  0.1644
  H  H100  1  0.844900  0.832300  0.214500  1.0  0.1361
  H  H101  1  0.990200  0.824800  0.379200  1.0  0.1244
  H  H102  1  0.908400  0.907900  0.431400  1.0  0.1665
  H  H103  1  0.641500  0.053400  0.413900  1.0  0.1717
  H  H104  1  0.607200  0.152700  0.357600  1.0  0.1261
  H  H105  1  0.786200  0.120500  0.220800  1.0  0.1173
  H  H106  1  0.829400  0.021700  0.273400  1.0  0.1694
  H  H107  1  0.699900  0.984000  0.469900  1.0  0.1374
  H  H108  1  0.757600  0.585500  0.237300  1.0  0.1644
  H  H109  1  0.844900  0.667700  0.285500  1.0  0.1359
  H  H110  1  0.990200  0.675200  0.120800  1.0  0.1243
  H  H111  1  0.908400  0.592100  0.068600  1.0  0.1666
  H  H112  1  0.641500  0.446600  0.086100  1.0  0.1695
  H  H113  1  0.607200  0.347300  0.142400  1.0  0.1263
  H  H114  1  0.786200  0.379500  0.279200  1.0  0.117
  H  H115  1  0.829400  0.478300  0.226600  1.0  0.1684
  H  H116  1  0.699900  0.516000  0.030100  1.0  0.1373
  H  H117  1  0.742400  0.737300  0.085500  1.0  0.1654
  H  H118  1  0.655100  0.785500  0.167700  1.0  0.1371
  H  H119  1  0.509800  0.620800  0.175200  1.0  0.1238
  H  H120  1  0.591600  0.568600  0.092100  1.0  0.1658
  H  H121  1  0.858500  0.586100  0.946600  1.0  0.1699
  H  H122  1  0.892800  0.642400  0.847300  1.0  0.1258
  H  H123  1  0.713800  0.779200  0.879500  1.0  0.1157
  H  H124  1  0.670600  0.726600  0.978300  1.0  0.1675
  H  H125  1  0.800100  0.530100  0.016000  1.0  0.1364
  H  H126  1  0.742400  0.762700  0.414500  1.0  0.1659
  H  H127  1  0.655100  0.714500  0.332300  1.0  0.1371
  H  H128  1  0.509800  0.879200  0.324800  1.0  0.124
  H  H129  1  0.591600  0.931400  0.407900  1.0  0.1662
  H  H130  1  0.858500  0.913900  0.553400  1.0  0.1701
  H  H131  1  0.892800  0.857600  0.652700  1.0  0.1253
  H  H132  1  0.713800  0.720800  0.620500  1.0  0.115
  H  H133  1  0.670600  0.773400  0.521700  1.0  0.1675
  H  H134  1  0.800100  0.969900  0.484000  1.0  0.1357
  H  H135  1  0.742400  0.085500  0.762700  1.0  0.164
  H  H136  1  0.655100  0.167700  0.714500  1.0  0.1361
  H  H137  1  0.509800  0.175200  0.879200  1.0  0.1248
  H  H138  1  0.591600  0.092100  0.931400  1.0  0.1667
  H  H139  1  0.858500  0.946600  0.913900  1.0  0.171
  H  H140  1  0.892800  0.847300  0.857600  1.0  0.1259
  H  H141  1  0.713800  0.879500  0.720800  1.0  0.117
  H  H142  1  0.670600  0.978300  0.773400  1.0  0.1683
  H  H143  1  0.800100  0.016000  0.969900  1.0  0.1383
  H  H144  1  0.742400  0.414500  0.737300  1.0  0.1643
  H  H145  1  0.655100  0.332300  0.785500  1.0  0.1356
  H  H146  1  0.509800  0.324800  0.620800  1.0  0.1247
  H  H147  1  0.591600  0.407900  0.568600  1.0  0.1659
  H  H148  1  0.858500  0.553400  0.586100  1.0  0.1694
  H  H149  1  0.892800  0.652700  0.642400  1.0  0.1265
  H  H150  1  0.713800  0.620500  0.779200  1.0  0.1171
  H  H151  1  0.670600  0.521700  0.726600  1.0  0.1677
  H  H152  1  0.800100  0.484000  0.530100  1.0  0.1376
  C  C153  1  0.194630  0.712700  0.396990  1.0  -0.1578
  C  C154  1  0.142610  0.740940  0.347900  1.0  0.1935
  C  C155  1  0.057340  0.644590  0.343670  1.0  0.2201
  C  C156  1  0.105860  0.613060  0.393000  1.0  -0.1854
  C  C157  1  0.176260  0.647290  0.420840  1.0  0.1867
  C  C158  1  0.258720  0.648850  0.526050  1.0  0.2478
  C  C159  1  0.326680  0.625190  0.566490  1.0  -0.1869
  C  C160  1  0.346870  0.659390  0.625670  1.0  0.1848
  C  C161  1  0.242420  0.738740  0.607110  1.0  0.2078
  C  C162  1  0.216480  0.708010  0.547670  1.0  -0.2052
  C  C163  1  0.194630  0.787300  0.103010  1.0  -0.1577
  C  C164  1  0.142610  0.759060  0.152100  1.0  0.1933
  C  C165  1  0.057340  0.855410  0.156330  1.0  0.22
  C  C166  1  0.105860  0.886940  0.107000  1.0  -0.1853
  C  C167  1  0.176260  0.852710  0.079160  1.0  0.186
  C  C168  1  0.258720  0.851150  0.973950  1.0  0.2479
  C  C169  1  0.326680  0.874810  0.933510  1.0  -0.186
  C  C170  1  0.346870  0.840610  0.874330  1.0  0.1841
  C  C171  1  0.242420  0.761260  0.892890  1.0  0.2079
  C  C172  1  0.216480  0.791990  0.952330  1.0  -0.2051
  C  C173  1  0.194630  0.103010  0.712700  1.0  -0.1538
  C  C174  1  0.142610  0.152100  0.740940  1.0  0.1964
  C  C175  1  0.057340  0.156330  0.644590  1.0  0.2199
  C  C176  1  0.105860  0.107000  0.613060  1.0  -0.1873
  C  C177  1  0.176260  0.079160  0.647290  1.0  0.1853
  C  C178  1  0.258720  0.973950  0.648850  1.0  0.248
  C  C179  1  0.326680  0.933510  0.625190  1.0  -0.1861
  C  C180  1  0.346870  0.874330  0.659390  1.0  0.1846
  C  C181  1  0.242420  0.892890  0.738740  1.0  0.2082
  C  C182  1  0.216480  0.952330  0.708010  1.0  -0.205
  C  C183  1  0.194630  0.396990  0.787300  1.0  -0.1544
  C  C184  1  0.142610  0.347900  0.759060  1.0  0.195
  C  C185  1  0.057340  0.343670  0.855410  1.0  0.2202
  C  C186  1  0.105860  0.393000  0.886940  1.0  -0.1882
  C  C187  1  0.176260  0.420840  0.852710  1.0  0.1856
  C  C188  1  0.258720  0.526050  0.851150  1.0  0.248
  C  C189  1  0.326680  0.566490  0.874810  1.0  -0.1862
  C  C190  1  0.346870  0.625670  0.840610  1.0  0.1845
  C  C191  1  0.242420  0.607110  0.761260  1.0  0.2073
  C  C192  1  0.216480  0.547670  0.791990  1.0  -0.2055
  C  C193  1  0.305370  0.287300  0.896990  1.0  -0.1555
  C  C194  1  0.357390  0.259060  0.847900  1.0  0.1918
  C  C195  1  0.442660  0.355410  0.843670  1.0  0.2184
  C  C196  1  0.394140  0.386940  0.893000  1.0  -0.1867
  C  C197  1  0.323740  0.352710  0.920840  1.0  0.188
  C  C198  1  0.241280  0.351150  0.026050  1.0  0.2476
  C  C199  1  0.173320  0.374810  0.066490  1.0  -0.1868
  C  C200  1  0.153130  0.340610  0.125670  1.0  0.1851
  C  C201  1  0.257580  0.261260  0.107110  1.0  0.2079
  C  C202  1  0.283520  0.291990  0.047670  1.0  -0.2034
  C  C203  1  0.305370  0.212700  0.603010  1.0  -0.1575
  C  C204  1  0.357390  0.240940  0.652100  1.0  0.1916
  C  C205  1  0.442660  0.144590  0.656330  1.0  0.2191
  C  C206  1  0.394140  0.113060  0.607000  1.0  -0.1868
  C  C207  1  0.323740  0.147290  0.579160  1.0  0.1877
  C  C208  1  0.241280  0.148850  0.473950  1.0  0.248
  C  C209  1  0.173320  0.125190  0.433510  1.0  -0.1872
  C  C210  1  0.153130  0.159390  0.374330  1.0  0.1851
  C  C211  1  0.257580  0.238740  0.392890  1.0  0.2078
  C  C212  1  0.283520  0.208010  0.452330  1.0  -0.2031
  C  C213  1  0.305370  0.896990  0.212700  1.0  -0.1532
  C  C214  1  0.357390  0.847900  0.240940  1.0  0.1946
  C  C215  1  0.442660  0.843670  0.144590  1.0  0.2184
  C  C216  1  0.394140  0.893000  0.113060  1.0  -0.1874
  C  C217  1  0.323740  0.920840  0.147290  1.0  0.1865
  C  C218  1  0.241280  0.026050  0.148850  1.0  0.2479
  C  C219  1  0.173320  0.066490  0.125190  1.0  -0.1859
  C  C220  1  0.153130  0.125670  0.159390  1.0  0.1853
  C  C221  1  0.257580  0.107110  0.238740  1.0  0.208
  C  C222  1  0.283520  0.047670  0.208010  1.0  -0.2038
  C  C223  1  0.305370  0.603010  0.287300  1.0  -0.1536
  C  C224  1  0.357390  0.652100  0.259060  1.0  0.1946
  C  C225  1  0.442660  0.656330  0.355410  1.0  0.2185
  C  C226  1  0.394140  0.607000  0.386940  1.0  -0.19
  C  C227  1  0.323740  0.579160  0.352710  1.0  0.1869
  C  C228  1  0.241280  0.473950  0.351150  1.0  0.248
  C  C229  1  0.173320  0.433510  0.374810  1.0  -0.1877
  C  C230  1  0.153130  0.374330  0.340610  1.0  0.1853
  C  C231  1  0.257580  0.392890  0.261260  1.0  0.2074
  C  C232  1  0.283520  0.452330  0.291990  1.0  -0.2031
  C  C233  1  0.805370  0.287300  0.603010  1.0  -0.1557
  C  C234  1  0.857390  0.259060  0.652100  1.0  0.1925
  C  C235  1  0.942660  0.355410  0.656330  1.0  0.2183
  C  C236  1  0.894140  0.386940  0.607000  1.0  -0.1864
  C  C237  1  0.823740  0.352710  0.579160  1.0  0.1877
  C  C238  1  0.741280  0.351150  0.473950  1.0  0.248
  C  C239  1  0.673320  0.374810  0.433510  1.0  -0.1864
  C  C240  1  0.653130  0.340610  0.374330  1.0  0.185
  C  C241  1  0.757580  0.261260  0.392890  1.0  0.2079
  C  C242  1  0.783520  0.291990  0.452330  1.0  -0.2029
  C  C243  1  0.805370  0.212700  0.896990  1.0  -0.1571
  C  C244  1  0.857390  0.240940  0.847900  1.0  0.1916
  C  C245  1  0.942660  0.144590  0.843670  1.0  0.2189
  C  C246  1  0.894140  0.113060  0.893000  1.0  -0.1871
  C  C247  1  0.823740  0.147290  0.920840  1.0  0.1881
  C  C248  1  0.741280  0.148850  0.026050  1.0  0.2476
  C  C249  1  0.673320  0.125190  0.066490  1.0  -0.1875
  C  C250  1  0.653130  0.159390  0.125670  1.0  0.1851
  C  C251  1  0.757580  0.238740  0.107110  1.0  0.2077
  C  C252  1  0.783520  0.208010  0.047670  1.0  -0.2037
  C  C253  1  0.805370  0.896990  0.287300  1.0  -0.1533
  C  C254  1  0.857390  0.847900  0.259060  1.0  0.1943
  C  C255  1  0.942660  0.843670  0.355410  1.0  0.2187
  C  C256  1  0.894140  0.893000  0.386940  1.0  -0.1896
  C  C257  1  0.823740  0.920840  0.352710  1.0  0.187
  C  C258  1  0.741280  0.026050  0.351150  1.0  0.2479
  C  C259  1  0.673320  0.066490  0.374810  1.0  -0.1866
  C  C260  1  0.653130  0.125670  0.340610  1.0  0.1851
  C  C261  1  0.757580  0.107110  0.261260  1.0  0.2074
  C  C262  1  0.783520  0.047670  0.291990  1.0  -0.2033
  C  C263  1  0.805370  0.603010  0.212700  1.0  -0.1528
  C  C264  1  0.857390  0.652100  0.240940  1.0  0.1949
  C  C265  1  0.942660  0.656330  0.144590  1.0  0.2183
  C  C266  1  0.894140  0.607000  0.113060  1.0  -0.1881
  C  C267  1  0.823740  0.579160  0.147290  1.0  0.1868
  C  C268  1  0.741280  0.473950  0.148850  1.0  0.248
  C  C269  1  0.673320  0.433510  0.125190  1.0  -0.1868
  C  C270  1  0.653130  0.374330  0.159390  1.0  0.1852
  C  C271  1  0.757580  0.392890  0.238740  1.0  0.2082
  C  C272  1  0.783520  0.452330  0.208010  1.0  -0.2034
  C  C273  1  0.694630  0.712700  0.103010  1.0  -0.1581
  C  C274  1  0.642610  0.740940  0.152100  1.0  0.1933
  C  C275  1  0.557340  0.644590  0.156330  1.0  0.2202
  C  C276  1  0.605860  0.613060  0.107000  1.0  -0.1854
  C  C277  1  0.676260  0.647290  0.079160  1.0  0.1862
  C  C278  1  0.758720  0.648850  0.973950  1.0  0.2478
  C  C279  1  0.826680  0.625190  0.933510  1.0  -0.1863
  C  C280  1  0.846870  0.659390  0.874330  1.0  0.1846
  C  C281  1  0.742420  0.738740  0.892890  1.0  0.2078
  C  C282  1  0.716480  0.708010  0.952330  1.0  -0.2051
  C  C283  1  0.694630  0.787300  0.396990  1.0  -0.1577
  C  C284  1  0.642610  0.759060  0.347900  1.0  0.1929
  C  C285  1  0.557340  0.855410  0.343670  1.0  0.22
  C  C286  1  0.605860  0.886940  0.393000  1.0  -0.1856
  C  C287  1  0.676260  0.852710  0.420840  1.0  0.1863
  C  C288  1  0.758720  0.851150  0.526050  1.0  0.2478
  C  C289  1  0.826680  0.874810  0.566490  1.0  -0.1864
  C  C290  1  0.846870  0.840610  0.625670  1.0  0.1843
  C  C291  1  0.742420  0.761260  0.607110  1.0  0.2079
  C  C292  1  0.716480  0.791990  0.547670  1.0  -0.2052
  C  C293  1  0.694630  0.103010  0.787300  1.0  -0.1549
  C  C294  1  0.642610  0.152100  0.759060  1.0  0.1956
  C  C295  1  0.557340  0.156330  0.855410  1.0  0.2199
  C  C296  1  0.605860  0.107000  0.886940  1.0  -0.1878
  C  C297  1  0.676260  0.079160  0.852710  1.0  0.1855
  C  C298  1  0.758720  0.973950  0.851150  1.0  0.248
  C  C299  1  0.826680  0.933510  0.874810  1.0  -0.1871
  C  C300  1  0.846870  0.874330  0.840610  1.0  0.1849
  C  C301  1  0.742420  0.892890  0.761260  1.0  0.2074
  C  C302  1  0.716480  0.952330  0.791990  1.0  -0.205
  C  C303  1  0.694630  0.396990  0.712700  1.0  -0.1541
  C  C304  1  0.642610  0.347900  0.740940  1.0  0.1959
  C  C305  1  0.557340  0.343670  0.644590  1.0  0.2201
  C  C306  1  0.605860  0.393000  0.613060  1.0  -0.1873
  C  C307  1  0.676260  0.420840  0.647290  1.0  0.1851
  C  C308  1  0.758720  0.526050  0.648850  1.0  0.248
  C  C309  1  0.826680  0.566490  0.625190  1.0  -0.1852
  C  C310  1  0.846870  0.625670  0.659390  1.0  0.1846
  C  C311  1  0.742420  0.607110  0.738740  1.0  0.208
  C  C312  1  0.716480  0.547670  0.708010  1.0  -0.2056
  C  C313  1  0.250000  0.543900  0.456100  1.0  0.1392
  C  C314  1  0.250000  0.956100  0.043900  1.0  0.1405
  C  C315  1  0.250000  0.043900  0.543900  1.0  0.1394
  C  C316  1  0.250000  0.456100  0.956100  1.0  0.139
  C  C317  1  0.750000  0.456100  0.543900  1.0  0.1405
  C  C318  1  0.750000  0.043900  0.956100  1.0  0.1392
  C  C319  1  0.750000  0.956100  0.456100  1.0  0.139
  C  C320  1  0.750000  0.543900  0.043900  1.0  0.1394
  N  N321  1  0.074420  0.707620  0.321010  1.0  -0.2951
  N  N322  1  0.231020  0.615210  0.467860  1.0  -0.1643
  N  N323  1  0.305310  0.715250  0.647110  1.0  -0.2841
  N  N324  1  0.074420  0.792380  0.178990  1.0  -0.2962
  N  N325  1  0.231020  0.884790  0.032140  1.0  -0.1649
  N  N326  1  0.305310  0.784750  0.852890  1.0  -0.2869
  N  N327  1  0.074420  0.178990  0.707620  1.0  -0.2959
  N  N328  1  0.231020  0.032140  0.615210  1.0  -0.1623
  N  N329  1  0.305310  0.852890  0.715250  1.0  -0.2837
  N  N330  1  0.074420  0.321010  0.792380  1.0  -0.2957
  N  N331  1  0.231020  0.467860  0.884790  1.0  -0.1623
  N  N332  1  0.305310  0.647110  0.784750  1.0  -0.2841
  N  N333  1  0.425580  0.292380  0.821010  1.0  -0.2947
  N  N334  1  0.268980  0.384790  0.967860  1.0  -0.1625
  N  N335  1  0.194690  0.284750  0.147110  1.0  -0.2854
  N  N336  1  0.425580  0.207620  0.678990  1.0  -0.2946
  N  N337  1  0.268980  0.115210  0.532140  1.0  -0.1633
  N  N338  1  0.194690  0.215250  0.352890  1.0  -0.2873
  N  N339  1  0.425580  0.821010  0.207620  1.0  -0.294
  N  N340  1  0.268980  0.967860  0.115210  1.0  -0.161
  N  N341  1  0.194690  0.147110  0.215250  1.0  -0.2844
  N  N342  1  0.425580  0.678990  0.292380  1.0  -0.2946
  N  N343  1  0.268980  0.532140  0.384790  1.0  -0.1609
  N  N344  1  0.194690  0.352890  0.284750  1.0  -0.2857
  N  N345  1  0.925580  0.292380  0.678990  1.0  -0.2947
  N  N346  1  0.768980  0.384790  0.532140  1.0  -0.1636
  N  N347  1  0.694690  0.284750  0.352890  1.0  -0.2882
  N  N348  1  0.925580  0.207620  0.821010  1.0  -0.2944
  N  N349  1  0.768980  0.115210  0.967860  1.0  -0.1624
  N  N350  1  0.694690  0.215250  0.147110  1.0  -0.2853
  N  N351  1  0.925580  0.821010  0.292380  1.0  -0.2945
  N  N352  1  0.768980  0.967860  0.384790  1.0  -0.1608
  N  N353  1  0.694690  0.147110  0.284750  1.0  -0.2851
  N  N354  1  0.925580  0.678990  0.207620  1.0  -0.2947
  N  N355  1  0.768980  0.532140  0.115210  1.0  -0.161
  N  N356  1  0.694690  0.352890  0.215250  1.0  -0.2848
  N  N357  1  0.574420  0.707620  0.178990  1.0  -0.2957
  N  N358  1  0.731020  0.615210  0.032140  1.0  -0.1647
  N  N359  1  0.805310  0.715250  0.852890  1.0  -0.2861
  N  N360  1  0.574420  0.792380  0.321010  1.0  -0.296
  N  N361  1  0.731020  0.884790  0.467860  1.0  -0.1641
  N  N362  1  0.805310  0.784750  0.647110  1.0  -0.2841
  N  N363  1  0.574420  0.178990  0.792380  1.0  -0.2958
  N  N364  1  0.731020  0.032140  0.884790  1.0  -0.1625
  N  N365  1  0.805310  0.852890  0.784750  1.0  -0.2844
  N  N366  1  0.574420  0.321010  0.707620  1.0  -0.2954
  N  N367  1  0.731020  0.467860  0.615210  1.0  -0.1623
  N  N368  1  0.805310  0.647110  0.715250  1.0  -0.2836
  N  N369  1  0.565900  0.290960  0.979300  1.0  0.1775
  N  N370  1  0.565900  0.209040  0.520700  1.0  0.1768
  N  N371  1  0.565900  0.520700  0.290960  1.0  0.1781
  N  N372  1  0.565900  0.979300  0.209040  1.0  0.1776
  N  N373  1  0.934100  0.709040  0.479300  1.0  0.1801
  N  N374  1  0.934100  0.790960  0.020700  1.0  0.1796
  N  N375  1  0.934100  0.479300  0.790960  1.0  0.1802
  N  N376  1  0.934100  0.020700  0.709040  1.0  0.1794
  N  N377  1  0.434100  0.709040  0.020700  1.0  0.1796
  N  N378  1  0.434100  0.790960  0.479300  1.0  0.1804
  N  N379  1  0.434100  0.479300  0.709040  1.0  0.1802
  N  N380  1  0.434100  0.020700  0.790960  1.0  0.1802
  N  N381  1  0.065900  0.290960  0.520700  1.0  0.1763
  N  N382  1  0.065900  0.209040  0.979300  1.0  0.177
  N  N383  1  0.065900  0.520700  0.209040  1.0  0.1766
  N  N384  1  0.065900  0.979300  0.290960  1.0  0.177
  O  O385  1  0.449200  0.750000  0.750000  1.0  -0.3098
  O  O386  1  0.169000  0.750000  0.750000  1.0  -0.2581
  O  O387  1  0.050800  0.250000  0.250000  1.0  -0.3114
  O  O388  1  0.331000  0.250000  0.250000  1.0  -0.2583
  O  O389  1  0.550800  0.250000  0.250000  1.0  -0.3114
  O  O390  1  0.831000  0.250000  0.250000  1.0  -0.2583
  O  O391  1  0.949200  0.750000  0.750000  1.0  -0.3098
  O  O392  1  0.669000  0.750000  0.750000  1.0  -0.2581
  O  O393  1  0.621000  0.297460  0.911000  1.0  -0.5447
  O  O394  1  0.507300  0.251160  0.984300  1.0  -0.4678
  O  O395  1  0.568700  0.351260  0.013500  1.0  -0.5511
  O  O396  1  0.621000  0.202540  0.589000  1.0  -0.543
  O  O397  1  0.507300  0.248840  0.515700  1.0  -0.4684
  O  O398  1  0.568700  0.148740  0.486500  1.0  -0.5506
  O  O399  1  0.621000  0.589000  0.297460  1.0  -0.5467
  O  O400  1  0.507300  0.515700  0.251160  1.0  -0.4697
  O  O401  1  0.568700  0.486500  0.351260  1.0  -0.5527
  O  O402  1  0.621000  0.911000  0.202540  1.0  -0.5473
  O  O403  1  0.507300  0.984300  0.248840  1.0  -0.4699
  O  O404  1  0.568700  0.013500  0.148740  1.0  -0.5553
  O  O405  1  0.879000  0.702540  0.411000  1.0  -0.543
  O  O406  1  0.992700  0.748840  0.484300  1.0  -0.4685
  O  O407  1  0.931300  0.648740  0.513500  1.0  -0.5509
  O  O408  1  0.879000  0.797460  0.089000  1.0  -0.543
  O  O409  1  0.992700  0.751160  0.015700  1.0  -0.4682
  O  O410  1  0.931300  0.851260  0.986500  1.0  -0.5507
  O  O411  1  0.879000  0.411000  0.797460  1.0  -0.5461
  O  O412  1  0.992700  0.484300  0.751160  1.0  -0.4699
  O  O413  1  0.931300  0.513500  0.851260  1.0  -0.5527
  O  O414  1  0.879000  0.089000  0.702540  1.0  -0.546
  O  O415  1  0.992700  0.015700  0.748840  1.0  -0.4692
  O  O416  1  0.931300  0.986500  0.648740  1.0  -0.5557
  O  O417  1  0.379000  0.702540  0.089000  1.0  -0.5425
  O  O418  1  0.492700  0.748840  0.015700  1.0  -0.4684
  O  O419  1  0.431300  0.648740  0.986500  1.0  -0.5506
  O  O420  1  0.379000  0.797460  0.411000  1.0  -0.5436
  O  O421  1  0.492700  0.751160  0.484300  1.0  -0.4678
  O  O422  1  0.431300  0.851260  0.513500  1.0  -0.551
  O  O423  1  0.379000  0.411000  0.702540  1.0  -0.5461
  O  O424  1  0.492700  0.484300  0.748840  1.0  -0.4702
  O  O425  1  0.431300  0.513500  0.648740  1.0  -0.5553
  O  O426  1  0.379000  0.089000  0.797460  1.0  -0.5462
  O  O427  1  0.492700  0.015700  0.751160  1.0  -0.4694
  O  O428  1  0.431300  0.986500  0.851260  1.0  -0.5528
  O  O429  1  0.121000  0.297460  0.589000  1.0  -0.5442
  O  O430  1  0.007300  0.251160  0.515700  1.0  -0.4687
  O  O431  1  0.068700  0.351260  0.486500  1.0  -0.5508
  O  O432  1  0.121000  0.202540  0.911000  1.0  -0.5436
  O  O433  1  0.007300  0.248840  0.984300  1.0  -0.4683
  O  O434  1  0.068700  0.148740  0.013500  1.0  -0.5509
  O  O435  1  0.121000  0.589000  0.202540  1.0  -0.5467
  O  O436  1  0.007300  0.515700  0.248840  1.0  -0.4691
  O  O437  1  0.068700  0.486500  0.148740  1.0  -0.5556
  O  O438  1  0.121000  0.911000  0.297460  1.0  -0.5469
  O  O439  1  0.007300  0.984300  0.251160  1.0  -0.4699
  O  O440  1  0.068700  0.013500  0.351260  1.0  -0.5527
