# generated using pymatgen
data_V9P17H26O57
_symmetry_space_group_name_H-M   'P 1'
_cell_length_a   13.41250000
_cell_length_b   13.41250000
_cell_length_c   27.80030000
_cell_angle_alpha   90.00000000
_cell_angle_beta   90.00000000
_cell_angle_gamma   120.00000000
_symmetry_Int_Tables_number   1
_chemical_formula_structural   V9P17H26O57
_chemical_formula_sum   'V18 P34 H52 O114'
_cell_volume   4331.11369231
_cell_formula_units_Z   2
loop_
 _symmetry_equiv_pos_site_id
 _symmetry_equiv_pos_as_xyz
  1  'x, y, z'
loop_
 _atom_site_type_symbol
 _atom_site_label
 _atom_site_symmetry_multiplicity
 _atom_site_fract_x
 _atom_site_fract_y
 _atom_site_fract_z
 _atom_site_occupancy
 _atom_site_charge
  V  V1  1  0.292510  0.856850  0.526860  1.0  1.7342
  V  V2  1  0.143150  0.435660  0.526860  1.0  1.7363
  V  V3  1  0.564340  0.707490  0.526860  1.0  1.7369
  V  V4  1  0.707490  0.143150  0.026860  1.0  1.7367
  V  V5  1  0.856850  0.564340  0.026860  1.0  1.7369
  V  V6  1  0.435660  0.292510  0.026860  1.0  1.7353
  V  V7  1  0.707490  0.143150  0.473140  1.0  1.7355
  V  V8  1  0.856850  0.564340  0.473140  1.0  1.7358
  V  V9  1  0.435660  0.292510  0.473140  1.0  1.7342
  V  V10  1  0.292510  0.856850  0.973140  1.0  1.7333
  V  V11  1  0.143150  0.435660  0.973140  1.0  1.7355
  V  V12  1  0.564340  0.707490  0.973140  1.0  1.736
  V  V13  1  0.000000  0.000000  0.500000  1.0  1.4138
  V  V14  1  0.000000  0.000000  0.000000  1.0  1.4138
  V  V15  1  0.000000  0.000000  0.664290  1.0  1.5831
  V  V16  1  0.000000  0.000000  0.164290  1.0  1.5831
  V  V17  1  0.000000  0.000000  0.335710  1.0  1.5846
  V  V18  1  0.000000  0.000000  0.835710  1.0  1.5846
  P  P19  1  0.162810  0.975330  0.584040  1.0  1.5576
  P  P20  1  0.126900  0.630240  0.463860  1.0  1.5391
  P  P21  1  0.024670  0.187480  0.584040  1.0  1.5433
  P  P22  1  0.369760  0.496660  0.463860  1.0  1.5397
  P  P23  1  0.812520  0.837190  0.584040  1.0  1.5544
  P  P24  1  0.503340  0.873100  0.463860  1.0  1.5375
  P  P25  1  0.837190  0.024670  0.084040  1.0  1.5503
  P  P26  1  0.873100  0.369760  0.963860  1.0  1.5391
  P  P27  1  0.975330  0.812520  0.084040  1.0  1.5566
  P  P28  1  0.630240  0.503340  0.963860  1.0  1.5397
  P  P29  1  0.187480  0.162810  0.084040  1.0  1.5482
  P  P30  1  0.496660  0.126900  0.963860  1.0  1.538
  P  P31  1  0.837190  0.024670  0.415960  1.0  1.5495
  P  P32  1  0.873100  0.369760  0.536140  1.0  1.5401
  P  P33  1  0.975330  0.812520  0.415960  1.0  1.5544
  P  P34  1  0.630240  0.503340  0.536140  1.0  1.5412
  P  P35  1  0.187480  0.162810  0.415960  1.0  1.5459
  P  P36  1  0.496660  0.126900  0.536140  1.0  1.5392
  P  P37  1  0.162810  0.975330  0.915960  1.0  1.5547
  P  P38  1  0.126900  0.630240  0.036140  1.0  1.5405
  P  P39  1  0.024670  0.187480  0.915960  1.0  1.5423
  P  P40  1  0.369760  0.496660  0.036140  1.0  1.5405
  P  P41  1  0.812520  0.837190  0.915960  1.0  1.5534
  P  P42  1  0.503340  0.873100  0.036140  1.0  1.5385
  P  P43  1  0.333333  0.666667  0.589620  1.0  1.5916
  P  P44  1  0.666667  0.333333  0.089620  1.0  1.5916
  P  P45  1  0.666667  0.333333  0.410380  1.0  1.5909
  P  P46  1  0.333333  0.666667  0.910380  1.0  1.5909
  P  P47  1  0.191210  0.065940  0.750000  1.0  1.5791
  P  P48  1  0.934060  0.125270  0.750000  1.0  1.5782
  P  P49  1  0.874730  0.808790  0.750000  1.0  1.5739
  P  P50  1  0.808790  0.934060  0.250000  1.0  1.5744
  P  P51  1  0.065940  0.874730  0.250000  1.0  1.5803
  P  P52  1  0.125270  0.191210  0.250000  1.0  1.5769
  H  H53  1  0.165000  0.674000  0.419800  1.0  -0.0539
  H  H54  1  0.259000  0.060000  0.603900  1.0  -0.0924
  H  H55  1  0.190000  0.935000  0.473000  1.0  0.3941
  H  H56  1  0.326000  0.491000  0.419800  1.0  -0.0528
  H  H57  1  0.940000  0.199000  0.603900  1.0  -0.0933
  H  H58  1  0.065000  0.255000  0.473000  1.0  0.3923
  H  H59  1  0.509000  0.835000  0.419800  1.0  -0.0535
  H  H60  1  0.801000  0.741000  0.603900  1.0  -0.0942
  H  H61  1  0.745000  0.810000  0.473000  1.0  0.393
  H  H62  1  0.835000  0.326000  0.919800  1.0  -0.0535
  H  H63  1  0.741000  0.940000  0.103900  1.0  -0.0941
  H  H64  1  0.810000  0.065000  0.973000  1.0  0.3934
  H  H65  1  0.674000  0.509000  0.919800  1.0  -0.0524
  H  H66  1  0.060000  0.801000  0.103900  1.0  -0.0924
  H  H67  1  0.935000  0.745000  0.973000  1.0  0.3925
  H  H68  1  0.491000  0.165000  0.919800  1.0  -0.0552
  H  H69  1  0.199000  0.259000  0.103900  1.0  -0.0936
  H  H70  1  0.255000  0.190000  0.973000  1.0  0.3907
  H  H71  1  0.835000  0.326000  0.580200  1.0  -0.056
  H  H72  1  0.741000  0.940000  0.396100  1.0  -0.0936
  H  H73  1  0.810000  0.065000  0.527000  1.0  0.3937
  H  H74  1  0.674000  0.509000  0.580200  1.0  -0.0551
  H  H75  1  0.060000  0.801000  0.396100  1.0  -0.0906
  H  H76  1  0.935000  0.745000  0.527000  1.0  0.3924
  H  H77  1  0.491000  0.165000  0.580200  1.0  -0.0568
  H  H78  1  0.199000  0.259000  0.396100  1.0  -0.0928
  H  H79  1  0.255000  0.190000  0.527000  1.0  0.3911
  H  H80  1  0.165000  0.674000  0.080200  1.0  -0.0554
  H  H81  1  0.259000  0.060000  0.896100  1.0  -0.0914
  H  H82  1  0.190000  0.935000  0.027000  1.0  0.3934
  H  H83  1  0.326000  0.491000  0.080200  1.0  -0.0554
  H  H84  1  0.940000  0.199000  0.896100  1.0  -0.0917
  H  H85  1  0.065000  0.255000  0.027000  1.0  0.3927
  H  H86  1  0.509000  0.835000  0.080200  1.0  -0.0564
  H  H87  1  0.801000  0.741000  0.896100  1.0  -0.0923
  H  H88  1  0.745000  0.810000  0.027000  1.0  0.3926
  H  H89  1  0.333333  0.666667  0.638400  1.0  -0.0181
  H  H90  1  0.666667  0.333333  0.138400  1.0  -0.0181
  H  H91  1  0.666667  0.333333  0.361600  1.0  -0.0195
  H  H92  1  0.333333  0.666667  0.861600  1.0  -0.0195
  H  H93  1  0.355600  0.114700  0.750000  1.0  0.4727
  H  H94  1  0.194000  0.964000  0.750000  1.0  -0.0288
  H  H95  1  0.885300  0.240900  0.750000  1.0  0.4744
  H  H96  1  0.036000  0.230000  0.750000  1.0  -0.0265
  H  H97  1  0.759100  0.644400  0.750000  1.0  0.4773
  H  H98  1  0.770000  0.806000  0.750000  1.0  -0.021
  H  H99  1  0.644400  0.885300  0.250000  1.0  0.4743
  H  H100  1  0.806000  0.036000  0.250000  1.0  -0.0273
  H  H101  1  0.114700  0.759100  0.250000  1.0  0.4792
  H  H102  1  0.964000  0.770000  0.250000  1.0  -0.0281
  H  H103  1  0.240900  0.355600  0.250000  1.0  0.4736
  H  H104  1  0.230000  0.194000  0.250000  1.0  -0.0255
  O  O105  1  0.150200  0.717000  0.503770  1.0  -0.8155
  O  O106  1  0.168200  0.547100  0.475670  1.0  -0.8051
  O  O107  1  0.000500  0.569700  0.450090  1.0  -0.8249
  O  O108  1  0.186600  0.879600  0.569800  1.0  -0.7972
  O  O109  1  0.326000  0.772600  0.575920  1.0  -0.8007
  O  O110  1  0.258000  0.947400  0.473940  1.0  -0.7269
  O  O111  1  0.141200  0.080700  0.704470  1.0  -0.8067
  O  O112  1  0.071300  0.929600  0.622490  1.0  -0.7883
  O  O113  1  0.136400  0.028600  0.540500  1.0  -0.7245
  O  O114  1  0.283000  0.433200  0.503770  1.0  -0.8155
  O  O115  1  0.452900  0.621100  0.475670  1.0  -0.8048
  O  O116  1  0.430300  0.430800  0.450090  1.0  -0.8233
  O  O117  1  0.120400  0.307000  0.569800  1.0  -0.7988
  O  O118  1  0.227400  0.553400  0.575920  1.0  -0.8002
  O  O119  1  0.052600  0.310600  0.473940  1.0  -0.7293
  O  O120  1  0.919300  0.060500  0.704470  1.0  -0.8086
  O  O121  1  0.070400  0.141700  0.622490  1.0  -0.7867
  O  O122  1  0.971400  0.107800  0.540500  1.0  -0.7245
  O  O123  1  0.566800  0.849800  0.503770  1.0  -0.8177
  O  O124  1  0.378900  0.831800  0.475670  1.0  -0.8053
  O  O125  1  0.569200  0.999500  0.450090  1.0  -0.8223
  O  O126  1  0.693000  0.813400  0.569800  1.0  -0.799
  O  O127  1  0.446600  0.674000  0.575920  1.0  -0.7989
  O  O128  1  0.689400  0.742000  0.473940  1.0  -0.7291
  O  O129  1  0.939500  0.858800  0.704470  1.0  -0.8062
  O  O130  1  0.858300  0.928700  0.622490  1.0  -0.7878
  O  O131  1  0.892200  0.863600  0.540500  1.0  -0.7242
  O  O132  1  0.849800  0.283000  0.003770  1.0  -0.8161
  O  O133  1  0.831800  0.452900  0.975670  1.0  -0.805
  O  O134  1  0.999500  0.430300  0.950090  1.0  -0.825
  O  O135  1  0.813400  0.120400  0.069800  1.0  -0.799
  O  O136  1  0.674000  0.227400  0.075920  1.0  -0.8007
  O  O137  1  0.742000  0.052600  0.973940  1.0  -0.7275
  O  O138  1  0.858800  0.919300  0.204470  1.0  -0.808
  O  O139  1  0.928700  0.070400  0.122490  1.0  -0.7884
  O  O140  1  0.863600  0.971400  0.040500  1.0  -0.7252
  O  O141  1  0.717000  0.566800  0.003770  1.0  -0.8156
  O  O142  1  0.547100  0.378900  0.975670  1.0  -0.805
  O  O143  1  0.569700  0.569200  0.950090  1.0  -0.8232
  O  O144  1  0.879600  0.693000  0.069800  1.0  -0.7982
  O  O145  1  0.772600  0.446600  0.075920  1.0  -0.8005
  O  O146  1  0.947400  0.689400  0.973940  1.0  -0.7286
  O  O147  1  0.080700  0.939500  0.204470  1.0  -0.8067
  O  O148  1  0.929600  0.858300  0.122490  1.0  -0.7887
  O  O149  1  0.028600  0.892200  0.040500  1.0  -0.7234
  O  O150  1  0.433200  0.150200  0.003770  1.0  -0.8165
  O  O151  1  0.621100  0.168200  0.975670  1.0  -0.805
  O  O152  1  0.430800  0.000500  0.950090  1.0  -0.8225
  O  O153  1  0.307000  0.186600  0.069800  1.0  -0.798
  O  O154  1  0.553400  0.326000  0.075920  1.0  -0.7994
  O  O155  1  0.310600  0.258000  0.973940  1.0  -0.7279
  O  O156  1  0.060500  0.141200  0.204470  1.0  -0.8072
  O  O157  1  0.141700  0.071300  0.122490  1.0  -0.7858
  O  O158  1  0.107800  0.136400  0.040500  1.0  -0.7249
  O  O159  1  0.849800  0.283000  0.496230  1.0  -0.8169
  O  O160  1  0.831800  0.452900  0.524330  1.0  -0.8047
  O  O161  1  0.999500  0.430300  0.549910  1.0  -0.825
  O  O162  1  0.813400  0.120400  0.430200  1.0  -0.7965
  O  O163  1  0.674000  0.227400  0.424080  1.0  -0.8053
  O  O164  1  0.742000  0.052600  0.526060  1.0  -0.727
  O  O165  1  0.858800  0.919300  0.295530  1.0  -0.8097
  O  O166  1  0.928700  0.070400  0.377510  1.0  -0.7889
  O  O167  1  0.863600  0.971400  0.459500  1.0  -0.7244
  O  O168  1  0.717000  0.566800  0.496230  1.0  -0.8166
  O  O169  1  0.547100  0.378900  0.524330  1.0  -0.8043
  O  O170  1  0.569700  0.569200  0.549910  1.0  -0.8226
  O  O171  1  0.879600  0.693000  0.430200  1.0  -0.7954
  O  O172  1  0.772600  0.446600  0.424080  1.0  -0.8053
  O  O173  1  0.947400  0.689400  0.526060  1.0  -0.7275
  O  O174  1  0.080700  0.939500  0.295530  1.0  -0.8091
  O  O175  1  0.929600  0.858300  0.377510  1.0  -0.7899
  O  O176  1  0.028600  0.892200  0.459500  1.0  -0.7228
  O  O177  1  0.433200  0.150200  0.496230  1.0  -0.8173
  O  O178  1  0.621100  0.168200  0.524330  1.0  -0.8054
  O  O179  1  0.430800  0.000500  0.549910  1.0  -0.8218
  O  O180  1  0.307000  0.186600  0.430200  1.0  -0.7961
  O  O181  1  0.553400  0.326000  0.424080  1.0  -0.804
  O  O182  1  0.310600  0.258000  0.526060  1.0  -0.7268
  O  O183  1  0.060500  0.141200  0.295530  1.0  -0.8081
  O  O184  1  0.141700  0.071300  0.377510  1.0  -0.7872
  O  O185  1  0.107800  0.136400  0.459500  1.0  -0.7243
  O  O186  1  0.150200  0.717000  0.996230  1.0  -0.8165
  O  O187  1  0.168200  0.547100  0.024330  1.0  -0.8051
  O  O188  1  0.000500  0.569700  0.049910  1.0  -0.8236
  O  O189  1  0.186600  0.879600  0.930200  1.0  -0.7953
  O  O190  1  0.326000  0.772600  0.924080  1.0  -0.8052
  O  O191  1  0.258000  0.947400  0.026060  1.0  -0.7252
  O  O192  1  0.141200  0.080700  0.795530  1.0  -0.8085
  O  O193  1  0.071300  0.929600  0.877510  1.0  -0.7893
  O  O194  1  0.136400  0.028600  0.959500  1.0  -0.7237
  O  O195  1  0.283000  0.433200  0.996230  1.0  -0.8163
  O  O196  1  0.452900  0.621100  0.024330  1.0  -0.8048
  O  O197  1  0.430300  0.430800  0.049910  1.0  -0.8219
  O  O198  1  0.120400  0.307000  0.930200  1.0  -0.7972
  O  O199  1  0.227400  0.553400  0.924080  1.0  -0.8047
  O  O200  1  0.052600  0.310600  0.026060  1.0  -0.7278
  O  O201  1  0.919300  0.060500  0.795530  1.0  -0.8103
  O  O202  1  0.070400  0.141700  0.877510  1.0  -0.7882
  O  O203  1  0.971400  0.107800  0.959500  1.0  -0.7237
  O  O204  1  0.566800  0.849800  0.996230  1.0  -0.8182
  O  O205  1  0.378900  0.831800  0.024330  1.0  -0.8048
  O  O206  1  0.569200  0.999500  0.049910  1.0  -0.8224
  O  O207  1  0.693000  0.813400  0.930200  1.0  -0.7965
  O  O208  1  0.446600  0.674000  0.924080  1.0  -0.8038
  O  O209  1  0.689400  0.742000  0.026060  1.0  -0.7282
  O  O210  1  0.939500  0.858800  0.795530  1.0  -0.8084
  O  O211  1  0.858300  0.928700  0.877510  1.0  -0.7888
  O  O212  1  0.892200  0.863600  0.959500  1.0  -0.7238
  O  O213  1  0.320900  0.150600  0.750000  1.0  -0.56
  O  O214  1  0.849400  0.170300  0.750000  1.0  -0.5569
  O  O215  1  0.829700  0.679100  0.750000  1.0  -0.5579
  O  O216  1  0.679100  0.849400  0.250000  1.0  -0.558
  O  O217  1  0.150600  0.829700  0.250000  1.0  -0.5607
  O  O218  1  0.170300  0.320900  0.250000  1.0  -0.5608
