# generated using pymatgen
data_Zn5H6C20(NO2)8
_symmetry_space_group_name_H-M   'P 1'
_cell_length_a   14.16130000
_cell_length_b   15.67640000
_cell_length_c   16.13450000
_cell_angle_alpha   90.00000000
_cell_angle_beta   90.00000000
_cell_angle_gamma   90.00000000
_symmetry_Int_Tables_number   1
_chemical_formula_structural   Zn5H6C20(NO2)8
_chemical_formula_sum   'Zn20 H24 C80 N32 O64'
_cell_volume   3581.83001147
_cell_formula_units_Z   4
loop_
 _symmetry_equiv_pos_site_id
 _symmetry_equiv_pos_as_xyz
  1  'x, y, z'
loop_
 _atom_site_type_symbol
 _atom_site_label
 _atom_site_symmetry_multiplicity
 _atom_site_fract_x
 _atom_site_fract_y
 _atom_site_fract_z
 _atom_site_occupancy
 _atom_site_charge
  Zn  Zn1  1  0.620420  0.514810  0.312290  1.0  0.9458
  Zn  Zn2  1  0.645970  0.569390  0.721830  1.0  0.9673
  Zn  Zn3  1  0.879580  0.485190  0.812290  1.0  0.9459
  Zn  Zn4  1  0.854030  0.430610  0.221830  1.0  0.9671
  Zn  Zn5  1  0.379580  0.014810  0.187710  1.0  0.9459
  Zn  Zn6  1  0.354030  0.069390  0.778170  1.0  0.9666
  Zn  Zn7  1  0.120420  0.985190  0.687710  1.0  0.9456
  Zn  Zn8  1  0.145970  0.930610  0.278170  1.0  0.9674
  Zn  Zn9  1  0.379580  0.485190  0.687710  1.0  0.9457
  Zn  Zn10  1  0.354030  0.430610  0.278170  1.0  0.9669
  Zn  Zn11  1  0.120420  0.514810  0.187710  1.0  0.9457
  Zn  Zn12  1  0.145970  0.569390  0.778170  1.0  0.967
  Zn  Zn13  1  0.620420  0.985190  0.812290  1.0  0.9457
  Zn  Zn14  1  0.645970  0.930610  0.221830  1.0  0.9676
  Zn  Zn15  1  0.879580  0.014810  0.312290  1.0  0.9459
  Zn  Zn16  1  0.854030  0.069390  0.721830  1.0  0.9668
  Zn  Zn17  1  0.000000  0.500000  0.500000  1.0  1.1705
  Zn  Zn18  1  0.500000  0.500000  0.000000  1.0  1.1705
  Zn  Zn19  1  0.000000  0.000000  0.000000  1.0  1.1705
  Zn  Zn20  1  0.500000  0.000000  0.500000  1.0  1.1705
  H  H21  1  0.715300  0.730100  0.299100  1.0  0.0646
  H  H22  1  0.553000  0.573700  0.519200  1.0  0.0602
  H  H23  1  0.344700  0.821300  0.133800  1.0  0.4133
  H  H24  1  0.784700  0.269900  0.799100  1.0  0.0646
  H  H25  1  0.947000  0.426300  0.019200  1.0  0.06
  H  H26  1  0.155300  0.178700  0.633800  1.0  0.4107
  H  H27  1  0.284700  0.230100  0.200900  1.0  0.0648
  H  H28  1  0.447000  0.073700  0.980800  1.0  0.0599
  H  H29  1  0.655300  0.321300  0.366200  1.0  0.4113
  H  H30  1  0.215300  0.769900  0.700900  1.0  0.0649
  H  H31  1  0.053000  0.926300  0.480800  1.0  0.0605
  H  H32  1  0.844700  0.678700  0.866200  1.0  0.4106
  H  H33  1  0.284700  0.269900  0.700900  1.0  0.0648
  H  H34  1  0.447000  0.426300  0.480800  1.0  0.0606
  H  H35  1  0.655300  0.178700  0.866200  1.0  0.4098
  H  H36  1  0.215300  0.730100  0.200900  1.0  0.0649
  H  H37  1  0.053000  0.573700  0.980800  1.0  0.0608
  H  H38  1  0.844700  0.821300  0.366200  1.0  0.4124
  H  H39  1  0.715300  0.769900  0.799100  1.0  0.0648
  H  H40  1  0.553000  0.926300  0.019200  1.0  0.0611
  H  H41  1  0.344700  0.678700  0.633800  1.0  0.4115
  H  H42  1  0.784700  0.230100  0.299100  1.0  0.0645
  H  H43  1  0.947000  0.073700  0.519200  1.0  0.0606
  H  H44  1  0.155300  0.321300  0.133800  1.0  0.4121
  C  C45  1  0.524800  0.762200  0.219500  1.0  -0.0264
  C  C46  1  0.521300  0.676500  0.241000  1.0  0.0467
  C  C47  1  0.654500  0.726700  0.277500  1.0  0.3416
  C  C48  1  0.453600  0.818500  0.181900  1.0  0.634
  C  C49  1  0.444400  0.612900  0.233600  1.0  0.6309
  C  C50  1  0.742500  0.497900  0.473100  1.0  -0.0345
  C  C51  1  0.750900  0.511800  0.557700  1.0  -0.0129
  C  C52  1  0.614100  0.551900  0.518000  1.0  0.3264
  C  C53  1  0.807100  0.462600  0.407700  1.0  0.6879
  C  C54  1  0.826900  0.496200  0.621300  1.0  0.6839
  C  C55  1  0.975200  0.237800  0.719500  1.0  -0.0251
  C  C56  1  0.978700  0.323500  0.741000  1.0  0.047
  C  C57  1  0.845500  0.273300  0.777500  1.0  0.3415
  C  C58  1  0.046400  0.181500  0.681900  1.0  0.6329
  C  C59  1  0.055600  0.387100  0.733600  1.0  0.6295
  C  C60  1  0.757500  0.502100  0.973100  1.0  -0.0337
  C  C61  1  0.749100  0.488200  0.057700  1.0  -0.0126
  C  C62  1  0.885900  0.448100  0.018000  1.0  0.3265
  C  C63  1  0.692900  0.537400  0.907700  1.0  0.6885
  C  C64  1  0.673100  0.503800  0.121300  1.0  0.6836
  C  C65  1  0.475200  0.262200  0.280500  1.0  -0.0255
  C  C66  1  0.478700  0.176500  0.259000  1.0  0.0475
  C  C67  1  0.345500  0.226700  0.222500  1.0  0.3411
  C  C68  1  0.546400  0.318500  0.318100  1.0  0.6332
  C  C69  1  0.555600  0.112900  0.266400  1.0  0.6309
  C  C70  1  0.257500  0.997900  0.026900  1.0  -0.0336
  C  C71  1  0.249100  0.011800  0.942300  1.0  -0.0121
  C  C72  1  0.385900  0.051900  0.982000  1.0  0.3265
  C  C73  1  0.192900  0.962600  0.092300  1.0  0.6896
  C  C74  1  0.173100  0.996200  0.878700  1.0  0.6831
  C  C75  1  0.024800  0.737800  0.780500  1.0  -0.0252
  C  C76  1  0.021300  0.823500  0.759000  1.0  0.0472
  C  C77  1  0.154500  0.773300  0.722500  1.0  0.3417
  C  C78  1  0.953600  0.681500  0.818100  1.0  0.6345
  C  C79  1  0.944400  0.887100  0.766400  1.0  0.6298
  C  C80  1  0.242500  0.002100  0.526900  1.0  -0.0345
  C  C81  1  0.250900  0.988200  0.442300  1.0  -0.0129
  C  C82  1  0.114100  0.948100  0.482000  1.0  0.3271
  C  C83  1  0.307100  0.037400  0.592300  1.0  0.6882
  C  C84  1  0.326900  0.003800  0.378700  1.0  0.6836
  C  C85  1  0.475200  0.237800  0.780500  1.0  -0.0249
  C  C86  1  0.478700  0.323500  0.759000  1.0  0.0474
  C  C87  1  0.345500  0.273300  0.722500  1.0  0.3412
  C  C88  1  0.546400  0.181500  0.818100  1.0  0.6333
  C  C89  1  0.555600  0.387100  0.766400  1.0  0.6296
  C  C90  1  0.257500  0.502100  0.526900  1.0  -0.0338
  C  C91  1  0.249100  0.488200  0.442300  1.0  -0.0124
  C  C92  1  0.385900  0.448100  0.482000  1.0  0.3263
  C  C93  1  0.192900  0.537400  0.592300  1.0  0.6889
  C  C94  1  0.173100  0.503800  0.378700  1.0  0.6831
  C  C95  1  0.024800  0.762200  0.280500  1.0  -0.0259
  C  C96  1  0.021300  0.676500  0.259000  1.0  0.0473
  C  C97  1  0.154500  0.726700  0.222500  1.0  0.3415
  C  C98  1  0.953600  0.818500  0.318100  1.0  0.6345
  C  C99  1  0.944400  0.612900  0.266400  1.0  0.631
  C  C100  1  0.242500  0.497900  0.026900  1.0  -0.0344
  C  C101  1  0.250900  0.511800  0.942300  1.0  -0.0127
  C  C102  1  0.114100  0.551900  0.982000  1.0  0.3263
  C  C103  1  0.307100  0.462600  0.092300  1.0  0.6888
  C  C104  1  0.326900  0.496200  0.878700  1.0  0.6835
  C  C105  1  0.524800  0.737800  0.719500  1.0  -0.0257
  C  C106  1  0.521300  0.823500  0.741000  1.0  0.0467
  C  C107  1  0.654500  0.773300  0.777500  1.0  0.3419
  C  C108  1  0.453600  0.681500  0.681900  1.0  0.634
  C  C109  1  0.444400  0.887100  0.733600  1.0  0.6298
  C  C110  1  0.742500  0.002100  0.973100  1.0  -0.0346
  C  C111  1  0.750900  0.988200  0.057700  1.0  -0.0132
  C  C112  1  0.614100  0.948100  0.018000  1.0  0.3273
  C  C113  1  0.807100  0.037400  0.907700  1.0  0.6877
  C  C114  1  0.826900  0.003800  0.121300  1.0  0.684
  C  C115  1  0.975200  0.262200  0.219500  1.0  -0.0258
  C  C116  1  0.978700  0.176500  0.241000  1.0  0.047
  C  C117  1  0.845500  0.226700  0.277500  1.0  0.3412
  C  C118  1  0.046400  0.318500  0.181900  1.0  0.6327
  C  C119  1  0.055600  0.112900  0.233600  1.0  0.6307
  C  C120  1  0.757500  0.997900  0.473100  1.0  -0.0335
  C  C121  1  0.749100  0.011800  0.557700  1.0  -0.0122
  C  C122  1  0.885900  0.051900  0.518000  1.0  0.3267
  C  C123  1  0.692900  0.962600  0.407700  1.0  0.6888
  C  C124  1  0.673100  0.996200  0.621300  1.0  0.6836
  N  N125  1  0.610800  0.792800  0.243300  1.0  -0.4434
  N  N126  1  0.604400  0.655500  0.278400  1.0  -0.422
  N  N127  1  0.654500  0.524300  0.449300  1.0  -0.4233
  N  N128  1  0.668200  0.546100  0.585600  1.0  -0.4256
  N  N129  1  0.889200  0.207200  0.743300  1.0  -0.444
  N  N130  1  0.895600  0.344500  0.778400  1.0  -0.4221
  N  N131  1  0.845500  0.475700  0.949300  1.0  -0.4227
  N  N132  1  0.831800  0.453900  0.085600  1.0  -0.4241
  N  N133  1  0.389200  0.292800  0.256700  1.0  -0.4433
  N  N134  1  0.395600  0.155500  0.221600  1.0  -0.4212
  N  N135  1  0.345500  0.024300  0.050700  1.0  -0.4219
  N  N136  1  0.331800  0.046100  0.914400  1.0  -0.4251
  N  N137  1  0.110800  0.707200  0.756700  1.0  -0.4444
  N  N138  1  0.104400  0.844500  0.721600  1.0  -0.4208
  N  N139  1  0.154500  0.975700  0.550700  1.0  -0.4222
  N  N140  1  0.168200  0.953900  0.414400  1.0  -0.4259
  N  N141  1  0.389200  0.207200  0.756700  1.0  -0.4442
  N  N142  1  0.395600  0.344500  0.721600  1.0  -0.4209
  N  N143  1  0.345500  0.475700  0.550700  1.0  -0.4214
  N  N144  1  0.331800  0.453900  0.414400  1.0  -0.4248
  N  N145  1  0.110800  0.792800  0.256700  1.0  -0.4437
  N  N146  1  0.104400  0.655500  0.221600  1.0  -0.4213
  N  N147  1  0.154500  0.524300  0.050700  1.0  -0.4225
  N  N148  1  0.168200  0.546100  0.914400  1.0  -0.426
  N  N149  1  0.610800  0.707200  0.743300  1.0  -0.4442
  N  N150  1  0.604400  0.844500  0.778400  1.0  -0.422
  N  N151  1  0.654500  0.975700  0.949300  1.0  -0.4229
  N  N152  1  0.668200  0.953900  0.085600  1.0  -0.4252
  N  N153  1  0.889200  0.292800  0.243300  1.0  -0.4431
  N  N154  1  0.895600  0.155500  0.278400  1.0  -0.4221
  N  N155  1  0.845500  0.024300  0.449300  1.0  -0.4232
  N  N156  1  0.831800  0.046100  0.585600  1.0  -0.4245
  O  O157  1  0.473900  0.895100  0.173900  1.0  -0.5754
  O  O158  1  0.375300  0.786000  0.160000  1.0  -0.4381
  O  O159  1  0.368100  0.634500  0.198100  1.0  -0.5905
  O  O160  1  0.457600  0.541900  0.265000  1.0  -0.6032
  O  O161  1  0.768900  0.453700  0.337500  1.0  -0.596
  O  O162  1  0.890200  0.441800  0.420700  1.0  -0.6149
  O  O163  1  0.902700  0.461300  0.603700  1.0  -0.6103
  O  O164  1  0.806100  0.521200  0.693000  1.0  -0.5739
  O  O165  1  0.026100  0.104900  0.673900  1.0  -0.5727
  O  O166  1  0.124700  0.214000  0.660000  1.0  -0.4347
  O  O167  1  0.131900  0.365500  0.698100  1.0  -0.591
  O  O168  1  0.042400  0.458100  0.765000  1.0  -0.6045
  O  O169  1  0.731100  0.546300  0.837500  1.0  -0.595
  O  O170  1  0.609800  0.558200  0.920700  1.0  -0.6153
  O  O171  1  0.597300  0.538700  0.103700  1.0  -0.6098
  O  O172  1  0.693900  0.478800  0.193000  1.0  -0.5739
  O  O173  1  0.526100  0.395100  0.326100  1.0  -0.5761
  O  O174  1  0.624700  0.286000  0.340000  1.0  -0.4369
  O  O175  1  0.631900  0.134500  0.301900  1.0  -0.5898
  O  O176  1  0.542400  0.041900  0.235000  1.0  -0.6058
  O  O177  1  0.231100  0.953700  0.162500  1.0  -0.5949
  O  O178  1  0.109800  0.941800  0.079300  1.0  -0.6146
  O  O179  1  0.097300  0.961300  0.896300  1.0  -0.6096
  O  O180  1  0.193900  0.021200  0.807000  1.0  -0.5737
  O  O181  1  0.973900  0.604900  0.826100  1.0  -0.5729
  O  O182  1  0.875300  0.714000  0.840000  1.0  -0.4353
  O  O183  1  0.868100  0.865500  0.801900  1.0  -0.5887
  O  O184  1  0.957600  0.958100  0.735000  1.0  -0.6059
  O  O185  1  0.268900  0.046300  0.662500  1.0  -0.5971
  O  O186  1  0.390200  0.058200  0.579300  1.0  -0.6154
  O  O187  1  0.402700  0.038700  0.396300  1.0  -0.6107
  O  O188  1  0.306100  0.978800  0.307000  1.0  -0.5738
  O  O189  1  0.526100  0.104900  0.826100  1.0  -0.5732
  O  O190  1  0.624700  0.214000  0.840000  1.0  -0.434
  O  O191  1  0.631900  0.365500  0.801900  1.0  -0.5895
  O  O192  1  0.542400  0.458100  0.735000  1.0  -0.6054
  O  O193  1  0.231100  0.546300  0.662500  1.0  -0.5953
  O  O194  1  0.109800  0.558200  0.579300  1.0  -0.6154
  O  O195  1  0.097300  0.538700  0.396300  1.0  -0.6099
  O  O196  1  0.193900  0.478800  0.307000  1.0  -0.5734
  O  O197  1  0.973900  0.895100  0.326100  1.0  -0.5757
  O  O198  1  0.875300  0.786000  0.340000  1.0  -0.438
  O  O199  1  0.868100  0.634500  0.301900  1.0  -0.5889
  O  O200  1  0.957600  0.541900  0.235000  1.0  -0.6062
  O  O201  1  0.268900  0.453700  0.162500  1.0  -0.597
  O  O202  1  0.390200  0.441800  0.079300  1.0  -0.6154
  O  O203  1  0.402700  0.461300  0.896300  1.0  -0.6103
  O  O204  1  0.306100  0.521200  0.807000  1.0  -0.574
  O  O205  1  0.473900  0.604900  0.673900  1.0  -0.5726
  O  O206  1  0.375300  0.714000  0.660000  1.0  -0.4355
  O  O207  1  0.368100  0.865500  0.698100  1.0  -0.5906
  O  O208  1  0.457600  0.958100  0.765000  1.0  -0.6064
  O  O209  1  0.768900  0.046300  0.837500  1.0  -0.5964
  O  O210  1  0.890200  0.058200  0.920700  1.0  -0.6159
  O  O211  1  0.902700  0.038700  0.103700  1.0  -0.6104
  O  O212  1  0.806100  0.978800  0.193000  1.0  -0.5732
  O  O213  1  0.026100  0.395100  0.173900  1.0  -0.5758
  O  O214  1  0.124700  0.286000  0.160000  1.0  -0.4369
  O  O215  1  0.131900  0.134500  0.198100  1.0  -0.5909
  O  O216  1  0.042400  0.041900  0.265000  1.0  -0.6055
  O  O217  1  0.731100  0.953700  0.337500  1.0  -0.5945
  O  O218  1  0.609800  0.941800  0.420700  1.0  -0.6148
  O  O219  1  0.597300  0.961300  0.603700  1.0  -0.61
  O  O220  1  0.693900  0.021200  0.693000  1.0  -0.5746
