# generated using pymatgen
data_SmC4N3O4
_symmetry_space_group_name_H-M   'P 1'
_cell_length_a   12.77480000
_cell_length_b   12.79760000
_cell_length_c   13.33170000
_cell_angle_alpha   90.00000000
_cell_angle_beta   90.00000000
_cell_angle_gamma   90.00000000
_symmetry_Int_Tables_number   1
_chemical_formula_structural   SmC4N3O4
_chemical_formula_sum   'Sm8 C32 N24 O32'
_cell_volume   2179.55671133
_cell_formula_units_Z   8
loop_
 _symmetry_equiv_pos_site_id
 _symmetry_equiv_pos_as_xyz
  1  'x, y, z'
loop_
 _atom_site_type_symbol
 _atom_site_label
 _atom_site_symmetry_multiplicity
 _atom_site_fract_x
 _atom_site_fract_y
 _atom_site_fract_z
 _atom_site_occupancy
 _atom_site_charge
  Sm  Sm1  1  0.542600  0.210700  0.254200  1.0  2.1985
  Sm  Sm2  1  0.539700  0.708100  0.094800  1.0  2.1899
  Sm  Sm3  1  0.042600  0.789300  0.245800  1.0  2.1981
  Sm  Sm4  1  0.039700  0.291900  0.405200  1.0  2.1896
  Sm  Sm5  1  0.957400  0.710700  0.745800  1.0  2.199
  Sm  Sm6  1  0.960300  0.208100  0.905200  1.0  2.1887
  Sm  Sm7  1  0.457400  0.289300  0.754200  1.0  2.1979
  Sm  Sm8  1  0.460300  0.791900  0.594800  1.0  2.1892
  C  C9  1  0.700000  0.250000  0.947000  1.0  0.0197
  C  C10  1  0.619000  0.254000  0.010000  1.0  0.0235
  C  C11  1  0.714000  0.264000  0.836000  1.0  0.7303
  C  C12  1  0.502000  0.264000  0.011000  1.0  0.7638
  C  C13  1  0.492000  0.752000  0.343000  1.0  0.7534
  C  C14  1  0.526000  0.965000  0.178000  1.0  0.7361
  C  C15  1  0.509000  0.947000  0.287000  1.0  -0.0296
  C  C16  1  0.496000  0.864000  0.351000  1.0  0.0666
  C  C17  1  0.200000  0.750000  0.553000  1.0  0.0187
  C  C18  1  0.119000  0.746000  0.490000  1.0  0.0239
  C  C19  1  0.214000  0.736000  0.664000  1.0  0.7316
  C  C20  1  0.002000  0.736000  0.489000  1.0  0.7644
  C  C21  1  0.992000  0.248000  0.157000  1.0  0.7529
  C  C22  1  0.026000  0.035000  0.322000  1.0  0.7382
  C  C23  1  0.009000  0.053000  0.213000  1.0  -0.03
  C  C24  1  0.996000  0.136000  0.149000  1.0  0.0662
  C  C25  1  0.800000  0.750000  0.053000  1.0  0.0189
  C  C26  1  0.881000  0.754000  0.990000  1.0  0.0232
  C  C27  1  0.786000  0.764000  0.164000  1.0  0.7315
  C  C28  1  0.998000  0.764000  0.989000  1.0  0.7645
  C  C29  1  0.008000  0.252000  0.657000  1.0  0.7531
  C  C30  1  0.974000  0.465000  0.822000  1.0  0.7387
  C  C31  1  0.991000  0.447000  0.713000  1.0  -0.0304
  C  C32  1  0.004000  0.364000  0.649000  1.0  0.0664
  C  C33  1  0.300000  0.250000  0.447000  1.0  0.0195
  C  C34  1  0.381000  0.246000  0.510000  1.0  0.0234
  C  C35  1  0.286000  0.236000  0.336000  1.0  0.7304
  C  C36  1  0.498000  0.236000  0.511000  1.0  0.7642
  C  C37  1  0.508000  0.748000  0.843000  1.0  0.7531
  C  C38  1  0.474000  0.535000  0.678000  1.0  0.7368
  C  C39  1  0.491000  0.553000  0.787000  1.0  -0.0298
  C  C40  1  0.504000  0.636000  0.851000  1.0  0.0657
  N  N41  1  0.793000  0.231000  0.997000  1.0  -0.4306
  N  N42  1  0.765000  0.228000  0.098000  1.0  0.0189
  N  N43  1  0.663000  0.241000  0.107000  1.0  -0.4918
  N  N44  1  0.508000  0.038000  0.345000  1.0  -0.3871
  N  N45  1  0.494000  0.014000  0.439000  1.0  0.0035
  N  N46  1  0.491000  0.909000  0.441000  1.0  -0.388
  N  N47  1  0.293000  0.769000  0.503000  1.0  -0.4304
  N  N48  1  0.265000  0.772000  0.402000  1.0  0.0202
  N  N49  1  0.163000  0.759000  0.393000  1.0  -0.4943
  N  N50  1  0.008000  0.962000  0.155000  1.0  -0.3888
  N  N51  1  0.994000  0.986000  0.061000  1.0  0.0002
  N  N52  1  0.991000  0.091000  0.059000  1.0  -0.4216
  N  N53  1  0.707000  0.731000  0.003000  1.0  -0.4296
  N  N54  1  0.735000  0.728000  0.902000  1.0  0.0187
  N  N55  1  0.837000  0.741000  0.893000  1.0  -0.4946
  N  N56  1  0.992000  0.538000  0.655000  1.0  -0.3889
  N  N57  1  0.006000  0.514000  0.561000  1.0  0.0023
  N  N58  1  0.009000  0.409000  0.559000  1.0  -0.4314
  N  N59  1  0.207000  0.269000  0.497000  1.0  -0.4301
  N  N60  1  0.235000  0.272000  0.598000  1.0  0.0158
  N  N61  1  0.337000  0.259000  0.607000  1.0  -0.4934
  N  N62  1  0.492000  0.462000  0.845000  1.0  -0.3914
  N  N63  1  0.506000  0.486000  0.939000  1.0  0.0045
  N  N64  1  0.509000  0.591000  0.941000  1.0  -0.3912
  O  O65  1  0.804000  0.243000  0.800000  1.0  -0.6871
  O  O66  1  0.637000  0.290000  0.785000  1.0  -0.7202
  O  O67  1  0.459000  0.267000  0.095000  1.0  -0.6714
  O  O68  1  0.453000  0.255000  0.928000  1.0  -0.8157
  O  O69  1  0.532000  0.057000  0.147000  1.0  -0.6506
  O  O70  1  0.527000  0.886000  0.121000  1.0  -0.7339
  O  O71  1  0.492000  0.704000  0.431000  1.0  -0.6984
  O  O72  1  0.486000  0.706000  0.262000  1.0  -0.7717
  O  O73  1  0.304000  0.757000  0.700000  1.0  -0.6895
  O  O74  1  0.137000  0.710000  0.715000  1.0  -0.72
  O  O75  1  0.959000  0.733000  0.405000  1.0  -0.6715
  O  O76  1  0.953000  0.745000  0.572000  1.0  -0.8161
  O  O77  1  0.032000  0.943000  0.353000  1.0  -0.6506
  O  O78  1  0.027000  0.114000  0.379000  1.0  -0.7357
  O  O79  1  0.992000  0.296000  0.069000  1.0  -0.7018
  O  O80  1  0.986000  0.294000  0.238000  1.0  -0.773
  O  O81  1  0.696000  0.743000  0.200000  1.0  -0.6881
  O  O82  1  0.863000  0.790000  0.215000  1.0  -0.7197
  O  O83  1  0.041000  0.767000  0.905000  1.0  -0.6706
  O  O84  1  0.047000  0.755000  0.072000  1.0  -0.8172
  O  O85  1  0.968000  0.557000  0.853000  1.0  -0.6492
  O  O86  1  0.973000  0.386000  0.879000  1.0  -0.7353
  O  O87  1  0.008000  0.204000  0.569000  1.0  -0.7002
  O  O88  1  0.014000  0.206000  0.738000  1.0  -0.77
  O  O89  1  0.196000  0.257000  0.300000  1.0  -0.6883
  O  O90  1  0.363000  0.210000  0.285000  1.0  -0.719
  O  O91  1  0.541000  0.233000  0.595000  1.0  -0.6729
  O  O92  1  0.547000  0.245000  0.428000  1.0  -0.8166
  O  O93  1  0.468000  0.443000  0.647000  1.0  -0.6514
  O  O94  1  0.473000  0.614000  0.621000  1.0  -0.7338
  O  O95  1  0.508000  0.796000  0.931000  1.0  -0.6998
  O  O96  1  0.514000  0.794000  0.762000  1.0  -0.7712
