# generated using pymatgen
data_CdNiH16(C5N3)2
_symmetry_space_group_name_H-M   'P 1'
_cell_length_a   9.54000000
_cell_length_b   7.61100000
_cell_length_c   7.12000000
_cell_angle_alpha   90.00000000
_cell_angle_beta   100.95000000
_cell_angle_gamma   90.00000000
_symmetry_Int_Tables_number   1
_chemical_formula_structural   CdNiH16(C5N3)2
_chemical_formula_sum   'Cd1 Ni1 H16 C10 N6'
_cell_volume   507.56324351
_cell_formula_units_Z   1
loop_
 _symmetry_equiv_pos_site_id
 _symmetry_equiv_pos_as_xyz
  1  'x, y, z'
loop_
 _atom_site_type_symbol
 _atom_site_label
 _atom_site_symmetry_multiplicity
 _atom_site_fract_x
 _atom_site_fract_y
 _atom_site_fract_z
 _atom_site_occupancy
 _atom_site_charge
  Cd  Cd1  1  0.000000  0.000000  0.000000  1.0  0.9611
  Ni  Ni2  1  0.000000  0.500000  0.500000  1.0  0.2417
  H  H3  1  0.287000  0.080000  0.022000  1.0  0.1686
  H  H4  1  0.200000  0.101000  0.677000  1.0  0.1012
  H  H5  1  0.474000  0.106000  0.808000  1.0  0.072
  H  H6  1  0.363000  0.106000  0.431000  1.0  0.0845
  H  H7  1  0.713000  0.080000  0.978000  1.0  0.1685
  H  H8  1  0.800000  0.101000  0.323000  1.0  0.1012
  H  H9  1  0.526000  0.106000  0.192000  1.0  0.0731
  H  H10  1  0.637000  0.106000  0.569000  1.0  0.0839
  H  H11  1  0.713000  0.920000  0.978000  1.0  0.1681
  H  H12  1  0.800000  0.899000  0.323000  1.0  0.1029
  H  H13  1  0.526000  0.894000  0.192000  1.0  0.0716
  H  H14  1  0.637000  0.894000  0.569000  1.0  0.0849
  H  H15  1  0.287000  0.920000  0.022000  1.0  0.1679
  H  H16  1  0.200000  0.899000  0.677000  1.0  0.1017
  H  H17  1  0.474000  0.894000  0.808000  1.0  0.0719
  H  H18  1  0.363000  0.894000  0.431000  1.0  0.0841
  C  C19  1  0.040500  0.327300  0.334000  1.0  0.0998
  C  C20  1  0.959500  0.327300  0.666000  1.0  0.0995
  C  C21  1  0.959500  0.672700  0.666000  1.0  0.0997
  C  C22  1  0.040500  0.672700  0.334000  1.0  0.0996
  C  C23  1  0.252200  0.000000  0.741900  1.0  0.019
  C  C24  1  0.406600  0.000000  0.721000  1.0  -0.0146
  C  C25  1  0.422700  0.000000  0.511200  1.0  -0.1658
  C  C26  1  0.747800  0.000000  0.258100  1.0  0.0201
  C  C27  1  0.593400  0.000000  0.279000  1.0  -0.0142
  C  C28  1  0.577300  0.000000  0.488800  1.0  -0.1665
  N  N29  1  0.062200  0.220900  0.230200  1.0  -0.4508
  N  N30  1  0.937800  0.220900  0.769800  1.0  -0.4519
  N  N31  1  0.937800  0.779100  0.769800  1.0  -0.4508
  N  N32  1  0.062200  0.779100  0.230200  1.0  -0.4499
  N  N33  1  0.229700  0.000000  0.940200  1.0  -0.5933
  N  N34  1  0.770300  0.000000  0.059800  1.0  -0.5886
